# generated using pymatgen
data_Zr2Mn12GaSn11
_symmetry_space_group_name_H-M   'P 1'
_cell_length_a   5.37239211
_cell_length_b   5.37446589
_cell_length_c   17.85823441
_cell_angle_alpha   90.00000000
_cell_angle_beta   90.00000000
_cell_angle_gamma   60.15839803
_symmetry_Int_Tables_number   1
_chemical_formula_structural   Zr2Mn12GaSn11
_chemical_formula_sum   'Zr2 Mn12 Ga1 Sn11'
_cell_volume   447.26317426
_cell_formula_units_Z   1
loop_
 _symmetry_equiv_pos_site_id
 _symmetry_equiv_pos_as_xyz
  1  'x, y, z'
loop_
 _atom_site_type_symbol
 _atom_site_label
 _atom_site_symmetry_multiplicity
 _atom_site_fract_x
 _atom_site_fract_y
 _atom_site_fract_z
 _atom_site_occupancy
  Zr  Zr0  1  0.99982905  0.00018875  0.25000000  1
  Zr  Zr1  1  -0.00010212  0.00005489  0.75000000  1
  Mn  Mn2  1  0.50394356  0.99207400  0.12976006  1
  Mn  Mn3  1  0.49988182  0.00000757  0.62549143  1
  Mn  Mn4  1  0.99202992  0.50382298  0.12975575  1
  Mn  Mn5  1  0.00001873  0.50007103  0.62547375  1
  Mn  Mn6  1  0.50400961  0.50383067  0.12976757  1
  Mn  Mn7  1  0.49989961  0.50022636  0.62548921  1
  Mn  Mn8  1  0.50394356  0.99207400  0.37023994  1
  Mn  Mn9  1  0.49988182  0.00000757  0.87450857  1
  Mn  Mn10  1  0.99202992  0.50382298  0.37024425  1
  Mn  Mn11  1  0.00001873  0.50007103  0.87452625  1
  Mn  Mn12  1  0.50400961  0.50383067  0.37023243  1
  Mn  Mn13  1  0.49989961  0.50022636  0.87451079  1
  Ga  Ga14  1  0.66650276  0.66639176  0.25000000  1
  Sn  Sn15  1  0.00008947  0.99993121  0.08631447  1
  Sn  Sn16  1  0.00019017  -0.00015693  0.58478341  1
  Sn  Sn17  1  0.00008947  0.99993121  0.41368553  1
  Sn  Sn18  1  0.00019017  -0.00015693  0.91521659  1
  Sn  Sn19  1  0.66644858  0.66669298  0.00145475  1
  Sn  Sn20  1  0.66644858  0.66669298  0.49854525  1
  Sn  Sn21  1  0.33347505  0.33334012  0.00294841  1
  Sn  Sn22  1  0.33347505  0.33334012  0.49705159  1
  Sn  Sn23  1  0.66624375  0.66705938  0.75000000  1
  Sn  Sn24  1  0.33341860  0.33366165  0.25000000  1
  Sn  Sn25  1  0.33373493  0.33296359  0.75000000  1
