# generated using pymatgen
data_TlIn5S8
_symmetry_space_group_name_H-M   'P 1'
_cell_length_a   3.90889064
_cell_length_b   9.35323860
_cell_length_c   9.89305172
_cell_angle_alpha   102.41360602
_cell_angle_beta   78.60584286
_cell_angle_gamma   90.00000000
_symmetry_Int_Tables_number   1
_chemical_formula_structural   TlIn5S8
_chemical_formula_sum   'Tl1 In5 S8'
_cell_volume   345.93892777
_cell_formula_units_Z   1
loop_
 _symmetry_equiv_pos_site_id
 _symmetry_equiv_pos_as_xyz
  1  'x, y, z'
loop_
 _atom_site_type_symbol
 _atom_site_label
 _atom_site_symmetry_multiplicity
 _atom_site_fract_x
 _atom_site_fract_y
 _atom_site_fract_z
 _atom_site_occupancy
  Tl  Tl0  1  0.46987324  0.48009860  0.06025351  1
  In  In1  1  0.71113708  0.66262617  0.57772583  1
  In  In2  1  0.28634948  0.33627773  0.42730104  1
  In  In3  1  0.35433400  0.91068277  0.29133201  1
  In  In4  1  0.64523224  0.08998511  0.70953552  1
  In  In5  1  0.00065055  0.99939252  0.99869891  1
  S  S6  1  0.23728971  0.84761985  0.52542058  1
  S  S7  1  0.76291104  0.15231856  0.47417791  1
  S  S8  1  0.58479684  0.87438988  0.83040631  1
  S  S9  1  0.41534440  0.12649553  0.16931120  1
  S  S10  1  0.16731343  0.52173085  0.66537315  1
  S  S11  1  0.83505515  0.47784485  0.32988971  1
  S  S12  1  0.92926895  0.78586434  0.14146210  1
  S  S13  1  0.07046389  0.21456325  0.85907222  1
