# generated using pymatgen
data_Sr4BrN2Cl
_symmetry_space_group_name_H-M   'P 1'
_cell_length_a   3.93820995
_cell_length_b   7.61064944
_cell_length_c   6.81993781
_cell_angle_alpha   72.61090470
_cell_angle_beta   90.00000406
_cell_angle_gamma   90.00000213
_symmetry_Int_Tables_number   1
_chemical_formula_structural   Sr4BrN2Cl
_chemical_formula_sum   'Sr4 Br1 N2 Cl1'
_cell_volume   195.06738368
_cell_formula_units_Z   1
loop_
 _symmetry_equiv_pos_site_id
 _symmetry_equiv_pos_as_xyz
  1  'x, y, z'
loop_
 _atom_site_type_symbol
 _atom_site_label
 _atom_site_symmetry_multiplicity
 _atom_site_fract_x
 _atom_site_fract_y
 _atom_site_fract_z
 _atom_site_occupancy
  Sr  Sr0  1  0.50000000  0.31374030  0.73078967  1
  Sr  Sr1  1  1.00000000  0.31566615  0.22608690  1
  Sr  Sr2  1  0.50000000  0.68625970  0.26921033  1
  Sr  Sr3  1  0.00000000  0.68433385  0.77391310  1
  Br  Br4  1  0.50000000  0.00000000  0.50000000  1
  N  N5  1  -0.00000000  0.50000000  0.50000000  1
  N  N6  1  0.50000000  0.50000000  -0.00000000  1
  Cl  Cl7  1  -0.00000000  0.00000000  -0.00000000  1
