# generated using pymatgen
data_SrCa5Mn4(GaO8)2
_symmetry_space_group_name_H-M   'P 1'
_cell_length_a   5.45406845
_cell_length_b   5.63247165
_cell_length_c   11.12895017
_cell_angle_alpha   90.00000000
_cell_angle_beta   90.00000000
_cell_angle_gamma   89.94893833
_symmetry_Int_Tables_number   1
_chemical_formula_structural   SrCa5Mn4(GaO8)2
_chemical_formula_sum   'Sr1 Ca5 Mn4 Ga2 O16'
_cell_volume   341.87994400
_cell_formula_units_Z   1
loop_
 _symmetry_equiv_pos_site_id
 _symmetry_equiv_pos_as_xyz
  1  'x, y, z'
loop_
 _atom_site_type_symbol
 _atom_site_label
 _atom_site_symmetry_multiplicity
 _atom_site_fract_x
 _atom_site_fract_y
 _atom_site_fract_z
 _atom_site_occupancy
  Sr  Sr0  1  0.50715386  0.24587131  0.50000000  1
  Ca  Ca1  1  0.02451104  0.77917362  0.19131890  1
  Ca  Ca2  1  0.02451104  0.77917362  0.80868110  1
  Ca  Ca3  1  0.52661950  0.21911425  0.81057391  1
  Ca  Ca4  1  0.52661950  0.21911425  0.18942609  1
  Ca  Ca5  1  0.99751797  0.76319544  0.50000000  1
  Mn  Mn6  1  0.51126693  0.74318484  0.32804060  1
  Mn  Mn7  1  0.51126693  0.74318484  0.67195940  1
  Mn  Mn8  1  0.01225139  0.25725474  0.67184284  1
  Mn  Mn9  1  0.01225139  0.25725474  0.32815716  1
  Ga  Ga10  1  0.57159886  0.67486232  0.00000000  1
  Ga  Ga11  1  0.07211396  0.32602738  0.00000000  1
  O  O12  1  0.92125265  0.63032790  0.00000000  1
  O  O13  1  0.42192967  0.37002155  0.00000000  1
  O  O14  1  0.76242646  0.99902501  0.34422423  1
  O  O15  1  0.76242646  0.99902501  0.65577577  1
  O  O16  1  0.25293655  0.99156679  0.65285165  1
  O  O17  1  0.25293655  0.99156679  0.34714835  1
  O  O18  1  0.48988233  0.82138175  0.14299613  1
  O  O19  1  0.48988233  0.82138175  0.85700387  1
  O  O20  1  0.99175888  0.17867703  0.85693456  1
  O  O21  1  0.99175888  0.17867703  0.14306544  1
  O  O22  1  0.52236656  0.68870888  0.50000000  1
  O  O23  1  0.01024772  0.33218983  0.50000000  1
  O  O24  1  0.76584150  0.50504696  0.29822087  1
  O  O25  1  0.76584150  0.50504696  0.70177913  1
  O  O26  1  0.26871479  0.48997272  0.70124326  1
  O  O27  1  0.26871479  0.48997272  0.29875674  1
