# generated using pymatgen
data_Sr4Se3S
_symmetry_space_group_name_H-M   'P 1'
_cell_length_a   4.41488913
_cell_length_b   4.41488913
_cell_length_c   14.65176240
_cell_angle_alpha   90.00000000
_cell_angle_beta   81.33478381
_cell_angle_gamma   120.00000000
_symmetry_Int_Tables_number   1
_chemical_formula_structural   Sr4Se3S
_chemical_formula_sum   'Sr4 Se3 S1'
_cell_volume   243.54917876
_cell_formula_units_Z   1
loop_
 _symmetry_equiv_pos_site_id
 _symmetry_equiv_pos_as_xyz
  1  'x, y, z'
loop_
 _atom_site_type_symbol
 _atom_site_label
 _atom_site_symmetry_multiplicity
 _atom_site_fract_x
 _atom_site_fract_y
 _atom_site_fract_z
 _atom_site_occupancy
  Sr  Sr0  1  0.00137931  0.50068965  0.49793104  1
  Sr  Sr1  1  0.49862069  0.74931035  0.75206896  1
  Sr  Sr2  1  0.99574350  0.99787175  0.00638475  1
  Sr  Sr3  1  0.50425650  0.25212825  0.24361525  1
  Se  Se4  1  0.75290481  0.87645241  0.37064278  1
  Se  Se5  1  0.25000000  0.12500000  0.62500000  1
  Se  Se6  1  0.74709519  0.37354759  0.87935722  1
  S  S7  1  0.25000000  0.62500000  0.12500000  1
