# generated using pymatgen
data_Sr2Nd2TlNi2O9
_symmetry_space_group_name_H-M   'P 1'
_cell_length_a   3.82846032
_cell_length_b   3.82846032
_cell_length_c   15.19873908
_cell_angle_alpha   82.70939717
_cell_angle_beta   82.70939717
_cell_angle_gamma   89.56543249
_symmetry_Int_Tables_number   1
_chemical_formula_structural   Sr2Nd2TlNi2O9
_chemical_formula_sum   'Sr2 Nd2 Tl1 Ni2 O9'
_cell_volume   219.17384645
_cell_formula_units_Z   1
loop_
 _symmetry_equiv_pos_site_id
 _symmetry_equiv_pos_as_xyz
  1  'x, y, z'
loop_
 _atom_site_type_symbol
 _atom_site_label
 _atom_site_symmetry_multiplicity
 _atom_site_fract_x
 _atom_site_fract_y
 _atom_site_fract_z
 _atom_site_occupancy
  Sr  Sr0  1  0.59306057  0.59306057  0.83102896  1
  Sr  Sr1  1  0.42408953  0.42408953  0.16897104  1
  Nd  Nd2  1  0.70447808  0.70447808  0.59482589  1
  Nd  Nd3  1  0.29930396  0.29930396  0.40517411  1
  Tl  Tl4  1  0.04365815  0.04365815  0.00000000  1
  Ni  Ni5  1  0.14950543  0.14950543  0.70653618  1
  Ni  Ni6  1  0.85604161  0.85604161  0.29346382  1
  O  O7  1  0.06967204  0.06967204  0.85854844  1
  O  O8  1  0.92822049  0.92822049  0.14145156  1
  O  O9  1  0.15201769  0.65173639  0.70154662  1
  O  O10  1  0.65173639  0.15201769  0.70154662  1
  O  O11  1  0.85356431  0.35328301  0.29845338  1
  O  O12  1  0.35328301  0.85356431  0.29845338  1
  O  O13  1  0.22055659  0.22055659  0.56129228  1
  O  O14  1  0.78184887  0.78184887  0.43870772  1
  O  O15  1  0.47296327  0.47296327  0.00000000  1
