# generated using pymatgen
data_SrNdCrO4
_symmetry_space_group_name_H-M   'P 1'
_cell_length_a   3.90556713
_cell_length_b   3.90556713
_cell_length_c   6.77525961
_cell_angle_alpha   73.24841477
_cell_angle_beta   73.24841477
_cell_angle_gamma   90.00000000
_symmetry_Int_Tables_number   1
_chemical_formula_structural   SrNdCrO4
_chemical_formula_sum   'Sr1 Nd1 Cr1 O4'
_cell_volume   94.37120401
_cell_formula_units_Z   1
loop_
 _symmetry_equiv_pos_site_id
 _symmetry_equiv_pos_as_xyz
  1  'x, y, z'
loop_
 _atom_site_type_symbol
 _atom_site_label
 _atom_site_symmetry_multiplicity
 _atom_site_fract_x
 _atom_site_fract_y
 _atom_site_fract_z
 _atom_site_occupancy
  Sr  Sr0  1  0.35631800  0.35631800  0.28736401  1
  Nd  Nd1  1  0.63879858  0.63879858  0.72240284  1
  Cr  Cr2  1  0.99675283  0.99675283  0.00649433  1
  O  O3  1  0.00846796  0.50846796  0.98306408  1
  O  O4  1  0.50846796  0.00846796  0.98306408  1
  O  O5  1  0.16335784  0.16335784  0.67328432  1
  O  O6  1  0.82783683  0.82783683  0.34432634  1
