# generated using pymatgen
data_Sr3TiRuO7
_symmetry_space_group_name_H-M   'P 1'
_cell_length_a   3.94744658
_cell_length_b   3.94744658
_cell_length_c   10.67968200
_cell_angle_alpha   79.34988334
_cell_angle_beta   79.34988334
_cell_angle_gamma   90.00000000
_symmetry_Int_Tables_number   1
_chemical_formula_structural   Sr3TiRuO7
_chemical_formula_sum   'Sr3 Ti1 Ru1 O7'
_cell_volume   160.62994204
_cell_formula_units_Z   1
loop_
 _symmetry_equiv_pos_site_id
 _symmetry_equiv_pos_as_xyz
  1  'x, y, z'
loop_
 _atom_site_type_symbol
 _atom_site_label
 _atom_site_symmetry_multiplicity
 _atom_site_fract_x
 _atom_site_fract_y
 _atom_site_fract_z
 _atom_site_occupancy
  Sr  Sr0  1  0.49833905  0.49833905  0.00332191  1
  Sr  Sr1  1  0.31613933  0.31613933  0.36772134  1
  Sr  Sr2  1  0.68543416  0.68543416  0.62913168  1
  Ti  Ti3  1  0.90184557  0.90184557  0.19630886  1
  Ru  Ru4  1  0.09734137  0.09734137  0.80531725  1
  O  O5  1  0.19696490  0.19696490  0.60607020  1
  O  O6  1  0.80666508  0.80666508  0.38666985  1
  O  O7  1  0.99822029  0.99822029  0.00355942  1
  O  O8  1  0.59627312  0.09627312  0.80745377  1
  O  O9  1  0.09627312  0.59627312  0.80745377  1
  O  O10  1  0.40325201  0.90325201  0.19349598  1
  O  O11  1  0.90325201  0.40325201  0.19349598  1
