# generated using pymatgen
data_SrCa3Mg4(SiO3)8
_symmetry_space_group_name_H-M   'P 1'
_cell_length_a   5.32390959
_cell_length_b   9.87785444
_cell_length_c   9.09073765
_cell_angle_alpha   90.00000000
_cell_angle_beta   90.00000000
_cell_angle_gamma   105.42871628
_symmetry_Int_Tables_number   1
_chemical_formula_structural   SrCa3Mg4(SiO3)8
_chemical_formula_sum   'Sr1 Ca3 Mg4 Si8 O24'
_cell_volume   460.84238648
_cell_formula_units_Z   1
loop_
 _symmetry_equiv_pos_site_id
 _symmetry_equiv_pos_as_xyz
  1  'x, y, z'
loop_
 _atom_site_type_symbol
 _atom_site_label
 _atom_site_symmetry_multiplicity
 _atom_site_fract_x
 _atom_site_fract_y
 _atom_site_fract_z
 _atom_site_occupancy
  Sr  Sr0  1  0.25000000  0.50000000  0.80614642  1
  Ca  Ca1  1  0.75000000  0.00000000  0.29965667  1
  Ca  Ca2  1  0.75000000  0.50000000  0.20116793  1
  Ca  Ca3  1  0.25000000  0.00000000  0.70015870  1
  Mg  Mg4  1  0.25000000  0.50000000  0.40646808  1
  Mg  Mg5  1  0.75000000  0.00000000  0.90689181  1
  Mg  Mg6  1  0.75000000  0.50000000  0.59004865  1
  Mg  Mg7  1  0.25000000  0.00000000  0.09339032  1
  Si  Si8  1  0.44198867  0.71530443  0.09467974  1
  Si  Si9  1  0.94065491  0.21320886  0.59160166  1
  Si  Si10  1  0.05801133  0.28469557  0.09467974  1
  Si  Si11  1  0.55934509  0.78679114  0.59160166  1
  Si  Si12  1  0.56006801  0.28329784  0.90788453  1
  Si  Si13  1  0.05792322  0.78652460  0.40690261  1
  Si  Si14  1  0.93993199  0.71670216  0.90788453  1
  Si  Si15  1  0.44207678  0.21347540  0.40690261  1
  O  O16  1  0.45565054  0.63696648  0.24791785  1
  O  O17  1  0.95697376  0.13842204  0.74712973  1
  O  O18  1  0.04434946  0.36303352  0.24791785  1
  O  O19  1  0.54302624  0.86157796  0.74712973  1
  O  O20  1  0.55624968  0.35761087  0.75126775  1
  O  O21  1  0.04360712  0.86275389  0.25239879  1
  O  O22  1  0.94375032  0.64238913  0.75126775  1
  O  O23  1  0.45639288  0.13724611  0.25239879  1
  O  O24  1  0.52700721  0.88520659  0.08796167  1
  O  O25  1  0.02253580  0.38320070  0.58074876  1
  O  O26  1  0.97299279  0.11479341  0.08796167  1
  O  O27  1  0.47746420  0.61679930  0.58074876  1
  O  O28  1  0.47314937  0.11342218  0.91307563  1
  O  O29  1  0.97405526  0.61591102  0.41202899  1
  O  O30  1  0.02685063  0.88657782  0.91307563  1
  O  O31  1  0.52594474  0.38408898  0.41202899  1
  O  O32  1  0.14230569  0.65375140  0.01934385  1
  O  O33  1  0.64290902  0.14905533  0.51689337  1
  O  O34  1  0.35769431  0.34624860  0.01934385  1
  O  O35  1  0.85709098  0.85094467  0.51689337  1
  O  O36  1  0.85501253  0.34811353  0.98560985  1
  O  O37  1  0.35539254  0.85000881  0.48259093  1
  O  O38  1  0.64498747  0.65188647  0.98560985  1
  O  O39  1  0.14460746  0.14999119  0.48259093  1
