# generated using pymatgen
data_Sr4Mn2CuO9
_symmetry_space_group_name_H-M   'P 1'
_cell_length_a   7.94384795
_cell_length_b   9.70568910
_cell_length_c   9.70883497
_cell_angle_alpha   119.58510815
_cell_angle_beta   89.98148276
_cell_angle_gamma   90.17542242
_symmetry_Int_Tables_number   1
_chemical_formula_structural   Sr4Mn2CuO9
_chemical_formula_sum   'Sr12 Mn6 Cu3 O27'
_cell_volume   650.95824898
_cell_formula_units_Z   3
loop_
 _symmetry_equiv_pos_site_id
 _symmetry_equiv_pos_as_xyz
  1  'x, y, z'
loop_
 _atom_site_type_symbol
 _atom_site_label
 _atom_site_symmetry_multiplicity
 _atom_site_fract_x
 _atom_site_fract_y
 _atom_site_fract_z
 _atom_site_occupancy
  Sr  Sr0  1  0.49960100  0.64060995  0.63950442  1
  Sr  Sr1  1  0.50363841  0.34498450  0.99315401  1
  Sr  Sr2  1  0.49569216  0.99405859  0.35963952  1
  Sr  Sr3  1  0.24190378  0.65769826  0.96866623  1
  Sr  Sr4  1  0.25076889  0.01600232  0.68412566  1
  Sr  Sr5  1  0.25053070  0.30500134  0.33079828  1
  Sr  Sr6  1  0.75077234  0.33421935  0.30354613  1
  Sr  Sr7  1  0.75378493  0.67558307  0.01409560  1
  Sr  Sr8  1  0.75392738  0.97260815  0.66648716  1
  Sr  Sr9  1  0.99976028  0.67199592  0.67292362  1
  Sr  Sr10  1  0.99814765  0.32016072  0.99362822  1
  Sr  Sr11  1  0.00353409  0.99266213  0.32649175  1
  Mn  Mn12  1  0.16397667  0.00521170  0.00184858  1
  Mn  Mn13  1  0.83613082  0.00307015  0.00103040  1
  Mn  Mn14  1  0.07411389  0.33616075  0.66655430  1
  Mn  Mn15  1  0.92553848  0.67103585  0.34032211  1
  Mn  Mn16  1  0.40759047  0.33806190  0.66850061  1
  Mn  Mn17  1  0.59334402  0.67009775  0.33845627  1
  Cu  Cu18  1  0.74151476  0.27167109  0.60654388  1
  Cu  Cu19  1  0.25787849  0.60681851  0.27200170  1
  Cu  Cu20  1  0.49964741  0.93665767  0.99975364  1
  O  O21  1  0.99905526  0.14832010  0.15770744  1
  O  O22  1  0.99854487  0.84859451  0.00366654  1
  O  O23  1  0.00221053  0.99451110  0.84736913  1
  O  O24  1  0.27592124  0.17936454  0.00851320  1
  O  O25  1  0.30869784  0.99392902  0.15449607  1
  O  O26  1  0.30847396  0.84801535  0.84162881  1
  O  O27  1  0.69311056  0.83874362  0.84615778  1
  O  O28  1  0.72590037  0.16947663  0.99117709  1
  O  O29  1  0.68735243  0.00452960  0.15810773  1
  O  O30  1  0.24215101  0.16707513  0.51356785  1
  O  O31  1  0.24213504  0.47708136  0.64130548  1
  O  O32  1  0.24249594  0.33986957  0.82027781  1
  O  O33  1  0.75795294  0.82596888  0.34200229  1
  O  O34  1  0.75853539  0.64503487  0.47957889  1
  O  O35  1  0.75617782  0.51996625  0.17203593  1
  O  O36  1  0.06730084  0.50699152  0.32487642  1
  O  O37  1  0.07015948  0.68236107  0.19138303  1
  O  O38  1  0.03633787  0.83039251  0.51271848  1
  O  O39  1  0.96578679  0.50937815  0.82616102  1
  O  O40  1  0.93087301  0.18747570  0.67752951  1
  O  O41  1  0.93139771  0.32088735  0.50317915  1
  O  O42  1  0.45124745  0.50058009  0.31963789  1
  O  O43  1  0.44681284  0.68325378  0.18931278  1
  O  O44  1  0.47887659  0.82985067  0.51590799  1
  O  O45  1  0.52100251  0.51442281  0.82874898  1
  O  O46  1  0.55043233  0.18735925  0.68217228  1
  O  O47  1  0.54926076  0.31919687  0.49970831  1
