# generated using pymatgen
data_SmZnCuAs2
_symmetry_space_group_name_H-M   'P 1'
_cell_length_a   4.15743353
_cell_length_b   4.15743424
_cell_length_c   6.79301956
_cell_angle_alpha   89.99937275
_cell_angle_beta   89.99967348
_cell_angle_gamma   60.00040323
_symmetry_Int_Tables_number   1
_chemical_formula_structural   SmZnCuAs2
_chemical_formula_sum   'Sm1 Zn1 Cu1 As2'
_cell_volume   101.68244118
_cell_formula_units_Z   1
loop_
 _symmetry_equiv_pos_site_id
 _symmetry_equiv_pos_as_xyz
  1  'x, y, z'
loop_
 _atom_site_type_symbol
 _atom_site_label
 _atom_site_symmetry_multiplicity
 _atom_site_fract_x
 _atom_site_fract_y
 _atom_site_fract_z
 _atom_site_occupancy
  Sm  Sm0  1  0.99999463  0.99999272  0.98412794  1
  Zn  Zn1  1  0.33332657  0.33332570  0.37418225  1
  Cu  Cu2  1  0.66668371  0.66668536  0.64127856  1
  As  As3  1  0.66666279  0.66666366  0.25729636  1
  As  As4  1  0.33333229  0.33333256  0.74311489  1
