# generated using pymatgen
data_SmYFe6
_symmetry_space_group_name_H-M   'P 1'
_cell_length_a   5.15430473
_cell_length_b   5.15430466
_cell_length_c   16.68987343
_cell_angle_alpha   81.11718054
_cell_angle_beta   89.99999909
_cell_angle_gamma   119.99999958
_symmetry_Int_Tables_number   1
_chemical_formula_structural   SmYFe6
_chemical_formula_sum   'Sm3 Y3 Fe18'
_cell_volume   377.84029164
_cell_formula_units_Z   3
loop_
 _symmetry_equiv_pos_site_id
 _symmetry_equiv_pos_as_xyz
  1  'x, y, z'
loop_
 _atom_site_type_symbol
 _atom_site_label
 _atom_site_symmetry_multiplicity
 _atom_site_fract_x
 _atom_site_fract_y
 _atom_site_fract_z
 _atom_site_occupancy
  Sm  Sm0  1  0.57096047  0.14192093  0.28711860  1
  Sm  Sm1  1  0.07105196  0.14210392  0.78684412  1
  Sm  Sm2  1  0.92897671  0.85795342  0.21306988  1
  Y  Y3  1  0.42906522  0.85813044  0.71280434  1
  Y  Y4  1  0.00007424  0.00014848  0.99977728  1
  Y  Y5  1  0.49975434  0.99950868  0.50073697  1
  Fe  Fe6  1  0.04063672  0.57912450  0.38023878  1
  Fe  Fe7  1  0.54084439  0.58006943  0.87908617  1
  Fe  Fe8  1  0.53848779  0.57912450  0.38023878  1
  Fe  Fe9  1  0.03922504  0.58006943  0.87908617  1
  Fe  Fe10  1  0.04063672  0.08127343  0.38023878  1
  Fe  Fe11  1  0.54084439  0.08168878  0.87908617  1
  Fe  Fe12  1  0.45931748  0.42090170  0.11978082  1
  Fe  Fe13  1  0.95965188  0.41948804  0.62086009  1
  Fe  Fe14  1  0.96158422  0.42090170  0.11978082  1
  Fe  Fe15  1  0.45983616  0.41948804  0.62086009  1
  Fe  Fe16  1  0.45931748  0.91863496  0.11978082  1
  Fe  Fe17  1  0.95965188  0.91930375  0.62086009  1
  Fe  Fe18  1  0.66639840  0.33279681  0.00080479  1
  Fe  Fe19  1  0.16613544  0.33227089  0.50159367  1
  Fe  Fe20  1  0.83354945  0.66709891  0.49935164  1
  Fe  Fe21  1  0.33386990  0.66773979  0.99839031  1
  Fe  Fe22  1  0.24996974  0.49993948  0.25009078  1
  Fe  Fe23  1  0.75015998  0.50031997  0.74952005  1
