# generated using pymatgen
data_Sb4Se3SI4
_symmetry_space_group_name_H-M   'P 1'
_cell_length_a   4.17717198
_cell_length_b   9.11822059
_cell_length_c   10.78211190
_cell_angle_alpha   90.08748169
_cell_angle_beta   90.00000000
_cell_angle_gamma   90.00000000
_symmetry_Int_Tables_number   1
_chemical_formula_structural   Sb4Se3SI4
_chemical_formula_sum   'Sb4 Se3 S1 I4'
_cell_volume   410.67264862
_cell_formula_units_Z   1
loop_
 _symmetry_equiv_pos_site_id
 _symmetry_equiv_pos_as_xyz
  1  'x, y, z'
loop_
 _atom_site_type_symbol
 _atom_site_label
 _atom_site_symmetry_multiplicity
 _atom_site_fract_x
 _atom_site_fract_y
 _atom_site_fract_z
 _atom_site_occupancy
  Sb  Sb0  1  0.25000000  0.60487117  0.37413228  1
  Sb  Sb1  1  0.25000000  0.10966685  0.12934655  1
  Sb  Sb2  1  0.75000000  0.39005070  0.62230893  1
  Sb  Sb3  1  0.75000000  0.89139197  0.87178698  1
  Se  Se4  1  0.25000000  0.83799293  0.04364498  1
  Se  Se5  1  0.75000000  0.66367458  0.54425221  1
  Se  Se6  1  0.75000000  0.16174988  0.95692511  1
  S  S7  1  0.25000000  0.35164322  0.46217814  1
  I  I8  1  0.25000000  0.01497185  0.67831151  1
  I  I9  1  0.25000000  0.50632208  0.81490565  1
  I  I10  1  0.75000000  0.98795276  0.32165989  1
  I  I11  1  0.75000000  0.47971200  0.18054776  1
