# generated using pymatgen
data_YHfMg30O32
_symmetry_space_group_name_H-M   'P 1'
_cell_length_a   8.64151786
_cell_length_b   8.64151786
_cell_length_c   8.69793034
_cell_angle_alpha   90.00000000
_cell_angle_beta   90.00000000
_cell_angle_gamma   90.00000000
_symmetry_Int_Tables_number   1
_chemical_formula_structural   YHfMg30O32
_chemical_formula_sum   'Y1 Hf1 Mg30 O32'
_cell_volume   649.52517546
_cell_formula_units_Z   1
loop_
 _symmetry_equiv_pos_site_id
 _symmetry_equiv_pos_as_xyz
  1  'x, y, z'
loop_
 _atom_site_type_symbol
 _atom_site_label
 _atom_site_symmetry_multiplicity
 _atom_site_fract_x
 _atom_site_fract_y
 _atom_site_fract_z
 _atom_site_occupancy
  Y  Y0  1  0.00000000  -0.00000000  0.00000000  1
  Hf  Hf1  1  0.00000000  -0.00000000  0.50000000  1
  Mg  Mg2  1  0.00000000  0.50000000  0.00000000  1
  Mg  Mg3  1  0.00000000  0.50000000  0.50000000  1
  Mg  Mg4  1  0.50000000  -0.00000000  0.00000000  1
  Mg  Mg5  1  0.50000000  -0.00000000  0.50000000  1
  Mg  Mg6  1  0.50000000  0.50000000  0.00000000  1
  Mg  Mg7  1  0.50000000  0.50000000  0.50000000  1
  Mg  Mg8  1  0.00000000  0.25789583  0.25129364  1
  Mg  Mg9  1  0.00000000  0.25789583  0.74870636  1
  Mg  Mg10  1  0.00000000  0.74210417  0.25129364  1
  Mg  Mg11  1  0.00000000  0.74210417  0.74870636  1
  Mg  Mg12  1  0.50000000  0.25089353  0.24982342  1
  Mg  Mg13  1  0.50000000  0.25089353  0.75017658  1
  Mg  Mg14  1  0.50000000  0.74910647  0.24982342  1
  Mg  Mg15  1  0.50000000  0.74910647  0.75017658  1
  Mg  Mg16  1  0.25789583  -0.00000000  0.25129364  1
  Mg  Mg17  1  0.25789583  -0.00000000  0.74870636  1
  Mg  Mg18  1  0.25089353  0.50000000  0.24982342  1
  Mg  Mg19  1  0.25089353  0.50000000  0.75017658  1
  Mg  Mg20  1  0.74210417  -0.00000000  0.25129364  1
  Mg  Mg21  1  0.74210417  -0.00000000  0.74870636  1
  Mg  Mg22  1  0.74910647  0.50000000  0.24982342  1
  Mg  Mg23  1  0.74910647  0.50000000  0.75017658  1
  Mg  Mg24  1  0.25608715  0.25608715  0.00000000  1
  Mg  Mg25  1  0.25541563  0.25541563  0.50000000  1
  Mg  Mg26  1  0.25608715  0.74391285  0.00000000  1
  Mg  Mg27  1  0.25541563  0.74458437  0.50000000  1
  Mg  Mg28  1  0.74391285  0.25608715  -0.00000000  1
  Mg  Mg29  1  0.74458437  0.25541563  0.50000000  1
  Mg  Mg30  1  0.74391285  0.74391285  -0.00000000  1
  Mg  Mg31  1  0.74458437  0.74458437  0.50000000  1
  O  O32  1  0.26220059  -0.00000000  -0.00000000  1
  O  O33  1  0.25449084  -0.00000000  0.50000000  1
  O  O34  1  0.25149724  0.50000000  0.00000000  1
  O  O35  1  0.25006675  0.50000000  0.50000000  1
  O  O36  1  0.73779941  -0.00000000  0.00000000  1
  O  O37  1  0.74550916  -0.00000000  0.50000000  1
  O  O38  1  0.74850276  0.50000000  -0.00000000  1
  O  O39  1  0.74993325  0.50000000  0.50000000  1
  O  O40  1  0.24927510  0.24927510  0.25011288  1
  O  O41  1  0.24927510  0.24927510  0.74988712  1
  O  O42  1  0.24927510  0.75072490  0.25011288  1
  O  O43  1  0.24927510  0.75072490  0.74988712  1
  O  O44  1  0.75072490  0.24927510  0.25011288  1
  O  O45  1  0.75072490  0.24927510  0.74988712  1
  O  O46  1  0.75072490  0.75072490  0.25011288  1
  O  O47  1  0.75072490  0.75072490  0.74988712  1
  O  O48  1  0.00000000  -0.00000000  0.25295244  1
  O  O49  1  0.00000000  -0.00000000  0.74704756  1
  O  O50  1  0.00000000  0.50000000  0.25154158  1
  O  O51  1  0.00000000  0.50000000  0.74845842  1
  O  O52  1  0.50000000  -0.00000000  0.25154158  1
  O  O53  1  0.50000000  -0.00000000  0.74845842  1
  O  O54  1  0.50000000  0.50000000  0.25037450  1
  O  O55  1  0.50000000  0.50000000  0.74962550  1
  O  O56  1  0.00000000  0.26220059  0.00000000  1
  O  O57  1  0.00000000  0.25449084  0.50000000  1
  O  O58  1  0.00000000  0.73779941  0.00000000  1
  O  O59  1  0.00000000  0.74550916  0.50000000  1
  O  O60  1  0.50000000  0.25149724  0.00000000  1
  O  O61  1  0.50000000  0.25006675  0.50000000  1
  O  O62  1  0.50000000  0.74850276  -0.00000000  1
  O  O63  1  0.50000000  0.74993325  0.50000000  1
