# generated using pymatgen
data_Sm2In3Cu
_symmetry_space_group_name_H-M   'P 1'
_cell_length_a   4.75247599
_cell_length_b   4.75247746
_cell_length_c   7.59013298
_cell_angle_alpha   90.00158248
_cell_angle_beta   89.99844250
_cell_angle_gamma   120.00549297
_symmetry_Int_Tables_number   1
_chemical_formula_structural   Sm2In3Cu
_chemical_formula_sum   'Sm2 In3 Cu1'
_cell_volume   148.45539076
_cell_formula_units_Z   1
loop_
 _symmetry_equiv_pos_site_id
 _symmetry_equiv_pos_as_xyz
  1  'x, y, z'
loop_
 _atom_site_type_symbol
 _atom_site_label
 _atom_site_symmetry_multiplicity
 _atom_site_fract_x
 _atom_site_fract_y
 _atom_site_fract_z
 _atom_site_occupancy
  Sm  Sm0  1  0.99998886  0.00001057  0.72417325  1
  Sm  Sm1  1  -0.00000729  0.00000715  0.26354215  1
  In  In2  1  0.66666767  0.33333247  0.48415454  1
  In  In3  1  0.66666497  0.33333489  0.05117876  1
  In  In4  1  0.33333649  0.66666345  0.93540697  1
  Cu  Cu5  1  0.33334929  0.66665147  0.54154434  1
