# generated using pymatgen
data_Sr20P12Br(O16F)3
_symmetry_space_group_name_H-M   'P 1'
_cell_length_a   7.34727129
_cell_length_b   9.92827203
_cell_length_c   17.19897181
_cell_angle_alpha   90.01392624
_cell_angle_beta   90.00004473
_cell_angle_gamma   89.99318126
_symmetry_Int_Tables_number   1
_chemical_formula_structural   Sr20P12Br(O16F)3
_chemical_formula_sum   'Sr20 P12 Br1 O48 F3'
_cell_volume   1254.59113053
_cell_formula_units_Z   1
loop_
 _symmetry_equiv_pos_site_id
 _symmetry_equiv_pos_as_xyz
  1  'x, y, z'
loop_
 _atom_site_type_symbol
 _atom_site_label
 _atom_site_symmetry_multiplicity
 _atom_site_fract_x
 _atom_site_fract_y
 _atom_site_fract_z
 _atom_site_occupancy
  Sr  Sr0  1  0.49943238  0.49802440  0.16781916  1
  Sr  Sr1  1  0.49882054  0.00204838  0.66559146  1
  Sr  Sr2  1  0.99764826  0.00569523  0.33232538  1
  Sr  Sr3  1  0.99554917  0.49541081  0.83487173  1
  Sr  Sr4  1  0.49786435  0.00093626  0.33650270  1
  Sr  Sr5  1  0.49477482  0.49894838  0.83015496  1
  Sr  Sr6  1  0.00404310  0.49938799  0.16656740  1
  Sr  Sr7  1  0.00314096  0.00083071  0.66668438  1
  Sr  Sr8  1  0.74864256  0.38324705  0.37600796  1
  Sr  Sr9  1  0.74479644  0.87416550  0.86254989  1
  Sr  Sr10  1  0.74188988  0.26549055  0.00541593  1
  Sr  Sr11  1  0.75051816  0.74691869  0.50409198  1
  Sr  Sr12  1  0.74410179  0.85884833  0.13195167  1
  Sr  Sr13  1  0.74893942  0.37055839  0.62013053  1
  Sr  Sr14  1  0.25178353  0.11820470  0.12360772  1
  Sr  Sr15  1  0.24964222  0.61649537  0.62400394  1
  Sr  Sr16  1  0.24934919  0.25276106  0.49670684  1
  Sr  Sr17  1  0.25228964  0.75804159  0.99700322  1
  Sr  Sr18  1  0.24964018  0.62844864  0.37994624  1
  Sr  Sr19  1  0.25205680  0.12576119  0.87883183  1
  P  P20  1  0.74992453  0.71256906  0.31771209  1
  P  P21  1  0.75163802  0.21704510  0.81410249  1
  P  P22  1  0.75173172  0.17003764  0.20180561  1
  P  P23  1  0.74973176  0.66738121  0.69716161  1
  P  P24  1  0.75020584  0.11583879  0.48590775  1
  P  P25  1  0.75145604  0.61686566  0.98327252  1
  P  P26  1  0.24961610  0.78234267  0.18759125  1
  P  P27  1  0.24946347  0.28650880  0.68467937  1
  P  P28  1  0.25030546  0.32940290  0.30117536  1
  P  P29  1  0.24908459  0.82804112  0.79708807  1
  P  P30  1  0.24984017  0.39018002  0.01543027  1
  P  P31  1  0.24937820  0.88392511  0.51396977  1
  Br  Br32  1  0.92034317  0.99942640  0.99997087  1
  O  O33  1  0.57919631  0.70665717  0.37096606  1
  O  O34  1  0.58777934  0.20767510  0.87155339  1
  O  O35  1  0.58841906  0.08800215  0.16821718  1
  O  O36  1  0.57861232  0.59107872  0.66767958  1
  O  O37  1  0.57840872  0.19673469  0.46095065  1
  O  O38  1  0.58982181  0.71095520  0.96096205  1
  O  O39  1  0.07653688  0.78125630  0.13538309  1
  O  O40  1  0.07741147  0.28619518  0.63182616  1
  O  O41  1  0.07741506  0.40768508  0.32755793  1
  O  O42  1  0.07667244  0.90779905  0.82257586  1
  O  O43  1  0.07550480  0.31452303  0.04252458  1
  O  O44  1  0.07852515  0.80262763  0.54000189  1
  O  O45  1  0.41986387  0.78222917  0.13333983  1
  O  O46  1  0.41954753  0.28799133  0.63064771  1
  O  O47  1  0.42043027  0.40956582  0.32882730  1
  O  O48  1  0.41916386  0.90976284  0.82421376  1
  O  O49  1  0.41819831  0.30790550  0.04378507  1
  O  O50  1  0.42123751  0.80320782  0.53922923  1
  O  O51  1  0.92114317  0.70680883  0.37054260  1
  O  O52  1  0.92981247  0.23125708  0.86192418  1
  O  O53  1  0.93045155  0.09165905  0.18498902  1
  O  O54  1  0.92070097  0.59050779  0.66809920  1
  O  O55  1  0.92089617  0.19731491  0.45983559  1
  O  O56  1  0.93129239  0.68056583  0.95402127  1
  O  O57  1  0.74853879  0.85140667  0.27434291  1
  O  O58  1  0.73198796  0.34927743  0.76507310  1
  O  O59  1  0.73177254  0.17678866  0.29244333  1
  O  O60  1  0.74855901  0.66355867  0.78827925  1
  O  O61  1  0.75023655  0.97841756  0.44162569  1
  O  O62  1  0.72884441  0.48028954  0.93806887  1
  O  O63  1  0.25202011  0.64796858  0.23466014  1
  O  O64  1  0.25282048  0.15179949  0.73220423  1
  O  O65  1  0.25298056  0.32518762  0.21000190  1
  O  O66  1  0.25185665  0.82452333  0.70645893  1
  O  O67  1  0.25507504  0.52891551  0.05807653  1
  O  O68  1  0.24981598  0.02167902  0.55836957  1
  O  O69  1  0.75001701  0.59465419  0.25771103  1
  O  O70  1  0.75417401  0.09089469  0.75993307  1
  O  O71  1  0.75403904  0.31417091  0.16578759  1
  O  O72  1  0.75009155  0.81645415  0.66819148  1
  O  O73  1  0.75267396  0.59063430  0.07261934  1
  O  O74  1  0.75138498  0.09339935  0.57573785  1
  O  O75  1  0.25209019  0.90766774  0.24180393  1
  O  O76  1  0.24801474  0.41065831  0.73987931  1
  O  O77  1  0.25044743  0.18438477  0.33574658  1
  O  O78  1  0.25068675  0.68425730  0.83262202  1
  O  O79  1  0.24776065  0.90642154  0.42441570  1
  O  O80  1  0.25273390  0.40667930  0.92558829  1
  F  F81  1  0.74974589  0.50038535  0.50004653  1
  F  F82  1  0.34722296  0.00136353  0.00010377  1
  F  F83  1  0.24972494  0.49840951  0.49992393  1
