# generated using pymatgen
data_SmAlCu4
_symmetry_space_group_name_H-M   'P 1'
_cell_length_a   3.99592476
_cell_length_b   5.27334447
_cell_length_c   5.27288584
_cell_angle_alpha   119.99440759
_cell_angle_beta   90.00000000
_cell_angle_gamma   90.00000000
_symmetry_Int_Tables_number   1
_chemical_formula_structural   SmAlCu4
_chemical_formula_sum   'Sm1 Al1 Cu4'
_cell_volume   96.22920888
_cell_formula_units_Z   1
loop_
 _symmetry_equiv_pos_site_id
 _symmetry_equiv_pos_as_xyz
  1  'x, y, z'
loop_
 _atom_site_type_symbol
 _atom_site_label
 _atom_site_symmetry_multiplicity
 _atom_site_fract_x
 _atom_site_fract_y
 _atom_site_fract_z
 _atom_site_occupancy
  Sm  Sm0  1  0.00000000  0.99996085  0.00000005  1
  Al  Al1  1  -0.00000000  0.33336202  0.66660733  1
  Cu  Cu2  1  -0.00000000  0.66667379  0.33337363  1
  Cu  Cu3  1  0.50000000  0.50119539  0.00249167  1
  Cu  Cu4  1  0.50000000  0.50122860  0.49875759  1
  Cu  Cu5  1  0.50000000  0.99747935  0.49876973  1
