# generated using pymatgen
data_RbTlP2(HO2)4
_symmetry_space_group_name_H-M   'P 1'
_cell_length_a   4.60680752
_cell_length_b   6.56866511
_cell_length_c   14.50313774
_cell_angle_alpha   91.81903901
_cell_angle_beta   90.00000000
_cell_angle_gamma   90.00000000
_symmetry_Int_Tables_number   1
_chemical_formula_structural   RbTlP2(HO2)4
_chemical_formula_sum   'Rb2 Tl2 P4 H8 O16'
_cell_volume   438.65213663
_cell_formula_units_Z   2
loop_
 _symmetry_equiv_pos_site_id
 _symmetry_equiv_pos_as_xyz
  1  'x, y, z'
loop_
 _atom_site_type_symbol
 _atom_site_label
 _atom_site_symmetry_multiplicity
 _atom_site_fract_x
 _atom_site_fract_y
 _atom_site_fract_z
 _atom_site_occupancy
  Rb  Rb0  1  0.50967174  0.73867855  0.37179250  1
  Rb  Rb1  1  0.00967174  0.26132145  0.12820750  1
  Tl  Tl2  1  0.49718021  0.26160660  0.63315726  1
  Tl  Tl3  1  0.99718021  0.73839340  0.86684274  1
  P  P4  1  0.02242500  0.75808532  0.62189151  1
  P  P5  1  0.52242500  0.24191468  0.87810849  1
  P  P6  1  0.97690634  0.24204682  0.37848698  1
  P  P7  1  0.47690634  0.75795318  0.12151302  1
  H  H8  1  0.48470084  0.75780009  0.68134964  1
  H  H9  1  0.98470084  0.24219991  0.81865036  1
  H  H10  1  0.51303055  0.24212951  0.32035371  1
  H  H11  1  0.01303055  0.75787049  0.17964629  1
  H  H12  1  0.00035237  0.00323236  0.49868626  1
  H  H13  1  0.50035237  0.99676764  0.00131374  1
  H  H14  1  0.99828734  0.49719734  0.49915179  1
  H  H15  1  0.49828734  0.50280266  0.00084821  1
  O  O16  1  0.15559042  0.60528109  0.54948270  1
  O  O17  1  0.65559042  0.39471891  0.95051730  1
  O  O18  1  0.84541245  0.39809983  0.45004327  1
  O  O19  1  0.34541245  0.60190017  0.04995673  1
  O  O20  1  0.90805396  0.95192377  0.57490105  1
  O  O21  1  0.40805396  0.04807623  0.92509895  1
  O  O22  1  0.08672821  0.04705489  0.42610838  1
  O  O23  1  0.58672821  0.95294511  0.07389162  1
  O  O24  1  0.28070288  0.82666576  0.68922540  1
  O  O25  1  0.78070288  0.17333424  0.81077460  1
  O  O26  1  0.71844488  0.17373546  0.31228221  1
  O  O27  1  0.21844488  0.82626454  0.18771779  1
  O  O28  1  0.78088391  0.66598750  0.68034500  1
  O  O29  1  0.28088391  0.33401250  0.81965500  1
  O  O30  1  0.22162890  0.33131492  0.32121038  1
  O  O31  1  0.72162890  0.66868508  0.17878962  1
