# generated using pymatgen
data_RbBi4Se7
_symmetry_space_group_name_H-M   'P 1'
_cell_length_a   4.24664719
_cell_length_b   11.90870021
_cell_length_c   16.67347424
_cell_angle_alpha   88.45407443
_cell_angle_beta   82.68366611
_cell_angle_gamma   100.27076405
_symmetry_Int_Tables_number   1
_chemical_formula_structural   RbBi4Se7
_chemical_formula_sum   'Rb2 Bi8 Se14'
_cell_volume   821.87790302
_cell_formula_units_Z   2
loop_
 _symmetry_equiv_pos_site_id
 _symmetry_equiv_pos_as_xyz
  1  'x, y, z'
loop_
 _atom_site_type_symbol
 _atom_site_label
 _atom_site_symmetry_multiplicity
 _atom_site_fract_x
 _atom_site_fract_y
 _atom_site_fract_z
 _atom_site_occupancy
  Rb  Rb0  1  0.68950137  0.22737227  0.84836953  1
  Rb  Rb1  1  0.31049863  0.77262773  0.15163047  1
  Bi  Bi2  1  0.92801458  0.29018204  0.43415288  1
  Bi  Bi3  1  0.07198542  0.70981796  0.56584712  1
  Bi  Bi4  1  0.84348076  0.61647226  0.92951073  1
  Bi  Bi5  1  0.15651924  0.38352774  0.07048927  1
  Bi  Bi6  1  0.23670968  0.08386559  0.61044622  1
  Bi  Bi7  1  0.76329032  0.91613441  0.38955378  1
  Bi  Bi8  1  0.53485524  0.83867072  0.76896024  1
  Bi  Bi9  1  0.46514476  0.16132928  0.23103976  1
  Se  Se10  1  0.96543201  0.66958053  0.73871650  1
  Se  Se11  1  0.03456799  0.33041947  0.26128350  1
  Se  Se12  1  0.26665648  0.43868898  0.90537601  1
  Se  Se13  1  0.73334352  0.56131102  0.09462399  1
  Se  Se14  1  0.81360887  0.24546922  0.61825149  1
  Se  Se15  1  0.18639113  0.75453078  0.38174851  1
  Se  Se16  1  0.12162695  0.01942417  0.77617027  1
  Se  Se17  1  0.87837305  0.98057583  0.22382973  1
  Se  Se18  1  0.42495947  0.78937732  0.93945837  1
  Se  Se19  1  0.57504053  0.21062268  0.06054163  1
  Se  Se20  1  0.65494189  0.89027075  0.58038698  1
  Se  Se21  1  0.34505811  0.10972925  0.41961302  1
  Se  Se22  1  0.51864836  0.46946113  0.43216440  1
  Se  Se23  1  0.48135164  0.53053887  0.56783560  1
