# generated using pymatgen
data_NbB4Mo3
_symmetry_space_group_name_H-M   'P 1'
_cell_length_a   3.20608246
_cell_length_b   4.58767377
_cell_length_c   6.21555121
_cell_angle_alpha   90.00000000
_cell_angle_beta   90.00000000
_cell_angle_gamma   69.54793940
_symmetry_Int_Tables_number   1
_chemical_formula_structural   NbB4Mo3
_chemical_formula_sum   'Nb1 B4 Mo3'
_cell_volume   85.65844320
_cell_formula_units_Z   1
loop_
 _symmetry_equiv_pos_site_id
 _symmetry_equiv_pos_as_xyz
  1  'x, y, z'
loop_
 _atom_site_type_symbol
 _atom_site_label
 _atom_site_symmetry_multiplicity
 _atom_site_fract_x
 _atom_site_fract_y
 _atom_site_fract_z
 _atom_site_occupancy
  Nb  Nb0  1  0.85339182  0.29321635  0.12500000  1
  B  B1  1  0.55924903  0.88150194  0.12500000  1
  B  B2  1  0.55992566  0.88014868  0.62500000  1
  B  B3  1  0.44159318  0.11681365  0.37748849  1
  B  B4  1  0.44159318  0.11681365  0.87251151  1
  Mo  Mo5  1  0.85580230  0.28839541  0.62500000  1
  Mo  Mo6  1  0.14422242  0.71155516  0.37916863  1
  Mo  Mo7  1  0.14422242  0.71155516  0.87083137  1
