# generated using pymatgen
data_Pr2MgNi9
_symmetry_space_group_name_H-M   'P 1'
_cell_length_a   4.99245932
_cell_length_b   4.99245939
_cell_length_c   8.55407859
_cell_angle_alpha   90.00000000
_cell_angle_beta   73.03320288
_cell_angle_gamma   120.00000050
_symmetry_Int_Tables_number   1
_chemical_formula_structural   Pr2MgNi9
_chemical_formula_sum   'Pr2 Mg1 Ni9'
_cell_volume   173.84480462
_cell_formula_units_Z   1
loop_
 _symmetry_equiv_pos_site_id
 _symmetry_equiv_pos_as_xyz
  1  'x, y, z'
loop_
 _atom_site_type_symbol
 _atom_site_label
 _atom_site_symmetry_multiplicity
 _atom_site_fract_x
 _atom_site_fract_y
 _atom_site_fract_z
 _atom_site_occupancy
  Pr  Pr0  1  0.99103172  0.99551586  0.01345242  1
  Pr  Pr1  1  0.28622145  0.14311073  0.57066782  1
  Mg  Mg2  1  0.72227820  0.86113910  0.41658270  1
  Ni  Ni3  1  0.66411103  0.58290956  0.75297941  1
  Ni  Ni4  1  0.16581912  0.58290956  0.75297941  1
  Ni  Ni5  1  0.66411103  0.08120147  0.75297941  1
  Ni  Ni6  1  0.33373317  0.41762034  0.24864649  1
  Ni  Ni7  1  0.83524068  0.41762034  0.24864649  1
  Ni  Ni8  1  0.33373317  0.91611283  0.24864649  1
  Ni  Ni9  1  0.00200131  0.50100066  0.49699803  1
  Ni  Ni10  1  0.66668631  0.33334315  0.99997054  1
  Ni  Ni11  1  0.33503281  0.66751640  0.99745079  1
