# generated using pymatgen
data_Ni4(SnSb3)3
_symmetry_space_group_name_H-M   'P 1'
_cell_length_a   7.99932376
_cell_length_b   8.00026279
_cell_length_c   7.99932376
_cell_angle_alpha   70.09398332
_cell_angle_beta   71.47786436
_cell_angle_gamma   109.98478629
_symmetry_Int_Tables_number   1
_chemical_formula_structural   Ni4(SnSb3)3
_chemical_formula_sum   'Ni4 Sn3 Sb9'
_cell_volume   394.02691799
_cell_formula_units_Z   1
loop_
 _symmetry_equiv_pos_site_id
 _symmetry_equiv_pos_as_xyz
  1  'x, y, z'
loop_
 _atom_site_type_symbol
 _atom_site_label
 _atom_site_symmetry_multiplicity
 _atom_site_fract_x
 _atom_site_fract_y
 _atom_site_fract_z
 _atom_site_occupancy
  Ni  Ni0  1  0.00066127  0.50128019  0.99936157  1
  Ni  Ni1  1  0.50064176  0.50128019  0.49938108  1
  Ni  Ni2  1  0.49694441  0.99810017  0.00295713  1
  Ni  Ni3  1  0.00105730  0.99810017  0.49884424  1
  Sn  Sn4  1  0.84148895  0.50715023  0.33433872  1
  Sn  Sn5  1  0.15851619  0.49319099  0.66532520  1
  Sn  Sn6  1  0.84106239  0.17558728  0.66547511  1
  Sb  Sb7  1  0.15798494  0.82184950  0.33613543  1
  Sb  Sb8  1  0.66547108  0.16068690  0.17571815  1
  Sb  Sb9  1  0.33640592  0.84087389  0.82187429  1
  Sb  Sb10  1  0.33640505  0.16068690  0.50478419  1
  Sb  Sb11  1  0.66274818  0.84087389  0.49553204  1
  Sb  Sb12  1  0.49394230  0.33470773  0.83969490  1
  Sb  Sb13  1  0.50748017  0.66546212  0.15932534  1
  Sb  Sb14  1  0.82478747  0.66546212  0.84201805  1
  Sb  Sb15  1  0.17440264  0.33470773  0.15923457  1
