# generated using pymatgen
data_NdGa3Ag
_symmetry_space_group_name_H-M   'P 1'
_cell_length_a   4.31597761
_cell_length_b   4.31597761
_cell_length_c   6.36243301
_cell_angle_alpha   70.17328010
_cell_angle_beta   70.17328010
_cell_angle_gamma   90.00000000
_symmetry_Int_Tables_number   1
_chemical_formula_structural   NdGa3Ag
_chemical_formula_sum   'Nd1 Ga3 Ag1'
_cell_volume   103.99295840
_cell_formula_units_Z   1
loop_
 _symmetry_equiv_pos_site_id
 _symmetry_equiv_pos_as_xyz
  1  'x, y, z'
loop_
 _atom_site_type_symbol
 _atom_site_label
 _atom_site_symmetry_multiplicity
 _atom_site_fract_x
 _atom_site_fract_y
 _atom_site_fract_z
 _atom_site_occupancy
  Nd  Nd0  1  0.01388326  0.01388326  0.97223347  1
  Ga  Ga1  1  0.60716325  0.60716325  0.78567351  1
  Ga  Ga2  1  0.74888787  0.24888787  0.50222425  1
  Ga  Ga3  1  0.24888787  0.74888787  0.50222425  1
  Ag  Ag4  1  0.38117774  0.38117774  0.23764452  1
