# generated using pymatgen
data_RbMgCoF6
_symmetry_space_group_name_H-M   'P 1'
_cell_length_a   7.34147515
_cell_length_b   7.28267646
_cell_length_c   7.35927635
_cell_angle_alpha   90.00000000
_cell_angle_beta   59.91975765
_cell_angle_gamma   119.73541251
_symmetry_Int_Tables_number   1
_chemical_formula_structural   RbMgCoF6
_chemical_formula_sum   'Rb2 Mg2 Co2 F12'
_cell_volume   278.99483224
_cell_formula_units_Z   2
loop_
 _symmetry_equiv_pos_site_id
 _symmetry_equiv_pos_as_xyz
  1  'x, y, z'
loop_
 _atom_site_type_symbol
 _atom_site_label
 _atom_site_symmetry_multiplicity
 _atom_site_fract_x
 _atom_site_fract_y
 _atom_site_fract_z
 _atom_site_occupancy
  Rb  Rb0  1  0.76427484  0.38213742  0.36786258  1
  Rb  Rb1  1  0.23572516  0.61786258  0.63213742  1
  Mg  Mg2  1  0.50000000  0.50000000  -0.00000000  1
  Mg  Mg3  1  0.50000000  0.00000000  -0.00000000  1
  Co  Co4  1  0.00000000  0.00000000  0.50000000  1
  Co  Co5  1  0.00000000  0.00000000  -0.00000000  1
  F  F6  1  0.86545077  0.93272539  0.31727461  1
  F  F7  1  0.64075622  0.32037811  0.92962189  1
  F  F8  1  0.24421949  0.93225521  0.92929445  1
  F  F9  1  0.24421949  0.31196428  0.32648606  1
  F  F10  1  0.24421949  0.31196428  0.92929445  1
  F  F11  1  0.24421949  0.93225521  0.32648606  1
  F  F12  1  0.13454923  0.06727461  0.68272539  1
  F  F13  1  0.35924378  0.67962189  0.07037811  1
  F  F14  1  0.75578051  0.06774479  0.07070555  1
  F  F15  1  0.75578051  0.68803572  0.67351394  1
  F  F16  1  0.75578051  0.68803572  0.07070555  1
  F  F17  1  0.75578051  0.06774479  0.67351394  1
