# generated using pymatgen
data_ScZn6
_symmetry_space_group_name_H-M   'P 1'
_cell_length_a   12.08718838
_cell_length_b   12.08718838
_cell_length_c   12.08718838
_cell_angle_alpha   69.90860667
_cell_angle_beta   70.05520710
_cell_angle_gamma   108.38296022
_symmetry_Int_Tables_number   1
_chemical_formula_structural   ScZn6
_chemical_formula_sum   'Sc12 Zn72'
_cell_volume   1359.05177648
_cell_formula_units_Z   12
loop_
 _symmetry_equiv_pos_site_id
 _symmetry_equiv_pos_as_xyz
  1  'x, y, z'
loop_
 _atom_site_type_symbol
 _atom_site_label
 _atom_site_symmetry_multiplicity
 _atom_site_fract_x
 _atom_site_fract_y
 _atom_site_fract_z
 _atom_site_occupancy
  Sc  Sc0  1  0.80672700  0.50977296  0.29695404  1
  Sc  Sc1  1  0.19327300  0.49022704  0.70304596  1
  Sc  Sc2  1  0.80672700  0.10368104  0.70304596  1
  Sc  Sc3  1  0.19327300  0.89631896  0.29695404  1
  Sc  Sc4  1  0.69982053  0.19249512  0.10768436  1
  Sc  Sc5  1  0.30017947  0.80750488  0.89231564  1
  Sc  Sc6  1  0.30017947  0.19249512  0.50732541  1
  Sc  Sc7  1  0.69982053  0.80750488  0.49267459  1
  Sc  Sc8  1  0.49433322  0.30144163  0.80710841  1
  Sc  Sc9  1  0.50566678  0.69855837  0.19289159  1
  Sc  Sc10  1  0.89144997  0.69855837  0.80710841  1
  Sc  Sc11  1  0.10855003  0.30144163  0.19289159  1
  Zn  Zn12  1  0.19016666  0.50000000  0.30983334  1
  Zn  Zn13  1  0.80983334  0.50000000  0.69016666  1
  Zn  Zn14  1  0.30637285  0.80637285  0.50000000  1
  Zn  Zn15  1  0.69362715  0.19362715  0.50000000  1
  Zn  Zn16  1  0.50000000  0.69353999  0.80646001  1
  Zn  Zn17  1  0.50000000  0.30646001  0.19353999  1
  Zn  Zn18  1  0.77111114  0.45628513  0.08514451  1
  Zn  Zn19  1  0.45857035  0.54371487  0.68517399  1
  Zn  Zn20  1  0.54142965  0.85625565  0.91485549  1
  Zn  Zn21  1  0.22888886  0.14374435  0.31482601  1
  Zn  Zn22  1  0.68601701  0.22602854  0.85879747  1
  Zn  Zn23  1  0.08482601  0.54481449  0.14120253  1
  Zn  Zn24  1  0.31398299  0.45518551  0.45998848  1
  Zn  Zn25  1  0.91517399  0.77397146  0.54001152  1
  Zn  Zn26  1  0.54094814  0.31348785  0.54534506  1
  Zn  Zn27  1  0.45905186  0.91370680  0.22746030  1
  Zn  Zn28  1  0.14116709  0.68651215  0.77253970  1
  Zn  Zn29  1  0.85883291  0.08629320  0.45465494  1
  Zn  Zn30  1  0.22888886  0.54371487  0.91485549  1
  Zn  Zn31  1  0.54142965  0.45628513  0.31482601  1
  Zn  Zn32  1  0.45857035  0.14374435  0.08514451  1
  Zn  Zn33  1  0.77111114  0.85625565  0.68517399  1
  Zn  Zn34  1  0.31398299  0.77397146  0.14120253  1
  Zn  Zn35  1  0.91517399  0.45518551  0.85879747  1
  Zn  Zn36  1  0.68601701  0.54481449  0.54001152  1
  Zn  Zn37  1  0.08482601  0.22602854  0.45998848  1
  Zn  Zn38  1  0.45905186  0.68651215  0.45465494  1
  Zn  Zn39  1  0.54094814  0.08629320  0.77253970  1
  Zn  Zn40  1  0.85883291  0.31348785  0.22746030  1
  Zn  Zn41  1  0.14116709  0.91370680  0.54534506  1
  Zn  Zn42  1  0.74786131  0.65361280  0.09424851  1
  Zn  Zn43  1  0.25213869  0.34638720  0.90575149  1
  Zn  Zn44  1  0.74786131  0.84210982  0.90575149  1
  Zn  Zn45  1  0.25213869  0.15789018  0.09424851  1
  Zn  Zn46  1  0.90621785  0.23972838  0.85405377  1
  Zn  Zn47  1  0.09378215  0.76027162  0.14594623  1
  Zn  Zn48  1  0.09378215  0.23972838  0.66648947  1
  Zn  Zn49  1  0.90621785  0.76027162  0.33351053  1
  Zn  Zn50  1  0.32730998  0.09113441  0.76382443  1
  Zn  Zn51  1  0.67269002  0.90886559  0.23617557  1
  Zn  Zn52  1  0.14504117  0.90886559  0.76382443  1
  Zn  Zn53  1  0.85495883  0.09113441  0.23617557  1
  Zn  Zn54  1  0.99935443  0.67852954  0.99977658  1
  Zn  Zn55  1  0.32169387  0.32147046  0.67917512  1
  Zn  Zn56  1  0.67830613  0.99913101  0.00022342  1
  Zn  Zn57  1  0.00064557  0.00086899  0.32082488  1
  Zn  Zn58  1  0.00064557  0.32147046  0.00022342  1
  Zn  Zn59  1  0.67830613  0.67852954  0.32082488  1
  Zn  Zn60  1  0.32169387  0.00086899  0.99977658  1
  Zn  Zn61  1  0.99935443  0.99913101  0.67917512  1
  Zn  Zn62  1  0.59778538  0.24932489  0.34846048  1
  Zn  Zn63  1  0.40221462  0.75067511  0.65153952  1
  Zn  Zn64  1  0.59778538  0.94624586  0.65153952  1
  Zn  Zn65  1  0.40221462  0.05375414  0.34846048  1
  Zn  Zn66  1  0.65250903  0.40374000  0.94375097  1
  Zn  Zn67  1  0.34749097  0.59626000  0.05624903  1
  Zn  Zn68  1  0.34749097  0.40374000  0.24876903  1
  Zn  Zn69  1  0.65250903  0.59626000  0.75123097  1
  Zn  Zn70  1  0.75230683  0.34831301  0.59600618  1
  Zn  Zn71  1  0.24769317  0.65168699  0.40399382  1
  Zn  Zn72  1  0.05568082  0.65168699  0.59600618  1
  Zn  Zn73  1  0.94431918  0.34831301  0.40399382  1
  Zn  Zn74  1  0.40536605  -0.00000000  0.59463395  1
  Zn  Zn75  1  0.59463395  -0.00000000  0.40536605  1
  Zn  Zn76  1  0.59436324  0.59436324  -0.00000000  1
  Zn  Zn77  1  0.40563676  0.40563676  0.00000000  1
  Zn  Zn78  1  -0.00000000  0.40495357  0.59504643  1
  Zn  Zn79  1  -0.00000000  0.59504643  0.40495357  1
  Zn  Zn80  1  0.91636434  0.82408311  0.09228123  1
  Zn  Zn81  1  0.08363566  0.17591689  0.90771877  1
  Zn  Zn82  1  0.91636434  0.00864556  0.90771877  1
  Zn  Zn83  1  0.08363566  0.99135444  0.09228123  1
