# generated using pymatgen
data_Nd6S3(OF4)2
_symmetry_space_group_name_H-M   'P 1'
_cell_length_a   3.87588822
_cell_length_b   13.58586880
_cell_length_c   13.68009844
_cell_angle_alpha   60.27057993
_cell_angle_beta   90.00000000
_cell_angle_gamma   90.00000000
_symmetry_Int_Tables_number   1
_chemical_formula_structural   Nd6S3(OF4)2
_chemical_formula_sum   'Nd12 S6 O4 F16'
_cell_volume   625.54159215
_cell_formula_units_Z   2
loop_
 _symmetry_equiv_pos_site_id
 _symmetry_equiv_pos_as_xyz
  1  'x, y, z'
loop_
 _atom_site_type_symbol
 _atom_site_label
 _atom_site_symmetry_multiplicity
 _atom_site_fract_x
 _atom_site_fract_y
 _atom_site_fract_z
 _atom_site_occupancy
  Nd  Nd0  1  0.75000000  0.94459448  0.77315388  1
  Nd  Nd1  1  0.75000000  0.28216526  0.94365013  1
  Nd  Nd2  1  0.75000000  0.76344004  0.28777748  1
  Nd  Nd3  1  0.25000000  0.05271921  0.23769142  1
  Nd  Nd4  1  0.25000000  0.70850213  0.05392303  1
  Nd  Nd5  1  0.25000000  0.23664038  0.70705294  1
  Nd  Nd6  1  0.75000000  0.61154284  0.86182374  1
  Nd  Nd7  1  0.75000000  0.52641187  0.60325588  1
  Nd  Nd8  1  0.75000000  0.86216015  0.52342887  1
  Nd  Nd9  1  0.25000000  0.39799809  0.13971378  1
  Nd  Nd10  1  0.25000000  0.47537550  0.39820762  1
  Nd  Nd11  1  0.25000000  0.14243312  0.46371676  1
  S  S12  1  0.75000000  0.27177722  0.52912819  1
  S  S13  1  0.75000000  0.19745561  0.27808958  1
  S  S14  1  0.75000000  0.52727221  0.19026277  1
  S  S15  1  0.25000000  0.72400353  0.46907993  1
  S  S16  1  0.25000000  0.81308793  0.71927747  1
  S  S17  1  0.25000000  0.46625063  0.81654851  1
  O  O18  1  0.75000000  0.56672289  0.41289443  1
  O  O19  1  0.25000000  0.98307549  0.43499477  1
  O  O20  1  0.25000000  0.58361990  0.97868269  1
  O  O21  1  0.25000000  0.43189996  0.58848635  1
  F  F22  1  0.75000000  0.66605598  0.66669534  1
  F  F23  1  0.25000000  0.33760397  0.33354865  1
  F  F24  1  0.75000000  0.10591544  0.79721300  1
  F  F25  1  0.75000000  0.09796451  0.10769853  1
  F  F26  1  0.75000000  0.79431571  0.09643320  1
  F  F27  1  0.25000000  0.89406635  0.20395771  1
  F  F28  1  0.25000000  0.90374785  0.89613525  1
  F  F29  1  0.25000000  0.19967550  0.90267591  1
  F  F30  1  0.75000000  0.75322362  0.92790437  1
  F  F31  1  0.75000000  0.31705881  0.75261492  1
  F  F32  1  0.75000000  0.93032196  0.31840568  1
  F  F33  1  0.25000000  0.25244455  0.07131689  1
  F  F34  1  0.25000000  0.67945225  0.24606400  1
  F  F35  1  0.25000000  0.06739301  0.67790746  1
  F  F36  1  0.75000000  0.02199783  0.56659856  1
  F  F37  1  0.75000000  0.40961418  0.02399031  1
