# generated using pymatgen
data_Na6Cd7S10
_symmetry_space_group_name_H-M   'P 1'
_cell_length_a   4.22508319
_cell_length_b   10.50526890
_cell_length_c   13.51985006
_cell_angle_alpha   107.66553539
_cell_angle_beta   81.01041954
_cell_angle_gamma   90.00000000
_symmetry_Int_Tables_number   1
_chemical_formula_structural   Na6Cd7S10
_chemical_formula_sum   'Na6 Cd7 S10'
_cell_volume   564.04885719
_cell_formula_units_Z   1
loop_
 _symmetry_equiv_pos_site_id
 _symmetry_equiv_pos_as_xyz
  1  'x, y, z'
loop_
 _atom_site_type_symbol
 _atom_site_label
 _atom_site_symmetry_multiplicity
 _atom_site_fract_x
 _atom_site_fract_y
 _atom_site_fract_z
 _atom_site_occupancy
  Na  Na0  1  0.29222292  0.60261340  0.41555416  1
  Na  Na1  1  0.70153688  0.42166017  0.59692625  1
  Na  Na2  1  0.87892141  0.74299282  0.24215719  1
  Na  Na3  1  0.11231221  0.27069329  0.77537559  1
  Na  Na4  1  0.00952766  0.80479842  0.98094467  1
  Na  Na5  1  0.99177506  0.19405298  0.01644988  1
  Cd  Cd6  1  0.44162863  0.47492945  0.11674273  1
  Cd  Cd7  1  0.55778142  0.52590136  0.88443716  1
  Cd  Cd8  1  0.15967583  0.72086563  0.68064835  1
  Cd  Cd9  1  0.84257799  0.27597444  0.31484401  1
  Cd  Cd10  1  0.24878773  0.08914530  0.50242453  1
  Cd  Cd11  1  0.39075623  0.96415082  0.21848754  1
  Cd  Cd12  1  0.61741546  0.02858387  0.76516908  1
  S  S13  1  0.46505033  0.69941846  0.06989934  1
  S  S14  1  0.53477458  0.29910121  0.93045085  1
  S  S15  1  0.11101064  0.53614433  0.77797871  1
  S  S16  1  0.88646534  0.46673757  0.22706931  1
  S  S17  1  0.31701524  0.86694614  0.36596952  1
  S  S18  1  0.68565542  0.15123659  0.62868915  1
  S  S19  1  0.71467294  0.67585689  0.57065411  1
  S  S20  1  0.28445195  0.30083546  0.43109609  1
  S  S21  1  0.08454555  0.94890388  0.83090889  1
  S  S22  1  0.92023856  0.05545752  0.15952288  1
