# generated using pymatgen
data_NaLi3Fe4(SiO3)8
_symmetry_space_group_name_H-M   'P 1'
_cell_length_a   5.36398303
_cell_length_b   9.46620797
_cell_length_c   8.79699357
_cell_angle_alpha   90.00000000
_cell_angle_beta   90.00000000
_cell_angle_gamma   102.58724926
_symmetry_Int_Tables_number   1
_chemical_formula_structural   NaLi3Fe4(SiO3)8
_chemical_formula_sum   'Na1 Li3 Fe4 Si8 O24'
_cell_volume   435.94538108
_cell_formula_units_Z   1
loop_
 _symmetry_equiv_pos_site_id
 _symmetry_equiv_pos_as_xyz
  1  'x, y, z'
loop_
 _atom_site_type_symbol
 _atom_site_label
 _atom_site_symmetry_multiplicity
 _atom_site_fract_x
 _atom_site_fract_y
 _atom_site_fract_z
 _atom_site_occupancy
  Na  Na0  1  0.25000000  0.50000000  0.79070347  1
  Li  Li1  1  0.75000000  0.00000000  0.26841358  1
  Li  Li2  1  0.75000000  0.50000000  0.23241672  1
  Li  Li3  1  0.25000000  0.00000000  0.73139099  1
  Fe  Fe4  1  0.25000000  0.50000000  0.39890119  1
  Fe  Fe5  1  0.75000000  0.00000000  0.89809443  1
  Fe  Fe6  1  0.75000000  0.50000000  0.59859074  1
  Fe  Fe7  1  0.25000000  0.00000000  0.10166279  1
  Si  Si8  1  0.46427530  0.70624996  0.09080283  1
  Si  Si9  1  0.96384601  0.20429036  0.58765450  1
  Si  Si10  1  0.03572470  0.29375004  0.09080283  1
  Si  Si11  1  0.53615399  0.79570964  0.58765450  1
  Si  Si12  1  0.53852828  0.29235415  0.91048025  1
  Si  Si13  1  0.03451446  0.79542628  0.41021259  1
  Si  Si14  1  0.96147172  0.70764585  0.91048025  1
  Si  Si15  1  0.46548554  0.20457372  0.41021259  1
  O  O16  1  0.69067413  0.64613681  0.00067066  1
  O  O17  1  0.19408790  0.14528047  0.50036443  1
  O  O18  1  0.80932587  0.35386319  0.00067066  1
  O  O19  1  0.30591210  0.85471953  0.50036443  1
  O  O20  1  0.30981298  0.35116591  0.00103459  1
  O  O21  1  0.80801871  0.85689818  0.49863132  1
  O  O22  1  0.19018702  0.64883409  0.00103459  1
  O  O23  1  0.69198129  0.14310182  0.49863132  1
  O  O24  1  0.45767119  0.63255988  0.25646245  1
  O  O25  1  0.95797413  0.13380130  0.75620866  1
  O  O26  1  0.04232881  0.36744012  0.25646245  1
  O  O27  1  0.54202587  0.86619870  0.75620866  1
  O  O28  1  0.55559789  0.36131359  0.74195585  1
  O  O29  1  0.04245842  0.86713913  0.24265875  1
  O  O30  1  0.94440211  0.63868641  0.74195585  1
  O  O31  1  0.45754158  0.13286087  0.24265875  1
  O  O32  1  0.53329855  0.88492396  0.08617576  1
  O  O33  1  0.02743512  0.38267788  0.57814315  1
  O  O34  1  0.96670145  0.11507604  0.08617576  1
  O  O35  1  0.47256488  0.61732212  0.57814315  1
  O  O36  1  0.46776527  0.11371788  0.91501059  1
  O  O37  1  0.96796395  0.61655074  0.41344667  1
  O  O38  1  0.03223473  0.88628212  0.91501059  1
  O  O39  1  0.53203605  0.38344926  0.41344667  1
