# generated using pymatgen
data_NaLi3Fe4(SiO3)8
_symmetry_space_group_name_H-M   'P 1'
_cell_length_a   5.36065162
_cell_length_b   6.58642582
_cell_length_c   12.92520904
_cell_angle_alpha   89.56337604
_cell_angle_beta   99.26643968
_cell_angle_gamma   75.59153712
_symmetry_Int_Tables_number   1
_chemical_formula_structural   NaLi3Fe4(SiO3)8
_chemical_formula_sum   'Na1 Li3 Fe4 Si8 O24'
_cell_volume   435.69193205
_cell_formula_units_Z   1
loop_
 _symmetry_equiv_pos_site_id
 _symmetry_equiv_pos_as_xyz
  1  'x, y, z'
loop_
 _atom_site_type_symbol
 _atom_site_label
 _atom_site_symmetry_multiplicity
 _atom_site_fract_x
 _atom_site_fract_y
 _atom_site_fract_z
 _atom_site_occupancy
  Na  Na0  1  0.89570644  0.70829193  0.14571386  1
  Li  Li1  1  0.38525203  0.72962974  0.63563686  1
  Li  Li2  1  0.61466173  0.27023654  0.36471447  1
  Li  Li3  1  0.11479478  0.27089664  0.86470140  1
  Fe  Fe4  1  0.19889975  0.10061592  0.45012630  1
  Fe  Fe5  1  0.69995424  0.10167055  0.94864070  1
  Fe  Fe6  1  0.29981623  0.90084313  0.04890445  1
  Fe  Fe7  1  0.79990115  0.89968141  0.55083219  1
  Si  Si8  1  0.15477007  0.61512213  0.39916821  1
  Si  Si9  1  0.65406210  0.61673634  0.89591574  1
  Si  Si10  1  0.93804044  0.20443734  0.19209412  1
  Si  Si11  1  0.43229371  0.20534538  0.69194844  1
  Si  Si12  1  0.35028340  0.38236463  0.10164790  1
  Si  Si13  1  0.84262224  0.38483566  0.60221001  1
  Si  Si14  1  0.56094871  0.79735764  0.30936420  1
  Si  Si15  1  0.06646942  0.79492972  0.80702348  1
  O  O16  1  0.36495165  0.64582783  0.32349893  1
  O  O17  1  0.86872869  0.64564423  0.82218891  1
  O  O18  1  0.63597684  0.35443917  0.17766637  1
  O  O19  1  0.13037816  0.35406515  0.67666240  1
  O  O20  1  0.13933490  0.35243897  0.17776149  1
  O  O21  1  0.63047135  0.35413180  0.67666876  1
  O  O22  1  0.86379383  0.64688978  0.32569656  1
  O  O23  1  0.36762970  0.64449899  0.82075154  1
  O  O24  1  0.13359748  0.79865148  0.48600375  1
  O  O25  1  0.62553773  0.80448023  0.98055225  1
  O  O26  1  0.95349057  0.03726652  0.09750185  1
  O  O27  1  0.45249805  0.02959580  0.60090892  1
  O  O28  1  0.36882020  0.19990793  0.01448377  1
  O  O29  1  0.86647390  0.20202608  0.51450034  1
  O  O30  1  0.54609753  0.97144492  0.40071135  1
  O  O31  1  0.04658593  0.97054230  0.89830890  1
  O  O32  1  0.26842787  0.37586526  0.44537249  1
  O  O33  1  0.76808725  0.37875855  0.94479352  1
  O  O34  1  0.98897186  0.10845337  0.31124746  1
  O  O35  1  0.48707770  0.11116838  0.81148003  1
  O  O36  1  0.24712407  0.61922499  0.05130631  1
  O  O37  1  0.73094785  0.62391373  0.55488153  1
  O  O38  1  0.49521416  0.89677550  0.19055559  1
  O  O39  1  0.01130631  0.89099433  0.68785467  1
