# generated using pymatgen
data_Na5H7(Se2O9)2
_symmetry_space_group_name_H-M   'P 1'
_cell_length_a   6.07046996
_cell_length_b   7.46686277
_cell_length_c   10.03984327
_cell_angle_alpha   102.68323462
_cell_angle_beta   99.19691041
_cell_angle_gamma   100.01459421
_symmetry_Int_Tables_number   1
_chemical_formula_structural   Na5H7(Se2O9)2
_chemical_formula_sum   'Na5 H7 Se4 O18'
_cell_volume   427.82384585
_cell_formula_units_Z   1
loop_
 _symmetry_equiv_pos_site_id
 _symmetry_equiv_pos_as_xyz
  1  'x, y, z'
loop_
 _atom_site_type_symbol
 _atom_site_label
 _atom_site_symmetry_multiplicity
 _atom_site_fract_x
 _atom_site_fract_y
 _atom_site_fract_z
 _atom_site_occupancy
  Na  Na0  1  0.65503406  0.74106901  0.18951639  1
  Na  Na1  1  0.34615503  0.25797133  0.80678410  1
  Na  Na2  1  0.00023260  0.00059621  0.99985705  1
  Na  Na3  1  0.13596684  0.17632321  0.39994129  1
  Na  Na4  1  0.86875641  0.82257001  0.60544995  1
  H  H5  1  0.95285592  0.32397381  0.91684101  1
  H  H6  1  0.04999786  0.67770383  0.07951219  1
  H  H7  1  0.14570726  0.38836420  0.05445699  1
  H  H8  1  0.85413861  0.60937043  0.94377138  1
  H  H9  1  0.28818992  0.56086194  0.62106694  1
  H  H10  1  0.71273024  0.43785577  0.38186858  1
  H  H11  1  0.50039845  0.98464137  0.49822798  1
  Se  Se12  1  0.41413006  0.79876866  0.82591940  1
  Se  Se13  1  0.58647395  0.20167679  0.17571889  1
  Se  Se14  1  0.24857281  0.69278173  0.37435643  1
  Se  Se15  1  0.74817596  0.30622557  0.62711125  1
  O  O16  1  0.41367661  0.77317447  0.98390637  1
  O  O17  1  0.58569882  0.22784355  0.01780198  1
  O  O18  1  0.66895514  0.87518654  0.79502279  1
  O  O19  1  0.33132785  0.12550581  0.20685532  1
  O  O20  1  0.09423422  0.29574427  0.96403814  1
  O  O21  1  0.90612702  0.70320094  0.03389241  1
  O  O22  1  0.21999599  0.91548624  0.77400578  1
  O  O23  1  0.78002573  0.08392777  0.22690232  1
  O  O24  1  0.05571323  0.82308700  0.40022338  1
  O  O25  1  0.94575699  0.17916513  0.60246533  1
  O  O26  1  0.51723560  0.83955834  0.44844067  1
  O  O27  1  0.48540692  0.15958920  0.55814818  1
  O  O28  1  0.31317579  0.56302074  0.72435713  1
  O  O29  1  0.68828923  0.43686954  0.27811749  1
  O  O30  1  0.23190436  0.51994000  0.45393583  1
  O  O31  1  0.76904914  0.47990018  0.54680579  1
  O  O32  1  0.25997955  0.61696198  0.20792160  1
  O  O33  1  0.74893184  0.38908445  0.79575967  1
