# generated using pymatgen
data_NaAl3P2(HO3)4
_symmetry_space_group_name_H-M   'P 1'
_cell_length_a   7.17124383
_cell_length_b   10.23591202
_cell_length_c   11.34528220
_cell_angle_alpha   90.00000000
_cell_angle_beta   97.41619750
_cell_angle_gamma   90.00000000
_symmetry_Int_Tables_number   1
_chemical_formula_structural   NaAl3P2(HO3)4
_chemical_formula_sum   'Na4 Al12 P8 H16 O48'
_cell_volume   825.82506053
_cell_formula_units_Z   4
loop_
 _symmetry_equiv_pos_site_id
 _symmetry_equiv_pos_as_xyz
  1  'x, y, z'
loop_
 _atom_site_type_symbol
 _atom_site_label
 _atom_site_symmetry_multiplicity
 _atom_site_fract_x
 _atom_site_fract_y
 _atom_site_fract_z
 _atom_site_occupancy
  Na  Na0  1  0.53440848  0.42463717  0.80401773  1
  Na  Na1  1  0.03642798  0.07491162  0.30343476  1
  Na  Na2  1  0.46357202  0.57491162  0.19656524  1
  Na  Na3  1  0.96559152  0.92463717  0.69598227  1
  Al  Al4  1  0.00854314  0.43232721  0.76335987  1
  Al  Al5  1  0.50708358  0.06788519  0.26246834  1
  Al  Al6  1  0.99291642  0.56788519  0.23753166  1
  Al  Al7  1  0.49145686  0.93232721  0.73664013  1
  Al  Al8  1  0.06223108  0.28014481  0.54368374  1
  Al  Al9  1  0.56030929  0.22094588  0.04286694  1
  Al  Al10  1  0.93969071  0.72094588  0.45713306  1
  Al  Al11  1  0.43776892  0.78014481  0.95631626  1
  Al  Al12  1  0.93378375  0.24614308  0.95975555  1
  Al  Al13  1  0.43100074  0.25489202  0.45911467  1
  Al  Al14  1  0.06899926  0.75489202  0.04088533  1
  Al  Al15  1  0.56621625  0.74614308  0.54024445  1
  P  P16  1  0.73675488  0.18794994  0.68084822  1
  P  P17  1  0.23825968  0.31226620  0.17947847  1
  P  P18  1  0.26174032  0.81226620  0.32052153  1
  P  P19  1  0.76324512  0.68794994  0.81915178  1
  P  P20  1  0.25408912  0.17244306  0.81260997  1
  P  P21  1  0.75378132  0.32798969  0.31203432  1
  P  P22  1  0.74621868  0.82798969  0.18796568  1
  P  P23  1  0.24591088  0.67244306  0.68739003  1
  H  H24  1  0.33019144  0.45548825  0.54913503  1
  H  H25  1  0.83016641  0.04496585  0.04906072  1
  H  H26  1  0.66983359  0.54496585  0.45093928  1
  H  H27  1  0.16980856  0.95548825  0.95086497  1
  H  H28  1  0.25638687  0.09145342  0.57080949  1
  H  H29  1  0.75784824  0.40676179  0.07178186  1
  H  H30  1  0.74215176  0.90676179  0.42821814  1
  H  H31  1  0.24361313  0.59145342  0.92919051  1
  H  H32  1  0.86227836  0.48779955  0.56551718  1
  H  H33  1  0.36199234  0.01219967  0.06537265  1
  H  H34  1  0.13800766  0.51219967  0.43462735  1
  H  H35  1  0.63772164  0.98779955  0.93448282  1
  H  H36  1  0.03466904  0.47039601  0.97699916  1
  H  H37  1  0.46533096  0.97039601  0.52300084  1
  H  H38  1  0.69429616  0.10240937  0.46396661  1
  H  H39  1  0.80570384  0.60240937  0.03603339  1
  O  O40  1  0.81789517  0.27804798  0.78728230  1
  O  O41  1  0.31825362  0.22113524  0.28815656  1
  O  O42  1  0.18174638  0.72113524  0.21184344  1
  O  O43  1  0.68210483  0.77804798  0.71271770  1
  O  O44  1  0.68316001  0.05317723  0.72617089  1
  O  O45  1  0.18269766  0.44680748  0.22570478  1
  O  O46  1  0.31730234  0.94680748  0.27429522  1
  O  O47  1  0.81683999  0.55317723  0.77382911  1
  O  O48  1  0.18074191  0.28669004  0.72617069  1
  O  O49  1  0.68209074  0.21318810  0.22612691  1
  O  O50  1  0.81790926  0.71318810  0.27387309  1
  O  O51  1  0.31925809  0.78669004  0.77382931  1
  O  O52  1  0.56687399  0.26120784  0.61414905  1
  O  O53  1  0.06697065  0.23852560  0.11509907  1
  O  O54  1  0.43302935  0.73852560  0.38490093  1
  O  O55  1  0.93312601  0.76120784  0.88585095  1
  O  O56  1  0.43535385  0.21963289  0.88738216  1
  O  O57  1  0.93403861  0.27979238  0.38758085  1
  O  O58  1  0.56596139  0.77979238  0.11241915  1
  O  O59  1  0.06464615  0.71963289  0.61261784  1
  O  O60  1  0.06105464  0.39901520  0.92320590  1
  O  O61  1  0.56338046  0.09964807  0.42545102  1
  O  O62  1  0.93661954  0.59964807  0.07454898  1
  O  O63  1  0.43894536  0.89901520  0.57679410  1
  O  O64  1  0.22466932  0.15030313  0.50284602  1
  O  O65  1  0.72385726  0.35024595  0.00263650  1
  O  O66  1  0.77614274  0.85024595  0.49736350  1
  O  O67  1  0.27533068  0.65030313  0.99715398  1
  O  O68  1  0.89047379  0.15861476  0.59824236  1
  O  O69  1  0.39505053  0.34033680  0.10140368  1
  O  O70  1  0.10494947  0.84033680  0.39859632  1
  O  O71  1  0.60952621  0.65861476  0.90175764  1
  O  O72  1  0.76909787  0.11343725  0.99692492  1
  O  O73  1  0.26896287  0.38721525  0.49709457  1
  O  O74  1  0.23103713  0.88721525  0.00290543  1
  O  O75  1  0.73090213  0.61343725  0.50307508  1
  O  O76  1  0.10182017  0.13213684  0.89160248  1
  O  O77  1  0.60213639  0.36823075  0.39167239  1
  O  O78  1  0.89786361  0.86823075  0.10832761  1
  O  O79  1  0.39817983  0.63213684  0.60839752  1
  O  O80  1  0.94916856  0.42024104  0.60358550  1
  O  O81  1  0.44957243  0.07959864  0.10326116  1
  O  O82  1  0.05042757  0.57959864  0.39673884  1
  O  O83  1  0.55083144  0.92024104  0.89641450  1
  O  O84  1  0.28984118  0.05205103  0.73507475  1
  O  O85  1  0.78998382  0.44871073  0.23467609  1
  O  O86  1  0.71001618  0.94871073  0.26532391  1
  O  O87  1  0.21015882  0.55205103  0.76492525  1
