# generated using pymatgen
data_NaTiSn(PO4)3
_symmetry_space_group_name_H-M   'P 1'
_cell_length_a   8.68067617
_cell_length_b   8.68067618
_cell_length_c   8.99960141
_cell_angle_alpha   90.00000000
_cell_angle_beta   61.16550647
_cell_angle_gamma   120.00000005
_symmetry_Int_Tables_number   1
_chemical_formula_structural   NaTiSn(PO4)3
_chemical_formula_sum   'Na2 Ti2 Sn2 P6 O24'
_cell_volume   487.80433198
_cell_formula_units_Z   2
loop_
 _symmetry_equiv_pos_site_id
 _symmetry_equiv_pos_as_xyz
  1  'x, y, z'
loop_
 _atom_site_type_symbol
 _atom_site_label
 _atom_site_symmetry_multiplicity
 _atom_site_fract_x
 _atom_site_fract_y
 _atom_site_fract_z
 _atom_site_occupancy
  Na  Na0  1  0.00168387  0.50084193  0.49747420  1
  Na  Na1  1  0.00168387  0.00084193  0.99747420  1
  Ti  Ti2  1  0.29060721  0.64530360  0.06408919  1
  Ti  Ti3  1  0.29060721  0.14530360  0.56408919  1
  Sn  Sn4  1  0.70601273  0.35300637  0.94098090  1
  Sn  Sn5  1  0.70601273  0.85300637  0.44098090  1
  P  P6  1  0.49691373  0.03820206  0.75204448  1
  P  P7  1  0.78924384  0.75104179  0.75204448  1
  P  P8  1  0.20975346  0.45871168  0.75204448  1
  P  P9  1  0.20975346  0.25104179  0.25204448  1
  P  P10  1  0.78924384  0.53820206  0.25204448  1
  P  P11  1  0.49691373  0.95871168  0.25204448  1
  O  O12  1  0.34059113  0.77971946  0.23390552  1
  O  O13  1  0.20522281  0.42550335  0.23390552  1
  O  O14  1  0.98637502  0.56087167  0.23390552  1
  O  O15  1  0.98637502  0.92550335  0.73390552  1
  O  O16  1  0.20522281  0.27971946  0.73390552  1
  O  O17  1  0.34059113  0.06087167  0.73390552  1
  O  O18  1  0.65419616  0.22097874  0.76461116  1
  O  O19  1  0.80217143  0.58119269  0.76461116  1
  O  O20  1  0.01441010  0.43321741  0.76461116  1
  O  O21  1  0.01441010  0.08119269  0.26461116  1
  O  O22  1  0.80217143  0.72097874  0.26461116  1
  O  O23  1  0.65419616  0.93321741  0.26461116  1
  O  O24  1  0.36424995  0.86653668  0.91790516  1
  O  O25  1  0.58438157  0.71784488  0.91790516  1
  O  O26  1  0.21555816  0.49771327  0.91790516  1
  O  O27  1  0.21555816  0.21784488  0.41790516  1
  O  O28  1  0.58438157  0.36653668  0.41790516  1
  O  O29  1  0.36424995  0.99771327  0.41790516  1
  O  O30  1  0.64135591  0.12433288  0.08068558  1
  O  O31  1  0.40229139  0.27795851  0.08068558  1
  O  O32  1  0.79498154  0.51702303  0.08068558  1
  O  O33  1  0.79498154  0.77795851  0.58068558  1
  O  O34  1  0.40229139  0.62433288  0.58068558  1
  O  O35  1  0.64135591  0.01702303  0.58068558  1
