# generated using pymatgen
data_NaCaGaSi2O7
_symmetry_space_group_name_H-M   'P 1'
_cell_length_a   5.11259021
_cell_length_b   7.81771343
_cell_length_c   7.79526572
_cell_angle_alpha   90.00000000
_cell_angle_beta   90.00000000
_cell_angle_gamma   88.42039771
_symmetry_Int_Tables_number   1
_chemical_formula_structural   NaCaGaSi2O7
_chemical_formula_sum   'Na2 Ca2 Ga2 Si4 O14'
_cell_volume   311.44874651
_cell_formula_units_Z   2
loop_
 _symmetry_equiv_pos_site_id
 _symmetry_equiv_pos_as_xyz
  1  'x, y, z'
loop_
 _atom_site_type_symbol
 _atom_site_label
 _atom_site_symmetry_multiplicity
 _atom_site_fract_x
 _atom_site_fract_y
 _atom_site_fract_z
 _atom_site_occupancy
  Na  Na0  1  0.50874218  0.82926641  0.33634799  1
  Na  Na1  1  0.49125782  0.67073359  0.83634799  1
  Ca  Ca2  1  0.51689216  0.15163279  0.65941454  1
  Ca  Ca3  1  0.48310784  0.34836721  0.15941454  1
  Ga  Ga4  1  0.99775927  0.50142451  0.49984956  1
  Ga  Ga5  1  0.00224073  0.99857549  0.99984956  1
  Si  Si6  1  0.94922780  0.63569428  0.14074933  1
  Si  Si7  1  0.05077220  0.86430572  0.64074933  1
  Si  Si8  1  0.94875548  0.35421243  0.85909596  1
  Si  Si9  1  0.05124452  0.14578757  0.35909596  1
  O  O10  1  0.26073833  0.62117496  0.14893897  1
  O  O11  1  0.73926167  0.87882504  0.64893897  1
  O  O12  1  0.26132861  0.33479202  0.85936175  1
  O  O13  1  0.73867139  0.16520798  0.35936175  1
  O  O14  1  0.20959987  0.32028730  0.41838291  1
  O  O15  1  0.79040013  0.17971270  0.91838291  1
  O  O16  1  0.18485775  0.67700042  0.59040374  1
  O  O17  1  0.81514225  0.82299958  0.09040374  1
  O  O18  1  0.79361389  0.57498519  0.31718098  1
  O  O19  1  0.20638611  0.92501481  0.81718098  1
  O  O20  1  0.80621731  0.40259063  0.67444013  1
  O  O21  1  0.19378269  0.09740937  0.17444013  1
  O  O22  1  0.17553001  0.00010453  0.49583416  1
  O  O23  1  0.82446999  0.49989547  0.99583416  1
