# generated using pymatgen
data_NaU4V3O20
_symmetry_space_group_name_H-M   'P 1'
_cell_length_a   7.33532518
_cell_length_b   7.33532518
_cell_length_c   18.08441973
_cell_angle_alpha   78.43447757
_cell_angle_beta   78.43447757
_cell_angle_gamma   89.99990346
_symmetry_Int_Tables_number   1
_chemical_formula_structural   NaU4V3O20
_chemical_formula_sum   'Na2 U8 V6 O40'
_cell_volume   933.13591965
_cell_formula_units_Z   2
loop_
 _symmetry_equiv_pos_site_id
 _symmetry_equiv_pos_as_xyz
  1  'x, y, z'
loop_
 _atom_site_type_symbol
 _atom_site_label
 _atom_site_symmetry_multiplicity
 _atom_site_fract_x
 _atom_site_fract_y
 _atom_site_fract_z
 _atom_site_occupancy
  Na  Na0  1  0.50000000  0.00000000  0.50000000  1
  Na  Na1  1  0.50000000  0.00000000  -0.00000000  1
  U  U2  1  0.84916186  0.09869563  0.30242859  1
  U  U3  1  0.59869563  0.34916186  0.80242859  1
  U  U4  1  0.15083814  0.90130437  0.69757141  1
  U  U5  1  0.40130437  0.65083814  0.19757141  1
  U  U6  1  0.72234735  0.47237405  0.55495762  1
  U  U7  1  0.97237405  0.22234735  0.05495762  1
  U  U8  1  0.27765265  0.52762595  0.44504238  1
  U  U9  1  0.02762595  0.77765265  0.94504238  1
  V  V10  1  0.37509178  0.12490822  0.25000000  1
  V  V11  1  0.62490822  0.87509178  0.75000000  1
  V  V12  1  0.81796949  0.56797400  0.36432586  1
  V  V13  1  0.06797400  0.31796949  0.86432586  1
  V  V14  1  0.18203051  0.43202600  0.63567414  1
  V  V15  1  0.93202600  0.68203051  0.13567414  1
  O  O16  1  0.54559447  0.09680107  0.30578914  1
  O  O17  1  0.59680107  0.04559447  0.80578914  1
  O  O18  1  0.59726641  0.64919686  0.80484798  1
  O  O19  1  0.14919686  0.09726641  0.30484798  1
  O  O20  1  0.45440553  0.90319893  0.69421086  1
  O  O21  1  0.40319893  0.95440553  0.19421086  1
  O  O22  1  0.40273359  0.35080314  0.19515202  1
  O  O23  1  0.85080314  0.90273359  0.69515202  1
  O  O24  1  0.78724089  0.04619882  0.40793552  1
  O  O25  1  0.54619882  0.28724089  0.90793552  1
  O  O26  1  0.21275911  0.95380118  0.59206448  1
  O  O27  1  0.45380118  0.71275911  0.09206448  1
  O  O28  1  0.90533992  0.15470008  0.19047310  1
  O  O29  1  0.65470008  0.40533992  0.69047310  1
  O  O30  1  0.09466008  0.84529992  0.80952690  1
  O  O31  1  0.34529992  0.59466008  0.30952690  1
  O  O32  1  0.60494085  0.53464164  0.43083946  1
  O  O33  1  0.03464164  0.10494085  0.93083946  1
  O  O34  1  0.03464561  0.46458456  0.93081176  1
  O  O35  1  0.96458456  0.53464561  0.43081176  1
  O  O36  1  0.39505915  0.46535836  0.56916054  1
  O  O37  1  0.96535836  0.89505915  0.06916054  1
  O  O38  1  0.96535439  0.53541544  0.06918824  1
  O  O39  1  0.03541544  0.46535439  0.56918824  1
  O  O40  1  0.71687292  0.72014896  0.55175431  1
  O  O41  1  0.71689507  0.22833521  0.55170057  1
  O  O42  1  0.22014896  0.21687292  0.05175431  1
  O  O43  1  0.72833521  0.21689507  0.05170057  1
  O  O44  1  0.28312708  0.27985104  0.44824569  1
  O  O45  1  0.28310493  0.77166479  0.44829943  1
  O  O46  1  0.77985104  0.78312708  0.94824569  1
  O  O47  1  0.27166479  0.78310493  0.94829943  1
  O  O48  1  0.84518384  0.79137550  0.30922917  1
  O  O49  1  0.84522168  0.39931669  0.30913020  1
  O  O50  1  0.29137550  0.34518384  0.80922917  1
  O  O51  1  0.89931669  0.34522168  0.80913020  1
  O  O52  1  0.15481616  0.20862450  0.69077083  1
  O  O53  1  0.15477832  0.60068331  0.69086980  1
  O  O54  1  0.70862450  0.65481616  0.19077083  1
  O  O55  1  0.10068331  0.65477832  0.19086980  1
