# generated using pymatgen
data_NaP4(W3O11)4
_symmetry_space_group_name_H-M   'P 1'
_cell_length_a   5.42368995
_cell_length_b   6.72135295
_cell_length_c   24.20260448
_cell_angle_alpha   89.69164727
_cell_angle_beta   89.97700413
_cell_angle_gamma   90.06502259
_symmetry_Int_Tables_number   1
_chemical_formula_structural   NaP4(W3O11)4
_chemical_formula_sum   'Na1 P4 W12 O44'
_cell_volume   882.28126101
_cell_formula_units_Z   1
loop_
 _symmetry_equiv_pos_site_id
 _symmetry_equiv_pos_as_xyz
  1  'x, y, z'
loop_
 _atom_site_type_symbol
 _atom_site_label
 _atom_site_symmetry_multiplicity
 _atom_site_fract_x
 _atom_site_fract_y
 _atom_site_fract_z
 _atom_site_occupancy
  Na  Na0  1  0.22972382  0.60564241  0.72396998  1
  P  P1  1  0.73733908  0.61613662  0.79649985  1
  P  P2  1  0.76310484  0.38318560  0.29659217  1
  P  P3  1  0.23787718  0.88262997  0.20394038  1
  P  P4  1  0.26389775  0.11427309  0.70419918  1
  W  W5  1  0.75089841  0.41248731  0.65908625  1
  W  W6  1  0.74605620  0.57892411  0.16169866  1
  W  W7  1  0.25401476  0.07851708  0.33931428  1
  W  W8  1  0.24553077  0.92723593  0.84054560  1
  W  W9  1  0.75555025  0.08027886  0.53092089  1
  W  W10  1  0.74456252  0.91514508  0.03263467  1
  W  W11  1  0.25357502  0.41038722  0.46829819  1
  W  W12  1  0.24515894  0.58842554  0.96960249  1
  W  W13  1  0.74210438  0.26061345  0.90458660  1
  W  W14  1  0.75712633  0.74079815  0.40318077  1
  W  W15  1  0.24480047  0.24373322  0.09764857  1
  W  W16  1  0.25174589  0.75022746  0.59565019  1
  O  O17  1  0.95844542  0.75340596  0.80913102  1
  O  O18  1  0.54367286  0.24497628  0.30869093  1
  O  O19  1  0.45594717  0.74420869  0.19034986  1
  O  O20  1  0.05566199  0.26212538  0.69299178  1
  O  O21  1  0.03329902  0.76704595  0.00256997  1
  O  O22  1  0.46652611  0.23265924  0.50136700  1
  O  O23  1  0.53565891  0.73372385  0.99782211  1
  O  O24  1  0.96185214  0.26772992  0.49635813  1
  O  O25  1  0.53297615  0.90485187  0.56981560  1
  O  O26  1  0.96636752  0.09736586  0.07040578  1
  O  O27  1  0.03497514  0.59775834  0.42833975  1
  O  O28  1  0.46433999  0.40285256  0.92948733  1
  O  O29  1  0.25581923  0.58527837  0.53534379  1
  O  O30  1  0.24486771  0.41308250  0.03666874  1
  O  O31  1  0.75710269  0.91099917  0.46271883  1
  O  O32  1  0.74264742  0.08796803  0.96395449  1
  O  O33  1  0.98597580  0.61520264  0.63266227  1
  O  O34  1  0.51608508  0.39623425  0.13297578  1
  O  O35  1  0.48335229  0.89690805  0.36658499  1
  O  O36  1  0.01606187  0.10532211  0.86788034  1
  O  O37  1  0.25195178  0.92442247  0.66980170  1
  O  O38  1  0.24271107  0.06964265  0.16666913  1
  O  O39  1  0.75646185  0.57091978  0.33227976  1
  O  O40  1  0.74291042  0.42974494  0.83361799  1
  O  O41  1  0.48375723  0.72116650  0.80177914  1
  O  O42  1  0.01195987  0.27501165  0.30236039  1
  O  O43  1  0.98940427  0.77305184  0.19651258  1
  O  O44  1  0.51396889  0.21971245  0.70009236  1
  O  O45  1  0.04007726  0.93562868  0.56324536  1
  O  O46  1  0.46443228  0.06910080  0.06506646  1
  O  O47  1  0.53377476  0.56828437  0.43449847  1
  O  O48  1  0.96596791  0.43218483  0.93563622  1
  O  O49  1  0.76521864  0.55548462  0.73560450  1
  O  O50  1  0.74048103  0.44787576  0.23496572  1
  O  O51  1  0.26009302  0.94663743  0.26434828  1
  O  O52  1  0.23831744  0.04849006  0.76616763  1
  O  O53  1  0.47327359  0.58379493  0.64019321  1
  O  O54  1  0.01345489  0.42285551  0.13838370  1
  O  O55  1  0.98460770  0.92437033  0.36059318  1
  O  O56  1  0.51744435  0.07621485  0.86160508  1
  O  O57  1  0.25034044  0.76151706  0.90077055  1
  O  O58  1  0.25011055  0.23795399  0.39998342  1
  O  O59  1  0.74862326  0.73886765  0.09985359  1
  O  O60  1  0.75295637  0.25672673  0.59848439  1
