# generated using pymatgen
data_Na2PHO4
_symmetry_space_group_name_H-M   'P 1'
_cell_length_a   5.51356920
_cell_length_b   5.52268933
_cell_length_c   6.98350691
_cell_angle_alpha   90.00000000
_cell_angle_beta   90.00000000
_cell_angle_gamma   116.39083080
_symmetry_Int_Tables_number   1
_chemical_formula_structural   Na2PHO4
_chemical_formula_sum   'Na4 P2 H2 O8'
_cell_volume   190.48456065
_cell_formula_units_Z   2
loop_
 _symmetry_equiv_pos_site_id
 _symmetry_equiv_pos_as_xyz
  1  'x, y, z'
loop_
 _atom_site_type_symbol
 _atom_site_label
 _atom_site_symmetry_multiplicity
 _atom_site_fract_x
 _atom_site_fract_y
 _atom_site_fract_z
 _atom_site_occupancy
  Na  Na0  1  0.74970379  0.38009769  0.75136852  1
  Na  Na1  1  0.25029621  0.61990231  0.25136852  1
  Na  Na2  1  0.01331277  0.99420151  0.50807307  1
  Na  Na3  1  0.98668723  0.00579849  0.00807307  1
  P  P4  1  0.38803304  0.66645711  0.73770663  1
  P  P5  1  0.61196696  0.33354289  0.23770663  1
  H  H6  1  0.45549110  0.95867757  0.97530110  1
  H  H7  1  0.54450890  0.04132243  0.47530110  1
  O  O8  1  0.29783063  0.78292269  0.92787028  1
  O  O9  1  0.70216937  0.21707731  0.42787028  1
  O  O10  1  0.69777518  0.21675320  0.06255086  1
  O  O11  1  0.30222482  0.78324680  0.56255086  1
  O  O12  1  0.69692091  0.77875895  0.74851267  1
  O  O13  1  0.30307909  0.22124105  0.24851267  1
  O  O14  1  0.23337135  0.35932782  0.74981687  1
  O  O15  1  0.76662865  0.64067218  0.24981687  1
