# generated using pymatgen
data_NaDy3Ti2(SbO7)2
_symmetry_space_group_name_H-M   'P 1'
_cell_length_a   7.30980541
_cell_length_b   7.21034212
_cell_length_c   7.35726443
_cell_angle_alpha   90.00000000
_cell_angle_beta   59.78499594
_cell_angle_gamma   120.00037544
_symmetry_Int_Tables_number   1
_chemical_formula_structural   NaDy3Ti2(SbO7)2
_chemical_formula_sum   'Na1 Dy3 Ti2 Sb2 O14'
_cell_volume   273.30120095
_cell_formula_units_Z   1
loop_
 _symmetry_equiv_pos_site_id
 _symmetry_equiv_pos_as_xyz
  1  'x, y, z'
loop_
 _atom_site_type_symbol
 _atom_site_label
 _atom_site_symmetry_multiplicity
 _atom_site_fract_x
 _atom_site_fract_y
 _atom_site_fract_z
 _atom_site_occupancy
  Na  Na0  1  0.50000000  0.50000000  0.00000000  1
  Dy  Dy1  1  0.50000000  0.00000000  0.00000000  1
  Dy  Dy2  1  -0.00000000  -0.00000000  0.50000000  1
  Dy  Dy3  1  0.00000000  0.00000000  0.00000000  1
  Ti  Ti4  1  0.50000000  -0.00000000  0.50000000  1
  Ti  Ti5  1  0.50000000  0.50000000  0.50000000  1
  Sb  Sb6  1  -0.00000000  0.50000000  0.00000000  1
  Sb  Sb7  1  0.00000000  0.50000000  0.50000000  1
  O  O8  1  0.64412493  0.82429048  0.42793753  1
  O  O9  1  0.83870937  0.41163955  0.83064532  1
  O  O10  1  0.25270645  0.83177054  0.82595173  1
  O  O11  1  0.23995088  0.41521267  0.43656741  1
  O  O12  1  0.23995088  0.41521267  0.82348172  1
  O  O13  1  0.25270645  0.83177054  0.42134182  1
  O  O14  1  0.35587507  0.17570952  0.57206247  1
  O  O15  1  0.16129063  0.58836045  0.16935468  1
  O  O16  1  0.74729355  0.16822946  0.17404827  1
  O  O17  1  0.76004912  0.58478733  0.56343259  1
  O  O18  1  0.76004912  0.58478733  0.17651828  1
  O  O19  1  0.74729355  0.16822946  0.57865818  1
  O  O20  1  0.23364489  0.10298228  0.13317755  1
  O  O21  1  0.76635511  0.89701772  0.86682245  1
