# generated using pymatgen
data_Na5BrCl4
_symmetry_space_group_name_H-M   'P 1'
_cell_length_a   4.07397166
_cell_length_b   4.07397166
_cell_length_c   16.80297898
_cell_angle_alpha   90.00000000
_cell_angle_beta   96.96295693
_cell_angle_gamma   120.00000006
_symmetry_Int_Tables_number   1
_chemical_formula_structural   Na5BrCl4
_chemical_formula_sum   'Na5 Br1 Cl4'
_cell_volume   239.14192223
_cell_formula_units_Z   1
loop_
 _symmetry_equiv_pos_site_id
 _symmetry_equiv_pos_as_xyz
  1  'x, y, z'
loop_
 _atom_site_type_symbol
 _atom_site_label
 _atom_site_symmetry_multiplicity
 _atom_site_fract_x
 _atom_site_fract_y
 _atom_site_fract_z
 _atom_site_occupancy
  Na  Na0  1  0.19964638  0.59982319  0.79946957  1
  Na  Na1  1  0.40000000  0.20000000  0.60000000  1
  Na  Na2  1  0.60035362  0.80017681  0.40053043  1
  Na  Na3  1  0.99638178  0.99819089  0.99457267  1
  Na  Na4  1  0.80361822  0.40180911  0.20542733  1
  Br  Br5  1  0.40000000  0.70000000  0.10000000  1
  Cl  Cl6  1  0.20137169  0.10068585  0.30205754  1
  Cl  Cl7  1  0.00005766  0.50002883  0.50008649  1
  Cl  Cl8  1  0.79994234  0.89997117  0.69991351  1
  Cl  Cl9  1  0.59862831  0.29931415  0.89794246  1
