# generated using pymatgen
data_MnCdCu4(SnSe4)2
_symmetry_space_group_name_H-M   'P 1'
_cell_length_a   5.84668778
_cell_length_b   7.11588584
_cell_length_c   10.91340082
_cell_angle_alpha   77.69057369
_cell_angle_beta   74.46259820
_cell_angle_gamma   65.74368190
_symmetry_Int_Tables_number   1
_chemical_formula_structural   MnCdCu4(SnSe4)2
_chemical_formula_sum   'Mn1 Cd1 Cu4 Sn2 Se8'
_cell_volume   396.07342873
_cell_formula_units_Z   1
loop_
 _symmetry_equiv_pos_site_id
 _symmetry_equiv_pos_as_xyz
  1  'x, y, z'
loop_
 _atom_site_type_symbol
 _atom_site_label
 _atom_site_symmetry_multiplicity
 _atom_site_fract_x
 _atom_site_fract_y
 _atom_site_fract_z
 _atom_site_occupancy
  Mn  Mn0  1  0.99986467  0.00000000  -0.00000000  1
  Cd  Cd1  1  0.99978013  0.50000000  0.50000000  1
  Cu  Cu2  1  0.75028999  0.62517888  0.87574383  1
  Cu  Cu3  1  0.74959915  0.12479668  0.37432403  1
  Cu  Cu4  1  0.25121270  0.37482112  0.12425617  1
  Cu  Cu5  1  0.24871986  0.87520332  0.62567597  1
  Sn  Sn6  1  0.49978231  0.24825911  0.75182321  1
  Sn  Sn7  1  0.49986463  0.75174089  0.24817679  1
  Se  Se8  1  0.60240265  0.58571020  0.69927103  1
  Se  Se9  1  0.62097499  0.08200719  0.18927990  1
  Se  Se10  1  0.10740986  0.32488837  0.94597168  1
  Se  Se11  1  0.11343051  0.84165356  0.44366859  1
  Se  Se12  1  0.37826992  0.67511163  0.05402832  1
  Se  Se13  1  0.39875266  0.15834644  0.55633141  1
  Se  Se14  1  0.88738388  0.41428980  0.30072897  1
  Se  Se15  1  0.89226208  0.91799281  0.81072010  1
