# generated using pymatgen
data_MnAl2Sb2(PO4)6
_symmetry_space_group_name_H-M   'P 1'
_cell_length_a   8.56003122
_cell_length_b   8.56003122
_cell_length_c   8.54433548
_cell_angle_alpha   90.00000078
_cell_angle_beta   120.06078484
_cell_angle_gamma   59.99999865
_symmetry_Int_Tables_number   1
_chemical_formula_structural   MnAl2Sb2(PO4)6
_chemical_formula_sum   'Mn1 Al2 Sb2 P6 O24'
_cell_volume   442.29737293
_cell_formula_units_Z   1
loop_
 _symmetry_equiv_pos_site_id
 _symmetry_equiv_pos_as_xyz
  1  'x, y, z'
loop_
 _atom_site_type_symbol
 _atom_site_label
 _atom_site_symmetry_multiplicity
 _atom_site_fract_x
 _atom_site_fract_y
 _atom_site_fract_z
 _atom_site_occupancy
  Mn  Mn0  1  0.00000000  0.50000000  0.50000000  1
  Al  Al1  1  0.71112889  0.64443555  0.06669334  1
  Al  Al2  1  0.28887111  0.35556445  0.93330666  1
  Sb  Sb3  1  0.72481285  0.13759357  0.58721928  1
  Sb  Sb4  1  0.27518715  0.86240643  0.41278072  1
  P  P5  1  0.21868051  0.04277058  0.75382651  1
  P  P6  1  0.79659709  0.73854891  0.75382651  1
  P  P7  1  0.49237542  0.46485400  0.75382651  1
  P  P8  1  0.20340291  0.26145109  0.24617349  1
  P  P9  1  0.50762458  0.53514600  0.24617349  1
  P  P10  1  0.78131949  0.95722942  0.24617349  1
  O  O11  1  0.81659746  0.76148457  0.25320264  1
  O  O12  1  0.01468721  0.42191797  0.25320264  1
  O  O13  1  0.67512060  0.56339483  0.25320264  1
  O  O14  1  0.80747780  0.91521679  0.75763232  1
  O  O15  1  0.67284910  0.27730541  0.75763232  1
  O  O16  1  0.03493773  0.04984549  0.75763232  1
  O  O17  1  0.18340254  0.23851543  0.74679736  1
  O  O18  1  0.98531279  0.57808203  0.74679736  1
  O  O19  1  0.32487940  0.43660517  0.74679736  1
  O  O20  1  0.19252220  0.08478321  0.24236768  1
  O  O21  1  0.32715090  0.72269459  0.24236768  1
  O  O22  1  0.96506227  0.95015451  0.24236768  1
  O  O23  1  0.43514207  0.87534769  0.92569650  1
  O  O24  1  0.80104419  0.68951024  0.92569650  1
  O  O25  1  0.61520674  0.50944557  0.92569650  1
  O  O26  1  0.41648014  0.21335204  0.44060712  1
  O  O27  1  0.65395916  0.37016781  0.44060712  1
  O  O28  1  0.81077493  0.97587303  0.44060712  1
  O  O29  1  0.56485793  0.12465231  0.07430350  1
  O  O30  1  0.19895581  0.31048976  0.07430350  1
  O  O31  1  0.38479326  0.49055443  0.07430350  1
  O  O32  1  0.58351986  0.78664796  0.55939288  1
  O  O33  1  0.34604084  0.62983219  0.55939288  1
  O  O34  1  0.18922507  0.02412697  0.55939288  1
