# generated using pymatgen
data_Mg6SiGe2
_symmetry_space_group_name_H-M   'P 1'
_cell_length_a   4.53230947
_cell_length_b   6.39811409
_cell_length_c   7.83895668
_cell_angle_alpha   65.91462975
_cell_angle_beta   73.19659291
_cell_angle_gamma   90.00000000
_symmetry_Int_Tables_number   1
_chemical_formula_structural   Mg6SiGe2
_chemical_formula_sum   'Mg6 Si1 Ge2'
_cell_volume   196.84614605
_cell_formula_units_Z   1
loop_
 _symmetry_equiv_pos_site_id
 _symmetry_equiv_pos_as_xyz
  1  'x, y, z'
loop_
 _atom_site_type_symbol
 _atom_site_label
 _atom_site_symmetry_multiplicity
 _atom_site_fract_x
 _atom_site_fract_y
 _atom_site_fract_z
 _atom_site_occupancy
  Mg  Mg0  1  0.50000000  0.24902122  0.00000000  1
  Mg  Mg1  1  0.83368903  0.58420033  0.33262094  1
  Mg  Mg2  1  0.16631097  0.91682228  0.66737906  1
  Mg  Mg3  1  0.50000000  0.75097878  1.00000000  1
  Mg  Mg4  1  0.83368903  0.08317772  0.33262094  1
  Mg  Mg5  1  0.16631097  0.41579967  0.66737906  1
  Si  Si6  1  -0.00000000  0.00000000  0.00000000  1
  Ge  Ge7  1  0.33333144  0.33333144  0.33333613  1
  Ge  Ge8  1  0.66666856  0.66666856  0.66666387  1
