# generated using pymatgen
data_MnCu2Sn3S8
_symmetry_space_group_name_H-M   'P 1'
_cell_length_a   7.44177702
_cell_length_b   7.43941510
_cell_length_c   7.37814485
_cell_angle_alpha   90.00000000
_cell_angle_beta   120.25661392
_cell_angle_gamma   60.01049851
_symmetry_Int_Tables_number   1
_chemical_formula_structural   MnCu2Sn3S8
_chemical_formula_sum   'Mn1 Cu2 Sn3 S8'
_cell_volume   287.75416693
_cell_formula_units_Z   1
loop_
 _symmetry_equiv_pos_site_id
 _symmetry_equiv_pos_as_xyz
  1  'x, y, z'
loop_
 _atom_site_type_symbol
 _atom_site_label
 _atom_site_symmetry_multiplicity
 _atom_site_fract_x
 _atom_site_fract_y
 _atom_site_fract_z
 _atom_site_occupancy
  Mn  Mn0  1  0.50000000  -0.00000000  0.50000000  1
  Cu  Cu1  1  0.73722308  0.38138846  0.35580409  1
  Cu  Cu2  1  0.26277692  0.61861154  0.64419591  1
  Sn  Sn3  1  0.50000000  -0.00000000  -0.00000000  1
  Sn  Sn4  1  0.00000000  0.50000000  -0.00000000  1
  Sn  Sn5  1  0.00000000  -0.00000000  -0.00000000  1
  S  S6  1  0.98342342  0.75828829  0.74632402  1
  S  S7  1  0.00150559  0.74924720  0.25258514  1
  S  S8  1  0.49504142  0.24193262  0.25342324  1
  S  S9  1  0.49504142  0.76302596  0.25342324  1
  S  S10  1  0.01657658  0.24171171  0.25367598  1
  S  S11  1  0.99849441  0.25075280  0.74741486  1
  S  S12  1  0.50495858  0.75806738  0.74657676  1
  S  S13  1  0.50495858  0.23697404  0.74657676  1
