# generated using pymatgen
data_Mg4HgAu
_symmetry_space_group_name_H-M   'P 1'
_cell_length_a   4.64984112
_cell_length_b   6.00909143
_cell_length_c   8.74239750
_cell_angle_alpha   90.00000000
_cell_angle_beta   90.00000000
_cell_angle_gamma   90.00000000
_symmetry_Int_Tables_number   1
_chemical_formula_structural   Mg4HgAu
_chemical_formula_sum   'Mg8 Hg2 Au2'
_cell_volume   244.27412983
_cell_formula_units_Z   2
loop_
 _symmetry_equiv_pos_site_id
 _symmetry_equiv_pos_as_xyz
  1  'x, y, z'
loop_
 _atom_site_type_symbol
 _atom_site_label
 _atom_site_symmetry_multiplicity
 _atom_site_fract_x
 _atom_site_fract_y
 _atom_site_fract_z
 _atom_site_occupancy
  Mg  Mg0  1  0.75000000  0.04163002  0.29010890  1
  Mg  Mg1  1  0.75000000  0.54163002  0.20989110  1
  Mg  Mg2  1  0.25000000  0.97078348  0.71655712  1
  Mg  Mg3  1  0.25000000  0.47078348  0.78344288  1
  Mg  Mg4  1  0.75000000  0.68579463  0.57103107  1
  Mg  Mg5  1  0.75000000  0.18579463  0.92896893  1
  Mg  Mg6  1  0.25000000  0.30500918  0.44791035  1
  Mg  Mg7  1  0.25000000  0.80500918  0.05208965  1
  Hg  Hg8  1  0.25000000  0.77808513  0.38262922  1
  Hg  Hg9  1  0.25000000  0.27808513  0.11737078  1
  Au  Au10  1  0.75000000  0.21869756  0.61598584  1
  Au  Au11  1  0.75000000  0.71869756  0.88401416  1
