# generated using pymatgen
data_Mn4SiMoC
_symmetry_space_group_name_H-M   'P 1'
_cell_length_a   6.50102707
_cell_length_b   6.50102707
_cell_length_c   7.63657592
_cell_angle_alpha   90.00000000
_cell_angle_beta   90.00000000
_cell_angle_gamma   103.17430591
_symmetry_Int_Tables_number   1
_chemical_formula_structural   Mn4SiMoC
_chemical_formula_sum   'Mn16 Si4 Mo4 C4'
_cell_volume   314.25298478
_cell_formula_units_Z   4
loop_
 _symmetry_equiv_pos_site_id
 _symmetry_equiv_pos_as_xyz
  1  'x, y, z'
loop_
 _atom_site_type_symbol
 _atom_site_label
 _atom_site_symmetry_multiplicity
 _atom_site_fract_x
 _atom_site_fract_y
 _atom_site_fract_z
 _atom_site_occupancy
  Mn  Mn0  1  0.94697342  0.70198806  0.16396137  1
  Mn  Mn1  1  0.70198806  0.94697342  0.16396137  1
  Mn  Mn2  1  0.05302658  0.29801194  0.66396137  1
  Mn  Mn3  1  0.29801194  0.05302658  0.66396137  1
  Mn  Mn4  1  0.12205947  0.87191571  0.91700361  1
  Mn  Mn5  1  0.87191571  0.12205947  0.91700361  1
  Mn  Mn6  1  0.87794053  0.12808429  0.41700361  1
  Mn  Mn7  1  0.12808429  0.87794053  0.41700361  1
  Mn  Mn8  1  0.55135252  0.55135252  0.15834694  1
  Mn  Mn9  1  0.44864748  0.44864748  0.65834694  1
  Mn  Mn10  1  0.87925234  0.87925234  0.67057010  1
  Mn  Mn11  1  0.12074766  0.12074766  0.17057010  1
  Mn  Mn12  1  0.81024184  0.51453463  0.85195560  1
  Mn  Mn13  1  0.51453463  0.81024184  0.85195560  1
  Mn  Mn14  1  0.18975816  0.48546537  0.35195560  1
  Mn  Mn15  1  0.48546537  0.18975816  0.35195560  1
  Si  Si16  1  0.16957726  0.66476696  0.66838392  1
  Si  Si17  1  0.66476696  0.16957726  0.66838392  1
  Si  Si18  1  0.83042274  0.33523304  0.16838392  1
  Si  Si19  1  0.33523304  0.83042274  0.16838392  1
  Mo  Mo20  1  0.80928515  0.51458072  0.47945554  1
  Mo  Mo21  1  0.51458072  0.80928515  0.47945554  1
  Mo  Mo22  1  0.19071485  0.48541928  0.97945554  1
  Mo  Mo23  1  0.48541928  0.19071485  0.97945554  1
  C  C24  1  0.81942457  0.81942457  0.37186301  1
  C  C25  1  0.18057543  0.18057543  0.87186301  1
  C  C26  1  0.80366492  0.80366492  0.95459986  1
  C  C27  1  0.19633508  0.19633508  0.45459986  1
