# generated using pymatgen
data_Mg4SiGe
_symmetry_space_group_name_H-M   'P 1'
_cell_length_a   4.52113209
_cell_length_b   4.52113209
_cell_length_c   7.82408716
_cell_angle_alpha   73.20645549
_cell_angle_beta   90.00000000
_cell_angle_gamma   120.00000000
_symmetry_Int_Tables_number   1
_chemical_formula_structural   Mg4SiGe
_chemical_formula_sum   'Mg4 Si1 Ge1'
_cell_volume   130.56766231
_cell_formula_units_Z   1
loop_
 _symmetry_equiv_pos_site_id
 _symmetry_equiv_pos_as_xyz
  1  'x, y, z'
loop_
 _atom_site_type_symbol
 _atom_site_label
 _atom_site_symmetry_multiplicity
 _atom_site_fract_x
 _atom_site_fract_y
 _atom_site_fract_z
 _atom_site_occupancy
  Mg  Mg0  1  0.62527384  0.25054768  0.12417848  1
  Mg  Mg1  1  0.12471348  0.24942696  0.62585956  1
  Mg  Mg2  1  0.87528652  0.75057304  0.37414044  1
  Mg  Mg3  1  0.37472616  0.74945232  0.87582152  1
  Si  Si4  1  0.00000000  -0.00000000  0.00000000  1
  Ge  Ge5  1  0.50000000  -0.00000000  0.50000000  1
