# generated using pymatgen
data_Mn2FeAg2(PO4)3
_symmetry_space_group_name_H-M   'P 1'
_cell_length_a   6.60101718
_cell_length_b   8.92901359
_cell_length_c   8.92901359
_cell_angle_alpha   92.80117120
_cell_angle_beta   106.64825315
_cell_angle_gamma   106.64825315
_symmetry_Int_Tables_number   1
_chemical_formula_structural   Mn2FeAg2(PO4)3
_chemical_formula_sum   'Mn4 Fe2 Ag4 P6 O24'
_cell_volume   478.14318449
_cell_formula_units_Z   2
loop_
 _symmetry_equiv_pos_site_id
 _symmetry_equiv_pos_as_xyz
  1  'x, y, z'
loop_
 _atom_site_type_symbol
 _atom_site_label
 _atom_site_symmetry_multiplicity
 _atom_site_fract_x
 _atom_site_fract_y
 _atom_site_fract_z
 _atom_site_occupancy
  Mn  Mn0  1  0.25000000  0.26602170  0.73397830  1
  Mn  Mn1  1  0.75000000  0.73100405  0.26899595  1
  Mn  Mn2  1  0.13659099  0.37358690  0.06597298  1
  Mn  Mn3  1  0.36340901  0.93402702  0.62641310  1
  Fe  Fe4  1  0.86886819  0.61920529  0.93603273  1
  Fe  Fe5  1  0.63113181  0.06396727  0.38079471  1
  Ag  Ag6  1  0.49869413  0.49970947  0.50004010  1
  Ag  Ag7  1  0.00130587  0.49995990  0.50029053  1
  Ag  Ag8  1  0.25000000  0.99213929  0.00786071  1
  Ag  Ag9  1  0.75000000  0.01181234  0.98818766  1
  P  P10  1  0.37361173  0.65288131  0.87531051  1
  P  P11  1  0.12638827  0.12468949  0.34711869  1
  P  P12  1  0.62880957  0.34787369  0.12760575  1
  P  P13  1  0.87119043  0.87239425  0.65212631  1
  P  P14  1  0.25000000  0.71669783  0.28330217  1
  P  P15  1  0.75000000  0.28634310  0.71365690  1
  O  O16  1  0.18260109  0.60526562  0.95085490  1
  O  O17  1  0.31739891  0.04914510  0.39473438  1
  O  O18  1  0.81430574  0.40547577  0.04802483  1
  O  O19  1  0.68569426  0.95197517  0.59452423  1
  O  O20  1  0.39923463  0.31848580  0.99908700  1
  O  O21  1  0.10076537  0.00091300  0.68151420  1
  O  O22  1  0.60439918  0.66098053  0.99842831  1
  O  O23  1  0.89560082  0.00157169  0.33901947  1
  O  O24  1  0.96224711  0.25821910  0.82086111  1
  O  O25  1  0.53775289  0.17913889  0.74178090  1
  O  O26  1  0.03498186  0.73774014  0.16181329  1
  O  O27  1  0.46501814  0.83818671  0.26225986  1
  O  O28  1  0.17681984  0.26683613  0.47210607  1
  O  O29  1  0.32318016  0.52789393  0.73316387  1
  O  O30  1  0.82930022  0.73392181  0.52552284  1
  O  O31  1  0.67069978  0.47447716  0.26607819  1
  O  O32  1  0.10245210  0.16520835  0.17651725  1
  O  O33  1  0.39754790  0.82348275  0.83479165  1
  O  O34  1  0.87376541  0.81197674  0.81625708  1
  O  O35  1  0.62623459  0.18374292  0.18802326  1
  O  O36  1  0.27251970  0.55197977  0.25842571  1
  O  O37  1  0.22748030  0.74157429  0.44802023  1
  O  O38  1  0.75393635  0.46203006  0.74253432  1
  O  O39  1  0.74606365  0.25746568  0.53796994  1
