# generated using pymatgen
data_La3Gd(ClO)4
_symmetry_space_group_name_H-M   'P 1'
_cell_length_a   4.09587121
_cell_length_b   8.18975533
_cell_length_c   6.95072872
_cell_angle_alpha   90.00000000
_cell_angle_beta   90.00000000
_cell_angle_gamma   90.00000000
_symmetry_Int_Tables_number   1
_chemical_formula_structural   La3Gd(ClO)4
_chemical_formula_sum   'La3 Gd1 Cl4 O4'
_cell_volume   233.15651668
_cell_formula_units_Z   1
loop_
 _symmetry_equiv_pos_site_id
 _symmetry_equiv_pos_as_xyz
  1  'x, y, z'
loop_
 _atom_site_type_symbol
 _atom_site_label
 _atom_site_symmetry_multiplicity
 _atom_site_fract_x
 _atom_site_fract_y
 _atom_site_fract_z
 _atom_site_occupancy
  La  La0  1  -0.00000000  0.75000000  0.17773529  1
  La  La1  1  0.50000000  0.00163162  0.82574692  1
  La  La2  1  0.50000000  0.49836838  0.82574692  1
  Gd  Gd3  1  -0.00000000  0.25000000  0.16245725  1
  Cl  Cl4  1  -0.00000000  0.25000000  0.62750857  1
  Cl  Cl5  1  0.00000000  0.75000000  0.63225649  1
  Cl  Cl6  1  0.50000000  0.00278339  0.36813861  1
  Cl  Cl7  1  0.50000000  0.49721661  0.36813861  1
  O  O8  1  0.50000000  0.25000000  0.00617580  1
  O  O9  1  0.50000000  0.75000000  0.00015985  1
  O  O10  1  -0.00000000  0.00521399  0.00296784  1
  O  O11  1  -0.00000000  0.49478601  0.00296784  1
