# generated using pymatgen
data_LaGd3(BrO)4
_symmetry_space_group_name_H-M   'P 1'
_cell_length_a   3.95109248
_cell_length_b   9.37885433
_cell_length_c   7.90675035
_cell_angle_alpha   65.06940793
_cell_angle_beta   90.00000000
_cell_angle_gamma   90.00000000
_symmetry_Int_Tables_number   1
_chemical_formula_structural   LaGd3(BrO)4
_chemical_formula_sum   'La1 Gd3 Br4 O4'
_cell_volume   265.69639484
_cell_formula_units_Z   1
loop_
 _symmetry_equiv_pos_site_id
 _symmetry_equiv_pos_as_xyz
  1  'x, y, z'
loop_
 _atom_site_type_symbol
 _atom_site_label
 _atom_site_symmetry_multiplicity
 _atom_site_fract_x
 _atom_site_fract_y
 _atom_site_fract_z
 _atom_site_occupancy
  La  La0  1  0.50000000  0.14932551  0.92533725  1
  Gd  Gd1  1  0.50000000  0.13239693  0.43380154  1
  Gd  Gd2  1  0.00000000  0.86211714  0.31864691  1
  Gd  Gd3  1  -0.00000000  0.86211714  0.81923595  1
  Br  Br4  1  0.50000000  0.67123318  0.16438341  1
  Br  Br5  1  0.50000000  0.66590009  0.66704995  1
  Br  Br6  1  -0.00000000  0.33375508  0.09471258  1
  Br  Br7  1  -0.00000000  0.33375508  0.57153235  1
  O  O8  1  0.50000000  0.99724873  0.25438332  1
  O  O9  1  0.50000000  0.99724873  0.74836795  1
  O  O10  1  -0.00000000  0.99637882  0.50181059  1
  O  O11  1  0.00000000  0.99852360  0.00073820  1
