# generated using pymatgen
data_LiBi3(BrO2)2
_symmetry_space_group_name_H-M   'P 1'
_cell_length_a   5.56948108
_cell_length_b   5.57656360
_cell_length_c   6.95047693
_cell_angle_alpha   90.00000000
_cell_angle_beta   66.38089305
_cell_angle_gamma   90.00000000
_symmetry_Int_Tables_number   1
_chemical_formula_structural   LiBi3(BrO2)2
_chemical_formula_sum   'Li1 Bi3 Br2 O4'
_cell_volume   197.78807949
_cell_formula_units_Z   1
loop_
 _symmetry_equiv_pos_site_id
 _symmetry_equiv_pos_as_xyz
  1  'x, y, z'
loop_
 _atom_site_type_symbol
 _atom_site_label
 _atom_site_symmetry_multiplicity
 _atom_site_fract_x
 _atom_site_fract_y
 _atom_site_fract_z
 _atom_site_occupancy
  Li  Li0  1  0.70170517  0.50000000  0.59658967  1
  Bi  Bi1  1  0.15642690  0.00000000  0.68714620  1
  Bi  Bi2  1  0.83618888  0.00000000  0.32762224  1
  Bi  Bi3  1  0.33954281  0.50000000  0.32091437  1
  Br  Br4  1  0.49384645  0.00000000  0.01230709  1
  Br  Br5  1  0.98394920  0.50000000  0.03210161  1
  O  O6  1  0.49389163  0.24766554  0.50582971  1
  O  O7  1  0.00027866  0.75233446  0.50582971  1
  O  O8  1  0.00027866  0.24766554  0.50582971  1
  O  O9  1  0.49389163  0.75233446  0.50582971  1
