# generated using pymatgen
data_La4Cu4Se3SO4
_symmetry_space_group_name_H-M   'P 1'
_cell_length_a   5.74364408
_cell_length_b   5.74364408
_cell_length_c   8.75318618
_cell_angle_alpha   90.00000000
_cell_angle_beta   90.00000000
_cell_angle_gamma   90.00000000
_symmetry_Int_Tables_number   1
_chemical_formula_structural   La4Cu4Se3SO4
_chemical_formula_sum   'La4 Cu4 Se3 S1 O4'
_cell_volume   288.76277468
_cell_formula_units_Z   1
loop_
 _symmetry_equiv_pos_site_id
 _symmetry_equiv_pos_as_xyz
  1  'x, y, z'
loop_
 _atom_site_type_symbol
 _atom_site_label
 _atom_site_symmetry_multiplicity
 _atom_site_fract_x
 _atom_site_fract_y
 _atom_site_fract_z
 _atom_site_occupancy
  La  La0  1  0.75000000  -0.00000000  0.85712958  1
  La  La1  1  0.25000000  0.50000000  0.85712958  1
  La  La2  1  0.25000000  -0.00000000  0.14138221  1
  La  La3  1  0.75000000  0.50000000  0.14163948  1
  Cu  Cu4  1  0.50222886  0.25222886  0.50156134  1
  Cu  Cu5  1  0.99777114  0.74777114  0.50156134  1
  Cu  Cu6  1  0.50222886  0.74777114  0.50156134  1
  Cu  Cu7  1  0.99777114  0.25222886  0.50156134  1
  Se  Se8  1  0.75000000  -0.00000000  0.32915920  1
  Se  Se9  1  0.25000000  0.50000000  0.32915920  1
  Se  Se10  1  0.25000000  -0.00000000  0.66965172  1
  S  S11  1  0.75000000  0.50000000  0.65415598  1
  O  O12  1  0.50037282  0.25037282  0.99858693  1
  O  O13  1  0.99962718  0.74962718  0.99858693  1
  O  O14  1  0.50037282  0.74962718  0.99858693  1
  O  O15  1  0.99962718  0.25037282  0.99858693  1
