# generated using pymatgen
data_La4BrCl3O4
_symmetry_space_group_name_H-M   'P 1'
_cell_length_a   4.13310349
_cell_length_b   4.13310349
_cell_length_c   14.33616469
_cell_angle_alpha   90.00000000
_cell_angle_beta   90.00000000
_cell_angle_gamma   90.00000000
_symmetry_Int_Tables_number   1
_chemical_formula_structural   La4BrCl3O4
_chemical_formula_sum   'La4 Br1 Cl3 O4'
_cell_volume   244.89817069
_cell_formula_units_Z   1
loop_
 _symmetry_equiv_pos_site_id
 _symmetry_equiv_pos_as_xyz
  1  'x, y, z'
loop_
 _atom_site_type_symbol
 _atom_site_label
 _atom_site_symmetry_multiplicity
 _atom_site_fract_x
 _atom_site_fract_y
 _atom_site_fract_z
 _atom_site_occupancy
  La  La0  1  -0.00000000  0.50000000  0.08287374  1
  La  La1  1  0.00000000  0.50000000  0.58723843  1
  La  La2  1  0.50000000  0.00000000  0.41858046  1
  La  La3  1  0.50000000  0.00000000  0.91424619  1
  Br  Br4  1  -0.00000000  0.50000000  0.31417365  1
  Cl  Cl5  1  0.00000000  0.50000000  0.81656621  1
  Cl  Cl6  1  0.50000000  0.00000000  0.18053684  1
  Cl  Cl7  1  0.50000000  0.00000000  0.68368683  1
  O  O8  1  0.50000000  0.50000000  0.99852827  1
  O  O9  1  0.50000000  0.50000000  0.50252056  1
  O  O10  1  -0.00000000  0.00000000  0.99852827  1
  O  O11  1  0.00000000  0.00000000  0.50252056  1
