# generated using pymatgen
data_La4FeAs4Ru3O4
_symmetry_space_group_name_H-M   'P 1'
_cell_length_a   4.11860378
_cell_length_b   4.11860378
_cell_length_c   17.63523400
_cell_angle_alpha   90.00000000
_cell_angle_beta   90.00000000
_cell_angle_gamma   90.00000000
_symmetry_Int_Tables_number   1
_chemical_formula_structural   La4FeAs4Ru3O4
_chemical_formula_sum   'La4 Fe1 As4 Ru3 O4'
_cell_volume   299.14465962
_cell_formula_units_Z   1
loop_
 _symmetry_equiv_pos_site_id
 _symmetry_equiv_pos_as_xyz
  1  'x, y, z'
loop_
 _atom_site_type_symbol
 _atom_site_label
 _atom_site_symmetry_multiplicity
 _atom_site_fract_x
 _atom_site_fract_y
 _atom_site_fract_z
 _atom_site_occupancy
  La  La0  1  0.75000000  0.75000000  0.43236611  1
  La  La1  1  0.75000000  0.75000000  0.93012038  1
  La  La2  1  0.25000000  0.25000000  0.06763389  1
  La  La3  1  0.25000000  0.25000000  0.56987962  1
  Fe  Fe4  1  0.75000000  0.25000000  0.25000000  1
  As  As5  1  0.75000000  0.75000000  0.16699578  1
  As  As6  1  0.75000000  0.75000000  0.67546013  1
  As  As7  1  0.25000000  0.25000000  0.33300422  1
  As  As8  1  0.25000000  0.25000000  0.82453987  1
  Ru  Ru9  1  0.75000000  0.25000000  0.75000000  1
  Ru  Ru10  1  0.25000000  0.75000000  0.25000000  1
  Ru  Ru11  1  0.25000000  0.75000000  0.75000000  1
  O  O12  1  0.75000000  0.25000000  0.99794872  1
  O  O13  1  0.75000000  0.25000000  0.50205128  1
  O  O14  1  0.25000000  0.75000000  0.99909740  1
  O  O15  1  0.25000000  0.75000000  0.50090260  1
