# generated using pymatgen
data_La5Al15Cu4Au
_symmetry_space_group_name_H-M   'P 1'
_cell_length_a   4.33094068
_cell_length_b   4.33094068
_cell_length_c   27.02900384
_cell_angle_alpha   85.40473536
_cell_angle_beta   85.40473536
_cell_angle_gamma   90.00000000
_symmetry_Int_Tables_number   1
_chemical_formula_structural   La5Al15Cu4Au
_chemical_formula_sum   'La5 Al15 Cu4 Au1'
_cell_volume   503.71962871
_cell_formula_units_Z   1
loop_
 _symmetry_equiv_pos_site_id
 _symmetry_equiv_pos_as_xyz
  1  'x, y, z'
loop_
 _atom_site_type_symbol
 _atom_site_label
 _atom_site_symmetry_multiplicity
 _atom_site_fract_x
 _atom_site_fract_y
 _atom_site_fract_z
 _atom_site_occupancy
  La  La0  1  0.00051609  0.00051609  0.99896782  1
  La  La1  1  0.40069746  0.40069746  0.19860507  1
  La  La2  1  0.80073988  0.80073988  0.39852024  1
  La  La3  1  0.20087551  0.20087551  0.59824897  1
  La  La4  1  0.60179779  0.60179779  0.79640442  1
  Al  Al5  1  0.45101715  0.95101715  0.09796570  1
  Al  Al6  1  0.85108822  0.35108822  0.29782355  1
  Al  Al7  1  0.25108219  0.75108219  0.49783561  1
  Al  Al8  1  0.65156154  0.15156154  0.69687692  1
  Al  Al9  1  0.04945216  0.54945216  0.90109567  1
  Al  Al10  1  0.95101715  0.45101715  0.09796570  1
  Al  Al11  1  0.35108822  0.85108822  0.29782355  1
  Al  Al12  1  0.75108219  0.25108219  0.49783561  1
  Al  Al13  1  0.15156154  0.65156154  0.69687692  1
  Al  Al14  1  0.54945216  0.04945216  0.90109567  1
  Al  Al15  1  0.91992615  0.91992615  0.16014769  1
  Al  Al16  1  0.31999715  0.31999715  0.36000571  1
  Al  Al17  1  0.72000380  0.72000380  0.55999240  1
  Al  Al18  1  0.12157743  0.12157743  0.75684514  1
  Al  Al19  1  0.51923242  0.51923242  0.96153515  1
  Cu  Cu20  1  0.47410151  0.47410151  0.05179698  1
  Cu  Cu21  1  0.87432671  0.87432671  0.25134659  1
  Cu  Cu22  1  0.27435023  0.27435023  0.45129954  1
  Cu  Cu23  1  0.67447636  0.67447636  0.65104729  1
  Au  Au24  1  0.07497896  0.07497896  0.85004207  1
