# generated using pymatgen
data_La3Pr(CoP)8
_symmetry_space_group_name_H-M   'P 1'
_cell_length_a   3.75405236
_cell_length_b   3.75405236
_cell_length_c   22.52899160
_cell_angle_alpha   90.00000000
_cell_angle_beta   90.00000000
_cell_angle_gamma   90.00000000
_symmetry_Int_Tables_number   1
_chemical_formula_structural   La3Pr(CoP)8
_chemical_formula_sum   'La3 Pr1 Co8 P8'
_cell_volume   317.49903122
_cell_formula_units_Z   1
loop_
 _symmetry_equiv_pos_site_id
 _symmetry_equiv_pos_as_xyz
  1  'x, y, z'
loop_
 _atom_site_type_symbol
 _atom_site_label
 _atom_site_symmetry_multiplicity
 _atom_site_fract_x
 _atom_site_fract_y
 _atom_site_fract_z
 _atom_site_occupancy
  La  La0  1  -0.00000000  0.00000000  0.24978024  1
  La  La1  1  0.50000000  0.50000000  0.50000000  1
  La  La2  1  0.00000000  -0.00000000  0.75021976  1
  Pr  Pr3  1  0.50000000  0.50000000  0.00000000  1
  Co  Co4  1  -0.00000000  0.50000000  0.12355528  1
  Co  Co5  1  0.50000000  0.00000000  0.37502875  1
  Co  Co6  1  0.00000000  0.50000000  0.62497125  1
  Co  Co7  1  0.50000000  -0.00000000  0.87644472  1
  Co  Co8  1  0.50000000  0.00000000  0.12355528  1
  Co  Co9  1  -0.00000000  0.50000000  0.37502875  1
  Co  Co10  1  0.50000000  -0.00000000  0.62497125  1
  Co  Co11  1  0.00000000  0.50000000  0.87644472  1
  P  P12  1  0.50000000  0.50000000  0.17532609  1
  P  P13  1  0.00000000  -0.00000000  0.42683242  1
  P  P14  1  0.50000000  0.50000000  0.67703494  1
  P  P15  1  0.00000000  -0.00000000  0.92879677  1
  P  P16  1  -0.00000000  0.00000000  0.07120323  1
  P  P17  1  0.50000000  0.50000000  0.32296506  1
  P  P18  1  -0.00000000  0.00000000  0.57316758  1
  P  P19  1  0.50000000  0.50000000  0.82467391  1
