# generated using pymatgen
data_La6Fe(SiS7)2
_symmetry_space_group_name_H-M   'P 1'
_cell_length_a   5.78482773
_cell_length_b   10.36913968
_cell_length_c   10.29357987
_cell_angle_alpha   119.86664448
_cell_angle_beta   89.89556131
_cell_angle_gamma   89.99469086
_symmetry_Int_Tables_number   1
_chemical_formula_structural   La6Fe(SiS7)2
_chemical_formula_sum   'La6 Fe1 Si2 S14'
_cell_volume   535.44053270
_cell_formula_units_Z   1
loop_
 _symmetry_equiv_pos_site_id
 _symmetry_equiv_pos_as_xyz
  1  'x, y, z'
loop_
 _atom_site_type_symbol
 _atom_site_label
 _atom_site_symmetry_multiplicity
 _atom_site_fract_x
 _atom_site_fract_y
 _atom_site_fract_z
 _atom_site_occupancy
  La  La0  1  0.25185471  0.23356543  0.35521380  1
  La  La1  1  0.25076416  0.64196589  0.87706597  1
  La  La2  1  0.25174160  0.12182543  0.76727175  1
  La  La3  1  0.75118744  0.76679752  0.64528828  1
  La  La4  1  0.75245375  0.35734354  0.12337853  1
  La  La5  1  0.75035584  0.87850900  0.23213791  1
  Fe  Fe6  1  0.48752956  0.00015960  0.99848063  1
  Si  Si7  1  0.83549048  0.33316031  0.66611296  1
  Si  Si8  1  0.33718627  0.66673590  0.33367560  1
  S  S9  1  0.47146146  0.33329915  0.66672171  1
  S  S10  1  0.97281123  0.66692323  0.33330795  1
  S  S11  1  0.72687643  0.15790153  0.23916345  1
  S  S12  1  0.72765487  0.75924174  0.91724128  1
  S  S13  1  0.72645037  0.08252059  0.84397426  1
  S  S14  1  0.25435405  0.84069857  0.76212538  1
  S  S15  1  0.25254849  0.24014893  0.08081420  1
  S  S16  1  0.25427565  0.91965142  0.15802110  1
  S  S17  1  0.97585345  0.11570999  0.52386027  1
  S  S18  1  0.97617811  0.47587579  0.59096186  1
  S  S19  1  0.97627247  0.40798459  0.88488444  1
  S  S20  1  0.47697787  0.88416835  0.47542108  1
  S  S21  1  0.47798477  0.52504219  0.40983738  1
  S  S22  1  0.47773694  0.59077133  0.11504022  1
