# generated using pymatgen
data_HoGaAg
_symmetry_space_group_name_H-M   'P 1'
_cell_length_a   4.57404885
_cell_length_b   5.80158696
_cell_length_c   5.72893183
_cell_angle_alpha   94.89698050
_cell_angle_beta   113.52855621
_cell_angle_gamma   66.78349306
_symmetry_Int_Tables_number   1
_chemical_formula_structural   HoGaAg
_chemical_formula_sum   'Ho2 Ga2 Ag2'
_cell_volume   127.63187556
_cell_formula_units_Z   2
loop_
 _symmetry_equiv_pos_site_id
 _symmetry_equiv_pos_as_xyz
  1  'x, y, z'
loop_
 _atom_site_type_symbol
 _atom_site_label
 _atom_site_symmetry_multiplicity
 _atom_site_fract_x
 _atom_site_fract_y
 _atom_site_fract_z
 _atom_site_occupancy
  Ho  Ho0  1  0.75439758  0.70923586  0.21803102  1
  Ho  Ho1  1  0.24560242  0.29076414  0.78196898  1
  Ga  Ga2  1  0.04416991  0.11536064  0.20370046  1
  Ga  Ga3  1  0.95583009  0.88463936  0.79629954  1
  Ag  Ag4  1  0.54889460  0.27768084  0.37547005  1
  Ag  Ag5  1  0.45110540  0.72231916  0.62452995  1
