# generated using pymatgen
data_K2Mg5Cu3(AsO4)6
_symmetry_space_group_name_H-M   'P 1'
_cell_length_a   6.90665611
_cell_length_b   8.90431633
_cell_length_c   8.93665456
_cell_angle_alpha   92.44998697
_cell_angle_beta   105.86495523
_cell_angle_gamma   106.11836768
_symmetry_Int_Tables_number   1
_chemical_formula_structural   K2Mg5Cu3(AsO4)6
_chemical_formula_sum   'K2 Mg5 Cu3 As6 O24'
_cell_volume   503.67631071
_cell_formula_units_Z   1
loop_
 _symmetry_equiv_pos_site_id
 _symmetry_equiv_pos_as_xyz
  1  'x, y, z'
loop_
 _atom_site_type_symbol
 _atom_site_label
 _atom_site_symmetry_multiplicity
 _atom_site_fract_x
 _atom_site_fract_y
 _atom_site_fract_z
 _atom_site_occupancy
  K  K0  1  0.25004411  0.98593477  0.01486847  1
  K  K1  1  0.75145193  0.01775774  0.98457054  1
  Mg  Mg2  1  0.24933927  0.25700401  0.74407628  1
  Mg  Mg3  1  0.74965738  0.74192741  0.25758097  1
  Mg  Mg4  1  0.36790665  0.93945467  0.62296401  1
  Mg  Mg5  1  0.86572289  0.62066946  0.93852906  1
  Mg  Mg6  1  0.63297725  0.06219506  0.37781959  1
  Cu  Cu7  1  0.24983821  0.50347353  0.49827594  1
  Cu  Cu8  1  0.74921275  0.49721922  0.50218689  1
  Cu  Cu9  1  0.14510606  0.38422990  0.06881126  1
  As  As10  1  0.37242856  0.64588727  0.87857509  1
  As  As11  1  0.12963133  0.12413224  0.35192850  1
  As  As12  1  0.62797997  0.35215514  0.12205214  1
  As  As13  1  0.87070396  0.87768440  0.64799601  1
  As  As14  1  0.75062442  0.28467669  0.71586548  1
  As  As15  1  0.24911485  0.71576136  0.28351365  1
  O  O16  1  0.38290462  0.32756047  0.98825747  1
  O  O17  1  0.11767084  0.00866055  0.66987558  1
  O  O18  1  0.61780969  0.67093869  0.00953426  1
  O  O19  1  0.88338720  0.99177587  0.32887867  1
  O  O20  1  0.23626917  0.51419167  0.27740451  1
  O  O21  1  0.26114441  0.72325643  0.48222583  1
  O  O22  1  0.76107725  0.48377505  0.72418722  1
  O  O23  1  0.73871496  0.27583638  0.51681189  1
  O  O24  1  0.18655301  0.27718207  0.50030745  1
  O  O25  1  0.31404084  0.49897396  0.72448300  1
  O  O26  1  0.81425232  0.72446263  0.49930043  1
  O  O27  1  0.68554214  0.50055697  0.27613760  1
  O  O28  1  0.81648019  0.40737785  0.02712363  1
  O  O29  1  0.67834540  0.97004617  0.59328381  1
  O  O30  1  0.17858352  0.59000103  0.97364355  1
  O  O31  1  0.31934731  0.02916483  0.40482689  1
  O  O32  1  0.97603587  0.24841359  0.82403326  1
  O  O33  1  0.52227663  0.17262594  0.74832478  1
  O  O34  1  0.02345964  0.74943134  0.17281749  1
  O  O35  1  0.47663643  0.82642739  0.25036084  1
  O  O36  1  0.62467492  0.17542285  0.18652418  1
  O  O37  1  0.87492249  0.81387777  0.82431114  1
  O  O38  1  0.37241745  0.82229665  0.81495293  1
  O  O39  1  0.12571411  0.18758096  0.17277971  1
