# generated using pymatgen
data_Ho6Mn(GeS7)2
_symmetry_space_group_name_H-M   'P 1'
_cell_length_a   5.80354498
_cell_length_b   9.78907989
_cell_length_c   9.78895054
_cell_angle_alpha   119.99962838
_cell_angle_beta   90.00027206
_cell_angle_gamma   89.99956577
_symmetry_Int_Tables_number   1
_chemical_formula_structural   Ho6Mn(GeS7)2
_chemical_formula_sum   'Ho6 Mn1 Ge2 S14'
_cell_volume   481.61900895
_cell_formula_units_Z   1
loop_
 _symmetry_equiv_pos_site_id
 _symmetry_equiv_pos_as_xyz
  1  'x, y, z'
loop_
 _atom_site_type_symbol
 _atom_site_label
 _atom_site_symmetry_multiplicity
 _atom_site_fract_x
 _atom_site_fract_y
 _atom_site_fract_z
 _atom_site_occupancy
  Ho  Ho0  1  0.04318139  0.77850520  0.13588999  1
  Ho  Ho1  1  0.04319105  0.86410672  0.64262206  1
  Ho  Ho2  1  0.04317968  0.35737946  0.22149261  1
  Ho  Ho3  1  0.54164765  0.22222936  0.86338205  1
  Ho  Ho4  1  0.54165044  0.13661896  0.35883969  1
  Ho  Ho5  1  0.54164750  0.64116962  0.77778513  1
  Mn  Mn6  1  0.75450796  0.99999482  0.99999529  1
  Ge  Ge7  1  0.62146371  0.66665905  0.33332755  1
  Ge  Ge8  1  0.11906324  0.33333982  0.66666719  1
  S  S9  1  0.78426341  0.51894116  0.09560814  1
  S  S10  1  0.78424642  0.90437939  0.42333740  1
  S  S11  1  0.78426257  0.57665504  0.48104559  1
  S  S12  1  0.28163141  0.48151710  0.90450206  1
  S  S13  1  0.28162025  0.09550023  0.57700384  1
  S  S14  1  0.28162024  0.42300355  0.51849509  1
  S  S15  1  0.24104893  0.66663726  0.33332251  1
  S  S16  1  0.73935914  0.33336887  0.66668495  1
  S  S17  1  0.98714298  0.09875599  0.25060385  1
  S  S18  1  0.98714933  0.74940436  0.84815001  1
  S  S19  1  0.98714101  0.15183259  0.90123206  1
  S  S20  1  0.50323110  0.90256482  0.74895567  1
  S  S21  1  0.50321290  0.25104611  0.15362164  1
  S  S22  1  0.50323771  0.84639053  0.09743562  1
