# generated using pymatgen
data_La12Ge5S28
_symmetry_space_group_name_H-M   'P 1'
_cell_length_a   10.36528423
_cell_length_b   11.76867520
_cell_length_c   11.91340184
_cell_angle_alpha   60.39944638
_cell_angle_beta   64.22698993
_cell_angle_gamma   90.00445527
_symmetry_Int_Tables_number   1
_chemical_formula_structural   La12Ge5S28
_chemical_formula_sum   'La12 Ge5 S28'
_cell_volume   1094.22463078
_cell_formula_units_Z   1
loop_
 _symmetry_equiv_pos_site_id
 _symmetry_equiv_pos_as_xyz
  1  'x, y, z'
loop_
 _atom_site_type_symbol
 _atom_site_label
 _atom_site_symmetry_multiplicity
 _atom_site_fract_x
 _atom_site_fract_y
 _atom_site_fract_z
 _atom_site_occupancy
  La  La0  1  0.63706530  0.81099185  0.12859672  1
  La  La1  1  0.65373143  0.29973237  0.12207131  1
  La  La2  1  0.22321633  0.53355522  0.65423892  1
  La  La3  1  0.23576184  0.05774280  0.63594165  1
  La  La4  1  0.12632138  0.75695092  0.23712149  1
  La  La5  1  0.12369100  0.24953411  0.22219594  1
  La  La6  1  0.34477559  0.18656222  0.87865534  1
  La  La7  1  0.36569861  0.67649906  0.86924398  1
  La  La8  1  0.76626505  0.42778202  0.36656725  1
  La  La9  1  0.77613941  0.95394224  0.34422737  1
  La  La10  1  0.87877153  0.23778228  0.77579121  1
  La  La11  1  0.86838073  0.72811346  0.76640988  1
  Ge  Ge12  1  0.66737760  0.99445617  0.66523605  1
  Ge  Ge13  1  0.66616531  0.49174349  0.66779303  1
  Ge  Ge14  1  0.33505214  0.91187429  0.33341251  1
  Ge  Ge15  1  0.33149902  0.41133803  0.33326901  1
  Ge  Ge16  1  0.00022360  0.75017714  0.99973721  1
  S  S17  1  0.66966380  0.68342916  0.65924285  1
  S  S18  1  0.66351168  0.17683706  0.67396494  1
  S  S19  1  0.33401127  0.09938934  0.33148706  1
  S  S20  1  0.33264063  0.59749049  0.33504355  1
  S  S21  1  0.83307116  0.24643237  0.25908934  1
  S  S22  1  0.84768486  0.74559355  0.23321676  1
  S  S23  1  0.91936010  0.93863713  0.84733046  1
  S  S24  1  0.90770150  0.45961408  0.83329769  1
  S  S25  1  0.23290124  0.90244646  0.91944291  1
  S  S26  1  0.25871082  0.42263693  0.90779182  1
  S  S27  1  0.14650784  0.75565440  0.77002400  1
  S  S28  1  0.16810921  0.25241974  0.74070210  1
  S  S29  1  0.09000260  0.03930620  0.16836824  1
  S  S30  1  0.08384392  0.56684876  0.14667254  1
  S  S31  1  0.74136038  0.07773776  0.09081270  1
  S  S32  1  0.76990591  0.59836084  0.08389686  1
  S  S33  1  0.89349621  0.99013981  0.52241952  1
  S  S34  1  0.89300889  0.49084175  0.52012721  1
  S  S35  1  0.58602853  0.80565252  0.89325794  1
  S  S36  1  0.58538527  0.30332008  0.89289577  1
  S  S37  1  0.51982285  0.95679419  0.58747491  1
  S  S38  1  0.52265652  0.45988362  0.58374911  1
  S  S39  1  0.11034416  0.75977285  0.48599175  1
  S  S40  1  0.10412647  0.26476545  0.47376651  1
  S  S41  1  0.41135132  0.94965246  0.10617300  1
  S  S42  1  0.41511237  0.44805925  0.10762420  1
  S  S43  1  0.47419657  0.79094694  0.42132647  1
  S  S44  1  0.48534809  0.30055917  0.40430093  1
