# generated using pymatgen
data_KNaTi4(PO4)6
_symmetry_space_group_name_H-M   'P 1'
_cell_length_a   8.56358666
_cell_length_b   8.56358666
_cell_length_c   9.07649668
_cell_angle_alpha   61.85236075
_cell_angle_beta   61.85236075
_cell_angle_gamma   59.99999613
_symmetry_Int_Tables_number   1
_chemical_formula_structural   KNaTi4(PO4)6
_chemical_formula_sum   'K1 Na1 Ti4 P6 O24'
_cell_volume   483.41815294
_cell_formula_units_Z   1
loop_
 _symmetry_equiv_pos_site_id
 _symmetry_equiv_pos_as_xyz
  1  'x, y, z'
loop_
 _atom_site_type_symbol
 _atom_site_label
 _atom_site_symmetry_multiplicity
 _atom_site_fract_x
 _atom_site_fract_y
 _atom_site_fract_z
 _atom_site_occupancy
  K  K0  1  -0.00000000  0.00000000  0.00000000  1
  Na  Na1  1  0.50000000  0.50000000  0.50000000  1
  Ti  Ti2  1  0.64712892  0.64712892  0.05861323  1
  Ti  Ti3  1  0.14765302  0.14765302  0.55704094  1
  Ti  Ti4  1  0.35287108  0.35287108  0.94138677  1
  Ti  Ti5  1  0.85234698  0.85234698  0.44295906  1
  P  P6  1  0.03404429  0.46722889  0.74902656  1
  P  P7  1  0.46722889  0.74970026  0.74902656  1
  P  P8  1  0.74970026  0.03404429  0.74902656  1
  P  P9  1  0.53277111  0.25029974  0.25097344  1
  P  P10  1  0.25029974  0.96595571  0.25097344  1
  P  P11  1  0.96595571  0.53277111  0.25097344  1
  O  O12  1  0.76323809  0.00726152  0.58651102  1
  O  O13  1  0.00726152  0.64298938  0.58651102  1
  O  O14  1  0.64298938  0.76323809  0.58651102  1
  O  O15  1  0.26443592  0.14126041  0.08651418  1
  O  O16  1  0.14126041  0.50778950  0.08651418  1
  O  O17  1  0.50778950  0.26443592  0.08651418  1
  O  O18  1  0.23676191  0.99273848  0.41348898  1
  O  O19  1  0.99273848  0.35701062  0.41348898  1
  O  O20  1  0.35701062  0.23676191  0.41348898  1
  O  O21  1  0.73556408  0.85873959  0.91348582  1
  O  O22  1  0.85873959  0.49221050  0.91348582  1
  O  O23  1  0.49221050  0.73556408  0.91348582  1
  O  O24  1  0.57163295  0.21105735  0.78059863  1
  O  O25  1  0.21105735  0.43671107  0.78059863  1
  O  O26  1  0.43671107  0.57163295  0.78059863  1
  O  O27  1  0.07175274  0.93526390  0.28593448  1
  O  O28  1  0.93526390  0.70704889  0.28593448  1
  O  O29  1  0.70704889  0.07175274  0.28593448  1
  O  O30  1  0.42836705  0.78894265  0.21940137  1
  O  O31  1  0.78894265  0.56328893  0.21940137  1
  O  O32  1  0.56328893  0.42836705  0.21940137  1
  O  O33  1  0.92824726  0.06473610  0.71406552  1
  O  O34  1  0.06473610  0.29295111  0.71406552  1
  O  O35  1  0.29295111  0.92824726  0.71406552  1
