# generated using pymatgen
data_KBaNa2Ti3Fe(Si2O9)2
_symmetry_space_group_name_H-M   'P 1'
_cell_length_a   5.38969332
_cell_length_b   7.13454707
_cell_length_c   10.90698617
_cell_angle_alpha   71.00762037
_cell_angle_beta   96.16186901
_cell_angle_gamma   90.00956629
_symmetry_Int_Tables_number   1
_chemical_formula_structural   KBaNa2Ti3Fe(Si2O9)2
_chemical_formula_sum   'K1 Ba1 Na2 Ti3 Fe1 Si4 O18'
_cell_volume   394.01399603
_cell_formula_units_Z   1
loop_
 _symmetry_equiv_pos_site_id
 _symmetry_equiv_pos_as_xyz
  1  'x, y, z'
loop_
 _atom_site_type_symbol
 _atom_site_label
 _atom_site_symmetry_multiplicity
 _atom_site_fract_x
 _atom_site_fract_y
 _atom_site_fract_z
 _atom_site_occupancy
  K  K0  1  0.26179590  0.71906868  0.56366579  1
  Ba  Ba1  1  0.74031072  0.27922902  0.44322576  1
  Na  Na2  1  0.99884495  0.00202304  0.99859312  1
  Na  Na3  1  0.49945720  0.74399215  0.99938172  1
  Ti  Ti4  1  0.70159284  0.86542235  0.28407864  1
  Ti  Ti5  1  0.29934246  0.14980433  0.71703425  1
  Ti  Ti6  1  0.99823462  0.50349273  0.99862413  1
  Fe  Fe7  1  0.50040637  0.27757967  0.00041859  1
  Si  Si8  1  0.19579165  0.58053353  0.27328472  1
  Si  Si9  1  0.20954979  0.14221578  0.27621074  1
  Si  Si10  1  0.78931096  0.42255593  0.72237418  1
  Si  Si11  1  0.80421374  0.85255515  0.72490156  1
  O  O12  1  0.15223691  0.64681994  0.11419152  1
  O  O13  1  0.20137433  0.22172697  0.11710146  1
  O  O14  1  0.79730289  0.34308875  0.88238343  1
  O  O15  1  0.84710515  0.76063941  0.88493857  1
  O  O16  1  0.27425896  0.50189483  0.90933639  1
  O  O17  1  0.72680381  0.40807073  0.09471234  1
  O  O18  1  0.21609347  0.33151785  0.33640074  1
  O  O19  1  0.78421448  0.66809113  0.66343653  1
  O  O20  1  0.95915767  0.64490849  0.33404777  1
  O  O21  1  0.96852559  0.02159354  0.33389120  1
  O  O22  1  0.02722707  0.35175412  0.66529278  1
  O  O23  1  0.03730414  0.98436808  0.66452218  1
  O  O24  1  0.65536514  0.97714854  0.11571143  1
  O  O25  1  0.34742157  0.09539937  0.88572144  1
  O  O26  1  0.46349831  0.64788613  0.32650067  1
  O  O27  1  0.47083482  0.01691267  0.34549241  1
  O  O28  1  0.53194547  0.35950272  0.65256721  1
  O  O29  1  0.54047906  0.98020438  0.67195875  1
