# generated using pymatgen
data_BaV2P2(H4O7)2
_symmetry_space_group_name_H-M   'P 1'
_cell_length_a   7.09317437
_cell_length_b   14.01346239
_cell_length_c   9.69162435
_cell_angle_alpha   90.00000000
_cell_angle_beta   137.22860665
_cell_angle_gamma   90.00000000
_symmetry_Int_Tables_number   1
_chemical_formula_structural   BaV2P2(H4O7)2
_chemical_formula_sum   'Ba2 V4 P4 H16 O28'
_cell_volume   654.18461805
_cell_formula_units_Z   2
loop_
 _symmetry_equiv_pos_site_id
 _symmetry_equiv_pos_as_xyz
  1  'x, y, z'
loop_
 _atom_site_type_symbol
 _atom_site_label
 _atom_site_symmetry_multiplicity
 _atom_site_fract_x
 _atom_site_fract_y
 _atom_site_fract_z
 _atom_site_occupancy
  Ba  Ba0  1  0.42161804  0.71322334  0.42510718  1
  Ba  Ba1  1  0.42161804  0.28677666  0.92510718  1
  V  V2  1  0.01522688  0.55529307  0.62672723  1
  V  V3  1  0.01522688  0.44470693  0.12672723  1
  V  V4  1  0.54931491  0.99911407  0.82260689  1
  V  V5  1  0.54931491  0.00088593  0.32260689  1
  P  P6  1  0.49421160  0.50821868  0.64634706  1
  P  P7  1  0.49421160  0.49178132  0.14634706  1
  P  P8  1  0.99964659  0.96378181  0.32842640  1
  P  P9  1  0.99964659  0.03621819  0.82842640  1
  H  H10  1  0.80094081  0.70845403  0.40237599  1
  H  H11  1  0.80094081  0.29154597  0.90237599  1
  H  H12  1  0.85471882  0.81260633  0.31411270  1
  H  H13  1  0.85471882  0.18739367  0.81411270  1
  H  H14  1  0.60288192  0.69616407  0.15876897  1
  H  H15  1  0.60288192  0.30383593  0.65876897  1
  H  H16  1  0.54632434  0.70080239  0.85977187  1
  H  H17  1  0.54632434  0.29919761  0.35977187  1
  H  H18  1  0.83387803  0.64971998  0.00017605  1
  H  H19  1  0.83387803  0.35028002  0.50017605  1
  H  H20  1  0.17254685  0.60070225  0.96127599  1
  H  H21  1  0.17254685  0.39929775  0.46127599  1
  H  H22  1  0.20040599  0.85498343  0.70175194  1
  H  H23  1  0.20040599  0.14501657  0.20175194  1
  H  H24  1  0.32631188  0.91534056  0.90109631  1
  H  H25  1  0.32631188  0.08465944  0.40109631  1
  O  O26  1  0.96408311  0.68117725  0.61987873  1
  O  O27  1  0.96408311  0.31882275  0.11987873  1
  O  O28  1  0.67629814  0.55351948  0.63523499  1
  O  O29  1  0.67629814  0.44648052  0.13523499  1
  O  O30  1  0.65461296  0.55033004  0.33782207  1
  O  O31  1  0.65461296  0.44966996  0.83782207  1
  O  O32  1  0.30854732  0.57594796  0.96698419  1
  O  O33  1  0.30854732  0.42405204  0.46698419  1
  O  O34  1  0.28308702  0.57723551  0.59937979  1
  O  O35  1  0.28308702  0.42276449  0.09937979  1
  O  O36  1  0.08568840  0.43135839  0.67378685  1
  O  O37  1  0.08568840  0.56864161  0.17378685  1
  O  O38  1  0.29136696  0.00718909  0.50554524  1
  O  O39  1  0.29136696  0.99281091  0.00554524  1
  O  O40  1  0.80345642  0.97949847  0.81647122  1
  O  O41  1  0.80345642  0.02050153  0.31647122  1
  O  O42  1  0.89283520  0.96881726  0.12323034  1
  O  O43  1  0.89283520  0.03118274  0.62323034  1
  O  O44  1  0.36456586  0.88796629  0.82591415  1
  O  O45  1  0.36456586  0.11203371  0.32591415  1
  O  O46  1  0.66767333  0.74278218  0.26105072  1
  O  O47  1  0.66767333  0.25721782  0.76105072  1
  O  O48  1  0.73542498  0.71171841  0.92996708  1
  O  O49  1  0.73542498  0.28828159  0.42996708  1
  O  O50  1  0.03504309  0.85624510  0.39532019  1
  O  O51  1  0.03504309  0.14375490  0.89532019  1
  O  O52  1  0.48268954  0.10583444  0.84686785  1
  O  O53  1  0.48268954  0.89416556  0.34686785  1
