# generated using pymatgen
data_HfZrS6
_symmetry_space_group_name_H-M   'P 1'
_cell_length_a   3.63272457
_cell_length_b   5.17874090
_cell_length_c   9.23402955
_cell_angle_alpha   83.61709702
_cell_angle_beta   90.00000000
_cell_angle_gamma   90.00000000
_symmetry_Int_Tables_number   1
_chemical_formula_structural   HfZrS6
_chemical_formula_sum   'Hf1 Zr1 S6'
_cell_volume   172.64237578
_cell_formula_units_Z   1
loop_
 _symmetry_equiv_pos_site_id
 _symmetry_equiv_pos_as_xyz
  1  'x, y, z'
loop_
 _atom_site_type_symbol
 _atom_site_label
 _atom_site_symmetry_multiplicity
 _atom_site_fract_x
 _atom_site_fract_y
 _atom_site_fract_z
 _atom_site_occupancy
  Hf  Hf0  1  0.75000000  0.27805427  0.34881302  1
  Zr  Zr1  1  0.25000000  0.72226779  0.65050612  1
  S  S2  1  0.75000000  0.48436823  0.82113347  1
  S  S3  1  0.25000000  0.51523060  0.18125989  1
  S  S4  1  0.75000000  0.88301744  0.82560958  1
  S  S5  1  0.25000000  0.11464544  0.17733007  1
  S  S6  1  0.75000000  0.76078414  0.44439238  1
  S  S7  1  0.25000000  0.24163207  0.55095548  1
