# generated using pymatgen
data_Mg30AlSiO32
_symmetry_space_group_name_H-M   'P 1'
_cell_length_a   8.56864556
_cell_length_b   8.57411989
_cell_length_c   8.57411989
_cell_angle_alpha   90.00000000
_cell_angle_beta   90.00000000
_cell_angle_gamma   90.00000000
_symmetry_Int_Tables_number   1
_chemical_formula_structural   Mg30AlSiO32
_chemical_formula_sum   'Mg30 Al1 Si1 O32'
_cell_volume   629.92853590
_cell_formula_units_Z   1
loop_
 _symmetry_equiv_pos_site_id
 _symmetry_equiv_pos_as_xyz
  1  'x, y, z'
loop_
 _atom_site_type_symbol
 _atom_site_label
 _atom_site_symmetry_multiplicity
 _atom_site_fract_x
 _atom_site_fract_y
 _atom_site_fract_z
 _atom_site_occupancy
  Mg  Mg0  1  0.00000000  0.00000000  0.50000000  1
  Mg  Mg1  1  0.00000000  0.50000000  -0.00000000  1
  Mg  Mg2  1  0.50000000  0.00000000  -0.00000000  1
  Mg  Mg3  1  0.50000000  0.00000000  0.50000000  1
  Mg  Mg4  1  0.50000000  0.50000000  -0.00000000  1
  Mg  Mg5  1  0.50000000  0.50000000  0.50000000  1
  Mg  Mg6  1  0.00000000  0.24985405  0.24985405  1
  Mg  Mg7  1  0.00000000  0.24985405  0.75014595  1
  Mg  Mg8  1  0.00000000  0.75014595  0.24985405  1
  Mg  Mg9  1  0.00000000  0.75014595  0.75014595  1
  Mg  Mg10  1  0.50000000  0.25048933  0.25048933  1
  Mg  Mg11  1  0.50000000  0.25048933  0.74951067  1
  Mg  Mg12  1  0.50000000  0.74951067  0.25048933  1
  Mg  Mg13  1  0.50000000  0.74951067  0.74951067  1
  Mg  Mg14  1  0.25071244  0.00000000  0.25076920  1
  Mg  Mg15  1  0.25071244  0.00000000  0.74923080  1
  Mg  Mg16  1  0.25156854  0.50000000  0.24930693  1
  Mg  Mg17  1  0.25156854  0.50000000  0.75069307  1
  Mg  Mg18  1  0.74928756  0.00000000  0.25076920  1
  Mg  Mg19  1  0.74928756  0.00000000  0.74923080  1
  Mg  Mg20  1  0.74843146  0.50000000  0.24930693  1
  Mg  Mg21  1  0.74843146  0.50000000  0.75069307  1
  Mg  Mg22  1  0.25071244  0.25076920  -0.00000000  1
  Mg  Mg23  1  0.25156854  0.24930693  0.50000000  1
  Mg  Mg24  1  0.25071244  0.74923080  -0.00000000  1
  Mg  Mg25  1  0.25156854  0.75069307  0.50000000  1
  Mg  Mg26  1  0.74928756  0.25076920  -0.00000000  1
  Mg  Mg27  1  0.74843146  0.24930693  0.50000000  1
  Mg  Mg28  1  0.74928756  0.74923080  -0.00000000  1
  Mg  Mg29  1  0.74843146  0.75069307  0.50000000  1
  Al  Al30  1  0.00000000  0.00000000  -0.00000000  1
  Si  Si31  1  0.00000000  0.50000000  0.50000000  1
  O  O32  1  0.23459613  0.00000000  -0.00000000  1
  O  O33  1  0.24911491  0.00000000  0.50000000  1
  O  O34  1  0.24911491  0.50000000  -0.00000000  1
  O  O35  1  0.25995084  0.50000000  0.50000000  1
  O  O36  1  0.76540387  0.00000000  -0.00000000  1
  O  O37  1  0.75088509  0.00000000  0.50000000  1
  O  O38  1  0.75088509  0.50000000  -0.00000000  1
  O  O39  1  0.74004916  0.50000000  0.50000000  1
  O  O40  1  0.24887374  0.25030097  0.25030097  1
  O  O41  1  0.24887374  0.25030097  0.74969903  1
  O  O42  1  0.24887374  0.74969903  0.25030097  1
  O  O43  1  0.24887374  0.74969903  0.74969903  1
  O  O44  1  0.75112626  0.25030097  0.25030097  1
  O  O45  1  0.75112626  0.25030097  0.74969903  1
  O  O46  1  0.75112626  0.74969903  0.25030097  1
  O  O47  1  0.75112626  0.74969903  0.74969903  1
  O  O48  1  0.00000000  0.00000000  0.23338063  1
  O  O49  1  0.00000000  0.00000000  0.76661937  1
  O  O50  1  0.00000000  0.50000000  0.23656656  1
  O  O51  1  0.00000000  0.50000000  0.76343344  1
  O  O52  1  0.50000000  0.00000000  0.24761444  1
  O  O53  1  0.50000000  0.00000000  0.75238556  1
  O  O54  1  0.50000000  0.50000000  0.24839441  1
  O  O55  1  0.50000000  0.50000000  0.75160559  1
  O  O56  1  0.00000000  0.23338063  -0.00000000  1
  O  O57  1  0.00000000  0.23656656  0.50000000  1
  O  O58  1  0.00000000  0.76661937  -0.00000000  1
  O  O59  1  0.00000000  0.76343344  0.50000000  1
  O  O60  1  0.50000000  0.24761444  -0.00000000  1
  O  O61  1  0.50000000  0.24839441  0.50000000  1
  O  O62  1  0.50000000  0.75238556  -0.00000000  1
  O  O63  1  0.50000000  0.75160559  0.50000000  1
