# generated using pymatgen
data_K5LuHf(MoO4)6
_symmetry_space_group_name_H-M   'P 1'
_cell_length_a   10.84326172
_cell_length_b   10.84326172
_cell_length_c   14.29985027
_cell_angle_alpha   90.00000031
_cell_angle_beta   112.28036187
_cell_angle_gamma   60.00000185
_symmetry_Int_Tables_number   1
_chemical_formula_structural   K5LuHf(MoO4)6
_chemical_formula_sum   'K10 Lu2 Hf2 Mo12 O48'
_cell_volume   1309.11725571
_cell_formula_units_Z   2
loop_
 _symmetry_equiv_pos_site_id
 _symmetry_equiv_pos_as_xyz
  1  'x, y, z'
loop_
 _atom_site_type_symbol
 _atom_site_label
 _atom_site_symmetry_multiplicity
 _atom_site_fract_x
 _atom_site_fract_y
 _atom_site_fract_z
 _atom_site_occupancy
  K  K0  1  0.11276879  0.13723121  0.75000000  1
  K  K1  1  0.88723121  0.75000000  0.75000000  1
  K  K2  1  0.50000000  0.36276879  0.75000000  1
  K  K3  1  0.11276879  0.25000000  0.25000000  1
  K  K4  1  0.50000000  0.63723121  0.25000000  1
  K  K5  1  0.88723121  0.86276879  0.25000000  1
  K  K6  1  0.29316780  0.85341610  0.43975170  1
  K  K7  1  0.29316780  0.35341610  0.93975170  1
  K  K8  1  0.70683220  0.14658390  0.56024830  1
  K  K9  1  0.70683220  0.64658390  0.06024830  1
  Lu  Lu10  1  0.50000000  0.75000000  0.75000000  1
  Lu  Lu11  1  0.50000000  0.25000000  0.25000000  1
  Hf  Hf12  1  -0.00000000  0.50000000  0.50000000  1
  Hf  Hf13  1  -0.00000000  -0.00000000  -0.00000000  1
  Mo  Mo14  1  0.64152356  0.87967800  0.40395060  1
  Mo  Mo15  1  0.28362860  0.47879844  0.40395060  1
  Mo  Mo16  1  0.88274905  0.23757295  0.40395060  1
  Mo  Mo17  1  0.64152356  0.97879844  0.90395060  1
  Mo  Mo18  1  0.88274905  0.37967800  0.90395060  1
  Mo  Mo19  1  0.28362860  0.73757295  0.90395060  1
  Mo  Mo20  1  0.35847644  0.12032200  0.59604940  1
  Mo  Mo21  1  0.71637140  0.52120156  0.59604940  1
  Mo  Mo22  1  0.11725095  0.76242705  0.59604940  1
  Mo  Mo23  1  0.35847644  0.02120156  0.09604940  1
  Mo  Mo24  1  0.11725095  0.62032200  0.09604940  1
  Mo  Mo25  1  0.71637140  0.26242705  0.09604940  1
  O  O26  1  0.68757226  0.88153901  0.53516493  1
  O  O27  1  0.41670394  0.43088873  0.53516493  1
  O  O28  1  0.96605366  0.15240733  0.53516493  1
  O  O29  1  0.68757226  0.93088873  0.03516493  1
  O  O30  1  0.96605366  0.38153901  0.03516493  1
  O  O31  1  0.41670394  0.65240733  0.03516493  1
  O  O32  1  0.31242774  0.11846099  0.46483507  1
  O  O33  1  0.58329606  0.56911127  0.46483507  1
  O  O34  1  0.03394634  0.84759267  0.46483507  1
  O  O35  1  0.31242774  0.06911127  0.96483507  1
  O  O36  1  0.03394634  0.61846099  0.96483507  1
  O  O37  1  0.58329606  0.34759267  0.96483507  1
  O  O38  1  0.79759913  0.69863858  0.40173829  1
  O  O39  1  0.10037687  0.50376229  0.40173829  1
  O  O40  1  0.90550058  0.39586084  0.40173829  1
  O  O41  1  0.79759913  0.00376229  0.90173829  1
  O  O42  1  0.90550058  0.19863858  0.90173829  1
  O  O43  1  0.10037687  0.89586084  0.90173829  1
  O  O44  1  0.20240087  0.30136142  0.59826171  1
  O  O45  1  0.89962313  0.49623771  0.59826171  1
  O  O46  1  0.09449942  0.60413916  0.59826171  1
  O  O47  1  0.20240087  0.99623771  0.09826171  1
  O  O48  1  0.09449942  0.80136142  0.09826171  1
  O  O49  1  0.89962313  0.10413916  0.09826171  1
  O  O50  1  0.45180997  0.90566770  0.34015894  1
  O  O51  1  0.24582664  0.64252233  0.34015894  1
  O  O52  1  0.98268127  0.11165103  0.34015894  1
  O  O53  1  0.45180997  0.14252233  0.84015894  1
  O  O54  1  0.98268127  0.40566770  0.84015894  1
  O  O55  1  0.24582664  0.61165103  0.84015894  1
  O  O56  1  0.54819003  0.09433230  0.65984106  1
  O  O57  1  0.75417336  0.35747767  0.65984106  1
  O  O58  1  0.01731873  0.88834897  0.65984106  1
  O  O59  1  0.54819003  0.85747767  0.15984106  1
  O  O60  1  0.01731873  0.59433230  0.15984106  1
  O  O61  1  0.75417336  0.38834897  0.15984106  1
  O  O62  1  0.64643180  0.02801901  0.34880259  1
  O  O63  1  0.37682160  0.32554919  0.34880259  1
  O  O64  1  0.67435178  0.29762921  0.34880259  1
  O  O65  1  0.64643180  0.82554919  0.84880259  1
  O  O66  1  0.67435178  0.52801901  0.84880259  1
  O  O67  1  0.37682160  0.79762921  0.84880259  1
  O  O68  1  0.35356820  0.97198099  0.65119741  1
  O  O69  1  0.62317840  0.67445081  0.65119741  1
  O  O70  1  0.32564822  0.70237079  0.65119741  1
  O  O71  1  0.35356820  0.17445081  0.15119741  1
  O  O72  1  0.32564822  0.47198099  0.15119741  1
  O  O73  1  0.62317840  0.20237079  0.15119741  1
