# generated using pymatgen
data_In2(PSe3)3
_symmetry_space_group_name_H-M   'P 1'
_cell_length_a   6.50605934
_cell_length_b   15.37178516
_cell_length_c   8.12126931
_cell_angle_alpha   89.25498992
_cell_angle_beta   89.35977833
_cell_angle_gamma   102.01843092
_symmetry_Int_Tables_number   1
_chemical_formula_structural   In2(PSe3)3
_chemical_formula_sum   'In4 P6 Se18'
_cell_volume   794.25589876
_cell_formula_units_Z   2
loop_
 _symmetry_equiv_pos_site_id
 _symmetry_equiv_pos_as_xyz
  1  'x, y, z'
loop_
 _atom_site_type_symbol
 _atom_site_label
 _atom_site_symmetry_multiplicity
 _atom_site_fract_x
 _atom_site_fract_y
 _atom_site_fract_z
 _atom_site_occupancy
  In  In0  1  0.72566246  0.45112407  0.04286822  1
  In  In1  1  0.38125210  0.76349291  0.72917333  1
  In  In2  1  0.60756064  0.21551330  0.29107236  1
  In  In3  1  0.95215728  0.90334214  0.60482331  1
  P  P4  1  0.48998707  0.96622642  0.37916796  1
  P  P5  1  0.13796326  0.29828433  0.04433600  1
  P  P6  1  0.81673623  0.63002896  0.70775023  1
  P  P7  1  0.51650994  0.03672248  0.62568569  1
  P  P8  1  0.19564178  0.36833229  0.28932441  1
  P  P9  1  0.84333077  0.70061374  0.95421742  1
  Se  Se10  1  0.29466519  0.27601933  0.46658249  1
  Se  Se11  1  0.97055454  0.61771672  0.12956949  1
  Se  Se12  1  0.63027707  0.94229850  0.80083516  1
  Se  Se13  1  0.87255149  0.38949286  0.35664013  1
  Se  Se14  1  0.52991378  0.72085119  0.02510172  1
  Se  Se15  1  0.20443940  0.05886077  0.69721501  1
  Se  Se16  1  0.41295317  0.49679890  0.24327227  1
  Se  Se17  1  0.07772435  0.82978326  0.90899679  1
  Se  Se18  1  0.74958540  0.16032366  0.59273750  1
  Se  Se19  1  0.03870835  0.39055879  0.86701453  1
  Se  Se20  1  0.70332517  0.72463691  0.53250941  1
  Se  Se21  1  0.36190856  0.04904459  0.20413653  1
  Se  Se22  1  0.46111944  0.27712205  0.97689019  1
  Se  Se23  1  0.12905513  0.60765196  0.63717326  1
  Se  Se24  1  0.80393166  0.94652846  0.30838536  1
  Se  Se25  1  0.92094949  0.16979659  0.09081910  1
  Se  Se26  1  0.58318607  0.50666734  0.74088171  1
  Se  Se27  1  0.25571723  0.83690048  0.42438743  1
