# generated using pymatgen
data_K2MgH8(SO6)2
_symmetry_space_group_name_H-M   'P 1'
_cell_length_a   7.68609399
_cell_length_b   7.68609399
_cell_length_c   10.04065809
_cell_angle_alpha   85.90052021
_cell_angle_beta   85.90052021
_cell_angle_gamma   78.78309036
_symmetry_Int_Tables_number   1
_chemical_formula_structural   K2MgH8(SO6)2
_chemical_formula_sum   'K4 Mg2 H16 S4 O24'
_cell_volume   579.33698853
_cell_formula_units_Z   2
loop_
 _symmetry_equiv_pos_site_id
 _symmetry_equiv_pos_as_xyz
  1  'x, y, z'
loop_
 _atom_site_type_symbol
 _atom_site_label
 _atom_site_symmetry_multiplicity
 _atom_site_fract_x
 _atom_site_fract_y
 _atom_site_fract_z
 _atom_site_occupancy
  K  K0  1  0.09567796  0.56438277  0.24941525  1
  K  K1  1  0.57066936  0.09511895  0.24687406  1
  K  K2  1  0.90488105  0.42933064  0.75312594  1
  K  K3  1  0.43561723  0.90432204  0.75058475  1
  Mg  Mg4  1  0.00005009  0.99994991  0.00000000  1
  Mg  Mg5  1  0.50055630  0.49944370  0.50000000  1
  H  H6  1  0.21942992  0.66679001  0.96185615  1
  H  H7  1  0.66675659  0.21972327  0.96149954  1
  H  H8  1  0.78027673  0.33324341  0.03850046  1
  H  H9  1  0.33320999  0.78057008  0.03814385  1
  H  H10  1  0.05514247  0.05081226  0.72688339  1
  H  H11  1  0.94918774  0.94485753  0.27311661  1
  H  H12  1  0.92412252  0.91648839  0.74221733  1
  H  H13  1  0.08351161  0.07587748  0.25778267  1
  H  H14  1  0.28592014  0.54662871  0.72720966  1
  H  H15  1  0.54658494  0.28421982  0.72729953  1
  H  H16  1  0.71578018  0.45341506  0.27270047  1
  H  H17  1  0.45337129  0.71407986  0.27279034  1
  H  H18  1  0.18629137  0.65687839  0.60801111  1
  H  H19  1  0.65732834  0.18639356  0.60710331  1
  H  H20  1  0.81360644  0.34267166  0.39289669  1
  H  H21  1  0.34312161  0.81370863  0.39198889  1
  S  S22  1  0.79550607  0.78986535  0.52716088  1
  S  S23  1  0.21013465  0.20449393  0.47283912  1
  S  S24  1  0.29500920  0.29495755  0.95407717  1
  S  S25  1  0.70504245  0.70499080  0.04592283  1
  O  O26  1  0.82880764  0.82893133  0.05894098  1
  O  O27  1  0.17106867  0.17119236  0.94105902  1
  O  O28  1  0.98365919  0.98857319  0.79378223  1
  O  O29  1  0.01142681  0.01634081  0.20621777  1
  O  O30  1  0.30716641  0.61435145  0.64110486  1
  O  O31  1  0.61514295  0.30618149  0.64168558  1
  O  O32  1  0.69381851  0.38485705  0.35831442  1
  O  O33  1  0.38564855  0.69283359  0.35889514  1
  O  O34  1  0.33546884  0.32964787  0.43928819  1
  O  O35  1  0.67035213  0.66453116  0.56071181  1
  O  O36  1  0.21670023  0.78329977  0.00000000  1
  O  O37  1  0.78309876  0.21690124  0.00000000  1
  O  O38  1  0.21933030  0.47058390  0.88402544  1
  O  O39  1  0.47076428  0.21923039  0.88439536  1
  O  O40  1  0.78076961  0.52923572  0.11560464  1
  O  O41  1  0.52941610  0.78066970  0.11597456  1
  O  O42  1  0.31886192  0.31908758  0.09516922  1
  O  O43  1  0.68091242  0.68113808  0.90483078  1
  O  O44  1  0.96382382  0.71775589  0.59466109  1
  O  O45  1  0.71497335  0.96432633  0.58175831  1
  O  O46  1  0.03567367  0.28502665  0.41824169  1
  O  O47  1  0.28224411  0.03617618  0.40533891  1
  O  O48  1  0.82996630  0.80908084  0.37926076  1
  O  O49  1  0.19091916  0.17003370  0.62073924  1
