# generated using pymatgen
data_Hf(AlNi4)3
_symmetry_space_group_name_H-M   'P 1'
_cell_length_a   3.62116871
_cell_length_b   3.62116871
_cell_length_c   14.27295852
_cell_angle_alpha   90.00000000
_cell_angle_beta   90.00000000
_cell_angle_gamma   90.00000000
_symmetry_Int_Tables_number   1
_chemical_formula_structural   Hf(AlNi4)3
_chemical_formula_sum   'Hf1 Al3 Ni12'
_cell_volume   187.15934720
_cell_formula_units_Z   1
loop_
 _symmetry_equiv_pos_site_id
 _symmetry_equiv_pos_as_xyz
  1  'x, y, z'
loop_
 _atom_site_type_symbol
 _atom_site_label
 _atom_site_symmetry_multiplicity
 _atom_site_fract_x
 _atom_site_fract_y
 _atom_site_fract_z
 _atom_site_occupancy
  Hf  Hf0  1  -0.00000000  -0.00000000  0.00000000  1
  Al  Al1  1  -0.00000000  0.00000000  0.25518463  1
  Al  Al2  1  -0.00000000  -0.00000000  0.50000000  1
  Al  Al3  1  0.00000000  -0.00000000  0.74481537  1
  Ni  Ni4  1  0.50000000  0.50000000  0.00000000  1
  Ni  Ni5  1  0.50000000  0.50000000  0.25495137  1
  Ni  Ni6  1  0.50000000  0.50000000  0.50000000  1
  Ni  Ni7  1  0.50000000  0.50000000  0.74504863  1
  Ni  Ni8  1  0.50000000  0.00000000  0.13315413  1
  Ni  Ni9  1  0.50000000  0.00000000  0.37686919  1
  Ni  Ni10  1  0.50000000  -0.00000000  0.62313081  1
  Ni  Ni11  1  0.50000000  -0.00000000  0.86684587  1
  Ni  Ni12  1  -0.00000000  0.50000000  0.13315413  1
  Ni  Ni13  1  -0.00000000  0.50000000  0.37686919  1
  Ni  Ni14  1  0.00000000  0.50000000  0.62313081  1
  Ni  Ni15  1  0.00000000  0.50000000  0.86684587  1
