# generated using pymatgen
data_K4Gd2C3O9F4
_symmetry_space_group_name_H-M   'P 1'
_cell_length_a   7.00925884
_cell_length_b   7.06114684
_cell_length_c   7.00925884
_cell_angle_alpha   81.40162743
_cell_angle_beta   81.12829249
_cell_angle_gamma   81.40162743
_symmetry_Int_Tables_number   1
_chemical_formula_structural   K4Gd2C3O9F4
_chemical_formula_sum   'K4 Gd2 C3 O9 F4'
_cell_volume   336.05828852
_cell_formula_units_Z   1
loop_
 _symmetry_equiv_pos_site_id
 _symmetry_equiv_pos_as_xyz
  1  'x, y, z'
loop_
 _atom_site_type_symbol
 _atom_site_label
 _atom_site_symmetry_multiplicity
 _atom_site_fract_x
 _atom_site_fract_y
 _atom_site_fract_z
 _atom_site_occupancy
  K  K0  1  0.49720052  0.87986185  0.12781461  1
  K  K1  1  0.13486955  0.50000000  0.86513045  1
  K  K2  1  0.87218539  0.12013815  0.50279948  1
  K  K3  1  0.99886393  -0.00000000  0.00113607  1
  Gd  Gd4  1  0.63994419  0.64412838  0.64841739  1
  Gd  Gd5  1  0.35158261  0.35587162  0.36005581  1
  C  C6  1  0.99290822  0.63714767  0.34999148  1
  C  C7  1  0.35616984  -0.00000000  0.64383016  1
  C  C8  1  0.65000852  0.36285233  0.00709178  1
  O  O9  1  0.79360375  0.36385905  0.86904886  1
  O  O10  1  0.84228509  0.76978591  0.35493938  1
  O  O11  1  0.35493053  0.85483364  0.78220919  1
  O  O12  1  0.21779081  0.14516636  0.64506947  1
  O  O13  1  0.13095114  0.63614095  0.20639625  1
  O  O14  1  0.64506062  0.23021409  0.15771491  1
  O  O15  1  0.00147103  0.49982600  0.49750439  1
  O  O16  1  0.49802353  -0.00000000  0.50197647  1
  O  O17  1  0.50249561  0.50017400  0.99852897  1
  F  F18  1  0.80533522  0.80559798  0.80666375  1
  F  F19  1  0.19333625  0.19440202  0.19466478  1
  F  F20  1  0.40799318  0.64952911  0.43680950  1
  F  F21  1  0.56319050  0.35047089  0.59200682  1
