# generated using pymatgen
data_K2SrTi10O22
_symmetry_space_group_name_H-M   'P 1'
_cell_length_a   3.81428920
_cell_length_b   8.00560655
_cell_length_c   15.70051779
_cell_angle_alpha   102.66602921
_cell_angle_beta   90.00000000
_cell_angle_gamma   76.21813175
_symmetry_Int_Tables_number   1
_chemical_formula_structural   K2SrTi10O22
_chemical_formula_sum   'K2 Sr1 Ti10 O22'
_cell_volume   453.60160802
_cell_formula_units_Z   1
loop_
 _symmetry_equiv_pos_site_id
 _symmetry_equiv_pos_as_xyz
  1  'x, y, z'
loop_
 _atom_site_type_symbol
 _atom_site_label
 _atom_site_symmetry_multiplicity
 _atom_site_fract_x
 _atom_site_fract_y
 _atom_site_fract_z
 _atom_site_occupancy
  K  K0  1  0.51594790  0.96810420  0.45386275  1
  K  K1  1  0.44251985  0.11496030  0.15867314  1
  Sr  Sr2  1  0.55729072  0.88541856  0.83655670  1
  Ti  Ti3  1  0.86076841  0.27846318  0.35786178  1
  Ti  Ti4  1  0.13781073  0.72437854  0.63506536  1
  Ti  Ti5  1  0.79921126  0.40157749  0.56474183  1
  Ti  Ti6  1  0.20377450  0.59245100  0.43259933  1
  Ti  Ti7  1  0.83536444  0.32927111  0.96243160  1
  Ti  Ti8  1  0.16571132  0.66857736  0.03720760  1
  Ti  Ti9  1  0.90154053  0.19691894  0.75190014  1
  Ti  Ti10  1  0.09827158  0.80345685  0.24231825  1
  Ti  Ti11  1  0.75630885  0.48738231  0.16374479  1
  Ti  Ti12  1  0.24499141  0.51001718  0.83655068  1
  O  O13  1  0.69928711  0.60142577  0.04010389  1
  O  O14  1  0.30075253  0.39849493  0.95659671  1
  O  O15  1  0.73236283  0.53527434  0.44214013  1
  O  O16  1  0.26609236  0.46781528  0.55852978  1
  O  O17  1  0.93943396  0.12113208  0.88057747  1
  O  O18  1  0.06741476  0.86517049  0.12289735  1
  O  O19  1  0.66481734  0.67036533  0.63661143  1
  O  O20  1  0.33459059  0.33081883  0.36596470  1
  O  O21  1  0.85780329  0.28439343  0.65143148  1
  O  O22  1  0.14193102  0.71613796  0.34994000  1
  O  O23  1  0.86189162  0.27621677  0.06979234  1
  O  O24  1  0.13391885  0.73216230  0.92882496  1
  O  O25  1  0.81380428  0.37239144  0.24880458  1
  O  O26  1  0.18004603  0.63990795  0.75740892  1
  O  O27  1  0.97952897  0.04094207  0.29639638  1
  O  O28  1  0.02252720  0.95494560  0.71150678  1
  O  O29  1  0.89287116  0.21425769  0.47024202  1
  O  O30  1  0.10494391  0.79011218  0.52904090  1
  O  O31  1  0.77264361  0.45471278  0.84486628  1
  O  O32  1  0.22821674  0.54356653  0.15320245  1
  O  O33  1  0.62523023  0.74953953  0.22988714  1
  O  O34  1  0.37708014  0.24583972  0.77242033  1
