# generated using pymatgen
data_La9Ga5S21
_symmetry_space_group_name_H-M   'P 1'
_cell_length_a   11.86182166
_cell_length_b   11.86205317
_cell_length_c   11.86169490
_cell_angle_alpha   94.59646114
_cell_angle_beta   85.40253672
_cell_angle_gamma   85.40383192
_symmetry_Int_Tables_number   1
_chemical_formula_structural   La9Ga5S21
_chemical_formula_sum   'La18 Ga10 S42'
_cell_volume   1651.98132875
_cell_formula_units_Z   2
loop_
 _symmetry_equiv_pos_site_id
 _symmetry_equiv_pos_as_xyz
  1  'x, y, z'
loop_
 _atom_site_type_symbol
 _atom_site_label
 _atom_site_symmetry_multiplicity
 _atom_site_fract_x
 _atom_site_fract_y
 _atom_site_fract_z
 _atom_site_occupancy
  La  La0  1  0.07513800  0.09402195  0.71831801  1
  La  La1  1  0.73454026  0.43662006  0.05714895  1
  La  La2  1  0.41109272  0.75565372  0.38096414  1
  La  La3  1  0.94286400  0.26551728  0.43662775  1
  La  La4  1  0.61900660  0.58894198  0.75564184  1
  La  La5  1  0.28170886  0.92484815  0.09399556  1
  La  La6  1  0.24433881  0.38096184  0.58884893  1
  La  La7  1  0.90601409  0.71831911  0.92483205  1
  La  La8  1  0.56336520  0.05709217  0.26546042  1
  La  La9  1  0.60154946  0.23222138  0.60767332  1
  La  La10  1  0.25872616  0.56906659  0.94872378  1
  La  La11  1  0.93564277  0.89297528  0.26729567  1
  La  La12  1  0.73270127  0.06435285  0.89294273  1
  La  La13  1  0.39232587  0.39844965  0.23223185  1
  La  La14  1  0.05128906  0.74128615  0.56907206  1
  La  La15  1  0.43092250  0.94871418  0.74124074  1
  La  La16  1  0.10701139  0.26730592  0.06437856  1
  La  La17  1  0.76780902  0.60766980  0.39842197  1
  Ga  Ga18  1  0.77830155  0.88728442  0.55204070  1
  Ga  Ga19  1  0.44795705  0.22168600  0.88732328  1
  Ga  Ga20  1  0.11272198  0.55205947  0.22166874  1
  Ga  Ga21  1  0.61295268  0.72167979  0.05236942  1
  Ga  Ga22  1  0.27820820  0.05237899  0.38708914  1
  Ga  Ga23  1  0.94762561  0.38713649  0.72192607  1
  Ga  Ga24  1  0.14273382  0.85729842  0.85727501  1
  Ga  Ga25  1  0.83755600  0.16237202  0.16237114  1
  Ga  Ga26  1  0.33766280  0.66229146  0.66231725  1
  Ga  Ga27  1  0.64240523  0.35762051  0.35764717  1
  S  S28  1  0.99227609  0.67438004  0.34192438  1
  S  S29  1  0.65805599  0.00774705  0.67436280  1
  S  S30  1  0.32561118  0.34194085  0.00775893  1
  S  S31  1  0.49228579  0.84211657  0.17440884  1
  S  S32  1  0.15781840  0.17445646  0.50773891  1
  S  S33  1  0.82549566  0.50779496  0.84222981  1
  S  S34  1  0.66892755  0.79818422  0.88744313  1
  S  S35  1  0.32884394  0.13136876  0.22028860  1
  S  S36  1  0.00729961  0.46604991  0.55941851  1
  S  S37  1  0.77975795  0.67112223  0.13136676  1
  S  S38  1  0.44065093  0.99268189  0.46604368  1
  S  S39  1  0.11259335  0.33109684  0.79825709  1
  S  S40  1  0.53393558  0.55927788  0.99265688  1
  S  S41  1  0.20176924  0.88743950  0.33108885  1
  S  S42  1  0.86864746  0.22034590  0.67117281  1
  S  S43  1  0.81349395  0.71238738  0.62139417  1
  S  S44  1  0.49206492  0.05017985  0.95826695  1
  S  S45  1  0.15204633  0.37966697  0.29090098  1
  S  S46  1  0.70910273  0.84795675  0.37964052  1
  S  S47  1  0.37858790  0.18651015  0.71241302  1
  S  S48  1  0.04174836  0.50793409  0.05018462  1
  S  S49  1  0.94979372  0.95826623  0.50792570  1
  S  S50  1  0.62034263  0.29087791  0.84795020  1
  S  S51  1  0.28762848  0.62140551  0.18649564  1
  S  S52  1  0.34289562  0.78004339  0.88343962  1
  S  S53  1  0.01303431  0.11623034  0.22775910  1
  S  S54  1  0.69773578  0.43563755  0.54443102  1
  S  S55  1  0.77222412  0.98689668  0.11620378  1
  S  S56  1  0.45556024  0.30228377  0.43562729  1
  S  S57  1  0.11658021  0.65711268  0.78002852  1
  S  S58  1  0.56437395  0.54442709  0.30226476  1
  S  S59  1  0.21994848  0.88348140  0.65711257  1
  S  S60  1  0.88376699  0.22777195  0.98691482  1
  S  S61  1  0.94731400  0.91958454  0.81041479  1
  S  S62  1  0.60965393  0.26711611  0.16326141  1
  S  S63  1  0.26556304  0.60323353  0.49328522  1
  S  S64  1  0.50667977  0.73442015  0.60321384  1
  S  S65  1  0.18956102  0.05271051  0.91959513  1
  S  S66  1  0.83676054  0.39040478  0.26713527  1
  S  S67  1  0.73286107  0.16325300  0.39037439  1
  S  S68  1  0.39678046  0.49328127  0.73440960  1
  S  S69  1  0.08042376  0.81043178  0.05268483  1
