# generated using pymatgen
data_DyCu5
_symmetry_space_group_name_H-M   'P 1'
_cell_length_a   4.13123776
_cell_length_b   4.99599948
_cell_length_c   4.99660884
_cell_angle_alpha   119.99597245
_cell_angle_beta   90.00000000
_cell_angle_gamma   90.00000000
_symmetry_Int_Tables_number   1
_chemical_formula_structural   DyCu5
_chemical_formula_sum   'Dy1 Cu5'
_cell_volume   89.31536606
_cell_formula_units_Z   1
loop_
 _symmetry_equiv_pos_site_id
 _symmetry_equiv_pos_as_xyz
  1  'x, y, z'
loop_
 _atom_site_type_symbol
 _atom_site_label
 _atom_site_symmetry_multiplicity
 _atom_site_fract_x
 _atom_site_fract_y
 _atom_site_fract_z
 _atom_site_occupancy
  Dy  Dy0  1  -0.00000000  0.99997996  1.00000000  1
  Cu  Cu1  1  -0.00000000  0.33331018  0.66667185  1
  Cu  Cu2  1  0.00000000  0.66663833  0.33332815  1
  Cu  Cu3  1  0.50000000  0.49998956  -0.00000000  1
  Cu  Cu4  1  0.50000000  0.49999241  0.50000284  1
  Cu  Cu5  1  0.50000000  0.99998957  0.49999716  1
