# generated using pymatgen
data_Fe(BRh2)3
_symmetry_space_group_name_H-M   'P 1'
_cell_length_a   4.76077289
_cell_length_b   7.50910385
_cell_length_c   7.51908476
_cell_angle_alpha   120.05373619
_cell_angle_beta   90.00362621
_cell_angle_gamma   89.80404057
_symmetry_Int_Tables_number   1
_chemical_formula_structural   Fe(BRh2)3
_chemical_formula_sum   'Fe2 B6 Rh12'
_cell_volume   232.66038422
_cell_formula_units_Z   2
loop_
 _symmetry_equiv_pos_site_id
 _symmetry_equiv_pos_as_xyz
  1  'x, y, z'
loop_
 _atom_site_type_symbol
 _atom_site_label
 _atom_site_symmetry_multiplicity
 _atom_site_fract_x
 _atom_site_fract_y
 _atom_site_fract_z
 _atom_site_occupancy
  Fe  Fe0  1  0.04437074  0.45823992  0.90831664  1
  Fe  Fe1  1  0.04461030  0.45819811  0.54993290  1
  B  B2  1  0.77013507  0.18841287  0.81511781  1
  B  B3  1  0.76675537  0.63205411  0.81609951  1
  B  B4  1  0.76999045  0.18831122  0.37323482  1
  B  B5  1  0.27604584  0.80776614  0.18772995  1
  B  B6  1  0.27895763  0.37840322  0.18919774  1
  B  B7  1  0.27604660  0.80779428  0.62004366  1
  Rh  Rh8  1  0.36301279  0.12559988  0.87592961  1
  Rh  Rh9  1  0.35020443  0.74220416  0.87105924  1
  Rh  Rh10  1  0.36300474  0.12564261  0.24968570  1
  Rh  Rh11  1  0.86904462  0.86974110  0.12247231  1
  Rh  Rh12  1  0.87297838  0.25616861  0.12807956  1
  Rh  Rh13  1  0.86900521  0.86971860  0.74724947  1
  Rh  Rh14  1  0.53720751  0.33566408  0.66783738  1
  Rh  Rh15  1  0.04797300  0.66518003  0.33259989  1
  Rh  Rh16  1  0.52529944  0.91339219  0.45667817  1
  Rh  Rh17  1  0.53952629  0.53745643  0.07833583  1
  Rh  Rh18  1  0.53955300  0.53741207  0.45913076  1
  Rh  Rh19  1  0.02091859  0.10264038  0.55126904  1
