# generated using pymatgen
data_Ga4B2O9
_symmetry_space_group_name_H-M   'P 1'
_cell_length_a   5.78403726
_cell_length_b   8.45260831
_cell_length_c   8.17830179
_cell_angle_alpha   96.45721133
_cell_angle_beta   69.29105578
_cell_angle_gamma   110.00761645
_symmetry_Int_Tables_number   1
_chemical_formula_structural   Ga4B2O9
_chemical_formula_sum   'Ga8 B4 O18'
_cell_volume   351.41597242
_cell_formula_units_Z   2
loop_
 _symmetry_equiv_pos_site_id
 _symmetry_equiv_pos_as_xyz
  1  'x, y, z'
loop_
 _atom_site_type_symbol
 _atom_site_label
 _atom_site_symmetry_multiplicity
 _atom_site_fract_x
 _atom_site_fract_y
 _atom_site_fract_z
 _atom_site_occupancy
  Ga  Ga0  1  0.49883595  0.49946435  0.00456680  1
  Ga  Ga1  1  0.99606160  0.49946435  0.00456680  1
  Ga  Ga2  1  0.97822623  0.63551264  0.67906017  1
  Ga  Ga3  1  0.01216733  0.34443316  0.32009850  1
  Ga  Ga4  1  0.50204055  0.00865356  0.50138562  1
  Ga  Ga5  1  0.00522740  0.00865356  0.50138562  1
  Ga  Ga6  1  0.21433907  0.73680439  0.30812625  1
  Ga  Ga7  1  0.66380882  0.17882272  0.85120507  1
  B  B8  1  0.20540450  0.20614340  0.79533440  1
  B  B9  1  0.78055725  0.78064151  0.21952700  1
  B  B10  1  0.50111460  0.73170675  0.72947755  1
  B  B11  1  0.50401869  0.22436232  0.21632493  1
  O  O12  1  0.64236610  0.65901277  0.78644361  1
  O  O13  1  0.23020306  0.65901277  0.78644361  1
  O  O14  1  0.35774062  0.34200863  0.20257247  1
  O  O15  1  0.78169555  0.34200863  0.20257247  1
  O  O16  1  0.15007640  0.85067192  0.55051912  1
  O  O17  1  0.84982143  0.14876896  0.44912609  1
  O  O18  1  0.22233513  0.34474193  0.90007168  1
  O  O19  1  0.78312242  0.65802033  0.09177548  1
  O  O20  1  0.40578897  0.13336115  0.73927844  1
  O  O21  1  0.98829373  0.13336115  0.73927844  1
  O  O22  1  0.57267440  0.84351086  0.28732883  1
  O  O23  1  0.98350763  0.84351086  0.28732883  1
  O  O24  1  0.62410862  0.87193661  0.62371938  1
  O  O25  1  0.37410321  0.13854895  0.39034254  1
  O  O26  1  0.78438052  0.42190220  0.85314115  1
  O  O27  1  0.24367083  0.60074848  0.11340681  1
  O  O28  1  0.03972155  0.53873608  0.45929298  1
  O  O29  1  0.51628783  0.10657501  0.07399935  1
