# generated using pymatgen
data_La6TaGa11O28
_symmetry_space_group_name_H-M   'P 1'
_cell_length_a   8.23742307
_cell_length_b   9.91316607
_cell_length_c   9.92641261
_cell_angle_alpha   63.10505239
_cell_angle_beta   64.22469750
_cell_angle_gamma   63.98674136
_symmetry_Int_Tables_number   1
_chemical_formula_structural   La6TaGa11O28
_chemical_formula_sum   'La6 Ta1 Ga11 O28'
_cell_volume   620.75551176
_cell_formula_units_Z   1
loop_
 _symmetry_equiv_pos_site_id
 _symmetry_equiv_pos_as_xyz
  1  'x, y, z'
loop_
 _atom_site_type_symbol
 _atom_site_label
 _atom_site_symmetry_multiplicity
 _atom_site_fract_x
 _atom_site_fract_y
 _atom_site_fract_z
 _atom_site_occupancy
  La  La0  1  0.00036684  0.28887222  0.29362948  1
  La  La1  1  0.00020800  0.79155260  0.78814036  1
  La  La2  1  0.57599061  0.21959414  0.22479044  1
  La  La3  1  0.58186547  0.71501934  0.70888594  1
  La  La4  1  0.41375559  0.50650826  0.50510059  1
  La  La5  1  0.42854097  0.00366238  0.01200052  1
  Ta  Ta6  1  0.99868740  0.00236480  0.00079991  1
  Ga  Ga7  1  0.78015254  0.71755291  0.25813998  1
  Ga  Ga8  1  0.75990970  0.24945604  0.75010165  1
  Ga  Ga9  1  0.22541726  0.14401835  0.61015631  1
  Ga  Ga10  1  0.23668607  0.63349147  0.12347012  1
  Ga  Ga11  1  0.00042459  0.86963599  0.37657564  1
  Ga  Ga12  1  0.99829229  0.37600219  0.87082452  1
  Ga  Ga13  1  0.33908628  0.92688107  0.39843310  1
  Ga  Ga14  1  0.32916665  0.43460909  0.90239357  1
  Ga  Ga15  1  0.66104705  0.06729636  0.60209604  1
  Ga  Ga16  1  0.67058901  0.56726104  0.09560447  1
  Ga  Ga17  1  0.00114815  0.50074608  0.50218155  1
  O  O18  1  0.67927135  0.23843202  0.42230040  1
  O  O19  1  0.67800410  0.74370996  0.92261912  1
  O  O20  1  0.32151178  0.76110357  0.58156537  1
  O  O21  1  0.32222625  0.26036554  0.07885752  1
  O  O22  1  0.86222911  0.99439069  0.22797932  1
  O  O23  1  0.85486014  0.47757002  0.73411468  1
  O  O24  1  0.14426030  0.66088384  0.40918529  1
  O  O25  1  0.13867073  0.15870228  0.92293326  1
  O  O26  1  0.94507837  0.29265072  0.55689191  1
  O  O27  1  0.92150053  0.81651407  0.04829576  1
  O  O28  1  0.07654730  0.01095139  0.77690874  1
  O  O29  1  0.05480621  0.53016532  0.26312903  1
  O  O30  1  0.55106954  0.89280552  0.22886599  1
  O  O31  1  0.53641324  0.41125498  0.72556238  1
  O  O32  1  0.45347503  -0.00007609  0.66802122  1
  O  O33  1  0.46067158  0.49696803  0.17396470  1
  O  O34  1  0.23723951  0.34608346  0.55688717  1
  O  O35  1  0.23086337  0.84595814  0.06531688  1
  O  O36  1  0.76975961  0.67873088  0.46294317  1
  O  O37  1  0.76396073  0.18008360  0.96310322  1
  O  O38  1  0.30839213  0.12130807  0.40849780  1
  O  O39  1  0.30421525  0.62500417  0.91680971  1
  O  O40  1  0.69028110  0.07417004  0.77627085  1
  O  O41  1  0.69148906  0.56134151  0.27805065  1
  O  O42  1  0.14947982  0.00339765  0.30156370  1
  O  O43  1  0.14304903  0.50937009  0.80241237  1
  O  O44  1  0.85255702  0.87614112  0.58121067  1
  O  O45  1  0.85678334  0.37459507  0.07951491  1
