# generated using pymatgen
data_Dy2GaCu3
_symmetry_space_group_name_H-M   'P 1'
_cell_length_a   4.31608259
_cell_length_b   5.40170266
_cell_length_c   5.58445841
_cell_angle_alpha   95.68188142
_cell_angle_beta   112.73297938
_cell_angle_gamma   66.45236840
_symmetry_Int_Tables_number   1
_chemical_formula_structural   Dy2GaCu3
_chemical_formula_sum   'Dy2 Ga1 Cu3'
_cell_volume   109.84698600
_cell_formula_units_Z   1
loop_
 _symmetry_equiv_pos_site_id
 _symmetry_equiv_pos_as_xyz
  1  'x, y, z'
loop_
 _atom_site_type_symbol
 _atom_site_label
 _atom_site_symmetry_multiplicity
 _atom_site_fract_x
 _atom_site_fract_y
 _atom_site_fract_z
 _atom_site_occupancy
  Dy  Dy0  1  0.74700113  0.71177638  0.20577864  1
  Dy  Dy1  1  0.25192698  0.28992570  0.79377965  1
  Ga  Ga2  1  0.55452304  0.27755572  0.38660179  1
  Cu  Cu3  1  0.44907626  0.71536955  0.61352207  1
  Cu  Cu4  1  0.04914422  0.11701530  0.21530373  1
  Cu  Cu5  1  0.94832839  0.88835734  0.78501412  1
