# generated using pymatgen
data_K2Sc2P2WO12
_symmetry_space_group_name_H-M   'P 1'
_cell_length_a   10.57396230
_cell_length_b   10.58540221
_cell_length_c   10.54104746
_cell_angle_alpha   89.47694206
_cell_angle_beta   89.85999528
_cell_angle_gamma   89.63128044
_symmetry_Int_Tables_number   1
_chemical_formula_structural   K2Sc2P2WO12
_chemical_formula_sum   'K8 Sc8 P8 W4 O48'
_cell_volume   1179.77873991
_cell_formula_units_Z   4
loop_
 _symmetry_equiv_pos_site_id
 _symmetry_equiv_pos_as_xyz
  1  'x, y, z'
loop_
 _atom_site_type_symbol
 _atom_site_label
 _atom_site_symmetry_multiplicity
 _atom_site_fract_x
 _atom_site_fract_y
 _atom_site_fract_z
 _atom_site_occupancy
  K  K0  1  0.31128924  0.19424181  0.79466153  1
  K  K1  1  0.19974116  0.79598751  0.30341444  1
  K  K2  1  0.79075505  0.30430394  0.22016084  1
  K  K3  1  0.69876713  0.70046871  0.69787568  1
  K  K4  1  0.08307849  0.42903462  0.56270422  1
  K  K5  1  0.41044970  0.55599984  0.06142837  1
  K  K6  1  0.55466889  0.08887959  0.44437143  1
  K  K7  1  0.94353211  0.92337977  0.90748421  1
  Sc  Sc8  1  0.56756552  0.93493470  0.06575008  1
  Sc  Sc9  1  0.91091255  0.08298173  0.58652530  1
  Sc  Sc10  1  0.10737322  0.60070776  0.91040467  1
  Sc  Sc11  1  0.40740709  0.39852536  0.41570036  1
  Sc  Sc12  1  0.87717831  0.62156968  0.37756498  1
  Sc  Sc13  1  0.62202783  0.34832785  0.84769535  1
  Sc  Sc14  1  0.34934004  0.86296998  0.65567186  1
  Sc  Sc15  1  0.16546208  0.14582636  0.15389501  1
  P  P16  1  0.62354279  0.04002824  0.76392544  1
  P  P17  1  0.72776561  0.36580074  0.54493136  1
  P  P18  1  0.04445421  0.77378802  0.62915234  1
  P  P19  1  0.37429835  0.54238382  0.72113559  1
  P  P20  1  0.26825651  0.88200873  0.96261085  1
  P  P21  1  0.46007876  0.23613679  0.12602827  1
  P  P22  1  0.13196855  0.45517351  0.22610347  1
  P  P23  1  0.22521031  0.12029890  0.46526739  1
  W  W24  1  0.54637033  0.72650601  0.37147513  1
  W  W25  1  0.87160204  0.95093374  0.26789506  1
  W  W26  1  0.77231744  0.62759383  0.04529041  1
  W  W27  1  0.95565877  0.27891571  0.87726555  1
  O  O28  1  0.70968787  0.73370751  0.42732477  1
  O  O29  1  0.92912006  0.78838418  0.26227870  1
  O  O30  1  0.76423963  0.57084800  0.20928224  1
  O  O31  1  0.79442314  0.26910471  0.93584201  1
  O  O32  1  0.57274049  0.17905013  0.76386861  1
  O  O33  1  0.72698711  0.40339830  0.68744850  1
  O  O34  1  0.18414344  0.77956650  0.58581893  1
  O  O35  1  0.41820099  0.68196585  0.72005219  1
  O  O36  1  0.26372741  0.92839203  0.82234641  1
  O  O37  1  0.32031229  0.23624242  0.08058409  1
  O  O38  1  0.08910106  0.31530997  0.22207371  1
  O  O39  1  0.23191748  0.07430420  0.32487074  1
  O  O40  1  0.49241591  0.56831679  0.34266085  1
  O  O41  1  0.83201583  0.00236938  0.42579390  1
  O  O42  1  0.93175096  0.66077261  0.99451599  1
  O  O43  1  0.00466256  0.43952669  0.84779200  1
  O  O44  1  0.64457562  0.99735585  0.90304715  1
  O  O45  1  0.59224012  0.35005035  0.49230294  1
  O  O46  1  0.98602227  0.90763996  0.64327572  1
  O  O47  1  0.35388500  0.49113534  0.58576100  1
  O  O48  1  0.40707606  0.85886878  0.00130718  1
  O  O49  1  0.50550094  0.09774562  0.14332819  1
  O  O50  1  0.14972581  0.51094545  0.09043076  1
  O  O51  1  0.08510606  0.13793778  0.50412688  1
  O  O52  1  0.52366329  0.81592165  0.22735823  1
  O  O53  1  0.73206036  0.97583727  0.17480583  1
  O  O54  1  0.68290761  0.77042636  0.02122307  1
  O  O55  1  0.98319097  0.18951390  0.73454501  1
  O  O56  1  0.75270501  0.02920552  0.69549025  1
  O  O57  1  0.80464345  0.24243226  0.52385143  1
  O  O58  1  0.02964978  0.70430795  0.75829954  1
  O  O59  1  0.24968565  0.52796955  0.79941822  1
  O  O60  1  0.19835472  0.75451648  0.97924271  1
  O  O61  1  0.47575963  0.30271936  0.25484141  1
  O  O62  1  0.25570698  0.47048710  0.30297198  1
  O  O63  1  0.29735898  0.24773675  0.47873832  1
  O  O64  1  0.44604817  0.80571865  0.48411506  1
  O  O65  1  0.98729972  0.05369245  0.19699695  1
  O  O66  1  0.69807946  0.51462458  0.94272208  1
  O  O67  1  0.05787253  0.20016781  0.98865204  1
  O  O68  1  0.52604124  0.95464767  0.69719278  1
  O  O69  1  0.79957191  0.47246917  0.47059391  1
  O  O70  1  0.97007703  0.69717527  0.52763291  1
  O  O71  1  0.47396211  0.45927424  0.79298593  1
  O  O72  1  0.20303422  0.97922743  0.05008229  1
  O  O73  1  0.53901296  0.30701055  0.02421476  1
  O  O74  1  0.02672772  0.52986115  0.29959963  1
  O  O75  1  0.29593639  0.02441123  0.55190299  1
