# generated using pymatgen
data_Eu2Al6Si3Au2
_symmetry_space_group_name_H-M   'P 1'
_cell_length_a   4.40706012
_cell_length_b   4.40706012
_cell_length_c   13.56086175
_cell_angle_alpha   80.64843585
_cell_angle_beta   80.64843585
_cell_angle_gamma   90.00000000
_symmetry_Int_Tables_number   1
_chemical_formula_structural   Eu2Al6Si3Au2
_chemical_formula_sum   'Eu2 Al6 Si3 Au2'
_cell_volume   256.33294428
_cell_formula_units_Z   1
loop_
 _symmetry_equiv_pos_site_id
 _symmetry_equiv_pos_as_xyz
  1  'x, y, z'
loop_
 _atom_site_type_symbol
 _atom_site_label
 _atom_site_symmetry_multiplicity
 _atom_site_fract_x
 _atom_site_fract_y
 _atom_site_fract_z
 _atom_site_occupancy
  Eu  Eu0  1  0.84816839  0.84816839  0.30366322  1
  Eu  Eu1  1  0.14862115  0.14862115  0.70275769  1
  Al  Al2  1  0.44617975  0.94617975  0.10764050  1
  Al  Al3  1  0.94617975  0.44617975  0.10764050  1
  Al  Al4  1  0.55589151  0.05589151  0.88821699  1
  Al  Al5  1  0.05589151  0.55589151  0.88821699  1
  Al  Al6  1  0.24879648  0.74879648  0.50240704  1
  Al  Al7  1  0.74879648  0.24879648  0.50240704  1
  Si  Si8  1  0.60646669  0.60646669  0.78706663  1
  Si  Si9  1  0.29932959  0.29932959  0.40134082  1
  Si  Si10  1  0.69827095  0.69827095  0.60345810  1
  Au  Au11  1  0.00291866  0.00291866  0.99416267  1
  Au  Au12  1  0.39448909  0.39448909  0.21102182  1
