# generated using pymatgen
data_Dy3(Ga2Cu)2
_symmetry_space_group_name_H-M   'P 1'
_cell_length_a   4.43271564
_cell_length_b   5.62261630
_cell_length_c   15.39494149
_cell_angle_alpha   90.60270698
_cell_angle_beta   81.72255821
_cell_angle_gamma   113.21522449
_symmetry_Int_Tables_number   1
_chemical_formula_structural   Dy3(Ga2Cu)2
_chemical_formula_sum   'Dy6 Ga8 Cu4'
_cell_volume   348.50301315
_cell_formula_units_Z   2
loop_
 _symmetry_equiv_pos_site_id
 _symmetry_equiv_pos_as_xyz
  1  'x, y, z'
loop_
 _atom_site_type_symbol
 _atom_site_label
 _atom_site_symmetry_multiplicity
 _atom_site_fract_x
 _atom_site_fract_y
 _atom_site_fract_z
 _atom_site_occupancy
  Dy  Dy0  1  0.31675830  0.70830253  0.07478593  1
  Dy  Dy1  1  0.65565259  0.71347580  0.40216963  1
  Dy  Dy2  1  0.98659513  0.71087225  0.73768299  1
  Dy  Dy3  1  0.01502663  0.29092042  0.26086615  1
  Dy  Dy4  1  0.34885091  0.29266575  0.59496493  1
  Dy  Dy5  1  0.68179036  0.29172866  0.92814794  1
  Ga  Ga6  1  0.08371230  0.70409361  0.53667001  1
  Ga  Ga7  1  0.41665721  0.70392532  0.87061089  1
  Ga  Ga8  1  0.02230279  0.11803260  0.07342703  1
  Ga  Ga9  1  0.35627236  0.11911206  0.40656634  1
  Ga  Ga10  1  0.68995113  0.11995842  0.74005716  1
  Ga  Ga11  1  0.31305123  0.88557024  0.25946678  1
  Ga  Ga12  1  0.64769038  0.89035756  0.59497781  1
  Ga  Ga13  1  0.98037376  0.88947816  0.92873063  1
  Cu  Cu14  1  0.57615971  0.28025972  0.12794030  1
  Cu  Cu15  1  0.91034737  0.28259062  0.46189487  1
  Cu  Cu16  1  0.24372227  0.28217829  0.79473474  1
  Cu  Cu17  1  0.75508556  0.71647799  0.20630587  1
