# generated using pymatgen
data_Gd4Co3
_symmetry_space_group_name_H-M   'P 1'
_cell_length_a   4.07859109
_cell_length_b   11.32855661
_cell_length_c   11.32702357
_cell_angle_alpha   119.99733332
_cell_angle_beta   89.98458550
_cell_angle_gamma   90.03677302
_symmetry_Int_Tables_number   1
_chemical_formula_structural   Gd4Co3
_chemical_formula_sum   'Gd12 Co9'
_cell_volume   453.25516319
_cell_formula_units_Z   3
loop_
 _symmetry_equiv_pos_site_id
 _symmetry_equiv_pos_as_xyz
  1  'x, y, z'
loop_
 _atom_site_type_symbol
 _atom_site_label
 _atom_site_symmetry_multiplicity
 _atom_site_fract_x
 _atom_site_fract_y
 _atom_site_fract_z
 _atom_site_occupancy
  Gd  Gd0  1  0.74917236  0.61987350  0.48395168  1
  Gd  Gd1  1  0.74959026  0.51602048  0.13676465  1
  Gd  Gd2  1  0.74946444  0.86293073  0.37980657  1
  Gd  Gd3  1  0.25082764  0.38012650  0.51604832  1
  Gd  Gd4  1  0.25040974  0.48397952  0.86323535  1
  Gd  Gd5  1  0.25053556  0.13706927  0.62019343  1
  Gd  Gd6  1  0.75015090  0.77590432  0.01700318  1
  Gd  Gd7  1  0.75055615  0.98128652  0.75773017  1
  Gd  Gd8  1  0.75082849  0.24296336  0.22609514  1
  Gd  Gd9  1  0.24984910  0.22409568  0.98299682  1
  Gd  Gd10  1  0.24944385  0.01871348  0.24226983  1
  Gd  Gd11  1  0.24917151  0.75703664  0.77390486  1
  Co  Co12  1  0.74627037  0.28173369  0.84537855  1
  Co  Co13  1  0.74714330  0.15530283  0.43683897  1
  Co  Co14  1  0.74688713  0.56399691  0.71585607  1
  Co  Co15  1  0.25372963  0.71826631  0.15462145  1
  Co  Co16  1  0.25285670  0.84469717  0.56316103  1
  Co  Co17  1  0.25311287  0.43600309  0.28414393  1
  Co  Co18  1  0.75329258  0.33393425  0.66657121  1
  Co  Co19  1  0.24670742  0.66606575  0.33342879  1
  Co  Co20  1  0.50000000  0.00000000  -0.00000000  1
