# generated using pymatgen
data_Co4H
_symmetry_space_group_name_H-M   'P 1'
_cell_length_a   2.53323469
_cell_length_b   2.53323509
_cell_length_c   8.15318986
_cell_angle_alpha   89.99609512
_cell_angle_beta   90.00390067
_cell_angle_gamma   119.99742797
_symmetry_Int_Tables_number   1
_chemical_formula_structural   Co4H
_chemical_formula_sum   'Co4 H1'
_cell_volume   45.31274396
_cell_formula_units_Z   1
loop_
 _symmetry_equiv_pos_site_id
 _symmetry_equiv_pos_as_xyz
  1  'x, y, z'
loop_
 _atom_site_type_symbol
 _atom_site_label
 _atom_site_symmetry_multiplicity
 _atom_site_fract_x
 _atom_site_fract_y
 _atom_site_fract_z
 _atom_site_occupancy
  Co  Co0  1  0.66665863  0.33334141  0.38395754  1
  Co  Co1  1  0.66667460  0.33332532  0.87212813  1
  Co  Co2  1  0.33334137  0.66665859  0.11604246  1
  Co  Co3  1  0.33332540  0.66667468  0.62787187  1
  H  H4  1  0.00000000  0.00000000  0.25000000  1
