# generated using pymatgen
data_CsScCuF6
_symmetry_space_group_name_H-M   'P 1'
_cell_length_a   7.63449896
_cell_length_b   7.37797624
_cell_length_c   7.71855904
_cell_angle_alpha   90.00000000
_cell_angle_beta   59.63510038
_cell_angle_gamma   118.89459331
_symmetry_Int_Tables_number   1
_chemical_formula_structural   CsScCuF6
_chemical_formula_sum   'Cs2 Sc2 Cu2 F12'
_cell_volume   310.78281251
_cell_formula_units_Z   2
loop_
 _symmetry_equiv_pos_site_id
 _symmetry_equiv_pos_as_xyz
  1  'x, y, z'
loop_
 _atom_site_type_symbol
 _atom_site_label
 _atom_site_symmetry_multiplicity
 _atom_site_fract_x
 _atom_site_fract_y
 _atom_site_fract_z
 _atom_site_occupancy
  Cs  Cs0  1  0.77459822  0.38729911  0.36270089  1
  Cs  Cs1  1  0.22540178  0.61270089  0.63729911  1
  Sc  Sc2  1  -0.00000000  0.00000000  0.50000000  1
  Sc  Sc3  1  -0.00000000  0.00000000  -0.00000000  1
  Cu  Cu4  1  0.50000000  0.50000000  -0.00000000  1
  Cu  Cu5  1  0.50000000  0.00000000  -0.00000000  1
  F  F6  1  0.87316529  0.93658264  0.31341736  1
  F  F7  1  0.61362873  0.30681436  0.94318564  1
  F  F8  1  0.24006309  0.91840603  0.93325150  1
  F  F9  1  0.24006309  0.32165707  0.32668541  1
  F  F10  1  0.24006309  0.32165707  0.93325150  1
  F  F11  1  0.24006309  0.91840603  0.32668541  1
  F  F12  1  0.12683471  0.06341736  0.68658264  1
  F  F13  1  0.38637127  0.69318564  0.05681436  1
  F  F14  1  0.75993691  0.08159397  0.06674850  1
  F  F15  1  0.75993691  0.67834293  0.67331459  1
  F  F16  1  0.75993691  0.67834293  0.06674850  1
  F  F17  1  0.75993691  0.08159397  0.67331459  1
