# generated using pymatgen
data_Cu2GeSe3
_symmetry_space_group_name_H-M   'P 1'
_cell_length_a   6.87107522
_cell_length_b   6.87107522
_cell_length_c   12.56209486
_cell_angle_alpha   79.43727322
_cell_angle_beta   100.56272678
_cell_angle_gamma   70.74837713
_symmetry_Int_Tables_number   1
_chemical_formula_structural   Cu2GeSe3
_chemical_formula_sum   'Cu8 Ge4 Se12'
_cell_volume   531.10112062
_cell_formula_units_Z   4
loop_
 _symmetry_equiv_pos_site_id
 _symmetry_equiv_pos_as_xyz
  1  'x, y, z'
loop_
 _atom_site_type_symbol
 _atom_site_label
 _atom_site_symmetry_multiplicity
 _atom_site_fract_x
 _atom_site_fract_y
 _atom_site_fract_z
 _atom_site_occupancy
  Cu  Cu0  1  0.25817554  0.24688565  0.49940442  1
  Cu  Cu1  1  0.91131046  0.57797646  0.83333300  1
  Cu  Cu2  1  0.58021865  0.92484254  0.16726258  1
  Cu  Cu3  1  0.34210411  0.66295707  0.66726258  1
  Cu  Cu4  1  0.99629007  0.00877111  0.99940442  1
  Cu  Cu5  1  0.66131046  0.32797646  0.33333300  1
  Cu  Cu6  1  0.41707868  0.08374468  0.83333300  1
  Cu  Cu7  1  0.16707868  0.83374468  0.33333300  1
  Ge  Ge8  1  0.09674510  0.40353397  0.17032148  1
  Ge  Ge9  1  0.73686697  0.76341210  0.49634552  1
  Ge  Ge10  1  0.82385444  0.17642462  0.67032148  1
  Ge  Ge11  1  0.50975762  0.49052144  0.99634552  1
  Se  Se12  1  0.11916138  0.63435047  0.99587292  1
  Se  Se13  1  0.79644263  0.95720770  0.33308962  1
  Se  Se14  1  0.45080231  0.29164012  0.66679667  1
  Se  Se15  1  0.62497412  0.11746831  0.99986933  1
  Se  Se16  1  0.29054070  0.46310963  0.33357738  1
  Se  Se17  1  0.96768347  0.78582838  0.67079408  1
  Se  Se18  1  0.04668601  0.20696432  0.83357738  1
  Se  Se19  1  0.70662247  0.54688939  0.17079408  1
  Se  Se20  1  0.36733863  0.87510380  0.49986933  1
  Se  Se21  1  0.88022239  0.37328947  0.49587292  1
  Se  Se22  1  0.54029732  0.71335301  0.83308962  1
  Se  Se23  1  0.20843780  0.03400463  0.16679667  1
