# generated using pymatgen
data_Co4CuNiS8
_symmetry_space_group_name_H-M   'P 1'
_cell_length_a   6.64376399
_cell_length_b   6.64376399
_cell_length_c   6.64376399
_cell_angle_alpha   90.00000000
_cell_angle_beta   60.00000000
_cell_angle_gamma   120.00000000
_symmetry_Int_Tables_number   1
_chemical_formula_structural   Co4CuNiS8
_chemical_formula_sum   'Co4 Cu1 Ni1 S8'
_cell_volume   207.36124481
_cell_formula_units_Z   1
loop_
 _symmetry_equiv_pos_site_id
 _symmetry_equiv_pos_as_xyz
  1  'x, y, z'
loop_
 _atom_site_type_symbol
 _atom_site_label
 _atom_site_symmetry_multiplicity
 _atom_site_fract_x
 _atom_site_fract_y
 _atom_site_fract_z
 _atom_site_occupancy
  Co  Co0  1  0.49950455  0.49925683  0.00024772  1
  Co  Co1  1  0.49950455  0.00024772  0.00024772  1
  Co  Co2  1  0.00049545  0.00024772  0.49925683  1
  Co  Co3  1  0.00049545  0.00024772  0.00024772  1
  Cu  Cu4  1  0.75000000  0.37500000  0.37500000  1
  Ni  Ni5  1  0.25000000  0.62500000  0.62500000  1
  S  S6  1  0.02520534  0.78780800  0.23739733  1
  S  S7  1  0.02520534  0.23739733  0.23739733  1
  S  S8  1  0.47479466  0.23739733  0.78780800  1
  S  S9  1  0.47479466  0.23739733  0.23739733  1
  S  S10  1  0.98085329  0.22127994  0.75957335  1
  S  S11  1  0.98085329  0.75957335  0.75957335  1
  S  S12  1  0.51914671  0.75957335  0.22127994  1
  S  S13  1  0.51914671  0.75957335  0.75957335  1
