# generated using pymatgen
data_CoNiTe4
_symmetry_space_group_name_H-M   'P 1'
_cell_length_a   3.85576041
_cell_length_b   6.57144021
_cell_length_c   6.58155868
_cell_angle_alpha   71.64113571
_cell_angle_beta   72.85847201
_cell_angle_gamma   106.51538483
_symmetry_Int_Tables_number   1
_chemical_formula_structural   CoNiTe4
_chemical_formula_sum   'Co1 Ni1 Te4'
_cell_volume   137.55034804
_cell_formula_units_Z   1
loop_
 _symmetry_equiv_pos_site_id
 _symmetry_equiv_pos_as_xyz
  1  'x, y, z'
loop_
 _atom_site_type_symbol
 _atom_site_label
 _atom_site_symmetry_multiplicity
 _atom_site_fract_x
 _atom_site_fract_y
 _atom_site_fract_z
 _atom_site_occupancy
  Co  Co0  1  -0.00000000  -0.00000000  -0.00000000  1
  Ni  Ni1  1  -0.00000000  0.50000000  0.50000000  1
  Te  Te2  1  0.32747947  0.44819982  0.79350876  1
  Te  Te3  1  0.33806120  0.95802294  0.28226418  1
  Te  Te4  1  0.67252053  0.55180018  0.20649124  1
  Te  Te5  1  0.66193880  0.04197706  0.71773582  1
