# generated using pymatgen
data_DyTmFe14B
_symmetry_space_group_name_H-M   'P 1'
_cell_length_a   8.70595016
_cell_length_b   8.70595016
_cell_length_c   11.87193351
_cell_angle_alpha   90.00000000
_cell_angle_beta   90.00000000
_cell_angle_gamma   90.00000000
_symmetry_Int_Tables_number   1
_chemical_formula_structural   DyTmFe14B
_chemical_formula_sum   'Dy4 Tm4 Fe56 B4'
_cell_volume   899.81620202
_cell_formula_units_Z   4
loop_
 _symmetry_equiv_pos_site_id
 _symmetry_equiv_pos_as_xyz
  1  'x, y, z'
loop_
 _atom_site_type_symbol
 _atom_site_label
 _atom_site_symmetry_multiplicity
 _atom_site_fract_x
 _atom_site_fract_y
 _atom_site_fract_z
 _atom_site_occupancy
  Dy  Dy0  1  0.23281850  0.76718150  0.50000000  1
  Dy  Dy1  1  0.76718150  0.23281850  0.50000000  1
  Dy  Dy2  1  0.26718150  0.26718150  -0.00000000  1
  Dy  Dy3  1  0.73281850  0.73281850  -0.00000000  1
  Tm  Tm4  1  0.64354597  0.64354597  0.50000000  1
  Tm  Tm5  1  0.35645403  0.35645403  0.50000000  1
  Tm  Tm6  1  0.85645403  0.14354597  -0.00000000  1
  Tm  Tm7  1  0.14354597  0.85645403  -0.00000000  1
  Fe  Fe8  1  0.18288320  0.81711680  0.25340612  1
  Fe  Fe9  1  0.81711680  0.18288320  0.25340612  1
  Fe  Fe10  1  0.31711680  0.31711680  0.75340612  1
  Fe  Fe11  1  0.68288320  0.68288320  0.75340612  1
  Fe  Fe12  1  0.81711680  0.18288320  0.74659388  1
  Fe  Fe13  1  0.18288320  0.81711680  0.74659388  1
  Fe  Fe14  1  0.68288320  0.68288320  0.24659388  1
  Fe  Fe15  1  0.31711680  0.31711680  0.24659388  1
  Fe  Fe16  1  0.93355016  0.72464536  0.37329205  1
  Fe  Fe17  1  0.06644984  0.27535464  0.37329205  1
  Fe  Fe18  1  0.56644984  0.22464536  0.87329205  1
  Fe  Fe19  1  0.43355016  0.77535464  0.87329205  1
  Fe  Fe20  1  0.06644984  0.27535464  0.62670795  1
  Fe  Fe21  1  0.93355016  0.72464536  0.62670795  1
  Fe  Fe22  1  0.43355016  0.77535464  0.12670795  1
  Fe  Fe23  1  0.56644984  0.22464536  0.12670795  1
  Fe  Fe24  1  0.72464536  0.93355016  0.37329205  1
  Fe  Fe25  1  0.27535464  0.06644984  0.37329205  1
  Fe  Fe26  1  0.22464536  0.56644984  0.87329205  1
  Fe  Fe27  1  0.77535464  0.43355016  0.87329205  1
  Fe  Fe28  1  0.27535464  0.06644984  0.62670795  1
  Fe  Fe29  1  0.72464536  0.93355016  0.62670795  1
  Fe  Fe30  1  0.77535464  0.43355016  0.12670795  1
  Fe  Fe31  1  0.22464536  0.56644984  0.12670795  1
  Fe  Fe32  1  0.50000000  0.50000000  0.11504751  1
  Fe  Fe33  1  0.00000000  0.00000000  0.61504751  1
  Fe  Fe34  1  0.50000000  0.50000000  0.88495249  1
  Fe  Fe35  1  0.00000000  0.00000000  0.38495249  1
  Fe  Fe36  1  0.14152530  0.53693718  0.32552856  1
  Fe  Fe37  1  0.85847470  0.46306282  0.32552856  1
  Fe  Fe38  1  0.35847470  0.03693718  0.82552856  1
  Fe  Fe39  1  0.64152530  0.96306282  0.82552856  1
  Fe  Fe40  1  0.85847470  0.46306282  0.67447144  1
  Fe  Fe41  1  0.14152530  0.53693718  0.67447144  1
  Fe  Fe42  1  0.64152530  0.96306282  0.17447144  1
  Fe  Fe43  1  0.35847470  0.03693718  0.17447144  1
  Fe  Fe44  1  0.53693718  0.14152530  0.32552856  1
  Fe  Fe45  1  0.46306282  0.85847470  0.32552856  1
  Fe  Fe46  1  0.03693718  0.35847470  0.82552856  1
  Fe  Fe47  1  0.96306282  0.64152530  0.82552856  1
  Fe  Fe48  1  0.46306282  0.85847470  0.67447144  1
  Fe  Fe49  1  0.53693718  0.14152530  0.67447144  1
  Fe  Fe50  1  0.96306282  0.64152530  0.17447144  1
  Fe  Fe51  1  0.03693718  0.35847470  0.17447144  1
  Fe  Fe52  1  0.00000000  0.50000000  0.50000000  1
  Fe  Fe53  1  0.50000000  0.00000000  -0.00000000  1
  Fe  Fe54  1  0.50000000  0.00000000  0.50000000  1
  Fe  Fe55  1  0.00000000  0.50000000  -0.00000000  1
  Fe  Fe56  1  0.40332195  0.59667805  0.30009258  1
  Fe  Fe57  1  0.59667805  0.40332195  0.30009258  1
  Fe  Fe58  1  0.09667805  0.09667805  0.80009258  1
  Fe  Fe59  1  0.90332195  0.90332195  0.80009258  1
  Fe  Fe60  1  0.59667805  0.40332195  0.69990742  1
  Fe  Fe61  1  0.40332195  0.59667805  0.69990742  1
  Fe  Fe62  1  0.90332195  0.90332195  0.19990742  1
  Fe  Fe63  1  0.09667805  0.09667805  0.19990742  1
  B  B64  1  0.87233105  0.87233105  0.50000000  1
  B  B65  1  0.12766895  0.12766895  0.50000000  1
  B  B66  1  0.62766895  0.37233105  -0.00000000  1
  B  B67  1  0.37233105  0.62766895  -0.00000000  1
