# generated using pymatgen
data_CeB4(IrOs)2
_symmetry_space_group_name_H-M   'P 1'
_cell_length_a   4.01006315
_cell_length_b   7.62374695
_cell_length_c   7.62374695
_cell_angle_alpha   90.00000000
_cell_angle_beta   90.00000000
_cell_angle_gamma   90.00000000
_symmetry_Int_Tables_number   1
_chemical_formula_structural   CeB4(IrOs)2
_chemical_formula_sum   'Ce2 B8 Ir4 Os4'
_cell_volume   233.07095578
_cell_formula_units_Z   2
loop_
 _symmetry_equiv_pos_site_id
 _symmetry_equiv_pos_as_xyz
  1  'x, y, z'
loop_
 _atom_site_type_symbol
 _atom_site_label
 _atom_site_symmetry_multiplicity
 _atom_site_fract_x
 _atom_site_fract_y
 _atom_site_fract_z
 _atom_site_occupancy
  Ce  Ce0  1  0.24563522  0.25000000  0.25000000  1
  Ce  Ce1  1  0.74563522  0.75000000  0.75000000  1
  B  B2  1  0.36403564  0.91064758  0.03397663  1
  B  B3  1  0.36403564  0.58935242  0.46602337  1
  B  B4  1  0.86403564  0.53397663  0.08935242  1
  B  B5  1  0.86403564  0.96602337  0.41064758  1
  B  B6  1  0.64079092  0.08791718  0.97164788  1
  B  B7  1  0.64079092  0.41208282  0.52835212  1
  B  B8  1  0.14079092  0.47164788  0.91208282  1
  B  B9  1  0.14079092  0.02835212  0.58791718  1
  Ir  Ir10  1  0.13738318  0.40840798  0.64013440  1
  Ir  Ir11  1  0.13738318  0.09159202  0.85986560  1
  Ir  Ir12  1  0.63738318  0.14013440  0.59159202  1
  Ir  Ir13  1  0.63738318  0.35986560  0.90840798  1
  Os  Os14  1  0.85997265  0.60427738  0.35964297  1
  Os  Os15  1  0.85997265  0.89572262  0.14035703  1
  Os  Os16  1  0.35997265  0.85964297  0.39572262  1
  Os  Os17  1  0.35997265  0.64035703  0.10427738  1
