# generated using pymatgen
data_SrHfMg30O32
_symmetry_space_group_name_H-M   'P 1'
_cell_length_a   8.64459104
_cell_length_b   8.68700057
_cell_length_c   8.68700057
_cell_angle_alpha   90.00000000
_cell_angle_beta   90.00000000
_cell_angle_gamma   90.00000000
_symmetry_Int_Tables_number   1
_chemical_formula_structural   SrHfMg30O32
_chemical_formula_sum   'Sr1 Hf1 Mg30 O32'
_cell_volume   652.35523587
_cell_formula_units_Z   1
loop_
 _symmetry_equiv_pos_site_id
 _symmetry_equiv_pos_as_xyz
  1  'x, y, z'
loop_
 _atom_site_type_symbol
 _atom_site_label
 _atom_site_symmetry_multiplicity
 _atom_site_fract_x
 _atom_site_fract_y
 _atom_site_fract_z
 _atom_site_occupancy
  Sr  Sr0  1  0.00000000  0.00000000  -0.00000000  1
  Hf  Hf1  1  0.00000000  0.50000000  0.50000000  1
  Mg  Mg2  1  0.00000000  0.00000000  0.50000000  1
  Mg  Mg3  1  0.00000000  0.50000000  -0.00000000  1
  Mg  Mg4  1  0.50000000  0.00000000  -0.00000000  1
  Mg  Mg5  1  0.50000000  0.00000000  0.50000000  1
  Mg  Mg6  1  0.50000000  0.50000000  -0.00000000  1
  Mg  Mg7  1  0.50000000  0.50000000  0.50000000  1
  Mg  Mg8  1  0.00000000  0.25167242  0.25167242  1
  Mg  Mg9  1  0.00000000  0.25167242  0.74832758  1
  Mg  Mg10  1  0.00000000  0.74832758  0.25167242  1
  Mg  Mg11  1  0.00000000  0.74832758  0.74832758  1
  Mg  Mg12  1  0.50000000  0.24938525  0.24938525  1
  Mg  Mg13  1  0.50000000  0.24938525  0.75061475  1
  Mg  Mg14  1  0.50000000  0.75061475  0.24938525  1
  Mg  Mg15  1  0.50000000  0.75061475  0.75061475  1
  Mg  Mg16  1  0.25537425  0.00000000  0.25391181  1
  Mg  Mg17  1  0.25537425  0.00000000  0.74608819  1
  Mg  Mg18  1  0.25450043  0.50000000  0.24347545  1
  Mg  Mg19  1  0.25450043  0.50000000  0.75652455  1
  Mg  Mg20  1  0.74462575  0.00000000  0.25391181  1
  Mg  Mg21  1  0.74462575  0.00000000  0.74608819  1
  Mg  Mg22  1  0.74549957  0.50000000  0.24347545  1
  Mg  Mg23  1  0.74549957  0.50000000  0.75652455  1
  Mg  Mg24  1  0.25537425  0.25391181  -0.00000000  1
  Mg  Mg25  1  0.25450043  0.24347545  0.50000000  1
  Mg  Mg26  1  0.25537425  0.74608819  -0.00000000  1
  Mg  Mg27  1  0.25450043  0.75652455  0.50000000  1
  Mg  Mg28  1  0.74462575  0.25391181  -0.00000000  1
  Mg  Mg29  1  0.74549957  0.24347545  0.50000000  1
  Mg  Mg30  1  0.74462575  0.74608819  -0.00000000  1
  Mg  Mg31  1  0.74549957  0.75652455  0.50000000  1
  O  O32  1  0.27030418  0.00000000  -0.00000000  1
  O  O33  1  0.25428120  0.00000000  0.50000000  1
  O  O34  1  0.25428120  0.50000000  -0.00000000  1
  O  O35  1  0.24527707  0.50000000  0.50000000  1
  O  O36  1  0.72969582  0.00000000  -0.00000000  1
  O  O37  1  0.74571880  0.00000000  0.50000000  1
  O  O38  1  0.74571880  0.50000000  -0.00000000  1
  O  O39  1  0.75472293  0.50000000  0.50000000  1
  O  O40  1  0.24961693  0.25044845  0.25044845  1
  O  O41  1  0.24961693  0.25044845  0.74955155  1
  O  O42  1  0.24961693  0.74955155  0.25044845  1
  O  O43  1  0.24961693  0.74955155  0.74955155  1
  O  O44  1  0.75038307  0.25044845  0.25044845  1
  O  O45  1  0.75038307  0.25044845  0.74955155  1
  O  O46  1  0.75038307  0.74955155  0.25044845  1
  O  O47  1  0.75038307  0.74955155  0.74955155  1
  O  O48  1  0.00000000  0.00000000  0.26969993  1
  O  O49  1  0.00000000  0.00000000  0.73030007  1
  O  O50  1  0.00000000  0.50000000  0.24669667  1
  O  O51  1  0.00000000  0.50000000  0.75330333  1
  O  O52  1  0.50000000  0.00000000  0.25434588  1
  O  O53  1  0.50000000  0.00000000  0.74565412  1
  O  O54  1  0.50000000  0.50000000  0.25234698  1
  O  O55  1  0.50000000  0.50000000  0.74765302  1
  O  O56  1  0.00000000  0.26969993  -0.00000000  1
  O  O57  1  0.00000000  0.24669667  0.50000000  1
  O  O58  1  0.00000000  0.73030007  -0.00000000  1
  O  O59  1  0.00000000  0.75330333  0.50000000  1
  O  O60  1  0.50000000  0.25434588  -0.00000000  1
  O  O61  1  0.50000000  0.25234698  0.50000000  1
  O  O62  1  0.50000000  0.74565412  -0.00000000  1
  O  O63  1  0.50000000  0.74765302  0.50000000  1
