# generated using pymatgen
data_La2CeTe4
_symmetry_space_group_name_H-M   'P 1'
_cell_length_a   8.33803110
_cell_length_b   8.33803110
_cell_length_c   8.33803110
_cell_angle_alpha   70.57612447
_cell_angle_beta   70.43404761
_cell_angle_gamma   109.42387553
_symmetry_Int_Tables_number   1
_chemical_formula_structural   La2CeTe4
_chemical_formula_sum   'La4 Ce2 Te8'
_cell_volume   446.23923364
_cell_formula_units_Z   2
loop_
 _symmetry_equiv_pos_site_id
 _symmetry_equiv_pos_as_xyz
  1  'x, y, z'
loop_
 _atom_site_type_symbol
 _atom_site_label
 _atom_site_symmetry_multiplicity
 _atom_site_fract_x
 _atom_site_fract_y
 _atom_site_fract_z
 _atom_site_occupancy
  La  La0  1  0.87491293  0.62491293  0.75000000  1
  La  La1  1  0.62508707  0.87508707  0.25000000  1
  La  La2  1  0.75000000  0.12491293  0.62508707  1
  La  La3  1  0.25000000  0.37508707  0.87491293  1
  Ce  Ce4  1  0.37500000  0.25000000  0.37500000  1
  Ce  Ce5  1  0.12500000  0.75000000  0.12500000  1
  Te  Te6  1  0.84657247  0.34857718  0.15378193  1
  Te  Te7  1  0.49764089  0.15142282  0.00200470  1
  Te  Te8  1  0.65342753  0.49964560  0.49799530  1
  Te  Te9  1  0.00235911  0.00035440  0.34621807  1
  Te  Te10  1  0.49799530  0.65142282  0.00235911  1
  Te  Te11  1  0.34621807  0.84857718  0.65342753  1
  Te  Te12  1  0.15378193  0.50035440  0.49764089  1
  Te  Te13  1  0.00200470  0.99964560  0.84657247  1
