# generated using pymatgen
data_Fe8Cu3Te12(Cl5O16)2
_symmetry_space_group_name_H-M   'P 1'
_cell_length_a   5.11730471
_cell_length_b   10.21551176
_cell_length_c   21.16645350
_cell_angle_alpha   90.00000000
_cell_angle_beta   90.00000000
_cell_angle_gamma   90.00000000
_symmetry_Int_Tables_number   1
_chemical_formula_structural   Fe8Cu3Te12(Cl5O16)2
_chemical_formula_sum   'Fe8 Cu3 Te12 Cl10 O32'
_cell_volume   1106.49511960
_cell_formula_units_Z   1
loop_
 _symmetry_equiv_pos_site_id
 _symmetry_equiv_pos_as_xyz
  1  'x, y, z'
loop_
 _atom_site_type_symbol
 _atom_site_label
 _atom_site_symmetry_multiplicity
 _atom_site_fract_x
 _atom_site_fract_y
 _atom_site_fract_z
 _atom_site_occupancy
  Fe  Fe0  1  0.24762452  0.57887485  0.52150643  1
  Fe  Fe1  1  0.24762452  0.57887485  0.97849357  1
  Fe  Fe2  1  0.24762452  0.92112515  0.52150643  1
  Fe  Fe3  1  0.24762452  0.92112515  0.97849357  1
  Fe  Fe4  1  0.75717524  0.42528478  0.47780485  1
  Fe  Fe5  1  0.75717524  0.42528478  0.02219515  1
  Fe  Fe6  1  0.75717524  0.07471522  0.47780485  1
  Fe  Fe7  1  0.75717524  0.07471522  0.02219515  1
  Cu  Cu8  1  0.06902950  0.25000000  0.75000000  1
  Cu  Cu9  1  0.90785178  0.75000000  0.25000000  1
  Cu  Cu10  1  0.55583070  0.25000000  0.75000000  1
  Te  Te11  1  0.29625763  0.25000000  0.56151984  1
  Te  Te12  1  0.29625763  0.25000000  0.93848016  1
  Te  Te13  1  0.70255414  0.75000000  0.43498081  1
  Te  Te14  1  0.70255414  0.75000000  0.06501919  1
  Te  Te15  1  0.74795047  0.57640293  0.63719021  1
  Te  Te16  1  0.74795047  0.57640293  0.86280979  1
  Te  Te17  1  0.74795047  0.92359707  0.63719021  1
  Te  Te18  1  0.74795047  0.92359707  0.86280979  1
  Te  Te19  1  0.25047519  0.42419943  0.36091481  1
  Te  Te20  1  0.25047519  0.42419943  0.13908519  1
  Te  Te21  1  0.25047519  0.07580057  0.36091481  1
  Te  Te22  1  0.25047519  0.07580057  0.13908519  1
  Cl  Cl23  1  0.91605383  0.75000000  0.75000000  1
  Cl  Cl24  1  0.08512909  0.25000000  0.25000000  1
  Cl  Cl25  1  0.31641718  0.06006554  0.75000000  1
  Cl  Cl26  1  0.31641718  0.43993446  0.75000000  1
  Cl  Cl27  1  0.72351476  0.94827403  0.25000000  1
  Cl  Cl28  1  0.72351476  0.55172597  0.25000000  1
  Cl  Cl29  1  0.82522982  0.25000000  0.65716103  1
  Cl  Cl30  1  0.82522982  0.25000000  0.84283897  1
  Cl  Cl31  1  0.15199168  0.75000000  0.34416200  1
  Cl  Cl32  1  0.15199168  0.75000000  0.15583800  1
  O  O33  1  0.58018045  0.49373407  0.56353228  1
  O  O34  1  0.58018045  0.49373407  0.93646772  1
  O  O35  1  0.58018045  0.00626593  0.56353228  1
  O  O36  1  0.58018045  0.00626593  0.93646772  1
  O  O37  1  0.42847171  0.49858576  0.43505722  1
  O  O38  1  0.42847171  0.49858576  0.06494278  1
  O  O39  1  0.42847171  0.00141424  0.43505722  1
  O  O40  1  0.42847171  0.00141424  0.06494278  1
  O  O41  1  0.60491917  0.75000000  0.61661036  1
  O  O42  1  0.60491917  0.75000000  0.88338964  1
  O  O43  1  0.39253805  0.25000000  0.38036274  1
  O  O44  1  0.39253805  0.25000000  0.11963726  1
  O  O45  1  0.58911837  0.25000000  0.50139091  1
  O  O46  1  0.58911837  0.25000000  0.99860909  1
  O  O47  1  0.41099132  0.75000000  0.49610650  1
  O  O48  1  0.41099132  0.75000000  0.00389350  1
  O  O49  1  0.09521038  0.38512512  0.52313278  1
  O  O50  1  0.09521038  0.38512512  0.97686722  1
  O  O51  1  0.09521038  0.11487488  0.52313278  1
  O  O52  1  0.09521038  0.11487488  0.97686722  1
  O  O53  1  0.89432023  0.61394705  0.47598464  1
  O  O54  1  0.89432023  0.61394705  0.02401536  1
  O  O55  1  0.89432023  0.88605295  0.47598464  1
  O  O56  1  0.89432023  0.88605295  0.02401536  1
  O  O57  1  0.08406142  0.59916758  0.60621306  1
  O  O58  1  0.08406142  0.59916758  0.89378694  1
  O  O59  1  0.08406142  0.90083242  0.60621306  1
  O  O60  1  0.08406142  0.90083242  0.89378694  1
  O  O61  1  0.91879061  0.39770708  0.39563579  1
  O  O62  1  0.91879061  0.39770708  0.10436421  1
  O  O63  1  0.91879061  0.10229292  0.39563579  1
  O  O64  1  0.91879061  0.10229292  0.10436421  1
