# generated using pymatgen
data_Co3NiSb12
_symmetry_space_group_name_H-M   'P 1'
_cell_length_a   7.95569007
_cell_length_b   7.95569007
_cell_length_c   7.92772302
_cell_angle_alpha   70.59997459
_cell_angle_beta   70.59997459
_cell_angle_gamma   109.54232193
_symmetry_Int_Tables_number   1
_chemical_formula_structural   Co3NiSb12
_chemical_formula_sum   'Co3 Ni1 Sb12'
_cell_volume   386.60113586
_cell_formula_units_Z   1
loop_
 _symmetry_equiv_pos_site_id
 _symmetry_equiv_pos_as_xyz
  1  'x, y, z'
loop_
 _atom_site_type_symbol
 _atom_site_label
 _atom_site_symmetry_multiplicity
 _atom_site_fract_x
 _atom_site_fract_y
 _atom_site_fract_z
 _atom_site_occupancy
  Co  Co0  1  0.00000000  0.50000000  -0.00000000  1
  Co  Co1  1  0.50000000  0.50000000  0.50000000  1
  Co  Co2  1  0.50000000  0.00000000  -0.00000000  1
  Ni  Ni3  1  0.00000000  0.00000000  0.50000000  1
  Sb  Sb4  1  0.66670417  0.50683761  0.16000605  1
  Sb  Sb5  1  0.33329583  0.49316239  0.83999395  1
  Sb  Sb6  1  0.66111945  0.82338416  0.84431104  1
  Sb  Sb7  1  0.33888055  0.17661584  0.15568896  1
  Sb  Sb8  1  0.84013344  0.33329583  0.82671023  1
  Sb  Sb9  1  0.15986656  0.66670417  0.17328977  1
  Sb  Sb10  1  0.16226470  0.33888055  0.50543049  1
  Sb  Sb11  1  0.83773530  0.66111945  0.49456951  1
  Sb  Sb12  1  0.49316239  0.15986656  0.66684366  1
  Sb  Sb13  1  0.50683761  0.84013344  0.33315634  1
  Sb  Sb14  1  0.17661584  0.83773530  0.66769519  1
  Sb  Sb15  1  0.82338416  0.16226470  0.33230481  1
