# generated using pymatgen
data_CrCuSnSe4
_symmetry_space_group_name_H-M   'P 1'
_cell_length_a   7.63959237
_cell_length_b   7.59282014
_cell_length_c   7.73136838
_cell_angle_alpha   90.00000000
_cell_angle_beta   59.60180422
_cell_angle_gamma   119.79768022
_symmetry_Int_Tables_number   1
_chemical_formula_structural   CrCuSnSe4
_chemical_formula_sum   'Cr2 Cu2 Sn2 Se8'
_cell_volume   316.16358291
_cell_formula_units_Z   2
loop_
 _symmetry_equiv_pos_site_id
 _symmetry_equiv_pos_as_xyz
  1  'x, y, z'
loop_
 _atom_site_type_symbol
 _atom_site_label
 _atom_site_symmetry_multiplicity
 _atom_site_fract_x
 _atom_site_fract_y
 _atom_site_fract_z
 _atom_site_occupancy
  Cr  Cr0  1  0.50000000  0.50000000  -0.00000000  1
  Cr  Cr1  1  0.50000000  -0.00000000  -0.00000000  1
  Cu  Cu2  1  0.74005759  0.37002880  0.37997120  1
  Cu  Cu3  1  0.25994241  0.62997120  0.62002880  1
  Sn  Sn4  1  0.00000000  -0.00000000  0.50000000  1
  Sn  Sn5  1  0.00000000  -0.00000000  -0.00000000  1
  Se  Se6  1  0.02808111  0.76034738  0.23595945  1
  Se  Se7  1  0.02808111  0.26773373  0.23595945  1
  Se  Se8  1  0.50425886  0.25212943  0.77153901  1
  Se  Se9  1  0.50425886  0.25212943  0.22420214  1
  Se  Se10  1  0.97191889  0.23965262  0.76404055  1
  Se  Se11  1  0.97191889  0.73226627  0.76404055  1
  Se  Se12  1  0.49574114  0.74787057  0.22846099  1
  Se  Se13  1  0.49574114  0.74787057  0.77579786  1
