# generated using pymatgen
data_Cr5InS8
_symmetry_space_group_name_H-M   'P 1'
_cell_length_a   3.48062547
_cell_length_b   8.67377717
_cell_length_c   9.20506294
_cell_angle_alpha   104.78789129
_cell_angle_beta   79.10204559
_cell_angle_gamma   90.00000000
_symmetry_Int_Tables_number   1
_chemical_formula_structural   Cr5InS8
_chemical_formula_sum   'Cr5 In1 S8'
_cell_volume   263.51069390
_cell_formula_units_Z   1
loop_
 _symmetry_equiv_pos_site_id
 _symmetry_equiv_pos_as_xyz
  1  'x, y, z'
loop_
 _atom_site_type_symbol
 _atom_site_label
 _atom_site_symmetry_multiplicity
 _atom_site_fract_x
 _atom_site_fract_y
 _atom_site_fract_z
 _atom_site_occupancy
  Cr  Cr0  1  0.79694905  0.83485314  0.40610190  1
  Cr  Cr1  1  0.20394322  0.16584244  0.59211356  1
  Cr  Cr2  1  0.49942010  0.49987078  0.00115981  1
  Cr  Cr3  1  0.15887009  0.52601163  0.68225982  1
  Cr  Cr4  1  0.84245538  0.47252271  0.31508924  1
  In  In5  1  0.01845749  0.99200052  0.96308501  1
  S  S6  1  0.58537921  0.67258971  0.82924158  1
  S  S7  1  0.41536422  0.32641805  0.16927155  1
  S  S8  1  0.26311067  0.65467245  0.47377866  1
  S  S9  1  0.73791278  0.34358512  0.52417443  1
  S  S10  1  0.92359411  0.65044989  0.15281177  1
  S  S11  1  0.07617838  0.35045602  0.84764324  1
  S  S12  1  0.67182793  0.01070566  0.65634414  1
  S  S13  1  0.32764736  0.98952188  0.34470528  1
