# generated using pymatgen
data_Cr3(TeSe)2
_symmetry_space_group_name_H-M   'P 1'
_cell_length_a   3.89317514
_cell_length_b   6.70708226
_cell_length_c   7.33335896
_cell_angle_alpha   119.09529248
_cell_angle_beta   74.60672761
_cell_angle_gamma   90.00000033
_symmetry_Int_Tables_number   1
_chemical_formula_structural   Cr3(TeSe)2
_chemical_formula_sum   'Cr3 Te2 Se2'
_cell_volume   159.41700296
_cell_formula_units_Z   1
loop_
 _symmetry_equiv_pos_site_id
 _symmetry_equiv_pos_as_xyz
  1  'x, y, z'
loop_
 _atom_site_type_symbol
 _atom_site_label
 _atom_site_symmetry_multiplicity
 _atom_site_fract_x
 _atom_site_fract_y
 _atom_site_fract_z
 _atom_site_occupancy
  Cr  Cr0  1  0.00000000  -0.00000000  -0.00000000  1
  Cr  Cr1  1  0.26298002  0.70067559  0.47403997  1
  Cr  Cr2  1  0.73701998  0.29932441  0.52596003  1
  Te  Te3  1  0.36794991  0.96305301  0.26410018  1
  Te  Te4  1  0.63205009  0.03694699  0.73589982  1
  Se  Se5  1  0.12794680  0.55671548  0.74410640  1
  Se  Se6  1  0.87205320  0.44328452  0.25589360  1
