# generated using pymatgen
data_Er15Fe8C25
_symmetry_space_group_name_H-M   'P 1'
_cell_length_a   5.06786360
_cell_length_b   11.80224666
_cell_length_c   11.80146137
_cell_angle_alpha   119.99822652
_cell_angle_beta   89.99928739
_cell_angle_gamma   89.99409127
_symmetry_Int_Tables_number   1
_chemical_formula_structural   Er15Fe8C25
_chemical_formula_sum   'Er15 Fe8 C25'
_cell_volume   611.31321307
_cell_formula_units_Z   1
loop_
 _symmetry_equiv_pos_site_id
 _symmetry_equiv_pos_as_xyz
  1  'x, y, z'
loop_
 _atom_site_type_symbol
 _atom_site_label
 _atom_site_symmetry_multiplicity
 _atom_site_fract_x
 _atom_site_fract_y
 _atom_site_fract_z
 _atom_site_occupancy
  Er  Er0  1  0.49915892  0.83171850  0.83082932  1
  Er  Er1  1  0.49923742  0.16917799  0.00086685  1
  Er  Er2  1  0.49910730  0.99919117  0.16843940  1
  Er  Er3  1  0.24474374  0.63349786  0.48865458  1
  Er  Er4  1  0.24479486  0.51133599  0.14483896  1
  Er  Er5  1  0.24473420  0.85522423  0.36650778  1
  Er  Er6  1  0.75522823  0.36691266  0.85496643  1
  Er  Er7  1  0.75529778  0.14501876  0.51189984  1
  Er  Er8  1  0.75526874  0.48801769  0.63304483  1
  Er  Er9  1  0.25229467  0.11610506  0.71144545  1
  Er  Er10  1  0.25226324  0.28848341  0.40463123  1
  Er  Er11  1  0.25235381  0.59531933  0.88386297  1
  Er  Er12  1  0.74711821  0.88413843  0.59614404  1
  Er  Er13  1  0.74714379  0.40384544  0.28799757  1
  Er  Er14  1  0.74717400  0.71207221  0.11588269  1
  Fe  Fe15  1  0.00783716  0.13285589  0.13221585  1
  Fe  Fe16  1  0.00795595  0.86791595  0.00062649  1
  Fe  Fe17  1  0.00794320  0.99940138  0.86721668  1
  Fe  Fe18  1  0.26534668  0.33330716  0.66664543  1
  Fe  Fe19  1  0.73590194  0.66664340  0.33331837  1
  Fe  Fe20  1  0.00056369  0.75072324  0.75022515  1
  Fe  Fe21  1  0.00060515  0.24988672  0.00058709  1
  Fe  Fe22  1  0.00051469  0.99935139  0.24929094  1
  C  C23  1  0.23947465  0.87715511  0.58066984  1
  C  C24  1  0.23949301  0.41931378  0.29647997  1
  C  C25  1  0.23945881  0.70347529  0.12281913  1
  C  C26  1  0.76046737  0.12356447  0.70410579  1
  C  C27  1  0.76045754  0.29586051  0.41944858  1
  C  C28  1  0.76048678  0.58051184  0.87646321  1
  C  C29  1  0.25769649  0.35831702  0.83286247  1
  C  C30  1  0.25765203  0.16712642  0.52544193  1
  C  C31  1  0.25769104  0.47453186  0.64168490  1
  C  C32  1  0.74281521  0.64136082  0.47441746  1
  C  C33  1  0.74286484  0.52559358  0.16692588  1
  C  C34  1  0.74280496  0.83305243  0.35863906  1
  C  C35  1  0.18422855  0.88825955  0.70118452  1
  C  C36  1  0.18424457  0.29882694  0.18703997  1
  C  C37  1  0.18443365  0.81294763  0.11178136  1
  C  C38  1  0.81128105  0.10939602  0.81253471  1
  C  C39  1  0.81133740  0.18743861  0.29681709  1
  C  C40  1  0.81104757  0.70309328  0.89057991  1
  C  C41  1  0.23849500  0.31832105  0.92253862  1
  C  C42  1  0.23849173  0.07745026  0.39575137  1
  C  C43  1  0.23863111  0.60419644  0.68166122  1
  C  C44  1  0.76151310  0.68163049  0.60411752  1
  C  C45  1  0.76153381  0.39587275  0.07751866  1
  C  C46  1  0.76160881  0.92246093  0.31833521  1
  C  C47  1  0.22920352  0.00009904  0.00004365  1
