# generated using pymatgen
data_CeTh3O8
_symmetry_space_group_name_H-M   'P 1'
_cell_length_a   3.95202315
_cell_length_b   3.95202315
_cell_length_c   13.07551567
_cell_angle_alpha   90.00000000
_cell_angle_beta   81.30798645
_cell_angle_gamma   120.00000000
_symmetry_Int_Tables_number   1
_chemical_formula_structural   CeTh3O8
_chemical_formula_sum   'Ce1 Th3 O8'
_cell_volume   174.14592739
_cell_formula_units_Z   1
loop_
 _symmetry_equiv_pos_site_id
 _symmetry_equiv_pos_as_xyz
  1  'x, y, z'
loop_
 _atom_site_type_symbol
 _atom_site_label
 _atom_site_symmetry_multiplicity
 _atom_site_fract_x
 _atom_site_fract_y
 _atom_site_fract_z
 _atom_site_occupancy
  Ce  Ce0  1  -0.00000000  -0.00000000  -0.00000000  1
  Th  Th1  1  0.50246489  0.25123244  0.24630267  1
  Th  Th2  1  -0.00000000  0.50000000  0.50000000  1
  Th  Th3  1  0.49753511  0.74876756  0.75369733  1
  O  O4  1  0.62420752  0.81210376  0.56368872  1
  O  O5  1  0.12208054  0.06104027  0.81687920  1
  O  O6  1  0.62722040  0.31361020  0.05916940  1
  O  O7  1  0.12664928  0.56332464  0.31002609  1
  O  O8  1  0.87335072  0.43667536  0.68997391  1
  O  O9  1  0.37277960  0.68638980  0.94083060  1
  O  O10  1  0.87791946  0.93895973  0.18312080  1
  O  O11  1  0.37579248  0.18789624  0.43631128  1
