# generated using pymatgen
data_CdHg4Se5
_symmetry_space_group_name_H-M   'P 1'
_cell_length_a   4.43035112
_cell_length_b   15.95953375
_cell_length_c   4.43035112
_cell_angle_alpha   97.97838537
_cell_angle_beta   90.00000000
_cell_angle_gamma   97.97838537
_symmetry_Int_Tables_number   1
_chemical_formula_structural   CdHg4Se5
_chemical_formula_sum   'Cd1 Hg4 Se5'
_cell_volume   307.15969251
_cell_formula_units_Z   1
loop_
 _symmetry_equiv_pos_site_id
 _symmetry_equiv_pos_as_xyz
  1  'x, y, z'
loop_
 _atom_site_type_symbol
 _atom_site_label
 _atom_site_symmetry_multiplicity
 _atom_site_fract_x
 _atom_site_fract_y
 _atom_site_fract_z
 _atom_site_occupancy
  Cd  Cd0  1  0.40000000  0.80000000  0.40000000  1
  Hg  Hg1  1  0.99989022  0.99978044  0.99989022  1
  Hg  Hg2  1  0.59997289  0.19994578  0.59997289  1
  Hg  Hg3  1  0.20002711  0.40005422  0.20002711  1
  Hg  Hg4  1  0.80010978  0.60021956  0.80010978  1
  Se  Se5  1  0.65000000  0.30000000  0.15000000  1
  Se  Se6  1  0.24999601  0.49999202  0.74999601  1
  Se  Se7  1  0.85069852  0.70139704  0.35069852  1
  Se  Se8  1  0.44930148  0.89860296  0.94930148  1
  Se  Se9  1  0.05000399  0.10000798  0.55000399  1
