# generated using pymatgen
data_CaLa2Mn3O9
_symmetry_space_group_name_H-M   'P 1'
_cell_length_a   5.56211053
_cell_length_b   13.37979225
_cell_length_c   5.56211064
_cell_angle_alpha   90.00000000
_cell_angle_beta   59.99999937
_cell_angle_gamma   90.00000000
_symmetry_Int_Tables_number   1
_chemical_formula_structural   CaLa2Mn3O9
_chemical_formula_sum   'Ca2 La4 Mn6 O18'
_cell_volume   358.47530069
_cell_formula_units_Z   2
loop_
 _symmetry_equiv_pos_site_id
 _symmetry_equiv_pos_as_xyz
  1  'x, y, z'
loop_
 _atom_site_type_symbol
 _atom_site_label
 _atom_site_symmetry_multiplicity
 _atom_site_fract_x
 _atom_site_fract_y
 _atom_site_fract_z
 _atom_site_occupancy
  Ca  Ca0  1  0.00000000  0.25000000  0.00000000  1
  Ca  Ca1  1  0.00000000  0.75000000  0.00000000  1
  La  La2  1  0.66666700  0.58564855  0.66666700  1
  La  La3  1  0.33333300  0.91435145  0.33333300  1
  La  La4  1  0.66666700  0.08564855  0.66666700  1
  La  La5  1  0.33333300  0.41435145  0.33333300  1
  Mn  Mn6  1  0.66666700  0.83205641  0.66666700  1
  Mn  Mn7  1  0.00000000  0.50000000  0.00000000  1
  Mn  Mn8  1  0.33333300  0.16794359  0.33333300  1
  Mn  Mn9  1  0.66666700  0.33205641  0.66666700  1
  Mn  Mn10  1  0.00000000  -0.00000000  0.00000000  1
  Mn  Mn11  1  0.33333300  0.66794359  0.33333300  1
  O  O12  1  0.66380716  0.58151224  0.23077943  1
  O  O13  1  0.33619284  0.91848776  0.89458559  1
  O  O14  1  0.00000000  0.25000000  0.56843094  1
  O  O15  1  0.10541441  0.58151224  0.66380716  1
  O  O16  1  0.76922057  0.91848776  0.33619284  1
  O  O17  1  0.43156906  0.25000000  1.00000000  1
  O  O18  1  0.23077943  0.58151224  0.10541441  1
  O  O19  1  0.89458559  0.91848776  0.76922057  1
  O  O20  1  0.56843094  0.25000000  0.43156906  1
  O  O21  1  0.89458559  0.41848776  0.33619284  1
  O  O22  1  0.56843094  0.75000000  0.00000000  1
  O  O23  1  0.23077943  0.08151224  0.66380716  1
  O  O24  1  0.76922057  0.41848776  0.89458559  1
  O  O25  1  0.43156906  0.75000000  0.56843094  1
  O  O26  1  0.10541441  0.08151224  0.23077943  1
  O  O27  1  0.33619284  0.41848776  0.76922057  1
  O  O28  1  0.00000000  0.75000000  0.43156906  1
  O  O29  1  0.66380716  0.08151224  0.10541441  1
