# generated using pymatgen
data_Ca4Ti3Si4SnO20
_symmetry_space_group_name_H-M   'P 1'
_cell_length_a   5.53767271
_cell_length_b   5.54258875
_cell_length_c   13.13777053
_cell_angle_alpha   87.61929447
_cell_angle_beta   87.77631673
_cell_angle_gamma   105.69587333
_symmetry_Int_Tables_number   1
_chemical_formula_structural   Ca4Ti3Si4SnO20
_chemical_formula_sum   'Ca4 Ti3 Si4 Sn1 O20'
_cell_volume   387.34164283
_cell_formula_units_Z   1
loop_
 _symmetry_equiv_pos_site_id
 _symmetry_equiv_pos_as_xyz
  1  'x, y, z'
loop_
 _atom_site_type_symbol
 _atom_site_label
 _atom_site_symmetry_multiplicity
 _atom_site_fract_x
 _atom_site_fract_y
 _atom_site_fract_z
 _atom_site_occupancy
  Ca  Ca0  1  0.04620994  0.71064993  0.12911458  1
  Ca  Ca1  1  0.54558017  0.20403086  0.62427818  1
  Ca  Ca2  1  0.45441983  0.79596914  0.37572182  1
  Ca  Ca3  1  0.95379006  0.28935007  0.87088542  1
  Ti  Ti4  1  0.00000000  0.00000000  0.50000000  1
  Ti  Ti5  1  0.24812247  0.25136829  0.25230476  1
  Ti  Ti6  1  0.75187753  0.74863171  0.74769524  1
  Si  Si7  1  0.80556624  0.44339850  0.37593931  1
  Si  Si8  1  0.30239803  0.94095754  0.87238271  1
  Si  Si9  1  0.69760197  0.05904246  0.12761729  1
  Si  Si10  1  0.19443376  0.55660150  0.62406069  1
  Sn  Sn11  1  0.50000000  0.50000000  0.00000000  1
  O  O12  1  0.58216031  0.45189304  0.29725212  1
  O  O13  1  0.08504465  0.95650458  0.79149161  1
  O  O14  1  0.71697760  0.84404543  0.04672876  1
  O  O15  1  0.20309644  0.33209739  0.54612086  1
  O  O16  1  0.91495535  0.04349542  0.20850839  1
  O  O17  1  0.41783969  0.54810696  0.70274788  1
  O  O18  1  0.79690356  0.66790261  0.45387914  1
  O  O19  1  0.28302240  0.15595457  0.95327124  1
  O  O20  1  0.19564353  0.05429904  0.37609879  1
  O  O21  1  0.70562510  0.55241264  0.86938668  1
  O  O22  1  0.29437490  0.44758736  0.13061332  1
  O  O23  1  0.80435647  0.94570096  0.62390121  1
  O  O24  1  0.76711013  0.33184977  0.06175152  1
  O  O25  1  0.25393973  0.82943082  0.55830263  1
  O  O26  1  0.07896270  0.50411129  0.31043575  1
  O  O27  1  0.57806715  0.00038783  0.80897496  1
  O  O28  1  0.74606027  0.17056918  0.44169737  1
  O  O29  1  0.23288987  0.66815023  0.93824848  1
  O  O30  1  0.42193285  0.99961217  0.19102504  1
  O  O31  1  0.92103730  0.49588871  0.68956425  1
