# generated using pymatgen
data_Ca4MnFe3O10
_symmetry_space_group_name_H-M   'P 1'
_cell_length_a   5.44072323
_cell_length_b   5.63235105
_cell_length_c   15.19489666
_cell_angle_alpha   89.92000503
_cell_angle_beta   90.00000000
_cell_angle_gamma   90.00000000
_symmetry_Int_Tables_number   1
_chemical_formula_structural   Ca4MnFe3O10
_chemical_formula_sum   'Ca8 Mn2 Fe6 O20'
_cell_volume   465.63291939
_cell_formula_units_Z   2
loop_
 _symmetry_equiv_pos_site_id
 _symmetry_equiv_pos_as_xyz
  1  'x, y, z'
loop_
 _atom_site_type_symbol
 _atom_site_label
 _atom_site_symmetry_multiplicity
 _atom_site_fract_x
 _atom_site_fract_y
 _atom_site_fract_z
 _atom_site_occupancy
  Ca  Ca0  1  0.52027987  0.97518619  0.89089740  1
  Ca  Ca1  1  0.02027987  0.52481381  0.60910260  1
  Ca  Ca2  1  0.47678414  0.02484155  0.39082889  1
  Ca  Ca3  1  0.97678414  0.47515845  0.10917111  1
  Ca  Ca4  1  0.47972013  0.02481381  0.10910260  1
  Ca  Ca5  1  0.97972013  0.47518619  0.39089740  1
  Ca  Ca6  1  0.52321586  0.97515845  0.60917111  1
  Ca  Ca7  1  0.02321586  0.52484155  0.89082889  1
  Mn  Mn8  1  0.50000000  0.50000000  -0.00000000  1
  Mn  Mn9  1  0.00000000  -0.00000000  0.50000000  1
  Fe  Fe10  1  0.55149017  0.43595106  0.74767500  1
  Fe  Fe11  1  0.05149017  0.06404894  0.75232500  1
  Fe  Fe12  1  0.44850983  0.56404894  0.25232500  1
  Fe  Fe13  1  0.94850983  0.93595106  0.24767500  1
  Fe  Fe14  1  0.50000000  0.50000000  0.50000000  1
  Fe  Fe15  1  0.00000000  -0.00000000  -0.00000000  1
  O  O16  1  0.46376282  0.58224977  0.85212200  1
  O  O17  1  0.96376282  0.91775023  0.64787800  1
  O  O18  1  0.52684834  0.43138096  0.36349941  1
  O  O19  1  0.02684834  0.06861904  0.13650059  1
  O  O20  1  0.53623718  0.41775023  0.14787800  1
  O  O21  1  0.03623718  0.08224977  0.35212200  1
  O  O22  1  0.47315166  0.56861904  0.63650059  1
  O  O23  1  0.97315166  0.93138096  0.86349941  1
  O  O24  1  0.23470944  0.73010506  0.01554858  1
  O  O25  1  0.73470944  0.76989494  0.48445142  1
  O  O26  1  0.76913079  0.26420568  0.51603799  1
  O  O27  1  0.26913079  0.23579432  0.98396201  1
  O  O28  1  0.76529056  0.26989494  0.98445142  1
  O  O29  1  0.26529056  0.23010506  0.51554858  1
  O  O30  1  0.23086921  0.73579432  0.48396201  1
  O  O31  1  0.73086921  0.76420568  0.01603799  1
  O  O32  1  0.40936686  0.11778117  0.74980744  1
  O  O33  1  0.90936686  0.38221883  0.75019256  1
  O  O34  1  0.59063314  0.88221883  0.25019256  1
  O  O35  1  0.09063314  0.61778117  0.24980744  1
