# generated using pymatgen
data_Ca(HoTe2)2
_symmetry_space_group_name_H-M   'P 1'
_cell_length_a   4.40613550
_cell_length_b   7.76011891
_cell_length_c   7.51563292
_cell_angle_alpha   72.17440494
_cell_angle_beta   89.99999686
_cell_angle_gamma   89.99999816
_symmetry_Int_Tables_number   1
_chemical_formula_structural   Ca(HoTe2)2
_chemical_formula_sum   'Ca1 Ho2 Te4'
_cell_volume   244.63884652
_cell_formula_units_Z   1
loop_
 _symmetry_equiv_pos_site_id
 _symmetry_equiv_pos_as_xyz
  1  'x, y, z'
loop_
 _atom_site_type_symbol
 _atom_site_label
 _atom_site_symmetry_multiplicity
 _atom_site_fract_x
 _atom_site_fract_y
 _atom_site_fract_z
 _atom_site_occupancy
  Ca  Ca0  1  0.00000000  0.50000000  0.50000000  1
  Ho  Ho1  1  -0.00000000  -0.00000000  0.00000000  1
  Ho  Ho2  1  0.50000000  0.00000000  0.50000000  1
  Te  Te3  1  0.50000000  0.24386108  0.75995975  1
  Te  Te4  1  0.00000000  0.23663881  0.25441000  1
  Te  Te5  1  0.50000000  0.75613892  0.24004025  1
  Te  Te6  1  1.00000000  0.76336119  0.74559000  1
