# generated using pymatgen
data_Ce4ThO10
_symmetry_space_group_name_H-M   'P 1'
_cell_length_a   3.88543509
_cell_length_b   14.00137225
_cell_length_c   3.88543496
_cell_angle_alpha   97.97132808
_cell_angle_beta   90.00003157
_cell_angle_gamma   82.02861332
_symmetry_Int_Tables_number   1
_chemical_formula_structural   Ce4ThO10
_chemical_formula_sum   'Ce4 Th1 O10'
_cell_volume   207.26828949
_cell_formula_units_Z   1
loop_
 _symmetry_equiv_pos_site_id
 _symmetry_equiv_pos_as_xyz
  1  'x, y, z'
loop_
 _atom_site_type_symbol
 _atom_site_label
 _atom_site_symmetry_multiplicity
 _atom_site_fract_x
 _atom_site_fract_y
 _atom_site_fract_z
 _atom_site_occupancy
  Ce  Ce0  1  0.39850980  0.20302519  0.60149024  1
  Ce  Ce1  1  0.79955018  0.40102817  0.20045012  1
  Ce  Ce2  1  0.20044689  0.59897894  0.79955284  1
  Ce  Ce3  1  0.60149356  0.79696741  0.39850633  1
  Th  Th4  1  0.00000099  0.99999804  0.99999881  1
  O  O5  1  0.65091481  0.69798799  0.84909581  1
  O  O6  1  0.05152442  0.89674357  0.44844828  1
  O  O7  1  0.44844811  0.10325632  0.05152501  1
  O  O8  1  0.84909494  0.30201451  0.65091619  1
  O  O9  1  0.24997774  0.49999857  0.24997646  1
  O  O10  1  0.55155197  0.89674373  0.94847570  1
  O  O11  1  0.94847509  0.10325638  0.55155188  1
  O  O12  1  0.34908386  0.30201456  0.15090508  1
  O  O13  1  0.75002347  0.49999858  0.75002218  1
  O  O14  1  0.15090417  0.69798806  0.34908506  1
