# generated using pymatgen
data_Ca5TiSn4(BO3)10
_symmetry_space_group_name_H-M   'P 1'
_cell_length_a   4.89728395
_cell_length_b   19.14534817
_cell_length_c   6.13013869
_cell_angle_alpha   82.57269796
_cell_angle_beta   89.98426734
_cell_angle_gamma   97.33877094
_symmetry_Int_Tables_number   1
_chemical_formula_structural   Ca5TiSn4(BO3)10
_chemical_formula_sum   'Ca5 Ti1 Sn4 B10 O30'
_cell_volume   565.18945182
_cell_formula_units_Z   1
loop_
 _symmetry_equiv_pos_site_id
 _symmetry_equiv_pos_as_xyz
  1  'x, y, z'
loop_
 _atom_site_type_symbol
 _atom_site_label
 _atom_site_symmetry_multiplicity
 _atom_site_fract_x
 _atom_site_fract_y
 _atom_site_fract_z
 _atom_site_occupancy
  Ca  Ca0  1  0.40165983  0.80192063  0.39957129  1
  Ca  Ca1  1  0.19998785  0.39997866  0.20003721  1
  Ca  Ca2  1  0.80001215  0.60002134  0.79996279  1
  Ca  Ca3  1  -0.00000000  -0.00000000  0.00000000  1
  Ca  Ca4  1  0.59834017  0.19807937  0.60042871  1
  Ti  Ti5  1  0.50000000  -0.00000000  0.50000000  1
  Sn  Sn6  1  0.10036715  0.19981554  0.10031005  1
  Sn  Sn7  1  0.69997505  0.39989884  0.69989959  1
  Sn  Sn8  1  0.30002495  0.60010116  0.30010041  1
  Sn  Sn9  1  0.89963285  0.80018446  0.89968995  1
  B  B10  1  0.95496204  0.90688690  0.47664398  1
  B  B11  1  0.75213163  0.50429391  0.27361502  1
  B  B12  1  0.35188434  0.70432723  0.87344567  1
  B  B13  1  0.55038140  0.10318715  0.07904331  1
  B  B14  1  0.15200628  0.30414735  0.67360460  1
  B  B15  1  0.04503796  0.09311310  0.52335602  1
  B  B16  1  0.84799372  0.69585265  0.32639540  1
  B  B17  1  0.44961860  0.89681285  0.92095669  1
  B  B18  1  0.64811566  0.29567277  0.12655433  1
  B  B19  1  0.24786837  0.49570609  0.72638498  1
  O  O20  1  0.24448639  0.24421794  0.78592180  1
  O  O21  1  0.84419741  0.44430940  0.38567530  1
  O  O22  1  0.44414170  0.64437853  0.98553343  1
  O  O23  1  0.03571797  0.84449113  0.58386919  1
  O  O24  1  0.63344034  0.04350028  0.19916063  1
  O  O25  1  0.27126779  0.10807280  0.05521288  1
  O  O26  1  0.87155649  0.30796433  0.65763906  1
  O  O27  1  0.47207432  0.50831986  0.25774693  1
  O  O28  1  0.07185816  0.70847049  0.85793191  1
  O  O29  1  0.67820811  0.91479514  0.45814179  1
  O  O30  1  0.73956502  0.15512668  0.96398936  1
  O  O31  1  0.33817499  0.35711335  0.56026190  1
  O  O32  1  0.93861808  0.55713243  0.16013723  1
  O  O33  1  0.53786670  0.75725405  0.75978216  1
  O  O34  1  0.15513180  0.95760130  0.37002446  1
  O  O35  1  0.96428203  0.15550887  0.41613081  1
  O  O36  1  0.55585830  0.35562147  0.01446657  1
  O  O37  1  0.15580259  0.55569060  0.61432470  1
  O  O38  1  0.75551361  0.75578206  0.21407820  1
  O  O39  1  0.36655966  0.95649972  0.80083937  1
  O  O40  1  0.92814184  0.29152951  0.14206809  1
  O  O41  1  0.52792568  0.49168014  0.74225307  1
  O  O42  1  0.12844351  0.69203567  0.34236094  1
  O  O43  1  0.72873221  0.89192720  0.94478712  1
  O  O44  1  0.32179189  0.08520486  0.54185821  1
  O  O45  1  0.46213330  0.24274595  0.24021784  1
  O  O46  1  0.06138192  0.44286757  0.83986277  1
  O  O47  1  0.66182501  0.64288665  0.43973810  1
  O  O48  1  0.26043498  0.84487332  0.03601064  1
  O  O49  1  0.84486820  0.04239870  0.62997554  1
