# generated using pymatgen
data_CdIn2SnAu2
_symmetry_space_group_name_H-M   'P 1'
_cell_length_a   4.75094980
_cell_length_b   4.75094980
_cell_length_c   8.13220614
_cell_angle_alpha   73.01585990
_cell_angle_beta   90.00000000
_cell_angle_gamma   120.00000000
_symmetry_Int_Tables_number   1
_chemical_formula_structural   CdIn2SnAu2
_chemical_formula_sum   'Cd1 In2 Sn1 Au2'
_cell_volume   149.64887194
_cell_formula_units_Z   1
loop_
 _symmetry_equiv_pos_site_id
 _symmetry_equiv_pos_as_xyz
  1  'x, y, z'
loop_
 _atom_site_type_symbol
 _atom_site_label
 _atom_site_symmetry_multiplicity
 _atom_site_fract_x
 _atom_site_fract_y
 _atom_site_fract_z
 _atom_site_occupancy
  Cd  Cd0  1  0.62526338  0.25052677  0.12420985  1
  In  In1  1  0.87654150  0.75308299  0.37037551  1
  In  In2  1  0.37238220  0.74476439  0.88285341  1
  Sn  Sn3  1  0.12558974  0.25117948  0.62323078  1
  Au  Au4  1  0.00091923  0.00183845  0.99724232  1
  Au  Au5  1  0.49930396  0.99860791  0.50208813  1
