# generated using pymatgen
data_CdGa2(SeS)2
_symmetry_space_group_name_H-M   'P 1'
_cell_length_a   5.83863785
_cell_length_b   5.73480608
_cell_length_c   6.74652405
_cell_angle_alpha   64.03736946
_cell_angle_beta   63.56047129
_cell_angle_gamma   88.30946998
_symmetry_Int_Tables_number   1
_chemical_formula_structural   CdGa2(SeS)2
_chemical_formula_sum   'Cd1 Ga2 Se2 S2'
_cell_volume   177.97537266
_cell_formula_units_Z   1
loop_
 _symmetry_equiv_pos_site_id
 _symmetry_equiv_pos_as_xyz
  1  'x, y, z'
loop_
 _atom_site_type_symbol
 _atom_site_label
 _atom_site_symmetry_multiplicity
 _atom_site_fract_x
 _atom_site_fract_y
 _atom_site_fract_z
 _atom_site_occupancy
  Cd  Cd0  1  0.00367721  0.00367721  0.99264557  1
  Ga  Ga1  1  0.74575836  0.24575836  0.50848328  1
  Ga  Ga2  1  0.50471335  0.50471335  0.99057329  1
  Se  Se3  1  0.58669164  0.60497714  0.27407125  1
  Se  Se4  1  0.13923712  0.12095161  0.27407125  1
  S  S5  1  0.85559479  0.39448066  0.73007768  1
  S  S6  1  0.41432754  0.87544167  0.73007768  1
