# generated using pymatgen
data_Ca6Ag3Ge5
_symmetry_space_group_name_H-M   'P 1'
_cell_length_a   4.57952738
_cell_length_b   5.88398617
_cell_length_c   13.94924883
_cell_angle_alpha   91.26840173
_cell_angle_beta   80.55216481
_cell_angle_gamma   112.90172672
_symmetry_Int_Tables_number   1
_chemical_formula_structural   Ca6Ag3Ge5
_chemical_formula_sum   'Ca6 Ag3 Ge5'
_cell_volume   341.18865735
_cell_formula_units_Z   1
loop_
 _symmetry_equiv_pos_site_id
 _symmetry_equiv_pos_as_xyz
  1  'x, y, z'
loop_
 _atom_site_type_symbol
 _atom_site_label
 _atom_site_symmetry_multiplicity
 _atom_site_fract_x
 _atom_site_fract_y
 _atom_site_fract_z
 _atom_site_occupancy
  Ca  Ca0  1  0.01418995  0.75261301  0.72423311  1
  Ca  Ca1  1  0.98696036  0.24789111  0.27397039  1
  Ca  Ca2  1  0.65510452  0.19311843  0.88290939  1
  Ca  Ca3  1  0.34236331  0.80509672  0.12037011  1
  Ca  Ca4  1  0.82145207  0.21920565  0.57630150  1
  Ca  Ca5  1  0.17865269  0.78046819  0.42316281  1
  Ag  Ag6  1  0.34404778  0.57700372  0.88890816  1
  Ag  Ag7  1  0.63871686  0.39038206  0.11294835  1
  Ag  Ag8  1  0.92354671  0.80464661  0.95755320  1
  Ge  Ge9  1  0.53142021  0.63621016  0.57336974  1
  Ge  Ge10  1  0.46855646  0.36146190  0.42434898  1
  Ge  Ge11  1  0.30344850  0.33101499  0.72411799  1
  Ge  Ge12  1  0.69684933  0.66781614  0.27411747  1
  Ge  Ge13  1  0.09469126  0.23307130  0.04368877  1
