# generated using pymatgen
data_Ba4Cu2IBrO4
_symmetry_space_group_name_H-M   'P 1'
_cell_length_a   4.38759767
_cell_length_b   10.40202632
_cell_length_c   7.59772785
_cell_angle_alpha   75.80208223
_cell_angle_beta   90.00001138
_cell_angle_gamma   90.00000364
_symmetry_Int_Tables_number   1
_chemical_formula_structural   Ba4Cu2IBrO4
_chemical_formula_sum   'Ba4 Cu2 I1 Br1 O4'
_cell_volume   336.16756131
_cell_formula_units_Z   1
loop_
 _symmetry_equiv_pos_site_id
 _symmetry_equiv_pos_as_xyz
  1  'x, y, z'
loop_
 _atom_site_type_symbol
 _atom_site_label
 _atom_site_symmetry_multiplicity
 _atom_site_fract_x
 _atom_site_fract_y
 _atom_site_fract_z
 _atom_site_occupancy
  Ba  Ba0  1  0.50000000  0.74875976  0.24840135  1
  Ba  Ba1  1  0.00000000  0.74382240  0.75373975  1
  Ba  Ba2  1  0.50000000  0.25124024  0.75159865  1
  Ba  Ba3  1  1.00000000  0.25617760  0.24626025  1
  Cu  Cu4  1  -0.00000000  0.50000000  0.50000000  1
  Cu  Cu5  1  0.50000000  0.50000000  0.00000000  1
  I  I6  1  0.50000000  -0.00000000  0.50000000  1
  Br  Br7  1  -0.00000000  -0.00000000  0.00000000  1
  O  O8  1  0.00000000  0.67944638  0.43958779  1
  O  O9  1  0.50000000  0.67903755  0.94083493  1
  O  O10  1  1.00000000  0.32055362  0.56041221  1
  O  O11  1  0.50000000  0.32096245  0.05916507  1
