# generated using pymatgen
data_BiTeO4
_symmetry_space_group_name_H-M   'P 1'
_cell_length_a   5.65755233
_cell_length_b   7.05084482
_cell_length_c   10.05693912
_cell_angle_alpha   86.03636899
_cell_angle_beta   73.66362152
_cell_angle_gamma   113.65301572
_symmetry_Int_Tables_number   1
_chemical_formula_structural   BiTeO4
_chemical_formula_sum   'Bi4 Te4 O16'
_cell_volume   344.99929858
_cell_formula_units_Z   4
loop_
 _symmetry_equiv_pos_site_id
 _symmetry_equiv_pos_as_xyz
  1  'x, y, z'
loop_
 _atom_site_type_symbol
 _atom_site_label
 _atom_site_symmetry_multiplicity
 _atom_site_fract_x
 _atom_site_fract_y
 _atom_site_fract_z
 _atom_site_occupancy
  Bi  Bi0  1  0.77967426  0.75000000  0.25000000  1
  Bi  Bi1  1  0.20201696  0.25000000  0.75000000  1
  Bi  Bi2  1  0.58153237  0.89738970  0.64958830  1
  Bi  Bi3  1  0.83373098  0.60261030  0.85041170  1
  Te  Te4  1  0.00171526  0.49657401  0.49942953  1
  Te  Te5  1  0.50457078  0.00342599  0.00057047  1
  Te  Te6  1  0.42699146  0.07555154  0.38224231  1
  Te  Te7  1  0.23368223  0.42444846  0.11775769  1
  O  O8  1  0.30231108  0.51341478  0.33795289  1
  O  O9  1  0.62684919  0.98658522  0.16204711  1
  O  O10  1  0.70330835  0.49906196  0.65561897  1
  O  O11  1  0.35986536  0.00093804  0.84438103  1
  O  O12  1  0.94069870  0.21424335  0.58149549  1
  O  O13  1  0.80795083  0.28575665  0.91850451  1
  O  O14  1  0.08881271  0.79820032  0.41838254  1
  O  O15  1  0.20899493  0.70179968  0.08161746  1
  O  O16  1  0.37548789  0.46415820  0.90858791  1
  O  O17  1  0.31991760  0.03584180  0.59141209  1
  O  O18  1  0.61696848  0.53904144  0.09556477  1
  O  O19  1  0.67349181  0.96095856  0.40443523  1
  O  O20  1  0.23631634  0.08906480  0.11280098  1
  O  O21  1  0.76005252  0.41093520  0.38719902  1
  O  O22  1  0.76715127  0.91796997  0.87852734  1
  O  O23  1  0.22770864  0.58203003  0.62147266  1
