# generated using pymatgen
data_Ba4Si21Au2
_symmetry_space_group_name_H-M   'P 1'
_cell_length_a   10.49770180
_cell_length_b   10.49770180
_cell_length_c   10.43827798
_cell_angle_alpha   90.00000000
_cell_angle_beta   90.00000000
_cell_angle_gamma   90.03595753
_symmetry_Int_Tables_number   1
_chemical_formula_structural   Ba4Si21Au2
_chemical_formula_sum   'Ba8 Si42 Au4'
_cell_volume   1150.31620094
_cell_formula_units_Z   2
loop_
 _symmetry_equiv_pos_site_id
 _symmetry_equiv_pos_as_xyz
  1  'x, y, z'
loop_
 _atom_site_type_symbol
 _atom_site_label
 _atom_site_symmetry_multiplicity
 _atom_site_fract_x
 _atom_site_fract_y
 _atom_site_fract_z
 _atom_site_occupancy
  Ba  Ba0  1  0.50099132  0.49928037  0.50000000  1
  Ba  Ba1  1  0.99928037  0.00099132  -0.00000000  1
  Ba  Ba2  1  0.51109179  0.75903455  -0.00000000  1
  Ba  Ba3  1  0.25903455  0.01109179  0.50000000  1
  Ba  Ba4  1  0.98866173  0.48866173  0.75000000  1
  Ba  Ba5  1  0.51161046  0.24044247  -0.00000000  1
  Ba  Ba6  1  0.74044247  0.01161046  0.50000000  1
  Ba  Ba7  1  0.98866173  0.48866173  0.25000000  1
  Si  Si8  1  0.31411277  0.68463730  0.68440579  1
  Si  Si9  1  0.68384684  0.31746531  0.31544691  1
  Si  Si10  1  0.68384684  0.31746531  0.68455309  1
  Si  Si11  1  0.31411277  0.68463730  0.31559421  1
  Si  Si12  1  0.68344677  0.68482624  0.31539739  1
  Si  Si13  1  0.31372663  0.31772348  0.68495160  1
  Si  Si14  1  0.31372663  0.31772348  0.31504840  1
  Si  Si15  1  0.68344677  0.68482624  0.68460261  1
  Si  Si16  1  0.18463730  0.81411277  0.18440579  1
  Si  Si17  1  0.81746531  0.18384684  0.81544691  1
  Si  Si18  1  0.81746531  0.18384684  0.18455309  1
  Si  Si19  1  0.18463730  0.81411277  0.81559421  1
  Si  Si20  1  0.18482624  0.18344677  0.81539739  1
  Si  Si21  1  0.81772348  0.81372663  0.18495160  1
  Si  Si22  1  0.81772348  0.81372663  0.81504840  1
  Si  Si23  1  0.18482624  0.18344677  0.18460261  1
  Si  Si24  1  0.38089505  0.50072026  0.80648305  1
  Si  Si25  1  0.49866811  0.80348319  0.61714865  1
  Si  Si26  1  0.19310772  0.61686968  0.50000000  1
  Si  Si27  1  0.61836126  0.50102973  0.19429005  1
  Si  Si28  1  0.49897819  0.19864490  0.38158180  1
  Si  Si29  1  0.80462580  0.38204064  0.50000000  1
  Si  Si30  1  0.61836126  0.50102973  0.80570995  1
  Si  Si31  1  0.49897819  0.19864490  0.61841820  1
  Si  Si32  1  0.38089505  0.50072026  0.19351695  1
  Si  Si33  1  0.49866811  0.80348319  0.38285135  1
  Si  Si34  1  0.80515695  0.61944766  0.50000000  1
  Si  Si35  1  0.19386365  0.38355263  0.50000000  1
  Si  Si36  1  0.00072026  0.88089505  0.30648305  1
  Si  Si37  1  0.30348319  0.99866811  0.11714865  1
  Si  Si38  1  0.11686968  0.69310772  -0.00000000  1
  Si  Si39  1  0.00102973  0.11836126  0.69429005  1
  Si  Si40  1  0.69864490  0.99897819  0.88158180  1
  Si  Si41  1  0.88204064  0.30462580  -0.00000000  1
  Si  Si42  1  0.00102973  0.11836126  0.30570995  1
  Si  Si43  1  0.69864490  0.99897819  0.11841820  1
  Si  Si44  1  0.00072026  0.88089505  0.69351695  1
  Si  Si45  1  0.30348319  0.99866811  0.88285135  1
  Si  Si46  1  0.11944766  0.30515695  -0.00000000  1
  Si  Si47  1  0.88355263  0.69386365  -0.00000000  1
  Si  Si48  1  0.99922851  0.74967710  0.50000000  1
  Si  Si49  1  0.24967710  0.49922851  -0.00000000  1
  Au  Au50  1  0.50048071  0.00048071  0.75000000  1
  Au  Au51  1  0.99965972  0.25090203  0.50000000  1
  Au  Au52  1  0.75090203  0.49965972  -0.00000000  1
  Au  Au53  1  0.50048071  0.00048071  0.25000000  1
