# generated using pymatgen
data_BaSrHo4O8
_symmetry_space_group_name_H-M   'P 1'
_cell_length_a   3.43946145
_cell_length_b   10.28942851
_cell_length_c   12.06087920
_cell_angle_alpha   90.00000000
_cell_angle_beta   90.00000000
_cell_angle_gamma   90.00000000
_symmetry_Int_Tables_number   1
_chemical_formula_structural   BaSrHo4O8
_chemical_formula_sum   'Ba2 Sr2 Ho8 O16'
_cell_volume   426.83563296
_cell_formula_units_Z   2
loop_
 _symmetry_equiv_pos_site_id
 _symmetry_equiv_pos_as_xyz
  1  'x, y, z'
loop_
 _atom_site_type_symbol
 _atom_site_label
 _atom_site_symmetry_multiplicity
 _atom_site_fract_x
 _atom_site_fract_y
 _atom_site_fract_z
 _atom_site_occupancy
  Ba  Ba0  1  0.75000000  0.74775600  0.14875950  1
  Ba  Ba1  1  0.75000000  0.24775600  0.35124050  1
  Sr  Sr2  1  0.25000000  0.25478928  0.85325555  1
  Sr  Sr3  1  0.25000000  0.75478928  0.64674445  1
  Ho  Ho4  1  0.75000000  0.07525957  0.61296466  1
  Ho  Ho5  1  0.75000000  0.57525957  0.88703534  1
  Ho  Ho6  1  0.25000000  0.92243112  0.39282272  1
  Ho  Ho7  1  0.25000000  0.42243112  0.10717728  1
  Ho  Ho8  1  0.75000000  0.07777489  0.10729792  1
  Ho  Ho9  1  0.75000000  0.57777489  0.39270208  1
  Ho  Ho10  1  0.25000000  0.92584737  0.88533155  1
  Ho  Ho11  1  0.25000000  0.42584737  0.61466845  1
  O  O12  1  0.75000000  0.07712675  0.91977637  1
  O  O13  1  0.75000000  0.57712675  0.58022363  1
  O  O14  1  0.25000000  0.93293998  0.07196783  1
  O  O15  1  0.25000000  0.43293998  0.42803217  1
  O  O16  1  0.75000000  0.37623744  0.97795504  1
  O  O17  1  0.75000000  0.87623744  0.52204496  1
  O  O18  1  0.25000000  0.61570775  0.01449357  1
  O  O19  1  0.25000000  0.11570775  0.48550643  1
  O  O20  1  0.75000000  0.28909521  0.66752208  1
  O  O21  1  0.75000000  0.78909521  0.83247792  1
  O  O22  1  0.25000000  0.71084234  0.33996028  1
  O  O23  1  0.25000000  0.21084234  0.16003972  1
  O  O24  1  0.75000000  0.98373955  0.28417305  1
  O  O25  1  0.75000000  0.48373955  0.21582695  1
  O  O26  1  0.25000000  0.01045275  0.71556247  1
  O  O27  1  0.25000000  0.51045275  0.78443753  1
