# generated using pymatgen
data_Ca2MgFe(SiO3)4
_symmetry_space_group_name_H-M   'P 1'
_cell_length_a   5.32513863
_cell_length_b   6.73104669
_cell_length_c   6.73104669
_cell_angle_alpha   85.12201897
_cell_angle_beta   78.42801480
_cell_angle_gamma   78.42801480
_symmetry_Int_Tables_number   1
_chemical_formula_structural   Ca2MgFe(SiO3)4
_chemical_formula_sum   'Ca2 Mg1 Fe1 Si4 O12'
_cell_volume   231.30513519
_cell_formula_units_Z   1
loop_
 _symmetry_equiv_pos_site_id
 _symmetry_equiv_pos_as_xyz
  1  'x, y, z'
loop_
 _atom_site_type_symbol
 _atom_site_label
 _atom_site_symmetry_multiplicity
 _atom_site_fract_x
 _atom_site_fract_y
 _atom_site_fract_z
 _atom_site_occupancy
  Ca  Ca0  1  0.75000000  0.70331159  0.29668841  1
  Ca  Ca1  1  0.25000000  0.29920373  0.70079627  1
  Mg  Mg2  1  0.75000000  0.09166368  0.90833632  1
  Fe  Fe3  1  0.25000000  0.90739958  0.09260042  1
  Si  Si4  1  0.73433053  0.61806930  0.80460474  1
  Si  Si5  1  0.76566947  0.19539526  0.38193070  1
  Si  Si6  1  0.26772367  0.37857795  0.19557480  1
  Si  Si7  1  0.23227633  0.80442520  0.62142205  1
  O  O8  1  0.82152959  0.38722191  0.88266648  1
  O  O9  1  0.67847041  0.11733352  0.61277809  1
  O  O10  1  0.17743216  0.60909957  0.11728270  1
  O  O11  1  0.32256784  0.88271730  0.39090043  1
  O  O12  1  0.65360739  0.79389154  0.96820780  1
  O  O13  1  0.84639261  0.03179220  0.20610846  1
  O  O14  1  0.35750923  0.20797639  0.02643513  1
  O  O15  1  0.14249077  0.97356487  0.79202361  1
  O  O16  1  0.49838958  0.63248269  0.66777301  1
  O  O17  1  0.00161042  0.33222699  0.36751731  1
  O  O18  1  0.50034530  0.36800797  0.33436124  1
  O  O19  1  0.99965470  0.66563876  0.63199203  1
