# generated using pymatgen
data_Ba3TiFe2O9
_symmetry_space_group_name_H-M   'P 1'
_cell_length_a   5.77180043
_cell_length_b   5.77526290
_cell_length_c   14.11863589
_cell_angle_alpha   90.00000000
_cell_angle_beta   90.05276449
_cell_angle_gamma   59.98014730
_symmetry_Int_Tables_number   1
_chemical_formula_structural   Ba3TiFe2O9
_chemical_formula_sum   'Ba6 Ti2 Fe4 O18'
_cell_volume   407.49217595
_cell_formula_units_Z   2
loop_
 _symmetry_equiv_pos_site_id
 _symmetry_equiv_pos_as_xyz
  1  'x, y, z'
loop_
 _atom_site_type_symbol
 _atom_site_label
 _atom_site_symmetry_multiplicity
 _atom_site_fract_x
 _atom_site_fract_y
 _atom_site_fract_z
 _atom_site_occupancy
  Ba  Ba0  1  0.33410568  0.33294716  0.59336769  1
  Ba  Ba1  1  0.66589432  0.66705284  0.40663231  1
  Ba  Ba2  1  0.66652260  0.66673870  0.08943261  1
  Ba  Ba3  1  0.33347740  0.33326130  0.91056739  1
  Ba  Ba4  1  0.00094638  0.99952681  0.75367198  1
  Ba  Ba5  1  0.99905362  0.00047319  0.24632802  1
  Ti  Ti6  1  0.33203927  0.33398037  0.35090504  1
  Ti  Ti7  1  0.66796073  0.66601963  0.64909496  1
  Fe  Fe8  1  0.66712344  0.66643828  0.84343177  1
  Fe  Fe9  1  0.33287656  0.33356172  0.15656823  1
  Fe  Fe10  1  -0.00000000  -0.00000000  0.50000000  1
  Fe  Fe11  1  -0.00000000  -0.00000000  -0.00000000  1
  O  O12  1  0.83180685  0.33793805  0.58311959  1
  O  O13  1  0.33781347  0.83109327  0.58259177  1
  O  O14  1  0.83180685  0.83025510  0.58311959  1
  O  O15  1  0.16819315  0.66206195  0.41688041  1
  O  O16  1  0.66218653  0.16890673  0.41740823  1
  O  O17  1  0.16819315  0.16974490  0.41688041  1
  O  O18  1  0.16856187  0.66305928  0.08160182  1
  O  O19  1  0.66375870  0.16812065  0.08170215  1
  O  O20  1  0.16856187  0.16837885  0.08160182  1
  O  O21  1  0.83143813  0.33694072  0.91839818  1
  O  O22  1  0.33624130  0.83187935  0.91829785  1
  O  O23  1  0.83143813  0.83162115  0.91839818  1
  O  O24  1  0.52086673  0.96184582  0.75445077  1
  O  O25  1  0.96440711  0.51779645  0.75371133  1
  O  O26  1  0.52086673  0.51728745  0.75445077  1
  O  O27  1  0.47913327  0.03815418  0.24554923  1
  O  O28  1  0.03559289  0.48220355  0.24628867  1
  O  O29  1  0.47913327  0.48271255  0.24554923  1
