# generated using pymatgen
data_BaSr4(FeO3)5
_symmetry_space_group_name_H-M   'P 1'
_cell_length_a   3.94452674
_cell_length_b   5.58887866
_cell_length_c   14.23108455
_cell_angle_alpha   101.32427873
_cell_angle_beta   90.00000000
_cell_angle_gamma   90.00000000
_symmetry_Int_Tables_number   1
_chemical_formula_structural   BaSr4(FeO3)5
_chemical_formula_sum   'Ba1 Sr4 Fe5 O15'
_cell_volume   307.62324701
_cell_formula_units_Z   1
loop_
 _symmetry_equiv_pos_site_id
 _symmetry_equiv_pos_as_xyz
  1  'x, y, z'
loop_
 _atom_site_type_symbol
 _atom_site_label
 _atom_site_symmetry_multiplicity
 _atom_site_fract_x
 _atom_site_fract_y
 _atom_site_fract_z
 _atom_site_occupancy
  Ba  Ba0  1  0.50000000  0.50000000  0.00000000  1
  Sr  Sr1  1  0.50000000  0.10036932  0.20073863  1
  Sr  Sr2  1  0.50000000  0.69999304  0.39998609  1
  Sr  Sr3  1  0.50000000  0.30000696  0.60001391  1
  Sr  Sr4  1  0.50000000  0.89963068  0.79926137  1
  Fe  Fe5  1  0.00000000  0.39919157  0.79838314  1
  Fe  Fe6  1  0.00000000  0.20003306  0.40006612  1
  Fe  Fe7  1  -0.00000000  0.79996694  0.59993388  1
  Fe  Fe8  1  -0.00000000  0.00000000  0.00000000  1
  Fe  Fe9  1  0.00000000  0.60080843  0.20161686  1
  O  O10  1  -0.00000000  0.70356842  0.89662673  1
  O  O11  1  -0.00000000  0.50000000  0.50000000  1
  O  O12  1  -0.00000000  0.09927973  0.69898705  1
  O  O13  1  -0.00000000  0.29643158  0.10337327  1
  O  O14  1  0.00000000  0.90072027  0.30101295  1
  O  O15  1  -0.00000000  0.59970732  0.69898705  1
  O  O16  1  0.00000000  0.40029268  0.30101295  1
  O  O17  1  -0.00000000  0.00000000  0.50000000  1
  O  O18  1  -0.00000000  0.19305831  0.89662673  1
  O  O19  1  -0.00000000  0.80694169  0.10337327  1
  O  O20  1  0.50000000  0.39813631  0.79627263  1
  O  O21  1  0.50000000  0.20012605  0.40025210  1
  O  O22  1  0.50000000  0.79987395  0.59974790  1
  O  O23  1  0.50000000  0.00000000  0.00000000  1
  O  O24  1  0.50000000  0.60186369  0.20372737  1
