# generated using pymatgen
data_BaAl2O4
_symmetry_space_group_name_H-M   'P 1'
_cell_length_a   5.26722775
_cell_length_b   5.28870136
_cell_length_c   8.97048937
_cell_angle_alpha   89.99950353
_cell_angle_beta   89.43908986
_cell_angle_gamma   59.85967928
_symmetry_Int_Tables_number   1
_chemical_formula_structural   BaAl2O4
_chemical_formula_sum   'Ba2 Al4 O8'
_cell_volume   216.08981148
_cell_formula_units_Z   2
loop_
 _symmetry_equiv_pos_site_id
 _symmetry_equiv_pos_as_xyz
  1  'x, y, z'
loop_
 _atom_site_type_symbol
 _atom_site_label
 _atom_site_symmetry_multiplicity
 _atom_site_fract_x
 _atom_site_fract_y
 _atom_site_fract_z
 _atom_site_occupancy
  Ba  Ba0  1  0.00084959  0.99872728  0.75024107  1
  Ba  Ba1  1  0.99915450  0.99956023  0.24976027  1
  Al  Al2  1  0.33534448  0.32572091  0.55434056  1
  Al  Al3  1  0.66475912  0.66097724  0.44567029  1
  Al  Al4  1  0.66510295  0.65866242  0.05426429  1
  Al  Al5  1  0.33482310  0.32381561  0.94574279  1
  O  O6  1  0.34412632  0.29659662  0.74957057  1
  O  O7  1  0.65587151  0.64072686  0.25040628  1
  O  O8  1  0.64219826  0.99835018  0.48729690  1
  O  O9  1  -0.00005122  0.35536541  0.49998243  1
  O  O10  1  0.35779693  0.64050465  0.51271872  1
  O  O11  1  0.35542740  0.99777773  0.00899451  1
  O  O12  1  0.00002479  0.63697552  0.99999067  1
  O  O13  1  0.64457228  0.35323935  0.99102065  1
