# generated using pymatgen
data_Ba3TiZnWO9
_symmetry_space_group_name_H-M   'P 1'
_cell_length_a   5.88165141
_cell_length_b   5.88165141
_cell_length_c   14.44801204
_cell_angle_alpha   90.00000000
_cell_angle_beta   90.00000000
_cell_angle_gamma   119.99966109
_symmetry_Int_Tables_number   1
_chemical_formula_structural   Ba3TiZnWO9
_chemical_formula_sum   'Ba6 Ti2 Zn2 W2 O18'
_cell_volume   432.85134633
_cell_formula_units_Z   2
loop_
 _symmetry_equiv_pos_site_id
 _symmetry_equiv_pos_as_xyz
  1  'x, y, z'
loop_
 _atom_site_type_symbol
 _atom_site_label
 _atom_site_symmetry_multiplicity
 _atom_site_fract_x
 _atom_site_fract_y
 _atom_site_fract_z
 _atom_site_occupancy
  Ba  Ba0  1  0.66667446  0.33332554  0.59277352  1
  Ba  Ba1  1  0.33332474  0.66667526  0.40299236  1
  Ba  Ba2  1  0.33332554  0.66667446  0.09277352  1
  Ba  Ba3  1  0.66667526  0.33332474  0.90299236  1
  Ba  Ba4  1  0.00000114  0.99999886  0.75359232  1
  Ba  Ba5  1  0.99999886  0.00000114  0.25359232  1
  Ti  Ti6  1  0.66666680  0.33333320  0.35687552  1
  Ti  Ti7  1  0.33333320  0.66666680  0.85687552  1
  Zn  Zn8  1  0.00000258  0.99999742  0.49600364  1
  Zn  Zn9  1  0.99999742  0.00000258  0.99600364  1
  W  W10  1  0.33333450  0.66666550  0.65744735  1
  W  W11  1  0.66666550  0.33333450  0.15744735  1
  O  O12  1  0.17323407  0.34647312  0.58637480  1
  O  O13  1  0.17323225  0.82676775  0.58637495  1
  O  O14  1  0.65352688  0.82676593  0.58637480  1
  O  O15  1  0.82834159  0.65667749  0.41429609  1
  O  O16  1  0.82834186  0.17165814  0.41429723  1
  O  O17  1  0.34332251  0.17165841  0.41429609  1
  O  O18  1  0.82676593  0.65352688  0.08637480  1
  O  O19  1  0.82676775  0.17323225  0.08637495  1
  O  O20  1  0.34647312  0.17323407  0.08637480  1
  O  O21  1  0.17165841  0.34332251  0.91429609  1
  O  O22  1  0.17165814  0.82834186  0.91429723  1
  O  O23  1  0.65667749  0.82834159  0.91429609  1
  O  O24  1  0.48327189  0.96655596  0.74610037  1
  O  O25  1  0.48327338  0.51672662  0.74610058  1
  O  O26  1  0.03344404  0.51672811  0.74610037  1
  O  O27  1  0.51672811  0.03344404  0.24610037  1
  O  O28  1  0.51672662  0.48327338  0.24610058  1
  O  O29  1  0.96655596  0.48327189  0.24610037  1
