# generated using pymatgen
data_Ba3LaIrRuO9
_symmetry_space_group_name_H-M   'P 1'
_cell_length_a   6.00476304
_cell_length_b   6.00476304
_cell_length_c   15.22899151
_cell_angle_alpha   90.00000000
_cell_angle_beta   90.00000000
_cell_angle_gamma   119.94336881
_symmetry_Int_Tables_number   1
_chemical_formula_structural   Ba3LaIrRuO9
_chemical_formula_sum   'Ba6 La2 Ir2 Ru2 O18'
_cell_volume   475.81822487
_cell_formula_units_Z   2
loop_
 _symmetry_equiv_pos_site_id
 _symmetry_equiv_pos_as_xyz
  1  'x, y, z'
loop_
 _atom_site_type_symbol
 _atom_site_label
 _atom_site_symmetry_multiplicity
 _atom_site_fract_x
 _atom_site_fract_y
 _atom_site_fract_z
 _atom_site_occupancy
  Ba  Ba0  1  0.66666937  0.33333063  0.39423077  1
  Ba  Ba1  1  0.33332880  0.66667120  0.60614860  1
  Ba  Ba2  1  0.33333063  0.66666937  0.89423077  1
  Ba  Ba3  1  0.66667120  0.33332880  0.10614860  1
  Ba  Ba4  1  0.00002772  -0.00002772  0.74972372  1
  Ba  Ba5  1  -0.00002772  0.00002772  0.24972372  1
  La  La6  1  0.00001060  -0.00001060  0.50097341  1
  La  La7  1  -0.00001060  0.00001060  0.00097341  1
  Ir  Ir8  1  0.66671531  0.33328469  0.66807979  1
  Ir  Ir9  1  0.33328469  0.66671531  0.16807979  1
  Ru  Ru10  1  0.33331715  0.66668285  0.33370920  1
  Ru  Ru11  1  0.66668285  0.33331715  0.83370920  1
  O  O12  1  0.82211510  0.64388984  0.90527202  1
  O  O13  1  0.82165691  0.17834309  0.90530734  1
  O  O14  1  0.35611016  0.17788490  0.90527202  1
  O  O15  1  0.17795298  0.35591247  0.09355505  1
  O  O16  1  0.17793562  0.82206438  0.09355708  1
  O  O17  1  0.64408753  0.82204702  0.09355505  1
  O  O18  1  0.17788490  0.35611016  0.40527202  1
  O  O19  1  0.17834309  0.82165691  0.40530734  1
  O  O20  1  0.64388984  0.82211510  0.40527202  1
  O  O21  1  0.82204702  0.64408753  0.59355505  1
  O  O22  1  0.82206438  0.17793562  0.59355708  1
  O  O23  1  0.35591247  0.17795298  0.59355505  1
  O  O24  1  0.50876624  0.01805567  0.75016619  1
  O  O25  1  0.50927368  0.49072632  0.75028359  1
  O  O26  1  0.98194433  0.49123376  0.75016619  1
  O  O27  1  0.49123376  0.98194433  0.25016619  1
  O  O28  1  0.49072632  0.50927368  0.25028359  1
  O  O29  1  0.01805567  0.50876624  0.25016619  1
