# generated using pymatgen
data_Ba3Cd(SnS4)2
_symmetry_space_group_name_H-M   'P 1'
_cell_length_a   12.95531574
_cell_length_b   12.95531574
_cell_length_c   12.95531574
_cell_angle_alpha   70.46134451
_cell_angle_beta   70.66356506
_cell_angle_gamma   109.53865549
_symmetry_Int_Tables_number   1
_chemical_formula_structural   Ba3Cd(SnS4)2
_chemical_formula_sum   'Ba12 Cd4 Sn8 S32'
_cell_volume   1673.86455438
_cell_formula_units_Z   4
loop_
 _symmetry_equiv_pos_site_id
 _symmetry_equiv_pos_as_xyz
  1  'x, y, z'
loop_
 _atom_site_type_symbol
 _atom_site_label
 _atom_site_symmetry_multiplicity
 _atom_site_fract_x
 _atom_site_fract_y
 _atom_site_fract_z
 _atom_site_occupancy
  Ba  Ba0  1  0.51939207  0.25000000  0.23060793  1
  Ba  Ba1  1  0.98060793  0.75000000  0.26939207  1
  Ba  Ba2  1  0.26939207  0.75000000  0.98060793  1
  Ba  Ba3  1  0.23060793  0.25000000  0.51939207  1
  Ba  Ba4  1  0.73152329  0.48152329  0.75000000  1
  Ba  Ba5  1  0.76847671  0.01847671  0.25000000  1
  Ba  Ba6  1  0.48354548  0.73354548  0.25000000  1
  Ba  Ba7  1  0.01645452  0.76645452  0.75000000  1
  Ba  Ba8  1  0.75000000  0.26645452  0.48354548  1
  Ba  Ba9  1  0.25000000  0.23354548  0.01645452  1
  Ba  Ba10  1  0.25000000  0.51847671  0.73152329  1
  Ba  Ba11  1  0.75000000  0.98152329  0.76847671  1
  Cd  Cd12  1  0.12518663  0.37518663  0.25000000  1
  Cd  Cd13  1  0.37481337  0.12481337  0.75000000  1
  Cd  Cd14  1  0.25000000  0.87518663  0.37481337  1
  Cd  Cd15  1  0.75000000  0.62481337  0.12518663  1
  Sn  Sn16  1  0.95298994  0.45534412  0.03961424  1
  Sn  Sn17  1  0.50504164  0.04465588  0.00235418  1
  Sn  Sn18  1  0.54701006  0.50739582  0.49764582  1
  Sn  Sn19  1  0.99495836  0.99260418  0.46038576  1
  Sn  Sn20  1  0.49764582  0.54465588  0.99495836  1
  Sn  Sn21  1  0.46038576  0.95534412  0.54701006  1
  Sn  Sn22  1  0.03961424  0.49260418  0.50504164  1
  Sn  Sn23  1  0.00235418  0.00739582  0.95298994  1
  S  S24  1  0.53745165  0.69194417  0.48130807  1
  S  S25  1  0.82674776  0.80805583  0.65449252  1
  S  S26  1  0.96254835  0.48124028  0.84550748  1
  S  S27  1  0.67325224  0.01875972  0.01869193  1
  S  S28  1  0.84550748  0.30805583  0.67325224  1
  S  S29  1  0.01869193  0.19194417  0.96254835  1
  S  S30  1  0.48130807  0.51875972  0.82674776  1
  S  S31  1  0.65449252  0.98124028  0.53745165  1
  S  S32  1  0.14865542  0.45769219  0.02801729  1
  S  S33  1  0.98570949  0.17667271  0.47198271  1
  S  S34  1  0.51429051  0.04230781  0.80903677  1
  S  S35  1  0.35134458  0.32332729  0.69096323  1
  S  S36  1  0.45337845  0.14983088  0.52704826  1
  S  S37  1  0.17687915  0.98042671  0.97295174  1
  S  S38  1  0.04662155  0.51957329  0.30354757  1
  S  S39  1  0.32312085  0.35016912  0.19645243  1
  S  S40  1  0.30354757  0.85016912  0.17687915  1
  S  S41  1  0.19645243  0.01957329  0.45337845  1
  S  S42  1  0.52704826  0.48042671  0.32312085  1
  S  S43  1  0.97295174  0.64983088  0.04662155  1
  S  S44  1  0.69096323  0.54230781  0.98570949  1
  S  S45  1  0.80903677  0.82332729  0.14865542  1
  S  S46  1  0.47198271  0.95769219  0.35134458  1
  S  S47  1  0.02801729  0.67667271  0.51429051  1
  S  S48  1  0.77197400  0.27324974  0.22943675  1
  S  S49  1  0.49731350  0.22675026  0.00127575  1
  S  S50  1  0.72802600  0.49858925  0.49872425  1
  S  S51  1  0.00268650  0.00141075  0.27056325  1
  S  S52  1  0.49872425  0.72675026  0.00268650  1
  S  S53  1  0.27056325  0.77324974  0.72802600  1
  S  S54  1  0.22943675  0.50141075  0.49731350  1
  S  S55  1  0.00127575  0.99858925  0.77197400  1
