# generated using pymatgen
data_Ba10Nb3Bi7O30
_symmetry_space_group_name_H-M   'P 1'
_cell_length_a   6.21729082
_cell_length_b   13.88179837
_cell_length_c   10.68131232
_cell_angle_alpha   97.08130877
_cell_angle_beta   73.01325457
_cell_angle_gamma   77.06727878
_symmetry_Int_Tables_number   1
_chemical_formula_structural   Ba10Nb3Bi7O30
_chemical_formula_sum   'Ba10 Nb3 Bi7 O30'
_cell_volume   841.50484393
_cell_formula_units_Z   1
loop_
 _symmetry_equiv_pos_site_id
 _symmetry_equiv_pos_as_xyz
  1  'x, y, z'
loop_
 _atom_site_type_symbol
 _atom_site_label
 _atom_site_symmetry_multiplicity
 _atom_site_fract_x
 _atom_site_fract_y
 _atom_site_fract_z
 _atom_site_occupancy
  Ba  Ba0  1  0.95128725  0.64752838  0.44831857  1
  Ba  Ba1  1  0.34838530  0.45074490  0.85114976  1
  Ba  Ba2  1  0.74878607  0.25298980  0.25119133  1
  Ba  Ba3  1  0.14960561  0.05134780  0.65036870  1
  Ba  Ba4  1  0.55125718  0.84748206  0.04918922  1
  Ba  Ba5  1  0.25121393  0.74701020  0.74880867  1
  Ba  Ba6  1  0.65161470  0.54925510  0.14885024  1
  Ba  Ba7  1  0.04871275  0.35247162  0.55168143  1
  Ba  Ba8  1  0.44874282  0.15251794  0.95081078  1
  Ba  Ba9  1  0.85039439  0.94865220  0.34963130  1
  Nb  Nb10  1  0.89770262  0.29971841  0.90134612  1
  Nb  Nb11  1  0.50000000  0.50000000  0.50000000  1
  Nb  Nb12  1  0.10229738  0.70028159  0.09865388  1
  Bi  Bi13  1  0.40458146  0.79627855  0.39627289  1
  Bi  Bi14  1  0.80159275  0.59709955  0.80075482  1
  Bi  Bi15  1  0.19840725  0.40290045  0.19924518  1
  Bi  Bi16  1  0.59541854  0.20372145  0.60372711  1
  Bi  Bi17  1  0.00000000  0.00000000  -0.00000000  1
  Bi  Bi18  1  0.70086997  0.89905011  0.69892542  1
  Bi  Bi19  1  0.29913003  0.10094989  0.30107458  1
  O  O20  1  0.02881679  0.82843332  0.54122884  1
  O  O21  1  0.62827595  0.02964168  0.14235361  1
  O  O22  1  0.21065452  0.23624391  0.75211930  1
  O  O23  1  0.81179946  0.43536915  0.35091702  1
  O  O24  1  0.41143493  0.63252460  0.95114271  1
  O  O25  1  0.51156517  0.87183612  0.56334925  1
  O  O26  1  0.11050056  0.07386282  0.16492029  1
  O  O27  1  0.72011464  0.27763011  0.77355651  1
  O  O28  1  0.32392013  0.47534357  0.37086249  1
  O  O29  1  0.92494314  0.67224031  0.97040367  1
  O  O30  1  0.70509322  0.04613975  0.65222976  1
  O  O31  1  0.30603921  0.24598045  0.24928355  1
  O  O32  1  0.90630274  0.43832511  0.85212937  1
  O  O33  1  0.50783200  0.63702720  0.45251034  1
  O  O34  1  0.10549863  0.83706327  0.05373382  1
  O  O35  1  0.37172405  0.97035832  0.85764639  1
  O  O36  1  0.97118321  0.17156668  0.45877116  1
  O  O37  1  0.58856507  0.36747540  0.04885729  1
  O  O38  1  0.18820054  0.56463085  0.64908298  1
  O  O39  1  0.78934548  0.76375609  0.24788070  1
  O  O40  1  0.88949944  0.92613718  0.83507971  1
  O  O41  1  0.48843483  0.12816388  0.43665075  1
  O  O42  1  0.07505686  0.32775969  0.02959633  1
  O  O43  1  0.67607987  0.52465643  0.62913751  1
  O  O44  1  0.27988536  0.72236989  0.22644349  1
  O  O45  1  0.69396079  0.75401955  0.75071645  1
  O  O46  1  0.29490678  0.95386025  0.34777024  1
  O  O47  1  0.89450137  0.16293673  0.94626618  1
  O  O48  1  0.49216800  0.36297280  0.54748966  1
  O  O49  1  0.09369726  0.56167489  0.14787063  1
