# generated using pymatgen
data_Mg2Bi
_symmetry_space_group_name_H-M   'P 1'
_cell_length_a   11.95240635
_cell_length_b   3.40024171
_cell_length_c   8.31371799
_cell_angle_alpha   90.00000000
_cell_angle_beta   112.14842104
_cell_angle_gamma   90.00000000
_symmetry_Int_Tables_number   1
_chemical_formula_structural   Mg2Bi
_chemical_formula_sum   'Mg8 Bi4'
_cell_volume   312.94647116
_cell_formula_units_Z   4
loop_
 _symmetry_equiv_pos_site_id
 _symmetry_equiv_pos_as_xyz
  1  'x, y, z'
loop_
 _atom_site_type_symbol
 _atom_site_label
 _atom_site_symmetry_multiplicity
 _atom_site_fract_x
 _atom_site_fract_y
 _atom_site_fract_z
 _atom_site_occupancy
  Mg  Mg0  1  0.17081762  -0.00000000  0.13485752  1
  Mg  Mg1  1  0.34866742  0.50000000  0.46893119  1
  Mg  Mg2  1  0.15133258  -0.00000000  0.53106881  1
  Mg  Mg3  1  0.32918238  0.50000000  0.86514248  1
  Mg  Mg4  1  0.67081762  0.50000000  0.13485752  1
  Mg  Mg5  1  0.84866742  -0.00000000  0.46893119  1
  Mg  Mg6  1  0.65133258  0.50000000  0.53106881  1
  Mg  Mg7  1  0.82918238  0.00000000  0.86514248  1
  Bi  Bi8  1  0.45232419  0.00000000  0.21440940  1
  Bi  Bi9  1  0.04767581  0.50000000  0.78559060  1
  Bi  Bi10  1  0.95232419  0.50000000  0.21440940  1
  Bi  Bi11  1  0.54767581  0.00000000  0.78559060  1
