# generated using pymatgen
data_Cs2Na8U8Mo5O44
_symmetry_space_group_name_H-M   'P 1'
_cell_length_a   6.95013534
_cell_length_b   12.75057658
_cell_length_c   13.88527559
_cell_angle_alpha   62.66836041
_cell_angle_beta   75.50651023
_cell_angle_gamma   90.00000000
_symmetry_Int_Tables_number   1
_chemical_formula_structural   Cs2Na8U8Mo5O44
_chemical_formula_sum   'Cs2 Na8 U8 Mo5 O44'
_cell_volume   1048.84642182
_cell_formula_units_Z   1
loop_
 _symmetry_equiv_pos_site_id
 _symmetry_equiv_pos_as_xyz
  1  'x, y, z'
loop_
 _atom_site_type_symbol
 _atom_site_label
 _atom_site_symmetry_multiplicity
 _atom_site_fract_x
 _atom_site_fract_y
 _atom_site_fract_z
 _atom_site_occupancy
  Cs  Cs0  1  0.50000000  0.25000000  -0.00000000  1
  Cs  Cs1  1  0.50000000  0.75000000  -0.00000000  1
  Na  Na2  1  0.29712136  0.54712136  0.40575728  1
  Na  Na3  1  0.70287864  0.95287864  0.59424272  1
  Na  Na4  1  0.70334386  0.45334386  0.59331228  1
  Na  Na5  1  0.29665614  0.04665614  0.40668772  1
  Na  Na6  1  0.13883183  0.38883183  0.72233634  1
  Na  Na7  1  0.86116817  0.11116817  0.27766366  1
  Na  Na8  1  0.86735889  0.61735889  0.26528221  1
  Na  Na9  1  0.13264111  0.88264111  0.73471779  1
  U  U10  1  0.81457929  0.62139513  0.75264715  1
  U  U11  1  0.18542071  0.37404227  0.24735285  1
  U  U12  1  0.43277357  0.12595773  0.75264715  1
  U  U13  1  0.56722643  0.87860487  0.24735285  1
  U  U14  1  0.37717593  0.71390749  0.56975434  1
  U  U15  1  0.62282407  0.28366183  0.43024566  1
  U  U16  1  0.05306973  0.21633817  0.56975434  1
  U  U17  1  0.94693027  0.78609251  0.43024566  1
  Mo  Mo18  1  0.21390652  0.56884717  0.90083206  1
  Mo  Mo19  1  0.78609348  0.46967923  0.09916794  1
  Mo  Mo20  1  0.88526141  0.03032077  0.90083206  1
  Mo  Mo21  1  0.11473859  0.93115283  0.09916794  1
  Mo  Mo22  1  0.00000000  0.25000000  -0.00000000  1
  O  O23  1  0.37455966  0.56668899  0.56743936  1
  O  O24  1  0.62544034  0.13412835  0.43256064  1
  O  O25  1  0.05800099  0.36587165  0.56743936  1
  O  O26  1  0.94199901  0.93331101  0.43256064  1
  O  O27  1  0.62836346  0.43277870  0.42831814  1
  O  O28  1  0.37163654  0.86109684  0.57168186  1
  O  O29  1  0.94331840  0.63890316  0.42831814  1
  O  O30  1  0.05668160  0.06722130  0.57168186  1
  O  O31  1  0.81850304  0.76815367  0.75278419  1
  O  O32  1  0.18149696  0.52093786  0.24721581  1
  O  O33  1  0.42871278  0.97906214  0.75278419  1
  O  O34  1  0.57128722  0.73184633  0.24721581  1
  O  O35  1  0.18131807  0.22692310  0.24835177  1
  O  O36  1  0.81868193  0.47527487  0.75164823  1
  O  O37  1  0.57033016  0.02472513  0.24835177  1
  O  O38  1  0.42966984  0.27307690  0.75164823  1
  O  O39  1  0.11849623  0.46812567  0.06091239  1
  O  O40  1  0.88150377  0.52903807  0.93908761  1
  O  O41  1  0.82059138  0.97096193  0.06091239  1
  O  O42  1  0.17940862  0.03187433  0.93908761  1
  O  O43  1  0.48044589  0.55948224  0.87108820  1
  O  O44  1  0.51955411  0.43057044  0.12891180  1
  O  O45  1  0.64846591  0.06942956  0.87108820  1
  O  O46  1  0.35153409  0.94051776  0.12891180  1
  O  O47  1  0.04296164  0.70693569  0.58660429  1
  O  O48  1  0.95703836  0.29353998  0.41339571  1
  O  O49  1  0.37043407  0.20646002  0.58660429  1
  O  O50  1  0.62956593  0.79306431  0.41339571  1
  O  O51  1  0.18600433  0.37788255  0.90754256  1
  O  O52  1  0.81399567  0.28542510  0.09245744  1
  O  O53  1  0.90645311  0.21457490  0.90754256  1
  O  O54  1  0.09354689  0.12211745  0.09245744  1
  O  O55  1  0.79582983  0.60272736  0.10610220  1
  O  O56  1  0.20417017  0.70882956  0.89389780  1
  O  O57  1  0.09806797  0.79117044  0.10610220  1
  O  O58  1  0.90193203  0.89727264  0.89389780  1
  O  O59  1  0.64482611  0.68511611  0.62883688  1
  O  O60  1  0.35517389  0.31395299  0.37116312  1
  O  O61  1  0.72633701  0.18604701  0.62883688  1
  O  O62  1  0.27366299  0.81488389  0.37116312  1
  O  O63  1  0.17596690  0.61116957  0.75682629  1
  O  O64  1  0.82403310  0.36799586  0.24317371  1
  O  O65  1  0.06720681  0.13200414  0.75682629  1
  O  O66  1  0.93279319  0.88883043  0.24317371  1
