# generated using pymatgen
data_Ba3(Br2Cl)2
_symmetry_space_group_name_H-M   'P 1'
_cell_length_a   8.33518328
_cell_length_b   13.90811702
_cell_length_c   10.94152122
_cell_angle_alpha   72.02046425
_cell_angle_beta   90.20696658
_cell_angle_gamma   90.16051771
_symmetry_Int_Tables_number   1
_chemical_formula_structural   Ba3(Br2Cl)2
_chemical_formula_sum   'Ba12 Br16 Cl8'
_cell_volume   1206.46402365
_cell_formula_units_Z   4
loop_
 _symmetry_equiv_pos_site_id
 _symmetry_equiv_pos_as_xyz
  1  'x, y, z'
loop_
 _atom_site_type_symbol
 _atom_site_label
 _atom_site_symmetry_multiplicity
 _atom_site_fract_x
 _atom_site_fract_y
 _atom_site_fract_z
 _atom_site_occupancy
  Ba  Ba0  1  0.23567994  0.62132087  0.99175207  1
  Ba  Ba1  1  0.24512777  0.95399247  0.65834442  1
  Ba  Ba2  1  0.23567189  0.28729224  0.32581538  1
  Ba  Ba3  1  0.74562924  0.71000507  0.16981630  1
  Ba  Ba4  1  0.74402255  0.04600491  0.84166364  1
  Ba  Ba5  1  0.74524447  0.37639533  0.50310570  1
  Ba  Ba6  1  0.76013486  0.70437646  0.67165448  1
  Ba  Ba7  1  0.76021441  0.04636667  0.33006445  1
  Ba  Ba8  1  0.76189122  0.37741513  0.00430122  1
  Ba  Ba9  1  0.25960728  0.62643930  0.50165819  1
  Ba  Ba10  1  0.25920703  0.95849498  0.16952826  1
  Ba  Ba11  1  0.25985299  0.29285977  0.83477552  1
  Br  Br12  1  0.47076085  0.52590008  0.80336707  1
  Br  Br13  1  0.47093963  0.85939009  0.46891053  1
  Br  Br14  1  0.47085666  0.19349950  0.13564227  1
  Br  Br15  1  0.97095091  0.47405970  0.69835694  1
  Br  Br16  1  0.97116439  0.80717762  0.36427657  1
  Br  Br17  1  0.97131745  0.14121855  0.03201483  1
  Br  Br18  1  0.52870609  0.80501387  0.86305503  1
  Br  Br19  1  0.52871261  0.14051310  0.52756379  1
  Br  Br20  1  0.52966192  0.47261876  0.19519036  1
  Br  Br21  1  0.02716565  0.85955551  0.97091086  1
  Br  Br22  1  0.02725868  0.19410087  0.63642040  1
  Br  Br23  1  0.02678862  0.52620978  0.30280054  1
  Br  Br24  1  0.35483784  0.06075813  0.87108313  1
  Br  Br25  1  0.35548302  0.39390811  0.53698607  1
  Br  Br26  1  0.35571856  0.72688969  0.20373869  1
  Br  Br27  1  0.85501700  0.93908902  0.62852300  1
  Cl  Cl28  1  0.85691928  0.27260947  0.29419022  1
  Cl  Cl29  1  0.85693677  0.60513553  0.96170122  1
  Cl  Cl30  1  0.64395097  0.93940389  0.12992288  1
  Cl  Cl31  1  0.64450775  0.27399353  0.79658732  1
  Cl  Cl32  1  0.64439554  0.60593954  0.46257167  1
  Cl  Cl33  1  0.14212572  0.06116739  0.37067645  1
  Cl  Cl34  1  0.14140372  0.39404191  0.03803220  1
  Cl  Cl35  1  0.14213674  0.72684315  0.70499830  1
