# generated using pymatgen
data_Al2PbSe4
_symmetry_space_group_name_H-M   'P 1'
_cell_length_a   6.29021153
_cell_length_b   6.32360655
_cell_length_c   11.04458872
_cell_angle_alpha   90.00000000
_cell_angle_beta   90.00000000
_cell_angle_gamma   119.57710565
_symmetry_Int_Tables_number   1
_chemical_formula_structural   Al2PbSe4
_chemical_formula_sum   'Al4 Pb2 Se8'
_cell_volume   382.07201511
_cell_formula_units_Z   2
loop_
 _symmetry_equiv_pos_site_id
 _symmetry_equiv_pos_as_xyz
  1  'x, y, z'
loop_
 _atom_site_type_symbol
 _atom_site_label
 _atom_site_symmetry_multiplicity
 _atom_site_fract_x
 _atom_site_fract_y
 _atom_site_fract_z
 _atom_site_occupancy
  Al  Al0  1  0.22164862  0.95086264  0.50000000  1
  Al  Al1  1  0.77402171  0.23354221  0.50000000  1
  Al  Al2  1  0.76366630  0.24293569  -0.00000000  1
  Al  Al3  1  0.23766645  0.76052103  -0.00000000  1
  Pb  Pb4  1  0.50057297  0.49559606  0.24975829  1
  Pb  Pb5  1  0.50057297  0.49559606  0.75024171  1
  Se  Se6  1  0.80834673  0.63479489  0.50000000  1
  Se  Se7  1  0.18588113  0.31796319  0.50000000  1
  Se  Se8  1  0.35018071  0.18684620  -0.00000000  1
  Se  Se9  1  0.65087145  0.81815210  -0.00000000  1
  Se  Se10  1  0.00035175  0.50188138  0.16682569  1
  Se  Se11  1  0.49843373  0.01521358  0.33377950  1
  Se  Se12  1  0.00035175  0.50188138  0.83317431  1
  Se  Se13  1  0.49843373  0.01521358  0.66622050  1
