# generated using pymatgen
data_AlSb3Pb4O13
_symmetry_space_group_name_H-M   'P 1'
_cell_length_a   7.50783853
_cell_length_b   7.41049844
_cell_length_c   7.50783853
_cell_angle_alpha   90.00000000
_cell_angle_beta   60.00000000
_cell_angle_gamma   120.43547623
_symmetry_Int_Tables_number   1
_chemical_formula_structural   AlSb3Pb4O13
_chemical_formula_sum   'Al1 Sb3 Pb4 O13'
_cell_volume   293.40807723
_cell_formula_units_Z   1
loop_
 _symmetry_equiv_pos_site_id
 _symmetry_equiv_pos_as_xyz
  1  'x, y, z'
loop_
 _atom_site_type_symbol
 _atom_site_label
 _atom_site_symmetry_multiplicity
 _atom_site_fract_x
 _atom_site_fract_y
 _atom_site_fract_z
 _atom_site_occupancy
  Al  Al0  1  0.50160579  0.00240869  0.49919710  1
  Sb  Sb1  1  0.50031127  0.49923614  0.49984437  1
  Sb  Sb2  1  0.99908050  0.49923614  0.00107513  1
  Sb  Sb3  1  0.99908050  0.49923614  0.49984437  1
  Pb  Pb4  1  0.50470597  0.50705896  0.99764701  1
  Pb  Pb5  1  0.50454460  0.99794975  0.99772770  1
  Pb  Pb6  1  0.99567745  0.99794975  0.50659485  1
  Pb  Pb7  1  0.99567745  0.99794975  0.99772770  1
  O  O8  1  0.63851215  0.82113527  0.43074392  1
  O  O9  1  0.85115802  0.42529736  0.82442099  1
  O  O10  1  0.25187919  0.82113527  0.81737688  1
  O  O11  1  0.24971835  0.42529736  0.42586066  1
  O  O12  1  0.24971835  0.42529736  0.82442099  1
  O  O13  1  0.25187919  0.82113527  0.43074392  1
  O  O14  1  0.36598546  0.18064066  0.56700727  1
  O  O15  1  0.14411236  0.57238915  0.17794382  1
  O  O16  1  0.74764793  0.18064066  0.18534480  1
  O  O17  1  0.75033297  0.57238915  0.57172321  1
  O  O18  1  0.75033297  0.57238915  0.17794382  1
  O  O19  1  0.74764793  0.18064066  0.56700727  1
  O  O20  1  0.25039158  0.12558737  0.12480421  1
