# generated using pymatgen
data_BP5(Pb3O10)2
_symmetry_space_group_name_H-M   'P 1'
_cell_length_a   7.05516080
_cell_length_b   7.05524506
_cell_length_c   10.11330413
_cell_angle_alpha   89.86955300
_cell_angle_beta   90.12606257
_cell_angle_gamma   89.99427985
_symmetry_Int_Tables_number   1
_chemical_formula_structural   BP5(Pb3O10)2
_chemical_formula_sum   'B1 P5 Pb6 O20'
_cell_volume   503.39617133
_cell_formula_units_Z   1
loop_
 _symmetry_equiv_pos_site_id
 _symmetry_equiv_pos_as_xyz
  1  'x, y, z'
loop_
 _atom_site_type_symbol
 _atom_site_label
 _atom_site_symmetry_multiplicity
 _atom_site_fract_x
 _atom_site_fract_y
 _atom_site_fract_z
 _atom_site_occupancy
  B  B0  1  0.49753481  0.49874461  0.99989395  1
  P  P1  1  0.99788544  0.99880667  0.50007392  1
  P  P2  1  0.73170870  0.66796601  0.80393230  1
  P  P3  1  0.26756361  0.32732219  0.79936631  1
  P  P4  1  0.32765907  0.73083470  0.19783670  1
  P  P5  1  0.66796602  0.26673050  0.19878470  1
  Pb  Pb6  1  0.83480643  0.76939118  0.18530893  1
  Pb  Pb7  1  0.16649927  0.22995225  0.18719582  1
  Pb  Pb8  1  0.22976579  0.83492012  0.81444671  1
  Pb  Pb9  1  0.76911444  0.16606157  0.81348732  1
  Pb  Pb10  1  0.99336509  0.49919976  0.52116159  1
  Pb  Pb11  1  0.49914183  0.99346869  0.47876198  1
  O  O12  1  0.89212590  0.79414120  0.86044579  1
  O  O13  1  0.10885118  0.20042459  0.85799590  1
  O  O14  1  0.20071190  0.89185473  0.14206360  1
  O  O15  1  0.79421229  0.10843205  0.13971873  1
  O  O16  1  0.67131153  0.53147886  0.92373346  1
  O  O17  1  0.32929631  0.46531581  0.91751818  1
  O  O18  1  0.46134558  0.67079903  0.07721952  1
  O  O19  1  0.52773852  0.32873845  0.08111879  1
  O  O20  1  0.88642407  0.14698083  0.58456333  1
  O  O21  1  0.10746980  0.85053235  0.58631040  1
  O  O22  1  0.84992023  0.88786108  0.41461574  1
  O  O23  1  0.14636650  0.10878384  0.41474676  1
  O  O24  1  0.79672884  0.42616313  0.24873006  1
  O  O25  1  0.19778559  0.57276481  0.24934939  1
  O  O26  1  0.57299698  0.79689216  0.75240629  1
  O  O27  1  0.42646578  0.19732561  0.74968838  1
  O  O28  1  0.79372870  0.51840444  0.70110176  1
  O  O29  1  0.20338522  0.47357674  0.69474982  1
  O  O30  1  0.47797659  0.79162694  0.30048680  1
  O  O31  1  0.52184800  0.20140511  0.30318704  1
