# generated using pymatgen
data_AlZnGaS4
_symmetry_space_group_name_H-M   'P 1'
_cell_length_a   5.37407445
_cell_length_b   5.37407445
_cell_length_c   6.45837262
_cell_angle_alpha   65.41423282
_cell_angle_beta   65.41423282
_cell_angle_gamma   90.00000000
_symmetry_Int_Tables_number   1
_chemical_formula_structural   AlZnGaS4
_chemical_formula_sum   'Al1 Zn1 Ga1 S4'
_cell_volume   150.81751778
_cell_formula_units_Z   1
loop_
 _symmetry_equiv_pos_site_id
 _symmetry_equiv_pos_as_xyz
  1  'x, y, z'
loop_
 _atom_site_type_symbol
 _atom_site_label
 _atom_site_symmetry_multiplicity
 _atom_site_fract_x
 _atom_site_fract_y
 _atom_site_fract_z
 _atom_site_occupancy
  Al  Al0  1  0.50000000  0.50000000  0.00000000  1
  Zn  Zn1  1  0.00000000  -0.00000000  0.00000000  1
  Ga  Ga2  1  0.75000000  0.25000000  0.50000000  1
  S  S3  1  0.87336898  0.38779269  0.74372717  1
  S  S4  1  0.38290385  0.86848014  0.74372717  1
  S  S5  1  0.61220731  0.61709615  0.25627283  1
  S  S6  1  0.13151986  0.12663102  0.25627283  1
