# generated using pymatgen
data_Ca14MnP9(O12F)3
_symmetry_space_group_name_H-M   'P 1'
_cell_length_a   9.46051231
_cell_length_b   9.46049461
_cell_length_c   20.71867788
_cell_angle_alpha   90.00002852
_cell_angle_beta   89.99999509
_cell_angle_gamma   60.00017745
_symmetry_Int_Tables_number   1
_chemical_formula_structural   Ca14MnP9(O12F)3
_chemical_formula_sum   'Ca28 Mn2 P18 O72 F6'
_cell_volume   1605.91274274
_cell_formula_units_Z   2
loop_
 _symmetry_equiv_pos_site_id
 _symmetry_equiv_pos_as_xyz
  1  'x, y, z'
loop_
 _atom_site_type_symbol
 _atom_site_label
 _atom_site_symmetry_multiplicity
 _atom_site_fract_x
 _atom_site_fract_y
 _atom_site_fract_z
 _atom_site_occupancy
  Ca  Ca0  1  0.33332939  0.33332287  0.16901256  1
  Ca  Ca1  1  0.33333177  0.33332332  0.50132899  1
  Ca  Ca2  1  0.33332708  0.33332599  0.83383067  1
  Ca  Ca3  1  0.66667224  0.66667404  0.00150356  1
  Ca  Ca4  1  0.66667097  0.66667693  0.33502851  1
  Ca  Ca5  1  0.66667342  0.66667587  0.66836076  1
  Ca  Ca6  1  0.66667162  0.66667153  0.16785330  1
  Ca  Ca7  1  0.66667106  0.66666899  0.50113522  1
  Ca  Ca8  1  0.66667331  0.66667412  0.83428593  1
  Ca  Ca9  1  0.33332879  0.33332659  0.00098822  1
  Ca  Ca10  1  0.75689569  0.99592913  0.08482402  1
  Ca  Ca11  1  0.75656037  0.99636036  0.41794215  1
  Ca  Ca12  1  0.75660784  0.99631813  0.75119995  1
  Ca  Ca13  1  0.24719221  0.75688447  0.08482449  1
  Ca  Ca14  1  0.24709757  0.75655053  0.41794234  1
  Ca  Ca15  1  0.24709299  0.75659624  0.75120022  1
  Ca  Ca16  1  0.99591280  0.24718729  0.08482402  1
  Ca  Ca17  1  0.99634393  0.24708639  0.41794141  1
  Ca  Ca18  1  0.99630385  0.24708220  0.75119967  1
  Ca  Ca19  1  0.24306564  0.00415791  0.25175175  1
  Ca  Ca20  1  0.24316689  0.00425313  0.58500040  1
  Ca  Ca21  1  0.24314919  0.00421361  0.91800484  1
  Ca  Ca22  1  0.75275834  0.24307286  0.25175076  1
  Ca  Ca23  1  0.75256204  0.24317615  0.58500090  1
  Ca  Ca24  1  0.75261376  0.24316122  0.91800365  1
  Ca  Ca25  1  0.00417602  0.75277045  0.25175155  1
  Ca  Ca26  1  0.00427377  0.75256572  0.58500167  1
  Ca  Ca27  1  0.00423336  0.75262687  0.91800353  1
  Mn  Mn28  1  0.33327646  0.33338284  0.33368832  1
  Mn  Mn29  1  0.33331716  0.33332402  0.66683954  1
  P  P30  1  0.60202206  0.36873489  0.08515950  1
  P  P31  1  0.60147716  0.36779736  0.41761766  1
  P  P32  1  0.60153270  0.36781602  0.75089349  1
  P  P33  1  0.02924315  0.60202366  0.08515933  1
  P  P34  1  0.03072382  0.60147912  0.41761766  1
  P  P35  1  0.03065268  0.60153416  0.75089375  1
  P  P36  1  0.36873445  0.02924221  0.08515968  1
  P  P37  1  0.36779850  0.03072764  0.41761817  1
  P  P38  1  0.36781515  0.03065221  0.75089331  1
  P  P39  1  0.39797331  0.62945581  0.25263230  1
  P  P40  1  0.39797923  0.62936452  0.58595938  1
  P  P41  1  0.39792633  0.63114598  0.91841108  1
  P  P42  1  0.97257229  0.39797017  0.25263416  1
  P  P43  1  0.97265779  0.39797539  0.58596064  1
  P  P44  1  0.97092890  0.39792330  0.91841062  1
  P  P45  1  0.62945420  0.97257618  0.25263284  1
  P  P46  1  0.62936553  0.97265506  0.58595992  1
  P  P47  1  0.63114788  0.97092690  0.91841006  1
  O  O48  1  0.65400889  0.25816068  0.14603280  1
  O  O49  1  0.65192198  0.25926788  0.47914469  1
  O  O50  1  0.65197899  0.25923120  0.81238149  1
  O  O51  1  0.08783614  0.65400205  0.14603411  1
  O  O52  1  0.08881374  0.65191538  0.47914455  1
  O  O53  1  0.08879598  0.65196953  0.81238277  1
  O  O54  1  0.25816412  0.08783481  0.14603486  1
  O  O55  1  0.25927017  0.08881328  0.47914584  1
  O  O56  1  0.25923326  0.08879520  0.81238290  1
  O  O57  1  0.34619232  0.74174562  0.31284936  1
  O  O58  1  0.34613021  0.74180914  0.64613170  1
  O  O59  1  0.34587213  0.74196256  0.97919498  1
  O  O60  1  0.91206078  0.34619481  0.31285124  1
  O  O61  1  0.91205844  0.34613533  0.64613313  1
  O  O62  1  0.91216447  0.34587441  0.97919537  1
  O  O63  1  0.74174407  0.91205803  0.31284972  1
  O  O64  1  0.74180651  0.91205529  0.64613339  1
  O  O65  1  0.74196079  0.91216136  0.97919570  1
  O  O66  1  0.33469038  0.74310336  0.19267651  1
  O  O67  1  0.33479561  0.74282492  0.52589692  1
  O  O68  1  0.33562593  0.74584254  0.85874396  1
  O  O69  1  0.92220780  0.33469032  0.19267634  1
  O  O70  1  0.92237879  0.33479723  0.52589756  1
  O  O71  1  0.91852373  0.33563153  0.85874300  1
  O  O72  1  0.74310240  0.92220134  0.19267575  1
  O  O73  1  0.74282555  0.92237400  0.52589667  1
  O  O74  1  0.74584101  0.91852505  0.85874241  1
  O  O75  1  0.66448936  0.25389142  0.02558039  1
  O  O76  1  0.66878719  0.25162038  0.35879830  1
  O  O77  1  0.66880639  0.25161039  0.69207631  1
  O  O78  1  0.08162559  0.66448461  0.02558086  1
  O  O79  1  0.07960050  0.66877978  0.35879716  1
  O  O80  1  0.07958918  0.66880540  0.69207724  1
  O  O81  1  0.25389163  0.08162286  0.02558018  1
  O  O82  1  0.25161925  0.07960114  0.35879736  1
  O  O83  1  0.25161070  0.07959199  0.69207542  1
  O  O84  1  0.67339171  0.48466009  0.08574016  1
  O  O85  1  0.67073546  0.48566008  0.41904556  1
  O  O86  1  0.67055987  0.48580294  0.75229512  1
  O  O87  1  0.84194873  0.67339838  0.08573979  1
  O  O88  1  0.84360801  0.67073896  0.41904508  1
  O  O89  1  0.84363781  0.67056547  0.75229479  1
  O  O90  1  0.48465660  0.84194764  0.08573977  1
  O  O91  1  0.48565444  0.84360854  0.41904560  1
  O  O92  1  0.48579968  0.84363845  0.75229523  1
  O  O93  1  0.32763039  0.51179873  0.25473256  1
  O  O94  1  0.32762311  0.51174932  0.58799912  1
  O  O95  1  0.32677607  0.51515006  0.91892607  1
  O  O96  1  0.16057111  0.32762534  0.25473589  1
  O  O97  1  0.16062818  0.32761641  0.58800141  1
  O  O98  1  0.15807392  0.32676714  0.91892474  1
  O  O99  1  0.51180001  0.16056977  0.25473259  1
  O  O100  1  0.51175411  0.16062368  0.58800057  1
  O  O101  1  0.51515731  0.15807030  0.91892599  1
  O  O102  1  0.41174678  0.46643473  0.08347150  1
  O  O103  1  0.41067697  0.46293343  0.41395812  1
  O  O104  1  0.41070518  0.46296538  0.74722084  1
  O  O105  1  0.12180754  0.41174598  0.08347251  1
  O  O106  1  0.12638174  0.41067726  0.41395379  1
  O  O107  1  0.12632384  0.41070403  0.74721805  1
  O  O108  1  0.46644224  0.12181223  0.08347247  1
  O  O109  1  0.46293797  0.12638588  0.41395610  1
  O  O110  1  0.46296986  0.12632727  0.74721859  1
  O  O111  1  0.58826594  0.53288911  0.25017912  1
  O  O112  1  0.58827501  0.53290294  0.58353586  1
  O  O113  1  0.58825311  0.53356219  0.91674887  1
  O  O114  1  0.87885552  0.58826379  0.25017896  1
  O  O115  1  0.87883362  0.58827376  0.58353660  1
  O  O116  1  0.87819477  0.58825203  0.91674890  1
  O  O117  1  0.53288549  0.87884673  0.25017922  1
  O  O118  1  0.53289659  0.87882693  0.58353684  1
  O  O119  1  0.53355847  0.87818601  0.91674776  1
  F  F120  1  0.00000589  0.99999381  0.08539690  1
  F  F121  1  0.00001027  0.99999068  0.41892312  1
  F  F122  1  0.00000559  0.99999671  0.75228767  1
  F  F123  1  0.99999505  0.00000264  0.25201393  1
  F  F124  1  0.99999324  0.00000376  0.58531889  1
  F  F125  1  0.99999413  0.00000619  0.91872790  1
