# generated using pymatgen
data_AlP2H4O8F
_symmetry_space_group_name_H-M   'P 1'
_cell_length_a   4.84446354
_cell_length_b   8.64654773
_cell_length_c   16.06129152
_cell_angle_alpha   99.52146120
_cell_angle_beta   90.00000000
_cell_angle_gamma   90.00000000
_symmetry_Int_Tables_number   1
_chemical_formula_structural   AlP2H4O8F
_chemical_formula_sum   'Al4 P8 H16 O32 F4'
_cell_volume   663.50521309
_cell_formula_units_Z   4
loop_
 _symmetry_equiv_pos_site_id
 _symmetry_equiv_pos_as_xyz
  1  'x, y, z'
loop_
 _atom_site_type_symbol
 _atom_site_label
 _atom_site_symmetry_multiplicity
 _atom_site_fract_x
 _atom_site_fract_y
 _atom_site_fract_z
 _atom_site_occupancy
  Al  Al0  1  0.21614739  0.13622578  0.79924875  1
  Al  Al1  1  0.71647452  0.86297235  0.69995001  1
  Al  Al2  1  0.78352548  0.86297235  0.19995001  1
  Al  Al3  1  0.28385261  0.13622578  0.29924875  1
  P  P4  1  0.71061806  0.36248049  0.86161367  1
  P  P5  1  0.20974330  0.63590444  0.63729023  1
  P  P6  1  0.29025670  0.63590444  0.13729023  1
  P  P7  1  0.78938194  0.36248049  0.36161367  1
  P  P8  1  0.46384518  0.13467498  0.61622596  1
  P  P9  1  0.96275865  0.86468379  0.88335930  1
  P  P10  1  0.53724135  0.86468379  0.38335930  1
  P  P11  1  0.03615482  0.13467498  0.11622596  1
  H  H12  1  0.87595132  0.20764645  0.57995122  1
  H  H13  1  0.37459892  0.79151897  0.92033822  1
  H  H14  1  0.12540108  0.79151897  0.42033822  1
  H  H15  1  0.62404868  0.20764645  0.07995122  1
  H  H16  1  0.71375179  0.55443796  0.78701461  1
  H  H17  1  0.21210192  0.44450570  0.71211857  1
  H  H18  1  0.28789808  0.44450570  0.21211857  1
  H  H19  1  0.78624821  0.55443796  0.28701461  1
  H  H20  1  0.26628403  0.11018924  0.49090270  1
  H  H21  1  0.76513905  0.89035578  0.00870069  1
  H  H22  1  0.73486095  0.89035578  0.50870069  1
  H  H23  1  0.23371597  0.11018924  0.99090270  1
  H  H24  1  0.57893729  0.47978330  0.98656172  1
  H  H25  1  0.92106271  0.47978330  0.48656172  1
  H  H26  1  0.41416472  0.52624211  0.51704680  1
  H  H27  1  0.08583528  0.52624211  0.01704680  1
  O  O28  1  0.21234455  0.13301521  0.55170518  1
  O  O29  1  0.71112172  0.86647258  0.94787238  1
  O  O30  1  0.78887828  0.86647258  0.44787238  1
  O  O31  1  0.28765545  0.13301521  0.05170518  1
  O  O32  1  0.58304297  0.48008102  0.80617379  1
  O  O33  1  0.08258683  0.51968313  0.69316539  1
  O  O34  1  0.41741317  0.51968313  0.19316539  1
  O  O35  1  0.91695703  0.48008102  0.30617379  1
  O  O36  1  0.75526177  0.45824459  0.95463294  1
  O  O37  1  0.23033877  0.53451322  0.54446106  1
  O  O38  1  0.26966123  0.53451322  0.04446106  1
  O  O39  1  0.74473823  0.45824459  0.45463294  1
  O  O40  1  0.58427986  0.96830868  0.60988549  1
  O  O41  1  0.08350610  0.03089417  0.88934343  1
  O  O42  1  0.41649390  0.03089417  0.38934343  1
  O  O43  1  0.91572014  0.96830868  0.10988549  1
  O  O44  1  0.68284622  0.24676995  0.58542066  1
  O  O45  1  0.18093437  0.75308353  0.91531704  1
  O  O46  1  0.31906563  0.75308353  0.41531704  1
  O  O47  1  0.81715378  0.24676995  0.08542066  1
  O  O48  1  0.49906798  0.23470659  0.86645952  1
  O  O49  1  0.99829410  0.76344928  0.63230291  1
  O  O50  1  0.50170590  0.76344928  0.13230291  1
  O  O51  1  0.00093202  0.23470659  0.36645952  1
  O  O52  1  0.34685902  0.20871176  0.70084449  1
  O  O53  1  0.84694696  0.79001516  0.79863466  1
  O  O54  1  0.65305304  0.79001516  0.29863466  1
  O  O55  1  0.15314098  0.20871176  0.20084449  1
  O  O56  1  0.99477335  0.31134630  0.82930558  1
  O  O57  1  0.49609578  0.68745107  0.66711072  1
  O  O58  1  0.00390422  0.68745107  0.16711072  1
  O  O59  1  0.50522665  0.31134630  0.32930558  1
  F  F60  1  0.43275034  0.95879909  0.76745574  1
  F  F61  1  0.93343756  0.03883330  0.73158655  1
  F  F62  1  0.56656244  0.03883330  0.23158655  1
  F  F63  1  0.06724966  0.95879909  0.26745574  1
