# generated using pymatgen
data_Ba2Pb(SO4)3
_symmetry_space_group_name_H-M   'P 1'
_cell_length_a   5.54378911
_cell_length_b   11.39740424
_cell_length_c   16.97527490
_cell_angle_alpha   97.38613148
_cell_angle_beta   90.00000000
_cell_angle_gamma   90.00000000
_symmetry_Int_Tables_number   1
_chemical_formula_structural   Ba2Pb(SO4)3
_chemical_formula_sum   'Ba8 Pb4 S12 O48'
_cell_volume   1063.67950998
_cell_formula_units_Z   4
loop_
 _symmetry_equiv_pos_site_id
 _symmetry_equiv_pos_as_xyz
  1  'x, y, z'
loop_
 _atom_site_type_symbol
 _atom_site_label
 _atom_site_symmetry_multiplicity
 _atom_site_fract_x
 _atom_site_fract_y
 _atom_site_fract_z
 _atom_site_occupancy
  Ba  Ba0  1  0.25000000  0.84370325  0.34230981  1
  Ba  Ba1  1  0.25000000  0.50996251  0.67624575  1
  Ba  Ba2  1  0.75000000  0.43126787  0.88716328  1
  Ba  Ba3  1  0.75000000  0.09714321  0.21906576  1
  Ba  Ba4  1  0.75000000  0.76437111  0.55346157  1
  Ba  Ba5  1  0.75000000  0.82612068  0.99122903  1
  Ba  Ba6  1  0.75000000  0.48996669  0.32397337  1
  Ba  Ba7  1  0.75000000  0.15697531  0.65835824  1
  Pb  Pb8  1  0.25000000  0.57110714  0.11831621  1
  Pb  Pb9  1  0.25000000  0.23669563  0.45129162  1
  Pb  Pb10  1  0.25000000  0.90548029  0.78638009  1
  Pb  Pb11  1  0.25000000  0.18175756  0.00876196  1
  S  S12  1  0.75000000  0.06224596  0.87454110  1
  S  S13  1  0.75000000  0.72489267  0.20577868  1
  S  S14  1  0.75000000  0.39168447  0.53946178  1
  S  S15  1  0.75000000  0.69181397  0.75099349  1
  S  S16  1  0.75000000  0.35305095  0.08299695  1
  S  S17  1  0.75000000  0.02507678  0.41770909  1
  S  S18  1  0.25000000  0.60356671  0.45766466  1
  S  S19  1  0.25000000  0.26856788  0.79255437  1
  S  S20  1  0.25000000  0.93910081  0.12350725  1
  S  S21  1  0.25000000  0.97932203  0.58429845  1
  S  S22  1  0.25000000  0.64582413  0.91783686  1
  S  S23  1  0.25000000  0.31222331  0.24940309  1
  O  O24  1  0.97119898  0.01102574  0.90951270  1
  O  O25  1  0.97026286  0.67179185  0.23961330  1
  O  O26  1  0.97011534  0.33876952  0.57342883  1
  O  O27  1  0.53011176  0.72317245  0.70601436  1
  O  O28  1  0.52889294  0.38301433  0.03734280  1
  O  O29  1  0.53010311  0.05660506  0.37270814  1
  O  O30  1  0.46842315  0.65579237  0.42296998  1
  O  O31  1  0.46802183  0.32213245  0.75846416  1
  O  O32  1  0.46827495  0.99122275  0.08900343  1
  O  O33  1  0.03171851  0.95158835  0.63074759  1
  O  O34  1  0.03178284  0.61818669  0.96433169  1
  O  O35  1  0.03189997  0.28440208  0.29592600  1
  O  O36  1  0.03157685  0.65579237  0.42296998  1
  O  O37  1  0.03197817  0.32213245  0.75846416  1
  O  O38  1  0.03172505  0.99122275  0.08900343  1
  O  O39  1  0.46828149  0.95158835  0.63074759  1
  O  O40  1  0.46821716  0.61818669  0.96433169  1
  O  O41  1  0.46810003  0.28440208  0.29592600  1
  O  O42  1  0.52880102  0.01102574  0.90951270  1
  O  O43  1  0.52973714  0.67179185  0.23961330  1
  O  O44  1  0.52988466  0.33876952  0.57342883  1
  O  O45  1  0.96988824  0.72317245  0.70601436  1
  O  O46  1  0.97110706  0.38301433  0.03734280  1
  O  O47  1  0.96989689  0.05660506  0.37270814  1
  O  O48  1  0.75000000  0.02433299  0.78733332  1
  O  O49  1  0.75000000  0.69165919  0.11841435  1
  O  O50  1  0.75000000  0.35836238  0.45204289  1
  O  O51  1  0.75000000  0.56123603  0.75324577  1
  O  O52  1  0.75000000  0.22349677  0.08695028  1
  O  O53  1  0.75000000  0.89453841  0.41974749  1
  O  O54  1  0.25000000  0.63921575  0.54517422  1
  O  O55  1  0.25000000  0.30181727  0.88049953  1
  O  O56  1  0.25000000  0.97385401  0.21126675  1
  O  O57  1  0.25000000  0.10861052  0.57646097  1
  O  O58  1  0.25000000  0.77497596  0.90971591  1
  O  O59  1  0.25000000  0.44169592  0.24202472  1
  O  O60  1  0.75000000  0.52076101  0.56350643  1
  O  O61  1  0.75000000  0.19143127  0.89548561  1
  O  O62  1  0.75000000  0.85385522  0.23012840  1
  O  O63  1  0.75000000  0.75921304  0.83073935  1
  O  O64  1  0.75000000  0.42414129  0.16163086  1
  O  O65  1  0.75000000  0.09228423  0.49743975  1
  O  O66  1  0.25000000  0.13942014  0.76899946  1
  O  O67  1  0.25000000  0.80898999  0.10200073  1
  O  O68  1  0.25000000  0.47389949  0.43604033  1
  O  O69  1  0.25000000  0.90526639  0.50642399  1
  O  O70  1  0.25000000  0.57137560  0.84002279  1
  O  O71  1  0.25000000  0.23823896  0.17127769  1
