# generated using pymatgen
data_Fe(PdSe)2
_symmetry_space_group_name_H-M   'P 1'
_cell_length_a   5.09937445
_cell_length_b   5.95015359
_cell_length_c   6.63512367
_cell_angle_alpha   116.63998743
_cell_angle_beta   112.59850560
_cell_angle_gamma   89.99999998
_symmetry_Int_Tables_number   1
_chemical_formula_structural   Fe(PdSe)2
_chemical_formula_sum   'Fe2 Pd4 Se4'
_cell_volume   162.47282522
_cell_formula_units_Z   2
loop_
 _symmetry_equiv_pos_site_id
 _symmetry_equiv_pos_as_xyz
  1  'x, y, z'
loop_
 _atom_site_type_symbol
 _atom_site_label
 _atom_site_symmetry_multiplicity
 _atom_site_fract_x
 _atom_site_fract_y
 _atom_site_fract_z
 _atom_site_occupancy
  Fe  Fe0  1  0.75000000  0.00000000  0.00000000  1
  Fe  Fe1  1  0.25000000  0.00000000  0.00000000  1
  Se  Se2  1  0.64393503  0.94212399  0.28787007  1
  Se  Se3  1  0.35606497  0.05787601  0.71212993  1
  Se  Se4  1  0.14393503  0.34574608  0.28787007  1
  Se  Se5  1  0.85606497  0.65425392  0.71212993  1
  Pd  Pd6  1  0.88869010  0.26871085  0.77738021  1
  Pd  Pd7  1  0.11130990  0.73128915  0.22261979  1
  Pd  Pd8  1  0.61130990  0.49133064  0.22261979  1
  Pd  Pd9  1  0.38869010  0.50866936  0.77738021  1
