# generated using pymatgen
data_Ba2Pb(SO4)3
_symmetry_space_group_name_H-M   'P 1'
_cell_length_a   5.54751702
_cell_length_b   7.21350337
_cell_length_c   26.66186961
_cell_angle_alpha   90.30253217
_cell_angle_beta   90.00000000
_cell_angle_gamma   90.00000000
_symmetry_Int_Tables_number   1
_chemical_formula_structural   Ba2Pb(SO4)3
_chemical_formula_sum   'Ba8 Pb4 S12 O48'
_cell_volume   1066.91403533
_cell_formula_units_Z   4
loop_
 _symmetry_equiv_pos_site_id
 _symmetry_equiv_pos_as_xyz
  1  'x, y, z'
loop_
 _atom_site_type_symbol
 _atom_site_label
 _atom_site_symmetry_multiplicity
 _atom_site_fract_x
 _atom_site_fract_y
 _atom_site_fract_z
 _atom_site_occupancy
  Ba  Ba0  1  0.25000000  0.15864741  0.39518028  1
  Ba  Ba1  1  0.25000000  0.15870371  0.72854267  1
  Ba  Ba2  1  0.75000000  0.65871823  0.10525797  1
  Ba  Ba3  1  0.75000000  0.65821989  0.43909135  1
  Ba  Ba4  1  0.75000000  0.65827014  0.77246814  1
  Ba  Ba5  1  0.75000000  0.84153581  0.27137268  1
  Ba  Ba6  1  0.75000000  0.84125118  0.60500714  1
  Ba  Ba7  1  0.75000000  0.84132963  0.93890642  1
  Pb  Pb8  1  0.25000000  0.33260268  0.22933104  1
  Pb  Pb9  1  0.25000000  0.33328759  0.56302535  1
  Pb  Pb10  1  0.25000000  0.33368686  0.89685876  1
  Pb  Pb11  1  0.25000000  0.16719942  0.06323245  1
  S  S12  1  0.75000000  0.31345415  0.31075590  1
  S  S13  1  0.75000000  0.31333427  0.64416023  1
  S  S14  1  0.75000000  0.31312724  0.97898305  1
  S  S15  1  0.75000000  0.18681095  0.14559317  1
  S  S16  1  0.75000000  0.18925298  0.48049203  1
  S  S17  1  0.75000000  0.18929853  0.81391457  1
  S  S18  1  0.25000000  0.68747181  0.02061090  1
  S  S19  1  0.25000000  0.68787780  0.35379100  1
  S  S20  1  0.25000000  0.68795755  0.68717234  1
  S  S21  1  0.25000000  0.81252718  0.18720883  1
  S  S22  1  0.25000000  0.81103699  0.52105699  1
  S  S23  1  0.25000000  0.81110085  0.85445030  1
  O  O24  1  0.75000000  0.45341291  0.27020278  1
  O  O25  1  0.75000000  0.45328960  0.60360454  1
  O  O26  1  0.75000000  0.44910225  0.93728470  1
  O  O27  1  0.75000000  0.05023362  0.10364606  1
  O  O28  1  0.75000000  0.05401870  0.43794518  1
  O  O29  1  0.75000000  0.05403625  0.77135106  1
  O  O30  1  0.25000000  0.54415063  0.06125546  1
  O  O31  1  0.25000000  0.54923629  0.39505770  1
  O  O32  1  0.25000000  0.54927989  0.72840399  1
  O  O33  1  0.25000000  0.95628711  0.22810954  1
  O  O34  1  0.25000000  0.95511344  0.56173744  1
  O  O35  1  0.25000000  0.95536396  0.89510022  1
  O  O36  1  0.97051178  0.19176484  0.30469279  1
  O  O37  1  0.97047328  0.19165287  0.63811924  1
  O  O38  1  0.97161049  0.19120433  0.97382547  1
  O  O39  1  0.52837483  0.30873872  0.14048525  1
  O  O40  1  0.52984084  0.31127310  0.47590588  1
  O  O41  1  0.52979105  0.31126328  0.80931679  1
  O  O42  1  0.46830601  0.80903251  0.02688753  1
  O  O43  1  0.46873143  0.80991252  0.35938600  1
  O  O44  1  0.46870363  0.80999066  0.69276652  1
  O  O45  1  0.03171458  0.69112106  0.19333682  1
  O  O46  1  0.03153573  0.68996954  0.52699708  1
  O  O47  1  0.03148440  0.68999335  0.86044570  1
  O  O48  1  0.03169399  0.80903251  0.02688753  1
  O  O49  1  0.03126857  0.80991252  0.35938600  1
  O  O50  1  0.03129637  0.80999066  0.69276652  1
  O  O51  1  0.46828542  0.69112106  0.19333682  1
  O  O52  1  0.46846427  0.68996954  0.52699708  1
  O  O53  1  0.46851560  0.68999335  0.86044570  1
  O  O54  1  0.52948822  0.19176484  0.30469279  1
  O  O55  1  0.52952672  0.19165287  0.63811924  1
  O  O56  1  0.52838951  0.19120433  0.97382547  1
  O  O57  1  0.97162517  0.30873872  0.14048525  1
  O  O58  1  0.97015916  0.31127310  0.47590588  1
  O  O59  1  0.97020895  0.31126328  0.80931679  1
  O  O60  1  0.75000000  0.40049537  0.02917479  1
  O  O61  1  0.75000000  0.39552555  0.36172492  1
  O  O62  1  0.75000000  0.39554753  0.69510500  1
  O  O63  1  0.75000000  0.10024801  0.19556253  1
  O  O64  1  0.75000000  0.09767426  0.52974355  1
  O  O65  1  0.75000000  0.09761735  0.86319345  1
  O  O66  1  0.25000000  0.60023913  0.30339638  1
  O  O67  1  0.25000000  0.60039359  0.63675728  1
  O  O68  1  0.25000000  0.60248701  0.96986749  1
  O  O69  1  0.25000000  0.89714804  0.13664098  1
  O  O70  1  0.25000000  0.89540407  0.47048748  1
  O  O71  1  0.25000000  0.89515907  0.80385383  1
