# generated using pymatgen
data_AlBi3Sb2O11
_symmetry_space_group_name_H-M   'P 1'
_cell_length_a   9.48462785
_cell_length_b   9.56634717
_cell_length_c   9.56223169
_cell_angle_alpha   90.00000000
_cell_angle_beta   90.00000000
_cell_angle_gamma   90.05393654
_symmetry_Int_Tables_number   1
_chemical_formula_structural   AlBi3Sb2O11
_chemical_formula_sum   'Al4 Bi12 Sb8 O44'
_cell_volume   867.61190517
_cell_formula_units_Z   4
loop_
 _symmetry_equiv_pos_site_id
 _symmetry_equiv_pos_as_xyz
  1  'x, y, z'
loop_
 _atom_site_type_symbol
 _atom_site_label
 _atom_site_symmetry_multiplicity
 _atom_site_fract_x
 _atom_site_fract_y
 _atom_site_fract_z
 _atom_site_occupancy
  Al  Al0  1  0.09430845  0.25388866  0.75122544  1
  Al  Al1  1  0.74840382  0.09005553  0.24776567  1
  Al  Al2  1  0.59430845  0.75388866  0.24877456  1
  Al  Al3  1  0.24840382  0.59005553  0.75223433  1
  Bi  Bi4  1  0.49686875  0.51195006  0.99947518  1
  Bi  Bi5  1  0.51560410  0.99394369  0.47722517  1
  Bi  Bi6  1  0.01560410  0.49394369  0.52277483  1
  Bi  Bi7  1  0.99686875  0.01195006  0.00052482  1
  Bi  Bi8  1  0.88363474  0.87709598  0.61992165  1
  Bi  Bi9  1  0.89335514  0.62270340  0.87580041  1
  Bi  Bi10  1  0.61844836  0.87332378  0.88830452  1
  Bi  Bi11  1  0.60933087  0.62699638  0.61667328  1
  Bi  Bi12  1  0.10933087  0.12699638  0.38332672  1
  Bi  Bi13  1  0.11844836  0.37332378  0.11169548  1
  Bi  Bi14  1  0.39335514  0.12270340  0.12419959  1
  Bi  Bi15  1  0.38363474  0.37709598  0.38007835  1
  Sb  Sb16  1  0.39798135  0.25430682  0.74947651  1
  Sb  Sb17  1  0.74760323  0.40539041  0.25102065  1
  Sb  Sb18  1  0.25216472  0.74783560  0.09042458  1
  Sb  Sb19  1  0.25363884  0.74702375  0.40991710  1
  Sb  Sb20  1  0.89798135  0.75430682  0.25052349  1
  Sb  Sb21  1  0.24760323  0.90539041  0.74897935  1
  Sb  Sb22  1  0.75216472  0.24783560  0.90957542  1
  Sb  Sb23  1  0.75363884  0.24702375  0.59008290  1
  O  O24  1  0.64860805  0.64554506  0.85141404  1
  O  O25  1  0.64776607  0.85354124  0.64894618  1
  O  O26  1  0.85138806  0.64573136  0.64731864  1
  O  O27  1  0.85297601  0.85298803  0.85286445  1
  O  O28  1  0.35297601  0.35298803  0.14713555  1
  O  O29  1  0.35138806  0.14573136  0.35268136  1
  O  O30  1  0.14776607  0.35354124  0.35105382  1
  O  O31  1  0.14860805  0.14554506  0.14858596  1
  O  O32  1  0.08881812  0.04147120  0.75497284  1
  O  O33  1  0.09463796  0.46045331  0.74406371  1
  O  O34  1  0.41174162  0.03931332  0.75096161  1
  O  O35  1  0.40724460  0.46545541  0.75561409  1
  O  O36  1  0.75354615  0.08807843  0.04143749  1
  O  O37  1  0.74816367  0.08801874  0.45714431  1
  O  O38  1  0.74898330  0.41433783  0.03568255  1
  O  O39  1  0.74978951  0.41440050  0.46463855  1
  O  O40  1  0.03711646  0.75222833  0.08699067  1
  O  O41  1  0.46449091  0.74462739  0.09203939  1
  O  O42  1  0.03782607  0.74851757  0.41235804  1
  O  O43  1  0.46541439  0.75425226  0.40752763  1
  O  O44  1  0.90724460  0.96545541  0.24438591  1
  O  O45  1  0.91174162  0.53931332  0.24903839  1
  O  O46  1  0.59463796  0.96045331  0.25593629  1
  O  O47  1  0.58881812  0.54147120  0.24502716  1
  O  O48  1  0.24898330  0.91433783  0.96431745  1
  O  O49  1  0.24978951  0.91440050  0.53536145  1
  O  O50  1  0.25354615  0.58807843  0.95856251  1
  O  O51  1  0.24816367  0.58801874  0.54285569  1
  O  O52  1  0.96449091  0.24462739  0.90796061  1
  O  O53  1  0.53711646  0.25222833  0.91300933  1
  O  O54  1  0.96541439  0.25425226  0.59247237  1
  O  O55  1  0.53782607  0.24851757  0.58764196  1
  O  O56  1  0.11039918  0.74409779  0.74984614  1
  O  O57  1  0.38450386  0.74570760  0.75074154  1
  O  O58  1  0.75016747  0.10826268  0.74964306  1
  O  O59  1  0.75007602  0.38585108  0.75017094  1
  O  O60  1  0.74197120  0.75131058  0.11142567  1
  O  O61  1  0.74302894  0.75129623  0.38934464  1
  O  O62  1  0.88450386  0.24570760  0.24925846  1
  O  O63  1  0.61039918  0.24409779  0.25015386  1
  O  O64  1  0.25007602  0.88585108  0.24982906  1
  O  O65  1  0.25016747  0.60826268  0.25035694  1
  O  O66  1  0.24197120  0.25131058  0.88857433  1
  O  O67  1  0.24302894  0.25129623  0.61065536  1
