# generated using pymatgen
data_AgHg3SbO6
_symmetry_space_group_name_H-M   'P 1'
_cell_length_a   7.13292286
_cell_length_b   7.13292285
_cell_length_c   7.13292286
_cell_angle_alpha   87.87233632
_cell_angle_beta   87.87233635
_cell_angle_gamma   87.87233631
_symmetry_Int_Tables_number   1
_chemical_formula_structural   AgHg3SbO6
_chemical_formula_sum   'Ag2 Hg6 Sb2 O12'
_cell_volume   362.18054434
_cell_formula_units_Z   2
loop_
 _symmetry_equiv_pos_site_id
 _symmetry_equiv_pos_as_xyz
  1  'x, y, z'
loop_
 _atom_site_type_symbol
 _atom_site_label
 _atom_site_symmetry_multiplicity
 _atom_site_fract_x
 _atom_site_fract_y
 _atom_site_fract_z
 _atom_site_occupancy
  O  O0  1  0.78513500  0.50088638  0.49634204  1
  O  O1  1  0.50088638  0.49634204  0.78513500  1
  O  O2  1  0.49634204  0.78513500  0.50088638  1
  O  O3  1  0.00365796  0.99911362  0.71486500  1
  O  O4  1  0.99911362  0.71486500  0.00365796  1
  O  O5  1  0.71486500  0.00365796  0.99911362  1
  O  O6  1  0.21486500  0.49911362  0.50365796  1
  O  O7  1  0.49911362  0.50365796  0.21486500  1
  O  O8  1  0.50365796  0.21486500  0.49911362  1
  O  O9  1  0.99634204  0.00088638  0.28513500  1
  O  O10  1  0.28513500  0.99634204  0.00088638  1
  O  O11  1  0.00088638  0.28513500  0.99634204  1
  Ag  Ag12  1  0.25000000  0.25000000  0.25000000  1
  Ag  Ag13  1  0.75000000  0.75000000  0.75000000  1
  Sb  Sb14  1  0.00000000  0.00000000  0.00000000  1
  Sb  Sb15  1  0.50000000  0.50000000  0.50000000  1
  Hg  Hg16  1  0.75000000  0.40269008  0.09730992  1
  Hg  Hg17  1  0.40269008  0.09730992  0.75000000  1
  Hg  Hg18  1  0.25000000  0.59730992  0.90269008  1
  Hg  Hg19  1  0.59730992  0.90269008  0.25000000  1
  Hg  Hg20  1  0.09730992  0.75000000  0.40269008  1
  Hg  Hg21  1  0.90269008  0.25000000  0.59730992  1
