# generated using pymatgen
data_AlGa3N4
_symmetry_space_group_name_H-M   'P 1'
_cell_length_a   3.19312099
_cell_length_b   5.52885931
_cell_length_c   5.19139709
_cell_angle_alpha   90.03539101
_cell_angle_beta   90.00015726
_cell_angle_gamma   89.99874811
_symmetry_Int_Tables_number   1
_chemical_formula_structural   AlGa3N4
_chemical_formula_sum   'Al1 Ga3 N4'
_cell_volume   91.65055080
_cell_formula_units_Z   1
loop_
 _symmetry_equiv_pos_site_id
 _symmetry_equiv_pos_as_xyz
  1  'x, y, z'
loop_
 _atom_site_type_symbol
 _atom_site_label
 _atom_site_symmetry_multiplicity
 _atom_site_fract_x
 _atom_site_fract_y
 _atom_site_fract_z
 _atom_site_occupancy
  Al  Al0  1  -0.00000549  0.66732775  0.00032241  1
  Ga  Ga1  1  0.00000657  0.33511849  0.49942075  1
  Ga  Ga2  1  0.50000274  0.83138291  0.49925026  1
  Ga  Ga3  1  0.49999652  0.16627430  0.00029770  1
  N  N4  1  0.00000147  0.34115188  0.11937123  1
  N  N5  1  0.50000082  0.82539787  0.11673976  1
  N  N6  1  0.49999863  0.16611031  0.62032470  1
  N  N7  1  -0.00000125  0.66723650  0.63187320  1
