# generated using pymatgen
data_Sr4Al6SO16
_symmetry_space_group_name_H-M   'P 1'
_cell_length_a   8.15914167
_cell_length_b   8.15914167
_cell_length_c   8.15914167
_cell_angle_alpha   109.47122063
_cell_angle_beta   109.47122063
_cell_angle_gamma   109.47122064
_symmetry_Int_Tables_number   1
_chemical_formula_structural   Sr4Al6SO16
_chemical_formula_sum   'Sr4 Al6 S1 O16'
_cell_volume   418.13019557
_cell_formula_units_Z   1
loop_
 _symmetry_equiv_pos_site_id
 _symmetry_equiv_pos_as_xyz
  1  'x, y, z'
loop_
 _atom_site_type_symbol
 _atom_site_label
 _atom_site_symmetry_multiplicity
 _atom_site_fract_x
 _atom_site_fract_y
 _atom_site_fract_z
 _atom_site_occupancy
  O  O0  1  0.39506520  0.00000000  0.69998723  1
  O  O1  1  0.30001277  0.69507797  0.30001277  1
  O  O2  1  0.69998723  0.00000000  0.39506520  1
  O  O3  1  0.30492203  0.60493480  0.60493480  1
  O  O4  1  0.60493480  0.60493480  0.30492203  1
  O  O5  1  0.69998723  0.39506520  0.00000000  1
  O  O6  1  0.69507797  0.30001277  0.30001277  1
  O  O7  1  0.39506520  0.69998723  0.00000000  1
  O  O8  1  0.00000000  0.69998723  0.39506520  1
  O  O9  1  0.30001277  0.30001277  0.69507797  1
  O  O10  1  0.00000000  0.39506520  0.69998723  1
  O  O11  1  0.81666601  0.81666601  0.81666601  1
  O  O12  1  0.00000000  0.18333399  0.00000000  1
  O  O13  1  0.00000000  0.00000000  0.18333399  1
  O  O14  1  0.18333399  0.00000000  0.00000000  1
  O  O15  1  0.60493480  0.30492203  0.60493480  1
  Al  Al16  1  0.75000000  0.25000000  0.50000000  1
  Al  Al17  1  0.50000000  0.75000000  0.25000000  1
  Al  Al18  1  0.75000000  0.50000000  0.25000000  1
  Al  Al19  1  0.25000000  0.75000000  0.50000000  1
  Al  Al20  1  0.25000000  0.50000000  0.75000000  1
  Al  Al21  1  0.50000000  0.25000000  0.75000000  1
  S  S22  1  0.00000000  0.00000000  0.00000000  1
  Sr  Sr23  1  0.00000000  0.00000000  0.60732697  1
  Sr  Sr24  1  0.60732697  0.00000000  0.00000000  1
  Sr  Sr25  1  0.00000000  0.60732697  0.00000000  1
  Sr  Sr26  1  0.39267303  0.39267303  0.39267303  1
