# generated using pymatgen
data_Ni8P3
_symmetry_space_group_name_H-M   'P 1'
_cell_length_a   13.19773143
_cell_length_b   13.19773144
_cell_length_c   13.19773143
_cell_angle_alpha   28.85543282
_cell_angle_beta   28.85543279
_cell_angle_gamma   28.85543280
_symmetry_Int_Tables_number   1
_chemical_formula_structural   Ni8P3
_chemical_formula_sum   'Ni32 P12'
_cell_volume   473.45414565
_cell_formula_units_Z   4
loop_
 _symmetry_equiv_pos_site_id
 _symmetry_equiv_pos_as_xyz
  1  'x, y, z'
loop_
 _atom_site_type_symbol
 _atom_site_label
 _atom_site_symmetry_multiplicity
 _atom_site_fract_x
 _atom_site_fract_y
 _atom_site_fract_z
 _atom_site_occupancy
  P  P0  1  0.03071028  0.34868205  0.71289595  1
  P  P1  1  0.34868205  0.71289595  0.03071028  1
  P  P2  1  0.71289595  0.03071028  0.34868205  1
  P  P3  1  0.21289595  0.84868205  0.53071028  1
  P  P4  1  0.84868205  0.53071028  0.21289595  1
  P  P5  1  0.53071028  0.21289595  0.84868205  1
  P  P6  1  0.62195140  0.62195140  0.62195140  1
  P  P7  1  0.12195140  0.12195140  0.12195140  1
  P  P8  1  0.93955361  0.93955361  0.93955361  1
  P  P9  1  0.43955361  0.43955361  0.43955361  1
  P  P10  1  0.78076507  0.78076507  0.78076507  1
  P  P11  1  0.28076507  0.28076507  0.28076507  1
  Ni  Ni12  1  0.43543232  0.90042016  0.66703969  1
  Ni  Ni13  1  0.66703969  0.43543232  0.90042016  1
  Ni  Ni14  1  0.89441010  0.12611930  0.66111488  1
  Ni  Ni15  1  0.66111488  0.89441010  0.12611930  1
  Ni  Ni16  1  0.12611930  0.66111488  0.89441010  1
  Ni  Ni17  1  0.62611930  0.39441010  0.16111488  1
  Ni  Ni18  1  0.16111488  0.62611930  0.39441010  1
  Ni  Ni19  1  0.39441010  0.16111488  0.62611930  1
  Ni  Ni20  1  0.42396275  0.79794498  0.07030848  1
  Ni  Ni21  1  0.07030848  0.42396275  0.79794498  1
  Ni  Ni22  1  0.79794498  0.07030848  0.42396275  1
  Ni  Ni23  1  0.29794498  0.92396275  0.57030848  1
  Ni  Ni24  1  0.57030848  0.29794498  0.92396275  1
  Ni  Ni25  1  0.92396275  0.57030848  0.29794498  1
  Ni  Ni26  1  0.99106031  0.26356551  0.63763445  1
  Ni  Ni27  1  0.63763445  0.99106031  0.26356551  1
  Ni  Ni28  1  0.26356551  0.63763445  0.99106031  1
  Ni  Ni29  1  0.76356551  0.49106031  0.13763445  1
  Ni  Ni30  1  0.13763445  0.76356551  0.49106031  1
  Ni  Ni31  1  0.49106031  0.13763445  0.76356551  1
  Ni  Ni32  1  0.90042016  0.66703969  0.43543232  1
  Ni  Ni33  1  0.40042016  0.93543232  0.16703969  1
  Ni  Ni34  1  0.93543232  0.16703969  0.40042016  1
  Ni  Ni35  1  0.16703969  0.40042016  0.93543232  1
  Ni  Ni36  1  0.72251954  0.72251954  0.72251954  1
  Ni  Ni37  1  0.22251954  0.22251954  0.22251954  1
  Ni  Ni38  1  0.56198750  0.56198750  0.56198750  1
  Ni  Ni39  1  0.06198750  0.06198750  0.06198750  1
  Ni  Ni40  1  0.83899155  0.83899155  0.83899155  1
  Ni  Ni41  1  0.33899155  0.33899155  0.33899155  1
  Ni  Ni42  1  0.49953011  0.49953011  0.49953011  1
  Ni  Ni43  1  0.99953011  0.99953011  0.99953011  1
