# generated using pymatgen
data_HoMg2
_symmetry_space_group_name_H-M   'P 1'
_cell_length_a   6.03719418
_cell_length_b   6.03719417
_cell_length_c   9.77546202
_cell_angle_alpha   90.00000000
_cell_angle_beta   90.00000000
_cell_angle_gamma   120.00000004
_symmetry_Int_Tables_number   1
_chemical_formula_structural   HoMg2
_chemical_formula_sum   'Ho4 Mg8'
_cell_volume   308.55899633
_cell_formula_units_Z   4
loop_
 _symmetry_equiv_pos_site_id
 _symmetry_equiv_pos_as_xyz
  1  'x, y, z'
loop_
 _atom_site_type_symbol
 _atom_site_label
 _atom_site_symmetry_multiplicity
 _atom_site_fract_x
 _atom_site_fract_y
 _atom_site_fract_z
 _atom_site_occupancy
  Mg  Mg0  1  0.82895846  0.65791692  0.75000000  1
  Mg  Mg1  1  0.17104154  0.82895846  0.25000000  1
  Mg  Mg2  1  0.65791692  0.82895846  0.25000000  1
  Mg  Mg3  1  0.34208308  0.17104154  0.75000000  1
  Mg  Mg4  1  0.00000000  0.00000000  0.00000000  1
  Mg  Mg5  1  0.00000000  0.00000000  0.50000000  1
  Mg  Mg6  1  0.17104154  0.34208308  0.25000000  1
  Mg  Mg7  1  0.82895846  0.17104154  0.75000000  1
  Ho  Ho8  1  0.33333333  0.66666667  0.93585439  1
  Ho  Ho9  1  0.66666667  0.33333333  0.43585439  1
  Ho  Ho10  1  0.66666667  0.33333333  0.06414561  1
  Ho  Ho11  1  0.33333333  0.66666667  0.56414561  1
