# generated using pymatgen
data_NaCd4(PO4)3
_symmetry_space_group_name_H-M   'P 1'
_cell_length_a   6.78568402
_cell_length_b   10.30602909
_cell_length_c   15.29403734
_cell_angle_alpha   90.00000000
_cell_angle_beta   90.00000000
_cell_angle_gamma   90.00000000
_symmetry_Int_Tables_number   1
_chemical_formula_structural   NaCd4(PO4)3
_chemical_formula_sum   'Na4 Cd16 P12 O48'
_cell_volume   1069.56490123
_cell_formula_units_Z   4
loop_
 _symmetry_equiv_pos_site_id
 _symmetry_equiv_pos_as_xyz
  1  'x, y, z'
loop_
 _atom_site_type_symbol
 _atom_site_label
 _atom_site_symmetry_multiplicity
 _atom_site_fract_x
 _atom_site_fract_y
 _atom_site_fract_z
 _atom_site_occupancy
  O  O0  1  0.23165252  0.39094181  0.25000000  1
  O  O1  1  0.73165252  0.10905819  0.25000000  1
  O  O2  1  0.26834748  0.89094181  0.75000000  1
  O  O3  1  0.76834748  0.60905819  0.75000000  1
  O  O4  1  0.94480848  0.55776964  0.25000000  1
  O  O5  1  0.44480848  0.94223036  0.25000000  1
  O  O6  1  0.55519152  0.05776964  0.75000000  1
  O  O7  1  0.05519152  0.44223036  0.75000000  1
  O  O8  1  0.08249809  0.64582318  0.66390431  1
  O  O9  1  0.58249809  0.85417682  0.83609569  1
  O  O10  1  0.41750191  0.14582318  0.33609569  1
  O  O11  1  0.91750191  0.35417682  0.16390431  1
  O  O12  1  0.91750191  0.35417682  0.33609569  1
  O  O13  1  0.41750191  0.14582318  0.16390431  1
  O  O14  1  0.58249809  0.85417682  0.66390431  1
  O  O15  1  0.08249809  0.64582318  0.83609569  1
  O  O16  1  0.89978804  0.78704098  0.98308920  1
  O  O17  1  0.39978804  0.71295902  0.51691080  1
  O  O18  1  0.60021196  0.28704098  0.01691080  1
  O  O19  1  0.67554986  0.96674627  0.04760951  1
  O  O20  1  0.10021196  0.21295902  0.48308920  1
  O  O21  1  0.60021196  0.28704098  0.48308920  1
  O  O22  1  0.39978804  0.71295902  0.98308920  1
  O  O23  1  0.89978804  0.78704098  0.51691080  1
  O  O24  1  0.78572667  0.76932744  0.13880746  1
  O  O25  1  0.28572667  0.73067256  0.36119254  1
  O  O26  1  0.71427333  0.26932744  0.86119254  1
  O  O27  1  0.21427333  0.23067256  0.63880746  1
  O  O28  1  0.21427333  0.23067256  0.86119254  1
  O  O29  1  0.71427333  0.26932744  0.63880746  1
  O  O30  1  0.28572667  0.73067256  0.13880746  1
  O  O31  1  0.78572667  0.76932744  0.36119254  1
  O  O32  1  0.01878478  0.95477393  0.39985760  1
  O  O33  1  0.51878478  0.54522607  0.10014240  1
  O  O34  1  0.48121522  0.45477393  0.60014240  1
  O  O35  1  0.98121522  0.04522607  0.89985760  1
  O  O36  1  0.98121522  0.04522607  0.60014240  1
  O  O37  1  0.48121522  0.45477393  0.89985760  1
  O  O38  1  0.51878478  0.54522607  0.39985760  1
  O  O39  1  0.01878478  0.95477393  0.10014240  1
  O  O40  1  0.67554986  0.96674627  0.45239049  1
  O  O41  1  0.17554986  0.53325373  0.04760951  1
  O  O42  1  0.82445014  0.46674627  0.54760951  1
  O  O43  1  0.32445014  0.03325373  0.95239049  1
  O  O44  1  0.32445014  0.03325373  0.54760951  1
  O  O45  1  0.82445014  0.46674627  0.95239049  1
  O  O46  1  0.17554986  0.53325373  0.45239049  1
  O  O47  1  0.10021196  0.21295902  0.01691080  1
  Na  Na48  1  0.54911598  0.72383289  0.25000000  1
  Na  Na49  1  0.04911598  0.77616711  0.25000000  1
  Na  Na50  1  0.95088402  0.22383289  0.75000000  1
  Na  Na51  1  0.45088402  0.27616711  0.75000000  1
  P  P52  1  0.15207586  0.13362691  0.93283644  1
  P  P53  1  0.65207586  0.36637309  0.56716356  1
  P  P54  1  0.34792414  0.63362691  0.06716356  1
  P  P55  1  0.84792414  0.86637309  0.43283644  1
  P  P56  1  0.00341683  0.41204570  0.25000000  1
  P  P57  1  0.50341683  0.08795430  0.25000000  1
  P  P58  1  0.49658317  0.91204570  0.75000000  1
  P  P59  1  0.99658317  0.58795430  0.75000000  1
  P  P60  1  0.15207586  0.13362691  0.56716356  1
  P  P61  1  0.65207586  0.36637309  0.93283644  1
  P  P62  1  0.34792414  0.63362691  0.43283644  1
  P  P63  1  0.84792414  0.86637309  0.06716356  1
  Cd  Cd64  1  0.85288559  0.55951833  0.09475278  1
  Cd  Cd65  1  0.35288559  0.94048167  0.40524722  1
  Cd  Cd66  1  0.64711441  0.05951833  0.90524722  1
  Cd  Cd67  1  0.14711441  0.44048167  0.59475278  1
  Cd  Cd68  1  0.14711441  0.44048167  0.90524722  1
  Cd  Cd69  1  0.64711441  0.05951833  0.59475278  1
  Cd  Cd70  1  0.35288559  0.94048167  0.09475278  1
  Cd  Cd71  1  0.85288559  0.55951833  0.40524722  1
  Cd  Cd72  1  0.66081631  0.65955716  0.89084740  1
  Cd  Cd73  1  0.16081631  0.84044284  0.60915260  1
  Cd  Cd74  1  0.83918369  0.15955716  0.10915260  1
  Cd  Cd75  1  0.33918369  0.34044284  0.39084740  1
  Cd  Cd76  1  0.33918369  0.34044284  0.10915260  1
  Cd  Cd77  1  0.83918369  0.15955716  0.39084740  1
  Cd  Cd78  1  0.16081631  0.84044284  0.89084740  1
  Cd  Cd79  1  0.66081631  0.65955716  0.60915260  1
