# generated using pymatgen
data_Sm4Si2Se3O7
_symmetry_space_group_name_H-M   'P 1'
_cell_length_a   11.15777363
_cell_length_b   11.15777364
_cell_length_c   11.15777363
_cell_angle_alpha   99.97684492
_cell_angle_beta   114.41701872
_cell_angle_gamma   114.41701875
_symmetry_Int_Tables_number   1
_chemical_formula_structural   Sm4Si2Se3O7
_chemical_formula_sum   'Sm16 Si8 Se12 O28'
_cell_volume   1047.84084626
_cell_formula_units_Z   4
loop_
 _symmetry_equiv_pos_site_id
 _symmetry_equiv_pos_as_xyz
  1  'x, y, z'
loop_
 _atom_site_type_symbol
 _atom_site_label
 _atom_site_symmetry_multiplicity
 _atom_site_fract_x
 _atom_site_fract_y
 _atom_site_fract_z
 _atom_site_occupancy
  O  O0  1  0.25000000  0.39155961  0.14155961  1
  O  O1  1  0.75000000  0.14155961  0.39155961  1
  O  O2  1  0.75000000  0.60844039  0.85844039  1
  O  O3  1  0.25000000  0.85844039  0.60844039  1
  O  O4  1  0.02176306  0.83066485  0.35242791  1
  O  O5  1  0.47823694  0.83066485  0.80890178  1
  O  O6  1  0.47823694  0.64757209  0.16933515  1
  O  O7  1  0.97823694  0.80890178  0.83066485  1
  O  O8  1  0.52176306  0.35242791  0.83066485  1
  O  O9  1  0.52176306  0.16933515  0.19109822  1
  O  O10  1  0.97823694  0.16933515  0.64757209  1
  O  O11  1  0.02176306  0.19109822  0.16933515  1
  O  O12  1  0.77086051  0.92075454  0.43123609  1
  O  O13  1  0.72913949  0.16037557  0.14989403  1
  O  O14  1  0.72913949  0.56876391  0.07924546  1
  O  O15  1  0.98951846  0.14989403  0.92075454  1
  O  O16  1  0.51048154  0.43123609  0.16037557  1
  O  O17  1  0.51048154  0.07924546  0.85010597  1
  O  O18  1  0.98951846  0.83962443  0.56876391  1
  O  O19  1  0.77086051  0.85010597  0.83962443  1
  O  O20  1  0.22913949  0.07924546  0.56876391  1
  O  O21  1  0.27086051  0.83962443  0.85010597  1
  O  O22  1  0.27086051  0.43123609  0.92075454  1
  O  O23  1  0.01048154  0.85010597  0.07924546  1
  O  O24  1  0.48951846  0.56876391  0.83962443  1
  O  O25  1  0.48951846  0.92075454  0.14989403  1
  O  O26  1  0.01048154  0.16037557  0.43123609  1
  O  O27  1  0.22913949  0.14989403  0.16037557  1
  Si  Si28  1  0.37424736  0.90671762  0.78096498  1
  Si  Si29  1  0.12575264  0.90671762  0.53247026  1
  Si  Si30  1  0.12575264  0.21903502  0.09328238  1
  Si  Si31  1  0.62575264  0.53247026  0.90671762  1
  Si  Si32  1  0.87424736  0.78096498  0.90671762  1
  Si  Si33  1  0.87424736  0.09328238  0.46752974  1
  Si  Si34  1  0.62575264  0.09328238  0.21903502  1
  Si  Si35  1  0.37424736  0.46752974  0.09328238  1
  Se  Se36  1  0.25000000  0.12500000  0.87500000  1
  Se  Se37  1  0.75000000  0.87500000  0.12500000  1
  Se  Se38  1  0.75000000  0.37500000  0.62500000  1
  Se  Se39  1  0.25000000  0.62500000  0.37500000  1
  Se  Se40  1  0.85438454  0.50000000  0.35438454  1
  Se  Se41  1  0.85438454  0.35438454  0.00000000  1
  Se  Se42  1  0.64561546  0.64561546  0.50000000  1
  Se  Se43  1  0.64561546  0.00000000  0.64561546  1
  Se  Se44  1  0.14561546  0.50000000  0.64561546  1
  Se  Se45  1  0.14561546  0.64561546  0.00000000  1
  Se  Se46  1  0.35438454  0.35438454  0.50000000  1
  Se  Se47  1  0.35438454  0.00000000  0.35438454  1
  Sm  Sm48  1  0.09508908  0.04754454  0.29754454  1
  Sm  Sm49  1  0.25000000  0.29754454  0.70245546  1
  Sm  Sm50  1  0.25000000  0.95245546  0.04754454  1
  Sm  Sm51  1  0.40491092  0.70245546  0.95245546  1
  Sm  Sm52  1  0.90491092  0.95245546  0.70245546  1
  Sm  Sm53  1  0.75000000  0.70245546  0.29754454  1
  Sm  Sm54  1  0.75000000  0.04754454  0.95245546  1
  Sm  Sm55  1  0.59508908  0.29754454  0.04754454  1
  Sm  Sm56  1  0.01066868  0.66662707  0.17729575  1
  Sm  Sm57  1  0.48933132  0.66662707  0.65595839  1
  Sm  Sm58  1  0.48933132  0.82270425  0.33337293  1
  Sm  Sm59  1  0.98933132  0.65595839  0.66662707  1
  Sm  Sm60  1  0.51066868  0.17729575  0.66662707  1
  Sm  Sm61  1  0.51066868  0.33337293  0.34404161  1
  Sm  Sm62  1  0.98933132  0.33337293  0.82270425  1
  Sm  Sm63  1  0.01066868  0.34404161  0.33337293  1
