# generated using pymatgen
data_Li3Nd2(BO3)3
_symmetry_space_group_name_H-M   'P 1'
_cell_length_a   5.84481765
_cell_length_b   8.92125639
_cell_length_c   14.22914747
_cell_angle_alpha   90.00000000
_cell_angle_beta   90.00000000
_cell_angle_gamma   103.95565756
_symmetry_Int_Tables_number   1
_chemical_formula_structural   Li3Nd2(BO3)3
_chemical_formula_sum   'Li12 Nd8 B12 O36'
_cell_volume   720.05164862
_cell_formula_units_Z   4
loop_
 _symmetry_equiv_pos_site_id
 _symmetry_equiv_pos_as_xyz
  1  'x, y, z'
loop_
 _atom_site_type_symbol
 _atom_site_label
 _atom_site_symmetry_multiplicity
 _atom_site_fract_x
 _atom_site_fract_y
 _atom_site_fract_z
 _atom_site_occupancy
  Li  Li0  1  0.07089501  0.49688107  0.33490922  1
  Li  Li1  1  0.84095260  0.79147135  0.11231415  1
  Li  Li2  1  0.65904740  0.70852865  0.61231415  1
  Li  Li3  1  0.15904740  0.20852865  0.88768585  1
  Li  Li4  1  0.34095260  0.29147135  0.38768585  1
  Li  Li5  1  0.57089501  0.99688107  0.16509078  1
  Li  Li6  1  0.92910499  0.50311893  0.66509078  1
  Li  Li7  1  0.42910499  0.00311893  0.83490922  1
  Li  Li8  1  0.70861080  0.28974373  0.28499563  1
  Li  Li9  1  0.79138920  0.21025627  0.78499563  1
  Li  Li10  1  0.29138920  0.71025627  0.71500437  1
  Li  Li11  1  0.20861080  0.78974373  0.21500437  1
  B  B12  1  0.75048696  0.01352403  0.98452232  1
  B  B13  1  0.40415150  0.51799412  0.17687467  1
  B  B14  1  0.09584850  0.98200588  0.67687467  1
  B  B15  1  0.59584850  0.48200588  0.82312533  1
  B  B16  1  0.90415150  0.01799412  0.32312533  1
  B  B17  1  0.74951304  0.48647597  0.48452232  1
  B  B18  1  0.25048696  0.51352403  0.51547768  1
  B  B19  1  0.24951304  0.98647597  0.01547768  1
  B  B20  1  0.91272045  0.52819050  0.16320441  1
  B  B21  1  0.58727955  0.97180950  0.66320441  1
  B  B22  1  0.08727955  0.47180950  0.83679559  1
  B  B23  1  0.41272045  0.02819050  0.33679559  1
  O  O24  1  0.22699693  0.91996454  0.10354259  1
  O  O25  1  0.19558330  0.35368011  0.50734416  1
  O  O26  1  0.69558330  0.85368011  0.99265584  1
  O  O27  1  0.80441670  0.64631989  0.49265584  1
  O  O28  1  0.72699693  0.41996454  0.39645741  1
  O  O29  1  0.30441670  0.14631989  0.00734416  1
  O  O30  1  0.77300307  0.08003546  0.89645741  1
  O  O31  1  0.27300307  0.58003546  0.60354259  1
  O  O32  1  0.86443940  0.36829513  0.16819295  1
  O  O33  1  0.63556060  0.13170487  0.66819295  1
  O  O34  1  0.13556060  0.63170487  0.83180705  1
  O  O35  1  0.36443940  0.86829513  0.33180705  1
  O  O36  1  0.93128856  0.59323212  0.07403100  1
  O  O37  1  0.56871144  0.90676788  0.57403100  1
  O  O38  1  0.06871144  0.40676788  0.92596900  1
  O  O39  1  0.43128856  0.09323212  0.42596900  1
  O  O40  1  0.93661938  0.62126217  0.24204558  1
  O  O41  1  0.56338062  0.87873783  0.74204558  1
  O  O42  1  0.06338062  0.37873783  0.75795442  1
  O  O43  1  0.43661938  0.12126217  0.25795442  1
  O  O44  1  0.38858262  0.43076031  0.09483011  1
  O  O45  1  0.11141738  0.06923969  0.59483011  1
  O  O46  1  0.61141738  0.56923969  0.90516989  1
  O  O47  1  0.88858262  0.93076031  0.40516989  1
  O  O48  1  0.35075816  0.44579823  0.26253615  1
  O  O49  1  0.14924184  0.05420177  0.76253615  1
  O  O50  1  0.64924184  0.55420177  0.73746385  1
  O  O51  1  0.28432386  0.60652229  0.43581803  1
  O  O52  1  0.46521238  0.67809630  0.16912755  1
  O  O53  1  0.03478762  0.82190370  0.66912755  1
  O  O54  1  0.53478762  0.32190370  0.83087245  1
  O  O55  1  0.96521238  0.17809630  0.33087245  1
  O  O56  1  0.78432386  0.10652229  0.06418197  1
  O  O57  1  0.71567614  0.39347771  0.56418197  1
  O  O58  1  0.21567614  0.89347771  0.93581803  1
  O  O59  1  0.85075816  0.94579823  0.23746385  1
  Nd  Nd60  1  0.18818179  0.84141168  0.49679375  1
  Nd  Nd61  1  0.31181821  0.65858832  0.99679375  1
  Nd  Nd62  1  0.81181821  0.15858832  0.50320625  1
  Nd  Nd63  1  0.68818179  0.34141168  0.00320625  1
  Nd  Nd64  1  0.63337353  0.69235856  0.33627832  1
  Nd  Nd65  1  0.86662647  0.80764144  0.83627832  1
  Nd  Nd66  1  0.36662647  0.30764144  0.66372168  1
  Nd  Nd67  1  0.13337353  0.19235856  0.16372168  1
