# generated using pymatgen
data_BaNd2MnS5
_symmetry_space_group_name_H-M   'P 1'
_cell_length_a   7.92389793
_cell_length_b   7.92389793
_cell_length_c   8.87166076
_cell_angle_alpha   116.52477940
_cell_angle_beta   116.52477937
_cell_angle_gamma   89.99999996
_symmetry_Int_Tables_number   1
_chemical_formula_structural   BaNd2MnS5
_chemical_formula_sum   'Ba2 Nd4 Mn2 S10'
_cell_volume   431.88160729
_cell_formula_units_Z   2
loop_
 _symmetry_equiv_pos_site_id
 _symmetry_equiv_pos_as_xyz
  1  'x, y, z'
loop_
 _atom_site_type_symbol
 _atom_site_label
 _atom_site_symmetry_multiplicity
 _atom_site_fract_x
 _atom_site_fract_y
 _atom_site_fract_z
 _atom_site_occupancy
  S  S0  1  0.48305382  0.98305382  0.26630003  1
  S  S1  1  0.21675379  0.71675379  0.73369997  1
  S  S2  1  0.51694618  0.01694618  0.73369997  1
  S  S3  1  0.71675379  0.51694618  0.73369997  1
  S  S4  1  0.01694618  0.21675379  0.73369997  1
  S  S5  1  0.28324621  0.48305382  0.26630003  1
  S  S6  1  0.98305382  0.78324621  0.26630003  1
  S  S7  1  0.78324621  0.28324621  0.26630003  1
  S  S8  1  0.00000000  0.00000000  0.00000000  1
  S  S9  1  0.50000000  0.50000000  0.00000000  1
  Mn  Mn10  1  0.75000000  0.25000000  0.50000000  1
  Mn  Mn11  1  0.25000000  0.75000000  0.50000000  1
  Ba  Ba12  1  0.75000000  0.75000000  0.50000000  1
  Ba  Ba13  1  0.25000000  0.25000000  0.50000000  1
  Nd  Nd14  1  0.66188617  0.83811383  0.00000000  1
  Nd  Nd15  1  0.16188617  0.66188617  0.00000000  1
  Nd  Nd16  1  0.83811383  0.33811383  0.00000000  1
  Nd  Nd17  1  0.33811383  0.16188617  0.00000000  1
