# generated using pymatgen
data_Ho5Ni19P12
_symmetry_space_group_name_H-M   'P 1'
_cell_length_a   12.05114143
_cell_length_b   12.05114143
_cell_length_c   3.72990277
_cell_angle_alpha   90.00000000
_cell_angle_beta   90.00000000
_cell_angle_gamma   120.00000003
_symmetry_Int_Tables_number   1
_chemical_formula_structural   Ho5Ni19P12
_chemical_formula_sum   'Ho5 Ni19 P12'
_cell_volume   469.12060535
_cell_formula_units_Z   1
loop_
 _symmetry_equiv_pos_site_id
 _symmetry_equiv_pos_as_xyz
  1  'x, y, z'
loop_
 _atom_site_type_symbol
 _atom_site_label
 _atom_site_symmetry_multiplicity
 _atom_site_fract_x
 _atom_site_fract_y
 _atom_site_fract_z
 _atom_site_occupancy
  P  P0  1  0.68732874  0.52059253  0.50000000  1
  P  P1  1  0.47940747  0.16673621  0.50000000  1
  P  P2  1  0.83326379  0.31267126  0.50000000  1
  P  P3  1  0.31267126  0.83326379  0.50000000  1
  P  P4  1  0.16673621  0.47940747  0.50000000  1
  P  P5  1  0.82184795  0.82184795  0.00000000  1
  P  P6  1  0.17815205  0.00000000  0.00000000  1
  P  P7  1  0.00000000  0.63262343  0.00000000  1
  P  P8  1  0.36737657  0.36737657  0.00000000  1
  P  P9  1  0.63262343  0.00000000  0.00000000  1
  P  P10  1  0.52059253  0.68732874  0.50000000  1
  P  P11  1  0.00000000  0.17815205  0.00000000  1
  Ni  Ni12  1  0.00000000  0.28457401  0.50000000  1
  Ni  Ni13  1  0.37998645  0.18259485  0.00000000  1
  Ni  Ni14  1  0.80260840  0.62001355  0.00000000  1
  Ni  Ni15  1  0.81740515  0.19739160  0.00000000  1
  Ni  Ni16  1  0.18259485  0.37998645  0.00000000  1
  Ni  Ni17  1  0.19739160  0.81740515  0.00000000  1
  Ni  Ni18  1  0.87482185  0.51466250  0.50000000  1
  Ni  Ni19  1  0.63984066  0.12517815  0.50000000  1
  Ni  Ni20  1  0.48533750  0.36015934  0.50000000  1
  Ni  Ni21  1  0.36015934  0.48533750  0.50000000  1
  Ni  Ni22  1  0.12517815  0.63984066  0.50000000  1
  Ni  Ni23  1  0.51466250  0.87482185  0.50000000  1
  Ni  Ni24  1  0.28457401  0.00000000  0.50000000  1
  Ni  Ni25  1  0.00000000  0.44700716  0.00000000  1
  Ni  Ni26  1  0.55299284  0.55299284  0.00000000  1
  Ni  Ni27  1  0.44700716  0.00000000  0.00000000  1
  Ni  Ni28  1  0.00000000  0.00000000  0.00000000  1
  Ni  Ni29  1  0.62001355  0.80260840  0.00000000  1
  Ni  Ni30  1  0.71542599  0.71542599  0.50000000  1
  Ho  Ho31  1  0.00000000  0.81220982  0.50000000  1
  Ho  Ho32  1  0.18779018  0.18779018  0.50000000  1
  Ho  Ho33  1  0.81220982  0.00000000  0.50000000  1
  Ho  Ho34  1  0.66666667  0.33333333  0.00000000  1
  Ho  Ho35  1  0.33333333  0.66666667  0.00000000  1
