# generated using pymatgen
data_SrCu2GeSe4
_symmetry_space_group_name_H-M   'P 1'
_cell_length_a   6.35397496
_cell_length_b   6.35397496
_cell_length_c   10.89029661
_cell_angle_alpha   90.00000000
_cell_angle_beta   90.00000000
_cell_angle_gamma   117.21154305
_symmetry_Int_Tables_number   1
_chemical_formula_structural   SrCu2GeSe4
_chemical_formula_sum   'Sr2 Cu4 Ge2 Se8'
_cell_volume   391.01268717
_cell_formula_units_Z   2
loop_
 _symmetry_equiv_pos_site_id
 _symmetry_equiv_pos_as_xyz
  1  'x, y, z'
loop_
 _atom_site_type_symbol
 _atom_site_label
 _atom_site_symmetry_multiplicity
 _atom_site_fract_x
 _atom_site_fract_y
 _atom_site_fract_z
 _atom_site_occupancy
  Cu  Cu0  1  0.36846710  0.80870926  0.37017758  1
  Cu  Cu1  1  0.80870926  0.36846710  0.62982242  1
  Cu  Cu2  1  0.80870926  0.36846710  0.87017758  1
  Cu  Cu3  1  0.36846710  0.80870926  0.12982242  1
  Ge  Ge4  1  0.73635937  0.44142027  0.25000000  1
  Ge  Ge5  1  0.44142027  0.73635937  0.75000000  1
  Se  Se6  1  0.69759288  0.80274537  0.25000000  1
  Se  Se7  1  0.80274537  0.69759288  0.75000000  1
  Se  Se8  1  0.98926408  0.47929946  0.42416686  1
  Se  Se9  1  0.47929946  0.98926408  0.57583314  1
  Se  Se10  1  0.98926408  0.47929946  0.07583314  1
  Se  Se11  1  0.47929946  0.98926408  0.92416686  1
  Se  Se12  1  0.12641112  0.33572622  0.75000000  1
  Se  Se13  1  0.33572622  0.12641112  0.25000000  1
  Sr  Sr14  1  0.98743248  0.98743248  0.50000000  1
  Sr  Sr15  1  0.98743248  0.98743248  0.00000000  1
