# generated using pymatgen
data_SmCd(BO2)5
_symmetry_space_group_name_H-M   'P 1'
_cell_length_a   7.98028698
_cell_length_b   8.70857805
_cell_length_c   9.63746191
_cell_angle_alpha   92.05071965
_cell_angle_beta   90.00000000
_cell_angle_gamma   90.00000000
_symmetry_Int_Tables_number   1
_chemical_formula_structural   SmCd(BO2)5
_chemical_formula_sum   'Sm4 Cd4 B20 O40'
_cell_volume   669.34526544
_cell_formula_units_Z   4
loop_
 _symmetry_equiv_pos_site_id
 _symmetry_equiv_pos_as_xyz
  1  'x, y, z'
loop_
 _atom_site_type_symbol
 _atom_site_label
 _atom_site_symmetry_multiplicity
 _atom_site_fract_x
 _atom_site_fract_y
 _atom_site_fract_z
 _atom_site_occupancy
  B  B0  1  0.42620334  0.08384352  0.75218460  1
  B  B1  1  0.82538250  0.56526501  0.09445055  1
  B  B2  1  0.32538250  0.93473499  0.40554945  1
  B  B3  1  0.17461750  0.43473499  0.90554945  1
  B  B4  1  0.67461750  0.06526501  0.59445055  1
  B  B5  1  0.10553318  0.65632632  0.51105021  1
  B  B6  1  0.60553318  0.84367368  0.98894979  1
  B  B7  1  0.89446682  0.34367368  0.48894979  1
  B  B8  1  0.39446682  0.15632632  0.01105021  1
  B  B9  1  0.92620334  0.41615648  0.74781540  1
  B  B10  1  0.57379666  0.91615648  0.24781540  1
  B  B11  1  0.07379666  0.58384352  0.25218460  1
  B  B12  1  0.67618451  0.51718756  0.59480880  1
  B  B13  1  0.17618451  0.98281244  0.90519120  1
  B  B14  1  0.32381549  0.48281244  0.40519120  1
  B  B15  1  0.82381549  0.01718756  0.09480880  1
  B  B16  1  0.46965140  0.27915321  0.55821208  1
  B  B17  1  0.96965140  0.22084679  0.94178792  1
  B  B18  1  0.53034860  0.72084679  0.44178792  1
  B  B19  1  0.03034860  0.77915321  0.05821208  1
  O  O20  1  0.79463521  0.53276131  0.71769033  1
  O  O21  1  0.32912428  0.50592897  0.91943598  1
  O  O22  1  0.82912428  0.99407103  0.58056402  1
  O  O23  1  0.67087572  0.49407103  0.08056402  1
  O  O24  1  0.17087572  0.00592897  0.41943598  1
  O  O25  1  0.55992100  0.75379847  0.87665845  1
  O  O26  1  0.05992100  0.74620153  0.62334155  1
  O  O27  1  0.44007900  0.24620153  0.12334155  1
  O  O28  1  0.29463521  0.96723869  0.78230967  1
  O  O29  1  0.94007900  0.25379847  0.37665845  1
  O  O30  1  0.70536479  0.03276131  0.21769033  1
  O  O31  1  0.20536479  0.46723869  0.28230967  1
  O  O32  1  0.46788411  0.17087456  0.88345874  1
  O  O33  1  0.96788411  0.32912544  0.61654126  1
  O  O34  1  0.53211589  0.82912544  0.11654126  1
  O  O35  1  0.03211589  0.67087456  0.38345874  1
  O  O36  1  0.58137501  0.00930879  0.70239093  1
  O  O37  1  0.08137501  0.49069121  0.79760907  1
  O  O38  1  0.41862499  0.99069121  0.29760907  1
  O  O39  1  0.91862499  0.50930879  0.20239093  1
  O  O40  1  0.36226689  0.19057916  0.64950088  1
  O  O41  1  0.86226689  0.30942084  0.85049912  1
  O  O42  1  0.63773311  0.80942084  0.35049912  1
  O  O43  1  0.13773311  0.69057916  0.14950088  1
  O  O44  1  0.53387845  0.41881509  0.63721786  1
  O  O45  1  0.03387845  0.08118491  0.86278214  1
  O  O46  1  0.46612155  0.58118491  0.36278214  1
  O  O47  1  0.96612155  0.91881509  0.13721786  1
  O  O48  1  0.61608070  0.67601302  0.57302023  1
  O  O49  1  0.11608070  0.82398698  0.92697977  1
  O  O50  1  0.38391930  0.32398698  0.42697977  1
  O  O51  1  0.88291943  0.67977044  0.01213233  1
  O  O52  1  0.76579139  0.45020221  0.47292427  1
  O  O53  1  0.26579139  0.04979779  0.02707573  1
  O  O54  1  0.23420861  0.54979779  0.52707573  1
  O  O55  1  0.73420861  0.95020221  0.97292427  1
  O  O56  1  0.61708057  0.17977044  0.51213233  1
  O  O57  1  0.11708057  0.32022956  0.98786767  1
  O  O58  1  0.38291943  0.82022956  0.48786767  1
  O  O59  1  0.88391930  0.17601302  0.07302023  1
  Cd  Cd60  1  0.59495537  0.39817033  0.87125806  1
  Cd  Cd61  1  0.09495537  0.10182967  0.62874194  1
  Cd  Cd62  1  0.40504463  0.60182967  0.12874194  1
  Cd  Cd63  1  0.90504463  0.89817033  0.37125806  1
  Sm  Sm64  1  0.81690854  0.80765530  0.75969134  1
  Sm  Sm65  1  0.31690854  0.69234470  0.74030866  1
  Sm  Sm66  1  0.18309146  0.19234470  0.24030866  1
  Sm  Sm67  1  0.68309146  0.30765530  0.25969134  1
