# generated using pymatgen
data_Nb4GaSe8
_symmetry_space_group_name_H-M   'P 1'
_cell_length_a   7.46376502
_cell_length_b   7.46376502
_cell_length_c   7.46376502
_cell_angle_alpha   60.00000000
_cell_angle_beta   59.99999998
_cell_angle_gamma   60.00000001
_symmetry_Int_Tables_number   1
_chemical_formula_structural   Nb4GaSe8
_chemical_formula_sum   'Nb4 Ga1 Se8'
_cell_volume   294.00781622
_cell_formula_units_Z   1
loop_
 _symmetry_equiv_pos_site_id
 _symmetry_equiv_pos_as_xyz
  1  'x, y, z'
loop_
 _atom_site_type_symbol
 _atom_site_label
 _atom_site_symmetry_multiplicity
 _atom_site_fract_x
 _atom_site_fract_y
 _atom_site_fract_z
 _atom_site_occupancy
  Ga  Ga0  1  0.00000000  0.00000000  0.00000000  1
  Se  Se1  1  0.13520518  0.59438446  0.13520518  1
  Se  Se2  1  0.59438446  0.13520518  0.13520518  1
  Se  Se3  1  0.13520518  0.13520518  0.59438446  1
  Se  Se4  1  0.63473314  0.63473314  0.63473314  1
  Se  Se5  1  0.63473314  0.63473314  0.09580059  1
  Se  Se6  1  0.09580059  0.63473314  0.63473314  1
  Se  Se7  1  0.63473314  0.09580059  0.63473314  1
  Se  Se8  1  0.13520518  0.13520518  0.13520518  1
  Nb  Nb9  1  0.39723895  0.80828314  0.39723895  1
  Nb  Nb10  1  0.80828314  0.39723895  0.39723895  1
  Nb  Nb11  1  0.39723895  0.39723895  0.80828314  1
  Nb  Nb12  1  0.39723895  0.39723895  0.39723895  1
