# generated using pymatgen
data_C3S2(OF2)2
_symmetry_space_group_name_H-M   'P 1'
_cell_length_a   5.42539946
_cell_length_b   6.33085495
_cell_length_c   24.34908083
_cell_angle_alpha   90.00000000
_cell_angle_beta   90.00000000
_cell_angle_gamma   107.05849029
_symmetry_Int_Tables_number   1
_chemical_formula_structural   C3S2(OF2)2
_chemical_formula_sum   'C12 S8 O8 F16'
_cell_volume   799.53444264
_cell_formula_units_Z   4
loop_
 _symmetry_equiv_pos_site_id
 _symmetry_equiv_pos_as_xyz
  1  'x, y, z'
loop_
 _atom_site_type_symbol
 _atom_site_label
 _atom_site_symmetry_multiplicity
 _atom_site_fract_x
 _atom_site_fract_y
 _atom_site_fract_z
 _atom_site_occupancy
  C  C0  1  0.25906250  0.26547566  0.43790716  1
  C  C1  1  0.24093750  0.23452434  0.93790716  1
  C  C2  1  0.75906250  0.76547566  0.06209284  1
  C  C3  1  0.67179523  0.64886321  0.11832858  1
  C  C4  1  0.32820477  0.35113679  0.88167142  1
  C  C5  1  0.42203861  0.10339209  0.17814355  1
  C  C6  1  0.92203861  0.60339209  0.32185645  1
  C  C7  1  0.17179523  0.14886321  0.38167142  1
  C  C8  1  0.74093750  0.73452434  0.56209284  1
  C  C9  1  0.57796139  0.89660791  0.82185645  1
  C  C10  1  0.07796139  0.39660791  0.67814355  1
  C  C11  1  0.82820477  0.85113679  0.61832858  1
  S  S12  1  0.65598903  0.52476859  0.88467282  1
  S  S13  1  0.80380295  0.83132593  0.30896376  1
  S  S14  1  0.15598903  0.02476859  0.61532718  1
  S  S15  1  0.69619705  0.66867407  0.80896376  1
  S  S16  1  0.19619705  0.16867407  0.69103624  1
  S  S17  1  0.34401197  0.47523141  0.11532718  1
  S  S18  1  0.30380295  0.33132593  0.19103624  1
  S  S19  1  0.84401097  0.97523141  0.38467282  1
  O  O20  1  0.51996865  0.05261898  0.13822719  1
  O  O21  1  0.01996865  0.55261898  0.36177281  1
  O  O22  1  0.18012320  0.32997337  0.84353157  1
  O  O23  1  0.68012320  0.82997337  0.65646843  1
  O  O24  1  0.98003135  0.44738102  0.63822719  1
  O  O25  1  0.48003135  0.94738102  0.86177281  1
  O  O26  1  0.81987680  0.67002663  0.15646843  1
  O  O27  1  0.31987680  0.17002663  0.34353157  1
  F  F28  1  0.05906738  0.03927171  0.93098121  1
  F  F29  1  0.55816782  0.79887877  0.03375736  1
  F  F30  1  0.88430659  0.47965209  0.27449257  1
  F  F31  1  0.94093262  0.96072829  0.06901879  1
  F  F32  1  0.55906738  0.53927171  0.56901879  1
  F  F33  1  0.63770386  0.86706265  0.53109616  1
  F  F34  1  0.44093262  0.46072829  0.43098121  1
  F  F35  1  0.38430659  0.97965209  0.22550743  1
  F  F36  1  0.36229614  0.13293735  0.46890384  1
  F  F37  1  0.13770386  0.36706265  0.96890384  1
  F  F38  1  0.94183218  0.70112123  0.53375736  1
  F  F39  1  0.86229614  0.63293735  0.03109616  1
  F  F40  1  0.05816782  0.29887877  0.46624264  1
  F  F41  1  0.44183218  0.20112123  0.96624264  1
  F  F42  1  0.11569341  0.52034791  0.72550743  1
  F  F43  1  0.61569341  0.02034791  0.77449257  1
