# generated using pymatgen
data_LiZnPO4
_symmetry_space_group_name_H-M   'P 1'
_cell_length_a   8.58166027
_cell_length_b   8.58166027
_cell_length_c   8.58166027
_cell_angle_alpha   107.89095559
_cell_angle_beta   107.89095556
_cell_angle_gamma   107.89095564
_symmetry_Int_Tables_number   1
_chemical_formula_structural   LiZnPO4
_chemical_formula_sum   'Li6 Zn6 P6 O24'
_cell_volume   513.00243082
_cell_formula_units_Z   6
loop_
 _symmetry_equiv_pos_site_id
 _symmetry_equiv_pos_as_xyz
  1  'x, y, z'
loop_
 _atom_site_type_symbol
 _atom_site_label
 _atom_site_symmetry_multiplicity
 _atom_site_fract_x
 _atom_site_fract_y
 _atom_site_fract_z
 _atom_site_occupancy
  Li  Li0  1  0.42929189  0.61209095  0.21045558  1
  Li  Li1  1  0.72184385  0.12693651  0.89392905  1
  Li  Li2  1  0.12693651  0.89392905  0.72184385  1
  Li  Li3  1  0.89392905  0.72184385  0.12693651  1
  Li  Li4  1  0.61209095  0.21045558  0.42929189  1
  Li  Li5  1  0.21045558  0.42929189  0.61209095  1
  O  O6  1  0.68911958  0.68855454  0.36795033  1
  O  O7  1  0.36834973  0.30890800  0.64672337  1
  O  O8  1  0.64672337  0.36834973  0.30890800  1
  O  O9  1  0.02020130  0.07640878  0.74388034  1
  O  O10  1  0.07640878  0.74388034  0.02020130  1
  O  O11  1  0.74388034  0.02020130  0.07640878  1
  O  O12  1  0.97271417  0.30143114  0.97655974  1
  O  O13  1  0.30143114  0.97655974  0.97271417  1
  O  O14  1  0.97655974  0.97271417  0.30143114  1
  O  O15  1  0.30890800  0.64672337  0.36834973  1
  O  O16  1  0.36795033  0.68911958  0.68855454  1
  O  O17  1  0.68855454  0.36795033  0.68911958  1
  O  O18  1  0.64037893  0.58930453  0.92473550  1
  O  O19  1  0.92473550  0.64037893  0.58930453  1
  O  O20  1  0.58930453  0.92473550  0.64037893  1
  O  O21  1  0.29323624  0.35665530  0.01998766  1
  O  O22  1  0.01998766  0.29323624  0.35665530  1
  O  O23  1  0.35665530  0.01998766  0.29323624  1
  O  O24  1  0.39470127  0.76464972  0.08557296  1
  O  O25  1  0.08557296  0.39470127  0.76464972  1
  O  O26  1  0.76464972  0.08557296  0.39470127  1
  O  O27  1  0.58159967  0.27099179  0.90025026  1
  O  O28  1  0.90025026  0.58159967  0.27099179  1
  O  O29  1  0.27099179  0.90025026  0.58159967  1
  P  P30  1  0.87580863  0.09416786  0.28203093  1
  P  P31  1  0.09416786  0.28203093  0.87580863  1
  P  P32  1  0.28203093  0.87580863  0.09416786  1
  P  P33  1  0.38540356  0.79144107  0.56852861  1
  P  P34  1  0.79144107  0.56852861  0.38540356  1
  P  P35  1  0.56852861  0.38540356  0.79144107  1
  Zn  Zn36  1  0.23627811  0.05298925  0.45539254  1
  Zn  Zn37  1  0.05298925  0.45539254  0.23627811  1
  Zn  Zn38  1  0.45539254  0.23627811  0.05298925  1
  Zn  Zn39  1  0.76956394  0.94249696  0.53735585  1
  Zn  Zn40  1  0.94249696  0.53735585  0.76956394  1
  Zn  Zn41  1  0.53735585  0.76956394  0.94249696  1
