# generated using pymatgen
data_Yb5Sb3
_symmetry_space_group_name_H-M   'P 1'
_cell_length_a   8.26793911
_cell_length_b   9.57970825
_cell_length_c   12.51976073
_cell_angle_alpha   90.00000000
_cell_angle_beta   90.00000000
_cell_angle_gamma   90.00000000
_symmetry_Int_Tables_number   1
_chemical_formula_structural   Yb5Sb3
_chemical_formula_sum   'Yb20 Sb12'
_cell_volume   991.62069392
_cell_formula_units_Z   4
loop_
 _symmetry_equiv_pos_site_id
 _symmetry_equiv_pos_as_xyz
  1  'x, y, z'
loop_
 _atom_site_type_symbol
 _atom_site_label
 _atom_site_symmetry_multiplicity
 _atom_site_fract_x
 _atom_site_fract_y
 _atom_site_fract_z
 _atom_site_occupancy
  Sb  Sb0  1  0.43705668  0.01159321  0.82866254  1
  Sb  Sb1  1  0.93705668  0.98840679  0.67133746  1
  Sb  Sb2  1  0.56294332  0.51159321  0.17133746  1
  Sb  Sb3  1  0.06294332  0.48840679  0.32866254  1
  Sb  Sb4  1  0.56294332  0.98840679  0.17133746  1
  Sb  Sb5  1  0.06294332  0.01159321  0.32866254  1
  Sb  Sb6  1  0.43705668  0.48840679  0.82866254  1
  Sb  Sb7  1  0.93705668  0.51159321  0.67133746  1
  Sb  Sb8  1  0.07786085  0.75000000  0.01594995  1
  Sb  Sb9  1  0.57786085  0.25000000  0.48405005  1
  Sb  Sb10  1  0.92213915  0.25000000  0.98405005  1
  Sb  Sb11  1  0.42213915  0.75000000  0.51594995  1
  Yb  Yb12  1  0.46408418  0.75000000  0.99580453  1
  Yb  Yb13  1  0.96408418  0.25000000  0.50419547  1
  Yb  Yb14  1  0.53591582  0.25000000  0.00419547  1
  Yb  Yb15  1  0.03591582  0.75000000  0.49580453  1
  Yb  Yb16  1  0.65452601  0.75000000  0.70812933  1
  Yb  Yb17  1  0.15452601  0.25000000  0.79187067  1
  Yb  Yb18  1  0.34547399  0.25000000  0.29187067  1
  Yb  Yb19  1  0.84547399  0.75000000  0.20812933  1
  Yb  Yb20  1  0.31737726  0.75000000  0.27110916  1
  Yb  Yb21  1  0.81737726  0.25000000  0.22889084  1
  Yb  Yb22  1  0.68262274  0.25000000  0.72889084  1
  Yb  Yb23  1  0.18262274  0.75000000  0.77110916  1
  Yb  Yb24  1  0.30569106  0.45785800  0.57675382  1
  Yb  Yb25  1  0.80569106  0.54214200  0.92324618  1
  Yb  Yb26  1  0.69430894  0.95785800  0.42324618  1
  Yb  Yb27  1  0.19430894  0.04214200  0.07675382  1
  Yb  Yb28  1  0.69430894  0.54214200  0.42324618  1
  Yb  Yb29  1  0.19430894  0.45785800  0.07675382  1
  Yb  Yb30  1  0.30569106  0.04214200  0.57675382  1
  Yb  Yb31  1  0.80569106  0.95785800  0.92324618  1
