# generated using pymatgen
data_CaMg
_symmetry_space_group_name_H-M   'P 1'
_cell_length_a   13.58961617
_cell_length_b   3.61116138
_cell_length_c   8.20792748
_cell_angle_alpha   90.00000000
_cell_angle_beta   105.94923408
_cell_angle_gamma   90.00000000
_symmetry_Int_Tables_number   1
_chemical_formula_structural   CaMg
_chemical_formula_sum   'Ca6 Mg6'
_cell_volume   387.29277062
_cell_formula_units_Z   6
loop_
 _symmetry_equiv_pos_site_id
 _symmetry_equiv_pos_as_xyz
  1  'x, y, z'
loop_
 _atom_site_type_symbol
 _atom_site_label
 _atom_site_symmetry_multiplicity
 _atom_site_fract_x
 _atom_site_fract_y
 _atom_site_fract_z
 _atom_site_occupancy
  Ca  Ca0  1  0.38861616  0.00000000  0.25348502  1
  Ca  Ca1  1  0.16749445  0.50000000  0.32721464  1
  Ca  Ca2  1  0.05466447  -0.00000000  0.63514675  1
  Ca  Ca3  1  0.88861616  0.50000000  0.25348502  1
  Ca  Ca4  1  0.66749445  -0.00000000  0.32721464  1
  Ca  Ca5  1  0.55466447  0.50000000  0.63514675  1
  Mg  Mg6  1  0.99737696  -0.00000000  0.99520792  1
  Mg  Mg7  1  0.33286443  0.00000000  0.67857538  1
  Mg  Mg8  1  0.22565053  0.50000000  0.94370329  1
  Mg  Mg9  1  0.49737696  0.50000000  0.99520792  1
  Mg  Mg10  1  0.83286443  0.50000000  0.67857538  1
  Mg  Mg11  1  0.72565053  -0.00000000  0.94370329  1
