# generated using pymatgen
data_Ba3W2O9
_symmetry_space_group_name_H-M   'P 1'
_cell_length_a   7.63583746
_cell_length_b   7.63583745
_cell_length_c   7.63583746
_cell_angle_alpha   85.00306670
_cell_angle_beta   85.00306677
_cell_angle_gamma   85.00306674
_symmetry_Int_Tables_number   1
_chemical_formula_structural   Ba3W2O9
_chemical_formula_sum   'Ba6 W4 O18'
_cell_volume   440.41693854
_cell_formula_units_Z   2
loop_
 _symmetry_equiv_pos_site_id
 _symmetry_equiv_pos_as_xyz
  1  'x, y, z'
loop_
 _atom_site_type_symbol
 _atom_site_label
 _atom_site_symmetry_multiplicity
 _atom_site_fract_x
 _atom_site_fract_y
 _atom_site_fract_z
 _atom_site_occupancy
  O  O0  1  0.92953581  0.25341322  0.08812409  1
  O  O1  1  0.25341322  0.08812409  0.92953581  1
  O  O2  1  0.08812409  0.92953581  0.25341322  1
  O  O3  1  0.41187591  0.24658678  0.57046419  1
  O  O4  1  0.24658678  0.57046419  0.41187591  1
  O  O5  1  0.57046419  0.41187591  0.24658678  1
  O  O6  1  0.07046419  0.74658678  0.91187591  1
  O  O7  1  0.74658678  0.91187591  0.07046419  1
  O  O8  1  0.91187591  0.07046419  0.74658678  1
  O  O9  1  0.58812409  0.75341322  0.42953581  1
  O  O10  1  0.39491788  0.10508212  0.25000000  1
  O  O11  1  0.25000000  0.39491788  0.10508212  1
  O  O12  1  0.10508212  0.25000000  0.39491788  1
  O  O13  1  0.60508212  0.89491788  0.75000000  1
  O  O14  1  0.75000000  0.60508212  0.89491788  1
  O  O15  1  0.89491788  0.75000000  0.60508212  1
  O  O16  1  0.42953581  0.58812409  0.75341322  1
  O  O17  1  0.75341322  0.42953581  0.58812409  1
  Ba  Ba18  1  0.92009003  0.57990997  0.25000000  1
  Ba  Ba19  1  0.25000000  0.92009003  0.57990997  1
  Ba  Ba20  1  0.57990997  0.25000000  0.92009003  1
  Ba  Ba21  1  0.07990997  0.42009003  0.75000000  1
  Ba  Ba22  1  0.42009003  0.75000000  0.07990997  1
  Ba  Ba23  1  0.75000000  0.07990997  0.42009003  1
  W  W24  1  0.14648461  0.14648461  0.14648461  1
  W  W25  1  0.35351539  0.35351539  0.35351539  1
  W  W26  1  0.85351539  0.85351539  0.85351539  1
  W  W27  1  0.64648461  0.64648461  0.64648461  1
