# generated using pymatgen
data_Tm2V2O7
_symmetry_space_group_name_H-M   'P 1'
_cell_length_a   7.09187148
_cell_length_b   7.09187148
_cell_length_c   7.09187148
_cell_angle_alpha   60.00000001
_cell_angle_beta   59.99999999
_cell_angle_gamma   60.00000004
_symmetry_Int_Tables_number   1
_chemical_formula_structural   Tm2V2O7
_chemical_formula_sum   'Tm4 V4 O14'
_cell_volume   252.21306058
_cell_formula_units_Z   2
loop_
 _symmetry_equiv_pos_site_id
 _symmetry_equiv_pos_as_xyz
  1  'x, y, z'
loop_
 _atom_site_type_symbol
 _atom_site_label
 _atom_site_symmetry_multiplicity
 _atom_site_fract_x
 _atom_site_fract_y
 _atom_site_fract_z
 _atom_site_occupancy
  O  O0  1  0.87500000  0.87500000  0.87500000  1
  O  O1  1  0.12500000  0.12500000  0.12500000  1
  O  O2  1  0.83343401  0.83343401  0.41656599  1
  O  O3  1  0.58343401  0.58343401  0.16656599  1
  O  O4  1  0.41656599  0.83343401  0.83343401  1
  O  O5  1  0.83343401  0.41656599  0.83343401  1
  O  O6  1  0.41656599  0.83343401  0.41656599  1
  O  O7  1  0.83343401  0.41656599  0.41656599  1
  O  O8  1  0.41656599  0.41656599  0.83343401  1
  O  O9  1  0.58343401  0.16656599  0.16656599  1
  O  O10  1  0.16656599  0.58343401  0.58343401  1
  O  O11  1  0.58343401  0.16656599  0.58343401  1
  O  O12  1  0.16656599  0.58343401  0.16656599  1
  O  O13  1  0.16656599  0.16656599  0.58343401  1
  V  V14  1  0.50000000  0.00000000  0.50000000  1
  V  V15  1  0.00000000  0.50000000  0.50000000  1
  V  V16  1  0.50000000  0.50000000  0.00000000  1
  V  V17  1  0.50000000  0.50000000  0.50000000  1
  Tm  Tm18  1  0.00000000  0.50000000  0.00000000  1
  Tm  Tm19  1  0.50000000  0.00000000  0.00000000  1
  Tm  Tm20  1  0.00000000  0.00000000  0.50000000  1
  Tm  Tm21  1  0.00000000  0.00000000  0.00000000  1
