# generated using pymatgen
data_Na2ZnSiO4
_symmetry_space_group_name_H-M   'P 1'
_cell_length_a   5.34133474
_cell_length_b   7.11587412
_cell_length_c   11.05283455
_cell_angle_alpha   90.00000000
_cell_angle_beta   90.00000000
_cell_angle_gamma   90.00000000
_symmetry_Int_Tables_number   1
_chemical_formula_structural   Na2ZnSiO4
_chemical_formula_sum   'Na8 Zn4 Si4 O16'
_cell_volume   420.09907168
_cell_formula_units_Z   4
loop_
 _symmetry_equiv_pos_site_id
 _symmetry_equiv_pos_as_xyz
  1  'x, y, z'
loop_
 _atom_site_type_symbol
 _atom_site_label
 _atom_site_symmetry_multiplicity
 _atom_site_fract_x
 _atom_site_fract_y
 _atom_site_fract_z
 _atom_site_occupancy
  O  O0  1  0.26894571  0.97099234  0.94948645  1
  O  O1  1  0.73105429  0.47099234  0.05051355  1
  O  O2  1  0.23105429  0.97099234  0.44948645  1
  O  O3  1  0.76894571  0.47099234  0.55051355  1
  O  O4  1  0.71803363  0.30416317  0.82964446  1
  O  O5  1  0.28196637  0.80416317  0.17035554  1
  O  O6  1  0.78196637  0.30416317  0.32964446  1
  O  O7  1  0.21803363  0.80416317  0.67035554  1
  O  O8  1  0.89322003  0.02340806  0.10839769  1
  O  O9  1  0.10677997  0.52340806  0.89160231  1
  O  O10  1  0.60677997  0.02340806  0.60839769  1
  O  O11  1  0.16221336  0.18730150  0.64680253  1
  O  O12  1  0.66221336  0.68730150  0.85319747  1
  O  O13  1  0.33778664  0.18730150  0.14680253  1
  O  O14  1  0.83778664  0.68730150  0.35319747  1
  O  O15  1  0.39322003  0.52340806  0.39160231  1
  Na  Na16  1  0.25103549  0.49839702  0.08833771  1
  Na  Na17  1  0.71194174  0.74517375  0.15833897  1
  Na  Na18  1  0.21194174  0.24517375  0.34166103  1
  Na  Na19  1  0.78805826  0.74517375  0.65833897  1
  Na  Na20  1  0.74896451  0.99839702  0.91166229  1
  Na  Na21  1  0.24896451  0.49839702  0.58833771  1
  Na  Na22  1  0.75103549  0.99839702  0.41166229  1
  Na  Na23  1  0.28805826  0.24517375  0.84166103  1
  Si  Si24  1  0.20001274  0.99610564  0.09482047  1
  Si  Si25  1  0.29998726  0.99610564  0.59482047  1
  Si  Si26  1  0.79998726  0.49610564  0.90517953  1
  Si  Si27  1  0.70001274  0.49610564  0.40517953  1
  Zn  Zn28  1  0.70315348  0.24745852  0.15640049  1
  Zn  Zn29  1  0.29684652  0.74745852  0.84359951  1
  Zn  Zn30  1  0.79684652  0.24745852  0.65640049  1
  Zn  Zn31  1  0.20315348  0.74745852  0.34359951  1
