# generated using pymatgen
data_RbLi2Ga2(BO3)3
_symmetry_space_group_name_H-M   'P 1'
_cell_length_a   5.01098464
_cell_length_b   6.50329588
_cell_length_c   12.96151192
_cell_angle_alpha   92.91509665
_cell_angle_beta   90.00000000
_cell_angle_gamma   90.00000000
_symmetry_Int_Tables_number   1
_chemical_formula_structural   RbLi2Ga2(BO3)3
_chemical_formula_sum   'Rb2 Li4 Ga4 B6 O18'
_cell_volume   421.84208420
_cell_formula_units_Z   2
loop_
 _symmetry_equiv_pos_site_id
 _symmetry_equiv_pos_as_xyz
  1  'x, y, z'
loop_
 _atom_site_type_symbol
 _atom_site_label
 _atom_site_symmetry_multiplicity
 _atom_site_fract_x
 _atom_site_fract_y
 _atom_site_fract_z
 _atom_site_occupancy
  Li  Li0  1  0.17019301  0.49683169  0.86684257  1
  Li  Li1  1  0.17019301  0.50316831  0.63315743  1
  Li  Li2  1  0.82980699  0.50316831  0.13315743  1
  Li  Li3  1  0.82980699  0.49683169  0.36684257  1
  B  B4  1  0.33637557  0.50000000  0.25000000  1
  B  B5  1  0.66362443  0.50000000  0.75000000  1
  B  B6  1  0.81731636  0.19078909  0.95917082  1
  B  B7  1  0.81731636  0.80921091  0.54082918  1
  B  B8  1  0.18268364  0.80921091  0.04082918  1
  B  B9  1  0.18268364  0.19078909  0.45917082  1
  O  O10  1  0.08642491  0.24514515  0.94942869  1
  O  O11  1  0.91357509  0.75485485  0.05057131  1
  O  O12  1  0.18058216  0.59859985  0.32877151  1
  O  O13  1  0.91357509  0.24514515  0.44942869  1
  O  O14  1  0.81941784  0.40140015  0.67122849  1
  O  O15  1  0.81941784  0.59859985  0.82877151  1
  O  O16  1  0.29061642  0.03632236  0.39536247  1
  O  O17  1  0.29061642  0.96367764  0.10463753  1
  O  O18  1  0.70938358  0.96367764  0.60463753  1
  O  O19  1  0.70938358  0.03632236  0.89536247  1
  O  O20  1  0.66658613  0.70247749  0.46602726  1
  O  O21  1  0.66658613  0.29752251  0.03397274  1
  O  O22  1  0.33341387  0.29752251  0.53397274  1
  O  O23  1  0.33341387  0.70247749  0.96602726  1
  O  O24  1  0.39620495  0.50000000  0.75000000  1
  O  O25  1  0.60379505  0.50000000  0.25000000  1
  O  O26  1  0.18058216  0.40140015  0.17122849  1
  O  O27  1  0.08642491  0.75485485  0.55057131  1
  Ga  Ga28  1  0.68573905  0.76575590  0.93612814  1
  Ga  Ga29  1  0.68573905  0.23424410  0.56387186  1
  Ga  Ga30  1  0.31426095  0.23424410  0.06387186  1
  Ga  Ga31  1  0.31426095  0.76575590  0.43612814  1
  Rb  Rb32  1  0.21164179  0.00000000  0.75000000  1
  Rb  Rb33  1  0.78835821  0.00000000  0.25000000  1
