# generated using pymatgen
data_K3Na(WO4)2
_symmetry_space_group_name_H-M   'P 1'
_cell_length_a   6.20166550
_cell_length_b   6.20166550
_cell_length_c   15.57435421
_cell_angle_alpha   90.12212027
_cell_angle_beta   90.12212027
_cell_angle_gamma   59.70487048
_symmetry_Int_Tables_number   1
_chemical_formula_structural   K3Na(WO4)2
_chemical_formula_sum   'K6 Na2 W4 O16'
_cell_volume   517.19794320
_cell_formula_units_Z   2
loop_
 _symmetry_equiv_pos_site_id
 _symmetry_equiv_pos_as_xyz
  1  'x, y, z'
loop_
 _atom_site_type_symbol
 _atom_site_label
 _atom_site_symmetry_multiplicity
 _atom_site_fract_x
 _atom_site_fract_y
 _atom_site_fract_z
 _atom_site_occupancy
  O  O0  1  0.86153620  0.76812909  0.41039238  1
  O  O1  1  0.23187139  0.13846393  0.08960765  1
  O  O2  1  0.13846409  0.23187030  0.58960744  1
  O  O3  1  0.76812890  0.86153546  0.91039218  1
  O  O4  1  0.85668896  0.29894748  0.37617080  1
  O  O5  1  0.70105396  0.14331113  0.12382923  1
  O  O6  1  0.14331039  0.70105378  0.62382902  1
  O  O7  1  0.29894633  0.85668825  0.87617059  1
  O  O8  1  0.39572424  0.76192659  0.42371377  1
  O  O9  1  0.23807344  0.60427642  0.07628627  1
  O  O10  1  0.60427605  0.23807280  0.57628606  1
  O  O11  1  0.76192685  0.39572297  0.92371356  1
  O  O12  1  0.73359929  0.60370769  0.75175049  1
  O  O13  1  0.39629232  0.26640109  0.74824977  1
  O  O14  1  0.60370797  0.73359830  0.25175069  1
  O  O15  1  0.26640100  0.39629170  0.24824934  1
  Na  Na16  1  0.00000044  0.00000068  0.49999979  1
  Na  Na17  1  0.00000000  0.00000000  0.00000000  1
  K  K18  1  0.93755335  0.06244676  0.74999981  1
  K  K19  1  0.06244694  0.93755263  0.25000001  1
  K  K20  1  0.69422250  0.64862828  0.08792107  1
  K  K21  1  0.35137168  0.30577725  0.41207896  1
  K  K22  1  0.64862767  0.69422401  0.58792086  1
  K  K23  1  0.30577685  0.35137298  0.91207940  1
  W  W24  1  0.68454433  0.63672487  0.36253512  1
  W  W25  1  0.36327587  0.31545407  0.13746491  1
  W  W26  1  0.31545503  0.36327640  0.63746534  1
  W  W27  1  0.63672442  0.68454532  0.86253492  1
