# generated using pymatgen
data_MnCoSi
_symmetry_space_group_name_H-M   'P 1'
_cell_length_a   3.65478785
_cell_length_b   5.70961323
_cell_length_c   6.90847079
_cell_angle_alpha   90.00000000
_cell_angle_beta   90.00000000
_cell_angle_gamma   90.00000000
_symmetry_Int_Tables_number   1
_chemical_formula_structural   MnCoSi
_chemical_formula_sum   'Mn4 Co4 Si4'
_cell_volume   144.16199650
_cell_formula_units_Z   4
loop_
 _symmetry_equiv_pos_site_id
 _symmetry_equiv_pos_as_xyz
  1  'x, y, z'
loop_
 _atom_site_type_symbol
 _atom_site_label
 _atom_site_symmetry_multiplicity
 _atom_site_fract_x
 _atom_site_fract_y
 _atom_site_fract_z
 _atom_site_occupancy
  Mn  Mn0  1  0.75000000  0.46905110  0.68604179  1
  Mn  Mn1  1  0.75000000  0.96905110  0.81395821  1
  Mn  Mn2  1  0.25000000  0.53094890  0.31395821  1
  Mn  Mn3  1  0.25000000  0.03094890  0.18604179  1
  Co  Co4  1  0.75000000  0.34128849  0.06148743  1
  Co  Co5  1  0.75000000  0.84128849  0.43851257  1
  Co  Co6  1  0.25000000  0.65871151  0.93851257  1
  Co  Co7  1  0.25000000  0.15871151  0.56148743  1
  Si  Si8  1  0.75000000  0.73563270  0.12203314  1
  Si  Si9  1  0.75000000  0.23563270  0.37796686  1
  Si  Si10  1  0.25000000  0.26436730  0.87796686  1
  Si  Si11  1  0.25000000  0.76436730  0.62203314  1
