# generated using pymatgen
data_Li3Fe2(PO4)3
_symmetry_space_group_name_H-M   'P 1'
_cell_length_a   9.01465254
_cell_length_b   9.01465254
_cell_length_c   9.01465254
_cell_angle_alpha   55.80376464
_cell_angle_beta   55.80376473
_cell_angle_gamma   55.80376464
_symmetry_Int_Tables_number   1
_chemical_formula_structural   Li3Fe2(PO4)3
_chemical_formula_sum   'Li6 Fe4 P6 O24'
_cell_volume   467.60106417
_cell_formula_units_Z   2
loop_
 _symmetry_equiv_pos_site_id
 _symmetry_equiv_pos_as_xyz
  1  'x, y, z'
loop_
 _atom_site_type_symbol
 _atom_site_label
 _atom_site_symmetry_multiplicity
 _atom_site_fract_x
 _atom_site_fract_y
 _atom_site_fract_z
 _atom_site_occupancy
  Li  Li0  1  0.26468368  0.92265103  0.66708171  1
  Li  Li1  1  0.73531632  0.07734897  0.33291829  1
  Li  Li2  1  0.66708171  0.26468368  0.92265103  1
  Li  Li3  1  0.92265103  0.66708171  0.26468368  1
  Li  Li4  1  0.07734897  0.33291829  0.73531632  1
  Li  Li5  1  0.33291829  0.73531632  0.07734897  1
  O  O6  1  0.15488885  0.21025607  0.53977465  1
  O  O7  1  0.87592475  0.25357731  0.13673027  1
  O  O8  1  0.86326973  0.12407525  0.74642269  1
  O  O9  1  0.99562566  0.19803613  0.38719118  1
  O  O10  1  0.00437434  0.80196387  0.61280882  1
  O  O11  1  0.13673027  0.87592475  0.25357731  1
  O  O12  1  0.12407525  0.74642269  0.86326973  1
  O  O13  1  0.38719118  0.99562566  0.19803613  1
  O  O14  1  0.46022535  0.84511115  0.78974393  1
  O  O15  1  0.16734890  0.53352598  0.49180921  1
  O  O16  1  0.21025607  0.53977465  0.15488885  1
  O  O17  1  0.53977465  0.15488885  0.21025607  1
  O  O18  1  0.19803613  0.38719118  0.99562566  1
  O  O19  1  0.74642269  0.86326973  0.12407525  1
  O  O20  1  0.50819079  0.83265110  0.46647402  1
  O  O21  1  0.46647402  0.50819079  0.83265110  1
  O  O22  1  0.53352598  0.49180921  0.16734890  1
  O  O23  1  0.84511115  0.78974393  0.46022535  1
  O  O24  1  0.25357731  0.13673027  0.87592475  1
  O  O25  1  0.80196387  0.61280882  0.00437434  1
  O  O26  1  0.49180921  0.16734890  0.53352598  1
  O  O27  1  0.78974393  0.46022535  0.84511115  1
  O  O28  1  0.83265110  0.46647402  0.50819079  1
  O  O29  1  0.61280882  0.00437434  0.80196387  1
  P  P30  1  0.54111659  0.95856188  0.25027517  1
  P  P31  1  0.25027517  0.54111659  0.95856188  1
  P  P32  1  0.74972483  0.45888341  0.04143812  1
  P  P33  1  0.45888341  0.04143812  0.74972483  1
  P  P34  1  0.04143812  0.74972483  0.45888341  1
  P  P35  1  0.95856188  0.25027517  0.54111659  1
  Fe  Fe36  1  0.65121638  0.65121638  0.65121638  1
  Fe  Fe37  1  0.85326388  0.85326388  0.85326388  1
  Fe  Fe38  1  0.34878362  0.34878362  0.34878362  1
  Fe  Fe39  1  0.14673612  0.14673612  0.14673612  1
