# generated using pymatgen
data_MnMoO4
_symmetry_space_group_name_H-M   'P 1'
_cell_length_a   4.86462970
_cell_length_b   5.05931502
_cell_length_c   5.85538486
_cell_angle_alpha   90.00000000
_cell_angle_beta   90.00000000
_cell_angle_gamma   90.97680421
_symmetry_Int_Tables_number   1
_chemical_formula_structural   MnMoO4
_chemical_formula_sum   'Mn2 Mo2 O8'
_cell_volume   144.08999866
_cell_formula_units_Z   2
loop_
 _symmetry_equiv_pos_site_id
 _symmetry_equiv_pos_as_xyz
  1  'x, y, z'
loop_
 _atom_site_type_symbol
 _atom_site_label
 _atom_site_symmetry_multiplicity
 _atom_site_fract_x
 _atom_site_fract_y
 _atom_site_fract_z
 _atom_site_occupancy
  O  O0  1  0.71197233  0.44250796  0.39563899  1
  O  O1  1  0.28802767  0.05749204  0.39563899  1
  O  O2  1  0.28802767  0.55749204  0.60436101  1
  O  O3  1  0.71197233  0.94250796  0.60436101  1
  O  O4  1  0.75275559  0.39554018  0.87379009  1
  O  O5  1  0.24724441  0.10445982  0.87379009  1
  O  O6  1  0.24724441  0.60445982  0.12620991  1
  O  O7  1  0.75275559  0.89554018  0.12620991  1
  Mn  Mn8  1  0.00000000  0.25000000  0.18289175  1
  Mn  Mn9  1  0.00000000  0.75000000  0.81710825  1
  Mo  Mo10  1  0.50000000  0.75000000  0.31921991  1
  Mo  Mo11  1  0.50000000  0.25000000  0.68078009  1
