# generated using pymatgen
data_Na5Tb(WO4)4
_symmetry_space_group_name_H-M   'P 1'
_cell_length_a   10.04482907
_cell_length_b   10.04482907
_cell_length_c   10.04482907
_cell_angle_alpha   108.97270055
_cell_angle_beta   108.97270053
_cell_angle_gamma   110.47292861
_symmetry_Int_Tables_number   1
_chemical_formula_structural   Na5Tb(WO4)4
_chemical_formula_sum   'Na10 Tb2 W8 O32'
_cell_volume   780.02045418
_cell_formula_units_Z   2
loop_
 _symmetry_equiv_pos_site_id
 _symmetry_equiv_pos_as_xyz
  1  'x, y, z'
loop_
 _atom_site_type_symbol
 _atom_site_label
 _atom_site_symmetry_multiplicity
 _atom_site_fract_x
 _atom_site_fract_y
 _atom_site_fract_z
 _atom_site_occupancy
  O  O0  1  0.52106029  0.01304263  0.15278294  1
  O  O1  1  0.51304242  0.86025929  0.49198223  1
  O  O2  1  0.86827713  0.02106014  0.00801779  1
  O  O3  1  0.36025978  0.36827769  0.34721711  1
  O  O4  1  0.47893955  0.98695772  0.84721742  1
  O  O5  1  0.48695847  0.13974106  0.50801848  1
  O  O6  1  0.13172270  0.97894021  0.99198257  1
  O  O7  1  0.63974111  0.63172266  0.65278261  1
  O  O8  1  0.57521678  0.77266097  0.92438025  1
  O  O9  1  0.27266006  0.84828019  0.19744445  1
  O  O10  1  0.15083615  0.07521593  0.30255611  1
  O  O11  1  0.34828085  0.65083638  0.57562006  1
  O  O12  1  0.42478412  0.22733938  0.07561946  1
  O  O13  1  0.72733977  0.15172016  0.80255591  1
  O  O14  1  0.84916412  0.92478320  0.69744400  1
  O  O15  1  0.65172004  0.34916397  0.42438065  1
  O  O16  1  0.24343784  0.67077740  0.86813863  1
  O  O17  1  0.17077795  0.80263894  0.42733951  1
  O  O18  1  0.87529987  0.74343870  0.07266074  1
  O  O19  1  0.30263951  0.37529958  0.63186125  1
  O  O20  1  0.94709464  0.66384602  0.64853687  1
  O  O21  1  0.16384682  0.01530950  0.71675246  1
  O  O22  1  0.79855745  0.44709463  0.78324804  1
  O  O23  1  0.51530911  0.29855723  0.85146260  1
  O  O24  1  0.05290564  0.33615311  0.35146323  1
  O  O25  1  0.83615407  0.98469085  0.28324825  1
  O  O26  1  0.75656137  0.32922172  0.13186112  1
  O  O27  1  0.48469011  0.70144190  0.14853617  1
  O  O28  1  0.69736077  0.62469955  0.36813885  1
  O  O29  1  0.12469997  0.25656165  0.92733962  1
  O  O30  1  0.82922295  0.19736141  0.57266120  1
  O  O31  1  0.20144239  0.55290572  0.21675233  1
  Na  Na32  1  0.20090850  0.77595172  0.66442217  1
  Na  Na33  1  0.27595082  0.11152863  0.57504313  1
  Na  Na34  1  0.03648584  0.70090761  0.92495686  1
  Na  Na35  1  0.61152888  0.53648608  0.83557801  1
  Na  Na36  1  0.79909134  0.22404863  0.33557719  1
  Na  Na37  1  0.87499973  0.62500013  0.25000023  1
  Na  Na38  1  0.96351338  0.29909152  0.07504289  1
  Na  Na39  1  0.38847096  0.46351427  0.16442235  1
  Na  Na40  1  0.12500011  0.37500022  0.75000014  1
  Na  Na41  1  0.72404840  0.88847050  0.42495662  1
  Tb  Tb42  1  0.37499963  0.12499980  0.24999965  1
  Tb  Tb43  1  0.62500020  0.87500055  0.75000071  1
  W  W44  1  0.45656950  0.79672474  0.02633657  1
  W  W45  1  0.29672450  0.77038831  0.34015526  1
  W  W46  1  0.93023259  0.95656966  0.15984515  1
  W  W47  1  0.27038750  0.43023289  0.47366327  1
  W  W48  1  0.54343034  0.20327561  0.97366280  1
  W  W49  1  0.70327533  0.22961204  0.65984510  1
  W  W50  1  0.06976725  0.04343069  0.84015521  1
  W  W51  1  0.72961234  0.56976746  0.52633710  1
