# generated using pymatgen
data_Ce2Mg
_symmetry_space_group_name_H-M   'P 1'
_cell_length_a   5.78274782
_cell_length_b   5.78274773
_cell_length_c   16.88280513
_cell_angle_alpha   90.00000000
_cell_angle_beta   90.00000000
_cell_angle_gamma   120.00000052
_symmetry_Int_Tables_number   1
_chemical_formula_structural   Ce2Mg
_chemical_formula_sum   'Ce12 Mg6'
_cell_volume   488.92668064
_cell_formula_units_Z   6
loop_
 _symmetry_equiv_pos_site_id
 _symmetry_equiv_pos_as_xyz
  1  'x, y, z'
loop_
 _atom_site_type_symbol
 _atom_site_label
 _atom_site_symmetry_multiplicity
 _atom_site_fract_x
 _atom_site_fract_y
 _atom_site_fract_z
 _atom_site_occupancy
  Ce  Ce0  1  0.69695634  0.69695634  0.00000000  1
  Ce  Ce1  1  0.30304366  -0.00000000  0.00000000  1
  Ce  Ce2  1  0.33333300  0.66666700  0.16666700  1
  Ce  Ce3  1  0.00000000  0.30304366  0.00000000  1
  Ce  Ce4  1  0.36362234  0.03028934  0.33333300  1
  Ce  Ce5  1  0.96971066  0.33333300  0.33333300  1
  Ce  Ce6  1  -0.00000000  -0.00000000  0.50000000  1
  Ce  Ce7  1  0.66666700  0.63637766  0.33333300  1
  Ce  Ce8  1  0.03028934  0.36362234  0.66666700  1
  Ce  Ce9  1  0.63637766  0.66666700  0.66666700  1
  Ce  Ce10  1  0.66666700  0.33333300  0.83333300  1
  Ce  Ce11  1  0.33333300  0.96971066  0.66666700  1
  Mg  Mg12  1  0.66666700  0.33333300  0.16282220  1
  Mg  Mg13  1  -0.00000000  -0.00000000  0.17051180  1
  Mg  Mg14  1  0.33333300  0.66666700  0.49615520  1
  Mg  Mg15  1  0.66666700  0.33333300  0.50384480  1
  Mg  Mg16  1  -0.00000000  -0.00000000  0.82948820  1
  Mg  Mg17  1  0.33333300  0.66666700  0.83717780  1
