# generated using pymatgen
data_RbLiMg30O31
_symmetry_space_group_name_H-M   'P 1'
_cell_length_a   8.61382031
_cell_length_b   8.69157084
_cell_length_c   8.55647750
_cell_angle_alpha   90.00000000
_cell_angle_beta   90.00000000
_cell_angle_gamma   90.00000000
_symmetry_Int_Tables_number   1
_chemical_formula_structural   RbLiMg30O31
_chemical_formula_sum   'Rb1 Li1 Mg30 O31'
_cell_volume   640.60318667
_cell_formula_units_Z   1
loop_
 _symmetry_equiv_pos_site_id
 _symmetry_equiv_pos_as_xyz
  1  'x, y, z'
loop_
 _atom_site_type_symbol
 _atom_site_label
 _atom_site_symmetry_multiplicity
 _atom_site_fract_x
 _atom_site_fract_y
 _atom_site_fract_z
 _atom_site_occupancy
  Rb  Rb0  1  0.99242746  -0.00000000  0.50000000  1
  Li  Li1  1  0.97396966  -0.00000000  -0.00000000  1
  Mg  Mg2  1  0.99437301  0.50000000  -0.00000000  1
  Mg  Mg3  1  0.99795924  0.50000000  0.50000000  1
  Mg  Mg4  1  0.51879542  -0.00000000  -0.00000000  1
  Mg  Mg5  1  0.49785894  -0.00000000  0.50000000  1
  Mg  Mg6  1  0.50277484  0.50000000  -0.00000000  1
  Mg  Mg7  1  0.50129148  0.50000000  0.50000000  1
  Mg  Mg8  1  0.00259653  0.24989303  0.24290512  1
  Mg  Mg9  1  0.00259653  0.24989303  0.75709488  1
  Mg  Mg10  1  0.00259653  0.75010697  0.24290512  1
  Mg  Mg11  1  0.00259653  0.75010697  0.75709488  1
  Mg  Mg12  1  0.49912208  0.24967936  0.24890463  1
  Mg  Mg13  1  0.49912208  0.24967936  0.75109537  1
  Mg  Mg14  1  0.49912208  0.75032064  0.24890463  1
  Mg  Mg15  1  0.49912208  0.75032064  0.75109537  1
  Mg  Mg16  1  0.24916181  -0.00000000  0.26761239  1
  Mg  Mg17  1  0.24916181  -0.00000000  0.73238761  1
  Mg  Mg18  1  0.24935800  0.50000000  0.25277588  1
  Mg  Mg19  1  0.24935800  0.50000000  0.74722412  1
  Mg  Mg20  1  0.75106173  -0.00000000  0.24525746  1
  Mg  Mg21  1  0.75106173  -0.00000000  0.75474254  1
  Mg  Mg22  1  0.75161935  0.50000000  0.25054322  1
  Mg  Mg23  1  0.75161935  0.50000000  0.74945678  1
  Mg  Mg24  1  0.24445056  0.27137650  -0.00000000  1
  Mg  Mg25  1  0.25085887  0.25689019  0.50000000  1
  Mg  Mg26  1  0.24445056  0.72862350  -0.00000000  1
  Mg  Mg27  1  0.25085887  0.74310981  0.50000000  1
  Mg  Mg28  1  0.75650575  0.24890804  -0.00000000  1
  Mg  Mg29  1  0.74716774  0.25305479  0.50000000  1
  Mg  Mg30  1  0.75650575  0.75109196  -0.00000000  1
  Mg  Mg31  1  0.74716774  0.74694521  0.50000000  1
  O  O32  1  0.27628319  -0.00000000  0.50000000  1
  O  O33  1  0.25530715  0.50000000  -0.00000000  1
  O  O34  1  0.25729224  0.50000000  0.50000000  1
  O  O35  1  0.74596305  -0.00000000  -0.00000000  1
  O  O36  1  0.71696602  -0.00000000  0.50000000  1
  O  O37  1  0.74498656  0.50000000  -0.00000000  1
  O  O38  1  0.74415470  0.50000000  0.50000000  1
  O  O39  1  0.25155210  0.24794044  0.24562964  1
  O  O40  1  0.25155210  0.24794044  0.75437036  1
  O  O41  1  0.25155210  0.75205956  0.24562964  1
  O  O42  1  0.25155210  0.75205956  0.75437036  1
  O  O43  1  0.75045254  0.24616437  0.24925318  1
  O  O44  1  0.75045254  0.24616437  0.75074682  1
  O  O45  1  0.75045254  0.75383563  0.24925318  1
  O  O46  1  0.75045254  0.75383563  0.75074682  1
  O  O47  1  0.01977440  -0.00000000  0.21185186  1
  O  O48  1  0.01977440  -0.00000000  0.78814814  1
  O  O49  1  0.00070479  0.50000000  0.24590166  1
  O  O50  1  0.00070479  0.50000000  0.75409834  1
  O  O51  1  0.48981805  -0.00000000  0.23713791  1
  O  O52  1  0.48981805  -0.00000000  0.76286209  1
  O  O53  1  0.50043280  0.50000000  0.24731127  1
  O  O54  1  0.50043280  0.50000000  0.75268873  1
  O  O55  1  0.00207210  0.26540837  -0.00000000  1
  O  O56  1  0.00333442  0.27817649  0.50000000  1
  O  O57  1  0.00207210  0.73459163  -0.00000000  1
  O  O58  1  0.00333442  0.72182351  0.50000000  1
  O  O59  1  0.49291986  0.24513507  -0.00000000  1
  O  O60  1  0.49811176  0.25455530  0.50000000  1
  O  O61  1  0.49291986  0.75486493  -0.00000000  1
  O  O62  1  0.49811176  0.74544470  0.50000000  1
