# generated using pymatgen
data_BaLa2In2O7
_symmetry_space_group_name_H-M   'P 1'
_cell_length_a   6.00390106
_cell_length_b   6.00390106
_cell_length_c   20.97179371
_cell_angle_alpha   90.00000000
_cell_angle_beta   90.00000000
_cell_angle_gamma   90.00000000
_symmetry_Int_Tables_number   1
_chemical_formula_structural   BaLa2In2O7
_chemical_formula_sum   'Ba4 La8 In8 O28'
_cell_volume   755.96663942
_cell_formula_units_Z   4
loop_
 _symmetry_equiv_pos_site_id
 _symmetry_equiv_pos_as_xyz
  1  'x, y, z'
loop_
 _atom_site_type_symbol
 _atom_site_label
 _atom_site_symmetry_multiplicity
 _atom_site_fract_x
 _atom_site_fract_y
 _atom_site_fract_z
 _atom_site_occupancy
  O  O0  1  0.00000000  0.00000000  0.59161522  1
  O  O1  1  0.50000000  0.50000000  0.09161522  1
  O  O2  1  0.50000000  0.50000000  0.90838478  1
  O  O3  1  0.00000000  0.00000000  0.40838478  1
  O  O4  1  0.00000000  0.00000000  0.86625484  1
  O  O5  1  0.50000000  0.50000000  0.36625484  1
  O  O6  1  0.50000000  0.50000000  0.63374516  1
  O  O7  1  0.00000000  0.00000000  0.13374516  1
  O  O8  1  0.50000000  0.00000000  0.11510940  1
  O  O9  1  0.50000000  0.00000000  0.61510940  1
  O  O10  1  0.00000000  0.50000000  0.38489060  1
  O  O11  1  0.00000000  0.50000000  0.88489060  1
  O  O12  1  0.50000000  0.00000000  0.88489060  1
  O  O13  1  0.50000000  0.00000000  0.38489060  1
  O  O14  1  0.00000000  0.50000000  0.61510940  1
  O  O15  1  0.00000000  0.50000000  0.11510940  1
  O  O16  1  0.81742073  0.81742073  0.71122083  1
  O  O17  1  0.18257927  0.18257927  0.71122083  1
  O  O18  1  0.81742073  0.81742073  0.28877917  1
  O  O19  1  0.31742073  0.68257927  0.21122083  1
  O  O20  1  0.79673675  0.20326325  0.00000000  1
  O  O21  1  0.29673675  0.29673675  0.50000000  1
  O  O22  1  0.70326325  0.70326325  0.50000000  1
  O  O23  1  0.20326325  0.79673675  0.00000000  1
  O  O24  1  0.18257927  0.18257927  0.28877917  1
  O  O25  1  0.31742073  0.68257927  0.78877917  1
  O  O26  1  0.68257927  0.31742073  0.78877917  1
  O  O27  1  0.68257927  0.31742073  0.21122083  1
  In  In28  1  0.74155148  0.74155148  0.60180314  1
  In  In29  1  0.25844852  0.25844852  0.60180314  1
  In  In30  1  0.74155148  0.74155148  0.39819686  1
  In  In31  1  0.24155148  0.75844852  0.10180314  1
  In  In32  1  0.75844852  0.24155148  0.10180314  1
  In  In33  1  0.75844852  0.24155148  0.89819686  1
  In  In34  1  0.24155148  0.75844852  0.89819686  1
  In  In35  1  0.25844852  0.25844852  0.39819686  1
  Ba  Ba36  1  0.24150087  0.75849913  0.50000000  1
  Ba  Ba37  1  0.75849913  0.24150087  0.50000000  1
  Ba  Ba38  1  0.25849913  0.25849913  0.00000000  1
  Ba  Ba39  1  0.74150087  0.74150087  0.00000000  1
  La  La40  1  0.77698242  0.22301758  0.31449460  1
  La  La41  1  0.77698242  0.22301758  0.68550540  1
  La  La42  1  0.22301758  0.77698242  0.68550540  1
  La  La43  1  0.27698242  0.27698242  0.18550540  1
  La  La44  1  0.22301758  0.77698242  0.31449460  1
  La  La45  1  0.27698242  0.27698242  0.81449460  1
  La  La46  1  0.72301758  0.72301758  0.81449460  1
  La  La47  1  0.72301758  0.72301758  0.18550540  1
