# generated using pymatgen
data_HfPbS3
_symmetry_space_group_name_H-M   'P 1'
_cell_length_a   3.77447443
_cell_length_b   9.26254307
_cell_length_c   14.19754871
_cell_angle_alpha   90.00000000
_cell_angle_beta   90.00000000
_cell_angle_gamma   90.00000000
_symmetry_Int_Tables_number   1
_chemical_formula_structural   HfPbS3
_chemical_formula_sum   'Hf4 Pb4 S12'
_cell_volume   496.36379392
_cell_formula_units_Z   4
loop_
 _symmetry_equiv_pos_site_id
 _symmetry_equiv_pos_as_xyz
  1  'x, y, z'
loop_
 _atom_site_type_symbol
 _atom_site_label
 _atom_site_symmetry_multiplicity
 _atom_site_fract_x
 _atom_site_fract_y
 _atom_site_fract_z
 _atom_site_occupancy
  S  S0  1  0.25000000  0.51040392  0.60338605  1
  S  S1  1  0.75000000  0.48959608  0.39661395  1
  S  S2  1  0.25000000  0.01040392  0.89661395  1
  S  S3  1  0.75000000  0.98959608  0.10338605  1
  S  S4  1  0.25000000  0.67433674  0.00944146  1
  S  S5  1  0.75000000  0.32566326  0.99055854  1
  S  S6  1  0.25000000  0.17433674  0.49055854  1
  S  S7  1  0.75000000  0.82566326  0.50944146  1
  S  S8  1  0.75000000  0.73460252  0.78837252  1
  S  S9  1  0.25000000  0.26539748  0.21162748  1
  S  S10  1  0.75000000  0.23460252  0.71162748  1
  S  S11  1  0.25000000  0.76539748  0.28837252  1
  Hf  Hf12  1  0.25000000  0.66256741  0.45174543  1
  Hf  Hf13  1  0.75000000  0.33743259  0.54825457  1
  Hf  Hf14  1  0.25000000  0.16256741  0.04825457  1
  Hf  Hf15  1  0.75000000  0.83743259  0.95174543  1
  Pb  Pb16  1  0.25000000  0.03032907  0.67124540  1
  Pb  Pb17  1  0.75000000  0.96967093  0.32875460  1
  Pb  Pb18  1  0.25000000  0.53032907  0.82875460  1
  Pb  Pb19  1  0.75000000  0.46967093  0.17124540  1
