# generated using pymatgen
data_Ti3Sn
_symmetry_space_group_name_H-M   'P 1'
_cell_length_a   4.75622219
_cell_length_b   5.91085701
_cell_length_c   5.91085701
_cell_angle_alpha   119.97031929
_cell_angle_beta   90.00000000
_cell_angle_gamma   90.00000000
_symmetry_Int_Tables_number   1
_chemical_formula_structural   Ti3Sn
_chemical_formula_sum   'Ti6 Sn2'
_cell_volume   143.95391652
_cell_formula_units_Z   2
loop_
 _symmetry_equiv_pos_site_id
 _symmetry_equiv_pos_as_xyz
  1  'x, y, z'
loop_
 _atom_site_type_symbol
 _atom_site_label
 _atom_site_symmetry_multiplicity
 _atom_site_fract_x
 _atom_site_fract_y
 _atom_site_fract_z
 _atom_site_occupancy
  Ti  Ti0  1  0.75000000  0.16422473  0.32846281  1
  Ti  Ti1  1  0.75000000  0.16420658  0.83579342  1
  Ti  Ti2  1  0.75000000  0.67153719  0.83577527  1
  Ti  Ti3  1  0.25000000  0.83577527  0.67153719  1
  Ti  Ti4  1  0.25000000  0.83579342  0.16420658  1
  Ti  Ti5  1  0.25000000  0.32846281  0.16422473  1
  Sn  Sn6  1  0.75000000  0.66668000  0.33332000  1
  Sn  Sn7  1  0.25000000  0.33332000  0.66668000  1
