# generated using pymatgen
data_Re6P13
_symmetry_space_group_name_H-M   'P 1'
_cell_length_a   9.52365872
_cell_length_b   9.52365871
_cell_length_c   9.52365871
_cell_angle_alpha   111.74815798
_cell_angle_beta   111.74815798
_cell_angle_gamma   111.74815800
_symmetry_Int_Tables_number   1
_chemical_formula_structural   Re6P13
_chemical_formula_sum   'Re12 P26'
_cell_volume   602.42486084
_cell_formula_units_Z   2
loop_
 _symmetry_equiv_pos_site_id
 _symmetry_equiv_pos_as_xyz
  1  'x, y, z'
loop_
 _atom_site_type_symbol
 _atom_site_label
 _atom_site_symmetry_multiplicity
 _atom_site_fract_x
 _atom_site_fract_y
 _atom_site_fract_z
 _atom_site_occupancy
  P  P0  1  0.36870371  0.36870371  0.36870371  1
  P  P1  1  0.63129629  0.63129629  0.63129629  1
  P  P2  1  0.00316808  0.96382104  0.19630552  1
  P  P3  1  0.19630552  0.00316808  0.96382104  1
  P  P4  1  0.96382104  0.19630552  0.00316808  1
  P  P5  1  0.99683192  0.03617896  0.80369448  1
  P  P6  1  0.80369448  0.99683192  0.03617896  1
  P  P7  1  0.03617896  0.80369448  0.99683192  1
  P  P8  1  0.00810483  0.37957307  0.79521009  1
  P  P9  1  0.79521009  0.00810483  0.37957307  1
  P  P10  1  0.37957307  0.79521009  0.00810483  1
  P  P11  1  0.99189517  0.62042693  0.20478991  1
  P  P12  1  0.20478991  0.99189517  0.62042693  1
  P  P13  1  0.62042693  0.20478991  0.99189517  1
  P  P14  1  0.22622765  0.40324728  0.61239450  1
  P  P15  1  0.61239450  0.22622765  0.40324728  1
  P  P16  1  0.40324728  0.61239450  0.22622765  1
  P  P17  1  0.77377235  0.59675272  0.38760550  1
  P  P18  1  0.38760550  0.77377235  0.59675272  1
  P  P19  1  0.59675272  0.38760550  0.77377235  1
  P  P20  1  0.61150388  0.60356782  1.00003153  1
  P  P21  1  1.00003153  0.61150388  0.60356782  1
  P  P22  1  0.60356782  1.00003153  0.61150388  1
  P  P23  1  0.38849612  0.39643218  -0.00003153  1
  P  P24  1  -0.00003153  0.38849612  0.39643218  1
  P  P25  1  0.39643218  -0.00003153  0.38849612  1
  Re  Re26  1  0.91031767  0.82080111  0.33076642  1
  Re  Re27  1  0.33076642  0.91031767  0.82080111  1
  Re  Re28  1  0.82080111  0.33076642  0.91031767  1
  Re  Re29  1  0.08968233  0.17919889  0.66923358  1
  Re  Re30  1  0.66923358  0.08968233  0.17919889  1
  Re  Re31  1  0.17919889  0.66923358  0.08968233  1
  Re  Re32  1  0.73040551  0.83443743  0.50253946  1
  Re  Re33  1  0.50253946  0.73040551  0.83443743  1
  Re  Re34  1  0.83443743  0.50253946  0.73040551  1
  Re  Re35  1  0.26959449  0.16556257  0.49746054  1
  Re  Re36  1  0.49746054  0.26959449  0.16556257  1
  Re  Re37  1  0.16556257  0.49746054  0.26959449  1
