# generated using pymatgen
data_Ba3NaIr2O9
_symmetry_space_group_name_H-M   'P 1'
_cell_length_a   5.96074888
_cell_length_b   5.96074887
_cell_length_c   14.87373544
_cell_angle_alpha   91.10434206
_cell_angle_beta   91.10434205
_cell_angle_gamma   119.77794578
_symmetry_Int_Tables_number   1
_chemical_formula_structural   Ba3NaIr2O9
_chemical_formula_sum   'Ba6 Na2 Ir4 O18'
_cell_volume   458.35189281
_cell_formula_units_Z   2
loop_
 _symmetry_equiv_pos_site_id
 _symmetry_equiv_pos_as_xyz
  1  'x, y, z'
loop_
 _atom_site_type_symbol
 _atom_site_label
 _atom_site_symmetry_multiplicity
 _atom_site_fract_x
 _atom_site_fract_y
 _atom_site_fract_z
 _atom_site_occupancy
  O  O0  1  0.67004049  0.85383184  0.59794375  1
  O  O1  1  0.14616816  0.32995951  0.90205625  1
  O  O2  1  0.32995951  0.14616816  0.40205625  1
  O  O3  1  0.85383184  0.67004049  0.09794375  1
  O  O4  1  0.85722286  0.20587498  0.09073667  1
  O  O5  1  0.79412502  0.14277714  0.40926333  1
  O  O6  1  0.14277714  0.79412502  0.90926333  1
  O  O7  1  0.20587498  0.85722286  0.59073667  1
  O  O8  1  0.38944243  0.20557537  0.07690273  1
  O  O9  1  0.79442463  0.61055757  0.42309727  1
  O  O10  1  0.61055757  0.79442463  0.92309727  1
  O  O11  1  0.20557537  0.38944243  0.57690273  1
  O  O12  1  0.48079268  0.96415145  0.76039233  1
  O  O13  1  0.03584855  0.51920732  0.73960767  1
  O  O14  1  0.51920732  0.03584855  0.23960767  1
  O  O15  1  0.96415145  0.48079268  0.26039233  1
  O  O16  1  0.48128243  0.51871757  0.75000000  1
  O  O17  1  0.51871757  0.48128243  0.25000000  1
  Na  Na18  1  0.00000000  0.00000000  0.50000000  1
  Na  Na19  1  0.00000000  0.00000000  0.00000000  1
  Ba  Ba20  1  0.33998983  0.67195616  0.08474811  1
  Ba  Ba21  1  0.99857518  0.00142482  0.25000000  1
  Ba  Ba22  1  0.32804384  0.66001017  0.41525189  1
  Ba  Ba23  1  0.66001017  0.32804384  0.91525189  1
  Ba  Ba24  1  0.00142482  0.99857518  0.75000000  1
  Ba  Ba25  1  0.67195616  0.33998983  0.58474811  1
  Ir  Ir26  1  0.65228804  0.31585019  0.34254966  1
  Ir  Ir27  1  0.31585019  0.65228804  0.84254966  1
  Ir  Ir28  1  0.34771196  0.68414981  0.65745034  1
  Ir  Ir29  1  0.68414981  0.34771196  0.15745034  1
