# generated using pymatgen
data_K2PbO3
_symmetry_space_group_name_H-M   'P 1'
_cell_length_a   6.10303888
_cell_length_b   6.47207934
_cell_length_c   6.47207934
_cell_angle_alpha   113.60073551
_cell_angle_beta   90.00000000
_cell_angle_gamma   90.00000000
_symmetry_Int_Tables_number   1
_chemical_formula_structural   K2PbO3
_chemical_formula_sum   'K4 Pb2 O6'
_cell_volume   234.26034788
_cell_formula_units_Z   2
loop_
 _symmetry_equiv_pos_site_id
 _symmetry_equiv_pos_as_xyz
  1  'x, y, z'
loop_
 _atom_site_type_symbol
 _atom_site_label
 _atom_site_symmetry_multiplicity
 _atom_site_fract_x
 _atom_site_fract_y
 _atom_site_fract_z
 _atom_site_occupancy
  O  O0  1  0.99191923  0.83600726  0.10214740  1
  O  O1  1  0.49191923  0.16399274  0.89785260  1
  O  O2  1  0.49191923  0.89785260  0.16399274  1
  O  O3  1  0.99191923  0.10214740  0.83600726  1
  O  O4  1  0.13178842  0.37708286  0.37708286  1
  O  O5  1  0.63178842  0.62291714  0.62291714  1
  K  K6  1  0.26554137  0.47745858  0.80291576  1
  K  K7  1  0.76554137  0.19708424  0.52254142  1
  K  K8  1  0.76554137  0.52254142  0.19708424  1
  K  K9  1  0.26554137  0.80291576  0.47745858  1
  Pb  Pb10  1  0.72829038  0.90120063  0.90120063  1
  Pb  Pb11  1  0.22829038  0.09879937  0.09879937  1
