# generated using pymatgen
data_PNCl2
_symmetry_space_group_name_H-M   'P 1'
_cell_length_a   6.55379402
_cell_length_b   13.75047978
_cell_length_c   14.74003199
_cell_angle_alpha   90.00000000
_cell_angle_beta   90.00000000
_cell_angle_gamma   90.00000000
_symmetry_Int_Tables_number   1
_chemical_formula_structural   PNCl2
_chemical_formula_sum   'P12 N12 Cl24'
_cell_volume   1328.33943402
_cell_formula_units_Z   12
loop_
 _symmetry_equiv_pos_site_id
 _symmetry_equiv_pos_as_xyz
  1  'x, y, z'
loop_
 _atom_site_type_symbol
 _atom_site_label
 _atom_site_symmetry_multiplicity
 _atom_site_fract_x
 _atom_site_fract_y
 _atom_site_fract_z
 _atom_site_occupancy
  N  N0  1  0.04386250  0.34988091  0.99719799  1
  N  N1  1  0.54386250  0.65011909  0.50280201  1
  N  N2  1  0.95613750  0.84988091  0.00280201  1
  N  N3  1  0.45613750  0.15011909  0.49719799  1
  N  N4  1  0.95613750  0.65011909  0.00280201  1
  N  N5  1  0.45613750  0.34988091  0.49719799  1
  N  N6  1  0.04386250  0.15011909  0.99719799  1
  N  N7  1  0.54386250  0.84988091  0.50280201  1
  N  N8  1  0.10339033  0.75000000  0.85523172  1
  N  N9  1  0.60339033  0.25000000  0.64476828  1
  N  N10  1  0.89660967  0.25000000  0.14476828  1
  N  N11  1  0.39660967  0.75000000  0.35523172  1
  P  P12  1  0.93797864  0.35092471  0.09451487  1
  P  P13  1  0.43797864  0.64907529  0.40548513  1
  P  P14  1  0.06202136  0.85092471  0.90548513  1
  P  P15  1  0.56202136  0.14907529  0.59451487  1
  P  P16  1  0.06202136  0.64907529  0.90548513  1
  P  P17  1  0.56202136  0.35092471  0.59451487  1
  P  P18  1  0.93797864  0.14907529  0.09451487  1
  P  P19  1  0.43797864  0.85092471  0.40548513  1
  P  P20  1  0.90982465  0.75000000  0.05380621  1
  P  P21  1  0.40982465  0.25000000  0.44619379  1
  P  P22  1  0.09017535  0.25000000  0.94619379  1
  P  P23  1  0.59017535  0.75000000  0.55380621  1
  Cl  Cl24  1  0.44216263  0.75000000  0.67390401  1
  Cl  Cl25  1  0.94216263  0.25000000  0.82609599  1
  Cl  Cl26  1  0.55783737  0.25000000  0.32609599  1
  Cl  Cl27  1  0.05783737  0.75000000  0.17390401  1
  Cl  Cl28  1  0.88362564  0.75000000  0.59406371  1
  Cl  Cl29  1  0.38362564  0.25000000  0.90593629  1
  Cl  Cl30  1  0.11637436  0.25000000  0.40593629  1
  Cl  Cl31  1  0.61637436  0.75000000  0.09406371  1
  Cl  Cl32  1  0.17232312  0.92476755  0.41360635  1
  Cl  Cl33  1  0.67232312  0.07523245  0.08639365  1
  Cl  Cl34  1  0.82767688  0.42476755  0.58639365  1
  Cl  Cl35  1  0.32767688  0.57523245  0.91360635  1
  Cl  Cl36  1  0.82767688  0.07523245  0.58639365  1
  Cl  Cl37  1  0.32767688  0.92476755  0.91360635  1
  Cl  Cl38  1  0.17232312  0.57523245  0.41360635  1
  Cl  Cl39  1  0.67232312  0.42476755  0.08639365  1
  Cl  Cl40  1  0.60203852  0.93648605  0.32213612  1
  Cl  Cl41  1  0.10203852  0.06351395  0.17786388  1
  Cl  Cl42  1  0.39796148  0.43648605  0.67786388  1
  Cl  Cl43  1  0.89796148  0.56351395  0.82213612  1
  Cl  Cl44  1  0.39796148  0.06351395  0.67786388  1
  Cl  Cl45  1  0.89796148  0.93648605  0.82213612  1
  Cl  Cl46  1  0.60203852  0.56351395  0.32213612  1
  Cl  Cl47  1  0.10203852  0.43648605  0.17786388  1
