# generated using pymatgen
data_CsMgH3
_symmetry_space_group_name_H-M   'P 1'
_cell_length_a   8.29009292
_cell_length_b   8.29009292
_cell_length_c   8.29009292
_cell_angle_alpha   44.34483239
_cell_angle_beta   44.34483244
_cell_angle_gamma   44.34483239
_symmetry_Int_Tables_number   1
_chemical_formula_structural   CsMgH3
_chemical_formula_sum   'Cs3 Mg3 H9'
_cell_volume   253.00535573
_cell_formula_units_Z   3
loop_
 _symmetry_equiv_pos_site_id
 _symmetry_equiv_pos_as_xyz
  1  'x, y, z'
loop_
 _atom_site_type_symbol
 _atom_site_label
 _atom_site_symmetry_multiplicity
 _atom_site_fract_x
 _atom_site_fract_y
 _atom_site_fract_z
 _atom_site_occupancy
  H  H0  1  0.50000000  0.00000000  0.50000000  1
  H  H1  1  0.00000000  0.50000000  0.50000000  1
  H  H2  1  0.50000000  0.50000000  0.00000000  1
  H  H3  1  0.30392030  0.71466979  0.30392030  1
  H  H4  1  0.71466979  0.30392030  0.30392030  1
  H  H5  1  0.30392030  0.30392030  0.71466979  1
  H  H6  1  0.69607970  0.69607970  0.28533021  1
  H  H7  1  0.28533021  0.69607970  0.69607970  1
  H  H8  1  0.69607970  0.28533021  0.69607970  1
  Mg  Mg9  1  0.50000000  0.50000000  0.50000000  1
  Mg  Mg10  1  0.62086094  0.62086094  0.62086094  1
  Mg  Mg11  1  0.37913906  0.37913906  0.37913906  1
  Cs  Cs12  1  0.00000000  0.00000000  0.00000000  1
  Cs  Cs13  1  0.78620575  0.78620575  0.78620575  1
  Cs  Cs14  1  0.21379425  0.21379425  0.21379425  1
