# generated using pymatgen
data_RbPb2Br5
_symmetry_space_group_name_H-M   'P 1'
_cell_length_a   8.57039089
_cell_length_b   8.57039089
_cell_length_c   9.78464967
_cell_angle_alpha   115.97320901
_cell_angle_beta   115.97320898
_cell_angle_gamma   90.00000000
_symmetry_Int_Tables_number   1
_chemical_formula_structural   RbPb2Br5
_chemical_formula_sum   'Rb2 Pb4 Br10'
_cell_volume   564.25731949
_cell_formula_units_Z   2
loop_
 _symmetry_equiv_pos_site_id
 _symmetry_equiv_pos_as_xyz
  1  'x, y, z'
loop_
 _atom_site_type_symbol
 _atom_site_label
 _atom_site_symmetry_multiplicity
 _atom_site_fract_x
 _atom_site_fract_y
 _atom_site_fract_z
 _atom_site_occupancy
  Br  Br0  1  0.21506850  0.71506850  0.74045851  1
  Br  Br1  1  0.47460999  0.97460999  0.25954149  1
  Br  Br2  1  0.00000000  0.00000000  0.00000000  1
  Br  Br3  1  0.50000000  0.50000000  0.00000000  1
  Br  Br4  1  0.78493150  0.28493150  0.25954149  1
  Br  Br5  1  0.97460999  0.78493150  0.25954149  1
  Br  Br6  1  0.28493150  0.47460999  0.25954149  1
  Br  Br7  1  0.02539001  0.21506850  0.74045851  1
  Br  Br8  1  0.52539001  0.02539001  0.74045851  1
  Br  Br9  1  0.71506850  0.52539001  0.74045851  1
  Rb  Rb10  1  0.25000000  0.25000000  0.50000000  1
  Rb  Rb11  1  0.75000000  0.75000000  0.50000000  1
  Pb  Pb12  1  0.33277362  0.16722638  0.00000000  1
  Pb  Pb13  1  0.16722638  0.66722638  0.00000000  1
  Pb  Pb14  1  0.66722638  0.83277362  0.00000000  1
  Pb  Pb15  1  0.83277362  0.33277362  0.00000000  1
