# generated using pymatgen
data_KHfMg30O31
_symmetry_space_group_name_H-M   'P 1'
_cell_length_a   8.60270571
_cell_length_b   8.67563731
_cell_length_c   8.67563731
_cell_angle_alpha   90.00000000
_cell_angle_beta   90.00000000
_cell_angle_gamma   90.00000000
_symmetry_Int_Tables_number   1
_chemical_formula_structural   KHfMg30O31
_chemical_formula_sum   'K1 Hf1 Mg30 O31'
_cell_volume   647.49712133
_cell_formula_units_Z   1
loop_
 _symmetry_equiv_pos_site_id
 _symmetry_equiv_pos_as_xyz
  1  'x, y, z'
loop_
 _atom_site_type_symbol
 _atom_site_label
 _atom_site_symmetry_multiplicity
 _atom_site_fract_x
 _atom_site_fract_y
 _atom_site_fract_z
 _atom_site_occupancy
  K  K0  1  0.01165737  0.00000000  -0.00000000  1
  Hf  Hf1  1  0.99979224  0.50000000  0.50000000  1
  Mg  Mg2  1  0.99910340  0.00000000  0.50000000  1
  Mg  Mg3  1  0.99910340  0.50000000  -0.00000000  1
  Mg  Mg4  1  0.49418194  0.00000000  -0.00000000  1
  Mg  Mg5  1  0.50134348  0.00000000  0.50000000  1
  Mg  Mg6  1  0.50134348  0.50000000  -0.00000000  1
  Mg  Mg7  1  0.50008422  0.50000000  0.50000000  1
  Mg  Mg8  1  -0.00002808  0.24398233  0.24398233  1
  Mg  Mg9  1  -0.00002808  0.24398233  0.75601767  1
  Mg  Mg10  1  -0.00002808  0.75601767  0.24398233  1
  Mg  Mg11  1  -0.00002808  0.75601767  0.75601767  1
  Mg  Mg12  1  0.50015342  0.24819122  0.24819122  1
  Mg  Mg13  1  0.50015342  0.24819122  0.75180878  1
  Mg  Mg14  1  0.50015342  0.75180878  0.24819122  1
  Mg  Mg15  1  0.50015342  0.75180878  0.75180878  1
  Mg  Mg16  1  0.25359023  0.00000000  0.25479803  1
  Mg  Mg17  1  0.25359023  0.00000000  0.74520197  1
  Mg  Mg18  1  0.25600822  0.50000000  0.24428963  1
  Mg  Mg19  1  0.25600822  0.50000000  0.75571037  1
  Mg  Mg20  1  0.74859585  0.00000000  0.24890531  1
  Mg  Mg21  1  0.74859585  0.00000000  0.75109469  1
  Mg  Mg22  1  0.74398152  0.50000000  0.24306576  1
  Mg  Mg23  1  0.74398152  0.50000000  0.75693424  1
  Mg  Mg24  1  0.25359023  0.25479803  -0.00000000  1
  Mg  Mg25  1  0.25600822  0.24428963  0.50000000  1
  Mg  Mg26  1  0.25359023  0.74520197  -0.00000000  1
  Mg  Mg27  1  0.25600822  0.75571037  0.50000000  1
  Mg  Mg28  1  0.74859585  0.24890531  -0.00000000  1
  Mg  Mg29  1  0.74398152  0.24306576  0.50000000  1
  Mg  Mg30  1  0.74859585  0.75109469  -0.00000000  1
  Mg  Mg31  1  0.74398152  0.75693424  0.50000000  1
  O  O32  1  0.25295349  0.00000000  0.50000000  1
  O  O33  1  0.25295349  0.50000000  -0.00000000  1
  O  O34  1  0.24670692  0.50000000  0.50000000  1
  O  O35  1  0.72894149  0.00000000  -0.00000000  1
  O  O36  1  0.74770079  0.00000000  0.50000000  1
  O  O37  1  0.74770079  0.50000000  -0.00000000  1
  O  O38  1  0.75323467  0.50000000  0.50000000  1
  O  O39  1  0.24838118  0.25279392  0.25279392  1
  O  O40  1  0.24838118  0.25279392  0.74720608  1
  O  O41  1  0.24838118  0.74720608  0.25279392  1
  O  O42  1  0.24838118  0.74720608  0.74720608  1
  O  O43  1  0.75166303  0.25112506  0.25112506  1
  O  O44  1  0.75166303  0.25112506  0.74887494  1
  O  O45  1  0.75166303  0.74887494  0.25112506  1
  O  O46  1  0.75166303  0.74887494  0.74887494  1
  O  O47  1  0.99971278  0.00000000  0.27429903  1
  O  O48  1  0.99971278  0.00000000  0.72570097  1
  O  O49  1  0.99989628  0.50000000  0.25810383  1
  O  O50  1  0.99989628  0.50000000  0.74189617  1
  O  O51  1  0.50134511  0.00000000  0.25602566  1
  O  O52  1  0.50134511  0.00000000  0.74397434  1
  O  O53  1  0.50000018  0.50000000  0.25202081  1
  O  O54  1  0.50000018  0.50000000  0.74797919  1
  O  O55  1  0.99971278  0.27429903  -0.00000000  1
  O  O56  1  0.99989628  0.25810383  0.50000000  1
  O  O57  1  0.99971278  0.72570097  -0.00000000  1
  O  O58  1  0.99989628  0.74189617  0.50000000  1
  O  O59  1  0.50134511  0.25602566  -0.00000000  1
  O  O60  1  0.50000018  0.25202081  0.50000000  1
  O  O61  1  0.50134511  0.74397434  -0.00000000  1
  O  O62  1  0.50000018  0.74797919  0.50000000  1
