# generated using pymatgen
data_Er15C19
_symmetry_space_group_name_H-M   'P 1'
_cell_length_a   8.07404936
_cell_length_b   8.07404936
_cell_length_c   15.33417794
_cell_angle_alpha   90.00000000
_cell_angle_beta   90.00000000
_cell_angle_gamma   90.00000000
_symmetry_Int_Tables_number   1
_chemical_formula_structural   Er15C19
_chemical_formula_sum   'Er30 C38'
_cell_volume   999.63924718
_cell_formula_units_Z   2
loop_
 _symmetry_equiv_pos_site_id
 _symmetry_equiv_pos_as_xyz
  1  'x, y, z'
loop_
 _atom_site_type_symbol
 _atom_site_label
 _atom_site_symmetry_multiplicity
 _atom_site_fract_x
 _atom_site_fract_y
 _atom_site_fract_z
 _atom_site_occupancy
  Er  Er0  1  0.59811639  0.21533982  0.64980067  1
  Er  Er1  1  0.40188361  0.78466018  0.64980067  1
  Er  Er2  1  0.28466018  0.90188361  0.14980067  1
  Er  Er3  1  0.78466018  0.59811639  0.35019933  1
  Er  Er4  1  0.21533982  0.40188361  0.35019933  1
  Er  Er5  1  0.90188361  0.71533982  0.85019933  1
  Er  Er6  1  0.09811639  0.28466018  0.85019933  1
  Er  Er7  1  0.71533982  0.09811639  0.14980067  1
  Er  Er8  1  0.78461051  0.59822860  0.64974396  1
  Er  Er9  1  0.21538949  0.40177140  0.64974396  1
  Er  Er10  1  0.90177140  0.71538949  0.14974396  1
  Er  Er11  1  0.40177140  0.78461051  0.35025604  1
  Er  Er12  1  0.59822860  0.21538949  0.35025604  1
  Er  Er13  1  0.71538949  0.09822860  0.85025604  1
  Er  Er14  1  0.28461051  0.90177140  0.85025604  1
  Er  Er15  1  0.09822860  0.28461051  0.14974396  1
  Er  Er16  1  0.70280391  0.90661862  0.49994403  1
  Er  Er17  1  0.29719609  0.09338138  0.49994403  1
  Er  Er18  1  0.59338138  0.79719609  0.99994403  1
  Er  Er19  1  0.09338138  0.70280391  0.50005597  1
  Er  Er20  1  0.90661862  0.29719609  0.50005597  1
  Er  Er21  1  0.79719609  0.40661862  0.00005597  1
  Er  Er22  1  0.20280391  0.59338138  0.00005597  1
  Er  Er23  1  0.40661862  0.20280391  0.99994403  1
  Er  Er24  1  0.50000000  0.50000000  0.83076608  1
  Er  Er25  1  0.50000000  0.50000000  0.16923392  1
  Er  Er26  1  -0.00000000  0.00000000  0.66923392  1
  Er  Er27  1  -0.00000000  0.00000000  0.33076608  1
  Er  Er28  1  0.50000000  0.50000000  0.50000000  1
  Er  Er29  1  -0.00000000  0.00000000  0.00000000  1
  C  C30  1  0.90377242  0.30311134  0.67146729  1
  C  C31  1  0.09622758  0.69688866  0.67146729  1
  C  C32  1  0.19688866  0.59622758  0.17146729  1
  C  C33  1  0.69688866  0.90377242  0.32853271  1
  C  C34  1  0.30311134  0.09622758  0.32853271  1
  C  C35  1  0.59622758  0.80311134  0.82853271  1
  C  C36  1  0.40377242  0.19688866  0.82853271  1
  C  C37  1  0.80311134  0.40377242  0.17146729  1
  C  C38  1  0.65181313  0.84902560  0.74943792  1
  C  C39  1  0.34818687  0.15097440  0.74943792  1
  C  C40  1  0.65097440  0.84818687  0.24943792  1
  C  C41  1  0.15097440  0.65181313  0.25056208  1
  C  C42  1  0.84902560  0.34818687  0.25056208  1
  C  C43  1  0.84818687  0.34902560  0.75056208  1
  C  C44  1  0.15181313  0.65097440  0.75056208  1
  C  C45  1  0.34902560  0.15181313  0.24943792  1
  C  C46  1  0.10232588  0.30248401  0.00002351  1
  C  C47  1  0.69704665  0.90378318  0.67007627  1
  C  C48  1  0.59621682  0.80295335  0.17007627  1
  C  C49  1  0.09621682  0.69704665  0.32992373  1
  C  C50  1  0.90378318  0.30295335  0.32992373  1
  C  C51  1  0.80295335  0.40378318  0.82992373  1
  C  C52  1  0.19704665  0.59621682  0.82992373  1
  C  C53  1  0.40378318  0.19704665  0.17007627  1
  C  C54  1  0.60232588  0.19751599  0.49997649  1
  C  C55  1  0.39767412  0.80248401  0.49997649  1
  C  C56  1  0.30248401  0.89767412  0.99997649  1
  C  C57  1  0.80248401  0.60232588  0.50002351  1
  C  C58  1  0.19751599  0.39767412  0.50002351  1
  C  C59  1  0.89767412  0.69751599  0.00002351  1
  C  C60  1  -0.00000000  0.00000000  0.50000000  1
  C  C61  1  0.50000000  0.50000000  -0.00000000  1
  C  C62  1  -0.00000000  0.00000000  0.16308823  1
  C  C63  1  -0.00000000  0.00000000  0.83691177  1
  C  C64  1  0.50000000  0.50000000  0.33691177  1
  C  C65  1  0.50000000  0.50000000  0.66308823  1
  C  C66  1  0.69751599  0.10232588  0.99997649  1
  C  C67  1  0.30295335  0.09621682  0.67007627  1
