# generated using pymatgen
data_BaCoBP2HO9
_symmetry_space_group_name_H-M   'P 1'
_cell_length_a   5.37517443
_cell_length_b   8.11957615
_cell_length_c   8.37743585
_cell_angle_alpha   88.53978608
_cell_angle_beta   79.38264600
_cell_angle_gamma   87.05340751
_symmetry_Int_Tables_number   1
_chemical_formula_structural   BaCoBP2HO9
_chemical_formula_sum   'Ba2 Co2 B2 P4 H2 O18'
_cell_volume   358.84342686
_cell_formula_units_Z   2
loop_
 _symmetry_equiv_pos_site_id
 _symmetry_equiv_pos_as_xyz
  1  'x, y, z'
loop_
 _atom_site_type_symbol
 _atom_site_label
 _atom_site_symmetry_multiplicity
 _atom_site_fract_x
 _atom_site_fract_y
 _atom_site_fract_z
 _atom_site_occupancy
  H  H0  1  0.73013809  0.94650056  0.45337721  1
  H  H1  1  0.26986133  0.05350024  0.54662239  1
  B  B2  1  0.88716629  0.74426419  0.54777671  1
  B  B3  1  0.11283323  0.25573538  0.45222410  1
  O  O4  1  0.44687466  0.62018681  0.19413059  1
  O  O5  1  0.04110609  0.13640536  0.33958820  1
  O  O6  1  0.75415481  0.79685615  0.94522641  1
  O  O7  1  0.24584461  0.20314465  0.05477318  1
  O  O8  1  0.27140117  0.17278737  0.55767452  1
  O  O9  1  0.72860024  0.82721220  0.44232607  1
  O  O10  1  0.95889531  0.86359421  0.66041239  1
  O  O11  1  0.55312485  0.37981276  0.80586902  1
  O  O12  1  0.01920204  0.42805781  0.79453249  1
  O  O13  1  0.98079738  0.57194299  0.20546710  1
  O  O14  1  0.13139898  0.67451036  0.45795331  1
  O  O15  1  0.51027996  0.98345152  0.77765020  1
  O  O16  1  0.26638699  0.38727698  0.35938468  1
  O  O17  1  0.73361253  0.61272259  0.64061613  1
  O  O18  1  0.08901148  0.91245805  0.13692521  1
  O  O19  1  0.91098804  0.08754152  0.86307440  1
  O  O20  1  0.48971955  0.01654805  0.22234941  1
  O  O21  1  0.86860243  0.32548920  0.54204608  1
  P  P22  1  0.77495016  0.94103396  0.81742159  1
  P  P23  1  0.22505125  0.05896561  0.18257780  1
  P  P24  1  0.19926403  0.56858894  0.30150369  1
  P  P25  1  0.80073539  0.43141186  0.69849710  1
  Co  Co26  1  0.27339947  0.19988019  0.80251821  1
  Co  Co27  1  0.72660194  0.80011938  0.19748118  1
  Ba  Ba28  1  0.27718111  0.68988861  0.88474255  1
  Ba  Ba29  1  0.72281841  0.31011096  0.11525826  1
