# generated using pymatgen
data_Al2P3(HO3)3
_symmetry_space_group_name_H-M   'P 1'
_cell_length_a   7.98270063
_cell_length_b   7.98270063
_cell_length_c   7.18165955
_cell_angle_alpha   90.00000000
_cell_angle_beta   90.00000000
_cell_angle_gamma   120.00000003
_symmetry_Int_Tables_number   1
_chemical_formula_structural   Al2P3(HO3)3
_chemical_formula_sum   'Al4 P6 H6 O18'
_cell_volume   396.32834156
_cell_formula_units_Z   2
loop_
 _symmetry_equiv_pos_site_id
 _symmetry_equiv_pos_as_xyz
  1  'x, y, z'
loop_
 _atom_site_type_symbol
 _atom_site_label
 _atom_site_symmetry_multiplicity
 _atom_site_fract_x
 _atom_site_fract_y
 _atom_site_fract_z
 _atom_site_occupancy
  H  H0  1  0.82312318  0.83543069  0.75000000  1
  H  H1  1  0.98769249  0.82312318  0.25000000  1
  H  H2  1  0.83543069  0.01230751  0.25000000  1
  H  H3  1  0.16456931  0.98769249  0.75000000  1
  H  H4  1  0.01230751  0.17687682  0.75000000  1
  H  H5  1  0.17687682  0.16456931  0.25000000  1
  O  O6  1  0.13823854  0.51674320  0.75000000  1
  O  O7  1  0.62149534  0.13823854  0.25000000  1
  O  O8  1  0.51674320  0.37850466  0.25000000  1
  O  O9  1  0.48325680  0.62149534  0.75000000  1
  O  O10  1  0.16392235  0.71863416  0.07129102  1
  O  O11  1  0.44528819  0.16392235  0.57129102  1
  O  O12  1  0.71863416  0.55471181  0.57129102  1
  O  O13  1  0.28136584  0.44528819  0.07129102  1
  O  O14  1  0.55471181  0.83607765  0.07129102  1
  O  O15  1  0.83607765  0.28136584  0.57129102  1
  O  O16  1  0.83607765  0.28136584  0.92870898  1
  O  O17  1  0.55471181  0.83607765  0.42870898  1
  O  O18  1  0.28136584  0.44528819  0.42870898  1
  O  O19  1  0.71863416  0.55471181  0.92870898  1
  O  O20  1  0.44528819  0.16392235  0.92870898  1
  O  O21  1  0.16392235  0.71863416  0.42870898  1
  O  O22  1  0.86176146  0.48325680  0.25000000  1
  O  O23  1  0.37850466  0.86176146  0.75000000  1
  Al  Al24  1  0.33333333  0.66666667  0.94537808  1
  Al  Al25  1  0.66666667  0.33333333  0.44537808  1
  Al  Al26  1  0.66666667  0.33333333  0.05462192  1
  Al  Al27  1  0.33333333  0.66666667  0.55462192  1
  P  P28  1  0.36279340  0.04936715  0.75000000  1
  P  P29  1  0.04936715  0.68657376  0.25000000  1
  P  P30  1  0.68657376  0.63720660  0.75000000  1
  P  P31  1  0.31342624  0.36279340  0.25000000  1
  P  P32  1  0.63720660  0.95063285  0.25000000  1
  P  P33  1  0.95063285  0.31342624  0.75000000  1
