# generated using pymatgen
data_AgMo3(PO7)2
_symmetry_space_group_name_H-M   'P 1'
_cell_length_a   6.50796281
_cell_length_b   8.34042651
_cell_length_c   10.71220435
_cell_angle_alpha   109.39716052
_cell_angle_beta   90.00000000
_cell_angle_gamma   90.00000000
_symmetry_Int_Tables_number   1
_chemical_formula_structural   AgMo3(PO7)2
_chemical_formula_sum   'Ag2 Mo6 P4 O28'
_cell_volume   548.44612837
_cell_formula_units_Z   2
loop_
 _symmetry_equiv_pos_site_id
 _symmetry_equiv_pos_as_xyz
  1  'x, y, z'
loop_
 _atom_site_type_symbol
 _atom_site_label
 _atom_site_symmetry_multiplicity
 _atom_site_fract_x
 _atom_site_fract_y
 _atom_site_fract_z
 _atom_site_occupancy
  O  O0  1  0.24999970  0.94167736  0.58153721  1
  O  O1  1  0.75000065  0.05832302  0.41846300  1
  O  O2  1  0.24999970  0.78167141  0.18408483  1
  O  O3  1  0.75000065  0.21832770  0.81591503  1
  O  O4  1  0.53126861  0.28931780  0.62542100  1
  O  O5  1  0.03126766  0.71068259  0.37457921  1
  O  O6  1  0.46873175  0.71068259  0.37457921  1
  O  O7  1  0.96873116  0.28931780  0.62542100  1
  O  O8  1  0.06156382  0.75952422  0.69473787  1
  O  O9  1  0.56156323  0.24047489  0.30526199  1
  O  O10  1  0.93843654  0.24047489  0.30526199  1
  O  O11  1  0.43843713  0.75952422  0.69473787  1
  O  O12  1  0.75000065  0.60622244  0.07530414  1
  O  O13  1  0.24999970  0.39377667  0.92469573  1
  O  O14  1  0.75000065  0.97054387  0.17143297  1
  O  O15  1  0.24999970  0.02945527  0.82856596  1
  O  O16  1  0.44001899  0.77576824  0.97899256  1
  O  O17  1  0.94001840  0.22423215  0.02100766  1
  O  O18  1  0.55998137  0.22423215  0.02100766  1
  O  O19  1  0.05998196  0.77576824  0.97899256  1
  O  O20  1  0.24999970  0.06947021  0.38289201  1
  O  O21  1  0.24999970  0.36698921  0.19291315  1
  O  O22  1  0.75000065  0.95576707  0.88712015  1
  O  O23  1  0.24999970  0.04423332  0.11288007  1
  O  O24  1  0.75000065  0.57139058  0.53551595  1
  O  O25  1  0.24999970  0.42860981  0.46448426  1
  O  O26  1  0.75000065  0.93053019  0.61710728  1
  O  O27  1  0.75000065  0.63301118  0.80708706  1
  P  P28  1  0.24999970  0.84747811  0.06543686  1
  P  P29  1  0.75000065  0.15252101  0.93456300  1
  P  P30  1  0.75000065  0.12377292  0.29880169  1
  P  P31  1  0.24999970  0.87622620  0.70119818  1
  Mo  Mo32  1  0.75000065  0.76083094  0.00185666  1
  Mo  Mo33  1  0.24999970  0.23916817  0.99814321  1
  Mo  Mo34  1  0.75000065  0.74159335  0.67900329  1
  Mo  Mo35  1  0.75000065  0.16776395  0.62007164  1
  Mo  Mo36  1  0.24999970  0.25840703  0.32099692  1
  Mo  Mo37  1  0.24999970  0.83223644  0.37992857  1
  Ag  Ag38  1  0.24999970  0.46814676  0.72078163  1
  Ag  Ag39  1  0.75000065  0.53185363  0.27921858  1
