# generated using pymatgen
data_ErH3(SO4)3
_symmetry_space_group_name_H-M   'P 1'
_cell_length_a   9.56287693
_cell_length_b   12.10225051
_cell_length_c   16.87849425
_cell_angle_alpha   90.00000000
_cell_angle_beta   90.00000000
_cell_angle_gamma   90.00000000
_symmetry_Int_Tables_number   1
_chemical_formula_structural   ErH3(SO4)3
_chemical_formula_sum   'Er8 H24 S24 O96'
_cell_volume   1953.38750363
_cell_formula_units_Z   8
loop_
 _symmetry_equiv_pos_site_id
 _symmetry_equiv_pos_as_xyz
  1  'x, y, z'
loop_
 _atom_site_type_symbol
 _atom_site_label
 _atom_site_symmetry_multiplicity
 _atom_site_fract_x
 _atom_site_fract_y
 _atom_site_fract_z
 _atom_site_occupancy
  H  H0  1  0.10398596  0.75913637  0.93170219  1
  H  H1  1  0.60398596  0.24086363  0.56829781  1
  H  H2  1  0.39601404  0.25913637  0.06829781  1
  H  H3  1  0.89601404  0.74086363  0.43170219  1
  H  H4  1  0.89601404  0.24086363  0.06829781  1
  H  H5  1  0.39601404  0.75913637  0.43170219  1
  H  H6  1  0.60398596  0.74086363  0.93170219  1
  H  H7  1  0.10398596  0.25913637  0.56829781  1
  H  H8  1  0.88409237  0.42125829  0.94576091  1
  H  H9  1  0.38409237  0.57874171  0.55423909  1
  H  H10  1  0.61590763  0.92125829  0.05423909  1
  H  H11  1  0.11590763  0.07874171  0.44576091  1
  H  H12  1  0.11590763  0.57874171  0.05423909  1
  H  H13  1  0.61590763  0.42125829  0.44576091  1
  H  H14  1  0.38409237  0.07874171  0.94576091  1
  H  H15  1  0.88409237  0.92125829  0.55423909  1
  H  H16  1  0.61934471  0.41888004  0.00257212  1
  H  H17  1  0.11934471  0.58111996  0.49742788  1
  H  H18  1  0.88065529  0.91888004  0.99742788  1
  H  H19  1  0.38065529  0.08111996  0.50257212  1
  H  H20  1  0.38065529  0.58111996  0.99742788  1
  H  H21  1  0.88065529  0.41888004  0.50257212  1
  H  H22  1  0.11934471  0.08111996  0.00257212  1
  H  H23  1  0.61934471  0.91888004  0.49742788  1
  O  O24  1  0.13403488  0.33465034  0.83081595  1
  O  O25  1  0.63403488  0.66534966  0.66918405  1
  O  O26  1  0.36596512  0.83465034  0.16918405  1
  O  O27  1  0.86596512  0.16534966  0.33081595  1
  O  O28  1  0.86596512  0.66534966  0.16918405  1
  O  O29  1  0.36596512  0.33465034  0.33081595  1
  O  O30  1  0.63403488  0.16534966  0.83081595  1
  O  O31  1  0.13403488  0.83465034  0.66918405  1
  O  O32  1  0.03540160  0.66609178  0.79452200  1
  O  O33  1  0.53540160  0.33390822  0.70547800  1
  O  O34  1  0.46459840  0.16609178  0.20547800  1
  O  O35  1  0.96459840  0.83390822  0.29452200  1
  O  O36  1  0.96459840  0.33390822  0.20547800  1
  O  O37  1  0.46459840  0.66609178  0.29452200  1
  O  O38  1  0.53540160  0.83390822  0.79452200  1
  O  O39  1  0.03540160  0.16609178  0.70547800  1
  O  O40  1  0.94110506  0.44644935  0.78264817  1
  O  O41  1  0.44110506  0.55355065  0.71735183  1
  O  O42  1  0.55889494  0.94644935  0.21735183  1
  O  O43  1  0.05889494  0.05355065  0.28264817  1
  O  O44  1  0.05889494  0.55355065  0.21735183  1
  O  O45  1  0.55889494  0.44644935  0.28264817  1
  O  O46  1  0.44110506  0.05355065  0.78264817  1
  O  O47  1  0.94110506  0.94644935  0.71735183  1
  O  O48  1  0.76991376  0.75892954  0.80672007  1
  O  O49  1  0.26991376  0.24107046  0.69327993  1
  O  O50  1  0.73008624  0.25892954  0.19327993  1
  O  O51  1  0.23008624  0.74107046  0.30672007  1
  O  O52  1  0.23008624  0.24107046  0.19327993  1
  O  O53  1  0.73008624  0.75892954  0.30672007  1
  O  O54  1  0.26991376  0.74107046  0.80672007  1
  O  O55  1  0.76991376  0.25892954  0.69327993  1
  O  O56  1  0.69892390  0.54564590  0.83838910  1
  O  O57  1  0.19892390  0.45435410  0.66161090  1
  O  O58  1  0.80107610  0.04564590  0.16161090  1
  O  O59  1  0.30107610  0.95435410  0.33838910  1
  O  O60  1  0.30107610  0.45435410  0.16161090  1
  O  O61  1  0.80107610  0.54564590  0.33838910  1
  O  O62  1  0.19892390  0.95435410  0.83838910  1
  O  O63  1  0.69892390  0.04564590  0.66161090  1
  O  O64  1  0.14425564  0.68268581  0.92537750  1
  O  O65  1  0.64425564  0.31731419  0.57462250  1
  O  O66  1  0.35574436  0.18268581  0.07462250  1
  O  O67  1  0.85574436  0.81731419  0.42537750  1
  O  O68  1  0.85574436  0.31731419  0.07462250  1
  O  O69  1  0.35574436  0.68268581  0.42537750  1
  O  O70  1  0.64425564  0.81731419  0.92537750  1
  O  O71  1  0.14425564  0.18268581  0.57462250  1
  O  O72  1  0.98729339  0.55992991  0.63186367  1
  O  O73  1  0.48729339  0.44007009  0.86813633  1
  O  O74  1  0.51270661  0.05992991  0.36813633  1
  O  O75  1  0.01270661  0.94007009  0.13186367  1
  O  O76  1  0.01270661  0.44007009  0.36813633  1
  O  O77  1  0.51270661  0.55992991  0.13186367  1
  O  O78  1  0.48729339  0.94007009  0.63186367  1
  O  O79  1  0.98729339  0.05992991  0.86813633  1
  O  O80  1  0.98146289  0.41665835  0.92587962  1
  O  O81  1  0.48146289  0.58334165  0.57412038  1
  O  O82  1  0.51853711  0.91665835  0.07412038  1
  O  O83  1  0.01853711  0.08334165  0.42587962  1
  O  O84  1  0.01853711  0.58334165  0.07412038  1
  O  O85  1  0.51853711  0.41665835  0.42587962  1
  O  O86  1  0.48146289  0.08334165  0.92587962  1
  O  O87  1  0.98146289  0.91665835  0.57412038  1
  O  O88  1  0.22913252  0.54665048  0.83541842  1
  O  O89  1  0.72913252  0.45334952  0.66458158  1
  O  O90  1  0.27086748  0.04665048  0.16458158  1
  O  O91  1  0.77086748  0.95334952  0.33541842  1
  O  O92  1  0.77086748  0.45334952  0.16458158  1
  O  O93  1  0.27086748  0.54665048  0.33541842  1
  O  O94  1  0.72913252  0.95334952  0.83541842  1
  O  O95  1  0.22913252  0.04665048  0.66458158  1
  O  O96  1  0.89428436  0.26696064  0.84268993  1
  O  O97  1  0.39428436  0.73303936  0.65731007  1
  O  O98  1  0.60571564  0.76696064  0.15731007  1
  O  O99  1  0.10571564  0.23303936  0.34268993  1
  O  O100  1  0.10571564  0.73303936  0.15731007  1
  O  O101  1  0.60571564  0.26696064  0.34268993  1
  O  O102  1  0.39428436  0.23303936  0.84268993  1
  O  O103  1  0.89428436  0.76696064  0.65731007  1
  O  O104  1  0.03221535  0.38844917  0.56179825  1
  O  O105  1  0.53221535  0.61155083  0.93820175  1
  O  O106  1  0.46778465  0.88844917  0.43820175  1
  O  O107  1  0.96778465  0.11155083  0.06179825  1
  O  O108  1  0.96778465  0.61155083  0.43820175  1
  O  O109  1  0.46778465  0.38844917  0.06179825  1
  O  O110  1  0.53221535  0.11155083  0.56179825  1
  O  O111  1  0.03221535  0.88844917  0.93820175  1
  O  O112  1  0.68332979  0.44868927  0.96046965  1
  O  O113  1  0.18332979  0.55131073  0.53953035  1
  O  O114  1  0.81667021  0.94868927  0.03953035  1
  O  O115  1  0.31667021  0.05131073  0.46046965  1
  O  O116  1  0.31667021  0.55131073  0.03953035  1
  O  O117  1  0.81667021  0.44868927  0.46046965  1
  O  O118  1  0.18332979  0.05131073  0.96046965  1
  O  O119  1  0.68332979  0.94868927  0.53953035  1
  S  S120  1  0.17109658  0.65784881  0.83475632  1
  S  S121  1  0.67109658  0.34215119  0.66524368  1
  S  S122  1  0.32890342  0.15784881  0.16524368  1
  S  S123  1  0.82890342  0.84215119  0.33475632  1
  S  S124  1  0.82890342  0.34215119  0.16524368  1
  S  S125  1  0.32890342  0.65784881  0.33475632  1
  S  S126  1  0.67109658  0.84215119  0.83475632  1
  S  S127  1  0.17109658  0.15784881  0.66524368  1
  S  S128  1  0.09433757  0.48409366  0.60300323  1
  S  S129  1  0.59433757  0.51590634  0.89699677  1
  S  S130  1  0.40566243  0.98409366  0.39699677  1
  S  S131  1  0.90566243  0.01590634  0.10300323  1
  S  S132  1  0.90566243  0.51590634  0.39699677  1
  S  S133  1  0.40566243  0.48409366  0.10300323  1
  S  S134  1  0.59433757  0.01590634  0.60300323  1
  S  S135  1  0.09433757  0.98409366  0.89699677  1
  S  S136  1  0.98625558  0.36335339  0.84028729  1
  S  S137  1  0.48625558  0.63664661  0.65971271  1
  S  S138  1  0.51374442  0.86335339  0.15971271  1
  S  S139  1  0.01374442  0.13664661  0.34028729  1
  S  S140  1  0.01374442  0.63664661  0.15971271  1
  S  S141  1  0.51374442  0.36335339  0.34028729  1
  S  S142  1  0.48625558  0.13664661  0.84028729  1
  S  S143  1  0.98625558  0.86335339  0.65971271  1
  Er  Er144  1  0.83513395  0.60691169  0.73169089  1
  Er  Er145  1  0.33513395  0.39308831  0.76830911  1
  Er  Er146  1  0.66486605  0.10691169  0.26830911  1
  Er  Er147  1  0.16486605  0.89308831  0.23169089  1
  Er  Er148  1  0.16486605  0.39308831  0.26830911  1
  Er  Er149  1  0.66486605  0.60691169  0.23169089  1
  Er  Er150  1  0.33513395  0.89308831  0.73169089  1
  Er  Er151  1  0.83513395  0.10691169  0.76830911  1
