# generated using pymatgen
data_PuH8(SO6)2
_symmetry_space_group_name_H-M   'P 1'
_cell_length_a   5.76885015
_cell_length_b   11.14309450
_cell_length_c   14.66933159
_cell_angle_alpha   90.00000000
_cell_angle_beta   90.00000000
_cell_angle_gamma   90.00000000
_symmetry_Int_Tables_number   1
_chemical_formula_structural   PuH8(SO6)2
_chemical_formula_sum   'Pu4 H32 S8 O48'
_cell_volume   942.98633039
_cell_formula_units_Z   4
loop_
 _symmetry_equiv_pos_site_id
 _symmetry_equiv_pos_as_xyz
  1  'x, y, z'
loop_
 _atom_site_type_symbol
 _atom_site_label
 _atom_site_symmetry_multiplicity
 _atom_site_fract_x
 _atom_site_fract_y
 _atom_site_fract_z
 _atom_site_occupancy
  H  H0  1  0.69838855  0.44428575  0.59633764  1
  H  H1  1  0.19838855  0.55571425  0.90366236  1
  H  H2  1  0.30161145  0.94428575  0.40366236  1
  H  H3  1  0.80161145  0.05571425  0.09633764  1
  H  H4  1  0.30161145  0.55571425  0.40366236  1
  H  H5  1  0.80161145  0.44428575  0.09633764  1
  H  H6  1  0.69838855  0.05571425  0.59633764  1
  H  H7  1  0.19838855  0.94428575  0.90366236  1
  H  H8  1  0.62586301  0.37367615  0.50768646  1
  H  H9  1  0.12586301  0.62632385  0.99231354  1
  H  H10  1  0.37413699  0.87367615  0.49231354  1
  H  H11  1  0.87413699  0.12632385  0.00768646  1
  H  H12  1  0.37413699  0.62632385  0.49231354  1
  H  H13  1  0.87413699  0.37367615  0.00768646  1
  H  H14  1  0.62586301  0.12632385  0.50768646  1
  H  H15  1  0.12586301  0.87367615  0.99231354  1
  H  H16  1  0.14966349  0.32126515  0.48701218  1
  H  H17  1  0.64966349  0.67873485  0.01298782  1
  H  H18  1  0.85033651  0.82126515  0.51298782  1
  H  H19  1  0.35033651  0.17873485  0.98701218  1
  H  H20  1  0.85033651  0.67873485  0.51298782  1
  H  H21  1  0.35033651  0.32126515  0.98701218  1
  H  H22  1  0.14966349  0.17873485  0.48701218  1
  H  H23  1  0.64966349  0.82126515  0.01298782  1
  H  H24  1  0.04161827  0.31992682  0.82729860  1
  H  H25  1  0.54161827  0.68007318  0.67270140  1
  H  H26  1  0.95838173  0.81992682  0.17270140  1
  H  H27  1  0.45838173  0.18007318  0.32729860  1
  H  H28  1  0.95838173  0.68007318  0.17270140  1
  H  H29  1  0.45838173  0.31992682  0.32729860  1
  H  H30  1  0.04161827  0.18007318  0.82729860  1
  H  H31  1  0.54161827  0.81992682  0.67270140  1
  O  O32  1  0.60519895  0.37531403  0.57501278  1
  O  O33  1  0.10519895  0.62468597  0.92498722  1
  O  O34  1  0.39480105  0.87531403  0.42498722  1
  O  O35  1  0.89480105  0.12468597  0.07501278  1
  O  O36  1  0.39480105  0.62468597  0.42498722  1
  O  O37  1  0.89480105  0.37531403  0.07501278  1
  O  O38  1  0.60519895  0.12468597  0.57501278  1
  O  O39  1  0.10519895  0.87531403  0.92498722  1
  O  O40  1  0.87151599  0.75000000  0.19650800  1
  O  O41  1  0.37151599  0.25000000  0.30349200  1
  O  O42  1  0.12848401  0.25000000  0.80349200  1
  O  O43  1  0.62848401  0.75000000  0.69650800  1
  O  O44  1  0.81638195  0.75000000  0.47434275  1
  O  O45  1  0.31638195  0.25000000  0.02565725  1
  O  O46  1  0.18361805  0.25000000  0.52565725  1
  O  O47  1  0.68361805  0.75000000  0.97434275  1
  O  O48  1  0.82654902  0.39620592  0.89426754  1
  O  O49  1  0.32654902  0.60379408  0.60573246  1
  O  O50  1  0.17345098  0.89620592  0.10573246  1
  O  O51  1  0.67345098  0.10379408  0.39426754  1
  O  O52  1  0.17345098  0.60379408  0.10573246  1
  O  O53  1  0.67345098  0.39620592  0.39426754  1
  O  O54  1  0.82654902  0.10379408  0.89426754  1
  O  O55  1  0.32654902  0.89620592  0.60573246  1
  O  O56  1  0.40825690  0.43267942  0.90746285  1
  O  O57  1  0.90825690  0.56732058  0.59253715  1
  O  O58  1  0.59174310  0.93267942  0.09253715  1
  O  O59  1  0.09174310  0.06732058  0.40746285  1
  O  O60  1  0.59174310  0.56732058  0.09253715  1
  O  O61  1  0.09174310  0.43267942  0.40746285  1
  O  O62  1  0.40825690  0.06732058  0.90746285  1
  O  O63  1  0.90825690  0.93267942  0.59253715  1
  O  O64  1  0.14874216  0.42262525  0.66925131  1
  O  O65  1  0.64874216  0.57737475  0.83074869  1
  O  O66  1  0.85125784  0.92262525  0.33074869  1
  O  O67  1  0.35125784  0.07737475  0.16925131  1
  O  O68  1  0.85125784  0.57737475  0.33074869  1
  O  O69  1  0.35125784  0.42262525  0.16925131  1
  O  O70  1  0.14874216  0.07737475  0.66925131  1
  O  O71  1  0.64874216  0.92262525  0.83074869  1
  O  O72  1  0.58703784  0.38340679  0.76041503  1
  O  O73  1  0.08703784  0.61659321  0.73958497  1
  O  O74  1  0.41296216  0.88340679  0.23958497  1
  O  O75  1  0.91296216  0.11659321  0.26041503  1
  O  O76  1  0.41296216  0.61659321  0.23958497  1
  O  O77  1  0.91296216  0.38340679  0.26041503  1
  O  O78  1  0.58703784  0.11659321  0.76041503  1
  O  O79  1  0.08703784  0.88340679  0.73958497  1
  S  S80  1  0.61745016  0.44595851  0.85046562  1
  S  S81  1  0.11745016  0.55404149  0.64953438  1
  S  S82  1  0.38254984  0.94595851  0.14953438  1
  S  S83  1  0.88254984  0.05404149  0.35046562  1
  S  S84  1  0.38254984  0.55404149  0.14953438  1
  S  S85  1  0.88254984  0.44595851  0.35046562  1
  S  S86  1  0.61745016  0.05404149  0.85046562  1
  S  S87  1  0.11745016  0.94595851  0.64953438  1
  Pu  Pu88  1  0.62597555  0.75000000  0.32903267  1
  Pu  Pu89  1  0.12597555  0.25000000  0.17096733  1
  Pu  Pu90  1  0.37402445  0.25000000  0.67096733  1
  Pu  Pu91  1  0.87402445  0.75000000  0.82903267  1
