# generated using pymatgen
data_H2SO4
_symmetry_space_group_name_H-M   'P 1'
_cell_length_a   4.65163248
_cell_length_b   8.06735418
_cell_length_c   9.20646338
_cell_angle_alpha   108.12947905
_cell_angle_beta   90.00000000
_cell_angle_gamma   90.00000000
_symmetry_Int_Tables_number   1
_chemical_formula_structural   H2SO4
_chemical_formula_sum   'H8 S4 O16'
_cell_volume   328.33377529
_cell_formula_units_Z   4
loop_
 _symmetry_equiv_pos_site_id
 _symmetry_equiv_pos_as_xyz
  1  'x, y, z'
loop_
 _atom_site_type_symbol
 _atom_site_label
 _atom_site_symmetry_multiplicity
 _atom_site_fract_x
 _atom_site_fract_y
 _atom_site_fract_z
 _atom_site_occupancy
  H  H0  1  0.29155251  0.56680820  0.39978132  1
  H  H1  1  0.79155251  0.43319180  0.10021868  1
  H  H2  1  0.70844749  0.43319180  0.60021868  1
  H  H3  1  0.20844749  0.56680820  0.89978132  1
  H  H4  1  0.84693729  0.14672276  0.68632311  1
  H  H5  1  0.34693729  0.85327724  0.81367689  1
  H  H6  1  0.15306271  0.85327724  0.31367689  1
  H  H7  1  0.65306271  0.14672276  0.18632311  1
  O  O8  1  0.36317465  0.87948367  0.30244782  1
  O  O9  1  0.56435541  0.33479022  0.55792098  1
  O  O10  1  0.93564459  0.33479022  0.05792098  1
  O  O11  1  0.06435541  0.66520978  0.94207902  1
  O  O12  1  0.93977601  0.58901172  0.66951366  1
  O  O13  1  0.43977601  0.41098828  0.83048634  1
  O  O14  1  0.06022399  0.41098828  0.33048634  1
  O  O15  1  0.56022399  0.58901172  0.16951366  1
  O  O16  1  0.66378455  0.81095409  0.86811351  1
  O  O17  1  0.16378455  0.18904591  0.63188649  1
  O  O18  1  0.33621545  0.18904591  0.13188649  1
  O  O19  1  0.83621545  0.81095409  0.36811351  1
  O  O20  1  0.63682535  0.12051633  0.69755218  1
  O  O21  1  0.13682535  0.87948367  0.80244782  1
  O  O22  1  0.43564459  0.66520978  0.44207902  1
  O  O23  1  0.86317465  0.12051633  0.19755218  1
  S  S24  1  0.56499920  0.73012756  0.31334281  1
  S  S25  1  0.06499920  0.26987244  0.18665719  1
  S  S26  1  0.43500080  0.26987244  0.68665719  1
  S  S27  1  0.93500080  0.73012756  0.81334281  1
