# generated using pymatgen
data_KMg30SiO32
_symmetry_space_group_name_H-M   'P 1'
_cell_length_a   8.60862209
_cell_length_b   8.59774029
_cell_length_c   8.59774029
_cell_angle_alpha   90.00000000
_cell_angle_beta   90.00000000
_cell_angle_gamma   90.00000000
_symmetry_Int_Tables_number   1
_chemical_formula_structural   KMg30SiO32
_chemical_formula_sum   'K1 Mg30 Si1 O32'
_cell_volume   636.35914232
_cell_formula_units_Z   1
loop_
 _symmetry_equiv_pos_site_id
 _symmetry_equiv_pos_as_xyz
  1  'x, y, z'
loop_
 _atom_site_type_symbol
 _atom_site_label
 _atom_site_symmetry_multiplicity
 _atom_site_fract_x
 _atom_site_fract_y
 _atom_site_fract_z
 _atom_site_occupancy
  K  K0  1  0.00000000  0.00000000  -0.00000000  1
  Mg  Mg1  1  0.00000000  0.00000000  0.50000000  1
  Mg  Mg2  1  0.00000000  0.50000000  -0.00000000  1
  Mg  Mg3  1  0.50000000  0.00000000  -0.00000000  1
  Mg  Mg4  1  0.50000000  0.00000000  0.50000000  1
  Mg  Mg5  1  0.50000000  0.50000000  -0.00000000  1
  Mg  Mg6  1  0.50000000  0.50000000  0.50000000  1
  Mg  Mg7  1  0.00000000  0.24921632  0.24921632  1
  Mg  Mg8  1  0.00000000  0.24921632  0.75078368  1
  Mg  Mg9  1  0.00000000  0.75078368  0.24921632  1
  Mg  Mg10  1  0.00000000  0.75078368  0.75078368  1
  Mg  Mg11  1  0.50000000  0.24896986  0.24896986  1
  Mg  Mg12  1  0.50000000  0.24896986  0.75103014  1
  Mg  Mg13  1  0.50000000  0.75103014  0.24896986  1
  Mg  Mg14  1  0.50000000  0.75103014  0.75103014  1
  Mg  Mg15  1  0.25243168  0.00000000  0.25033740  1
  Mg  Mg16  1  0.25243168  0.00000000  0.74966260  1
  Mg  Mg17  1  0.25201671  0.50000000  0.24845608  1
  Mg  Mg18  1  0.25201671  0.50000000  0.75154392  1
  Mg  Mg19  1  0.74756832  0.00000000  0.25033740  1
  Mg  Mg20  1  0.74756832  0.00000000  0.74966260  1
  Mg  Mg21  1  0.74798329  0.50000000  0.24845608  1
  Mg  Mg22  1  0.74798329  0.50000000  0.75154392  1
  Mg  Mg23  1  0.25243168  0.25033740  -0.00000000  1
  Mg  Mg24  1  0.25201671  0.24845608  0.50000000  1
  Mg  Mg25  1  0.25243168  0.74966260  -0.00000000  1
  Mg  Mg26  1  0.25201671  0.75154392  0.50000000  1
  Mg  Mg27  1  0.74756832  0.25033740  -0.00000000  1
  Mg  Mg28  1  0.74798329  0.24845608  0.50000000  1
  Mg  Mg29  1  0.74756832  0.74966260  -0.00000000  1
  Mg  Mg30  1  0.74798329  0.75154392  0.50000000  1
  Si  Si31  1  0.00000000  0.50000000  0.50000000  1
  O  O32  1  0.27357478  0.00000000  -0.00000000  1
  O  O33  1  0.25077366  0.00000000  0.50000000  1
  O  O34  1  0.25077366  0.50000000  -0.00000000  1
  O  O35  1  0.22382939  0.50000000  0.50000000  1
  O  O36  1  0.72642522  0.00000000  -0.00000000  1
  O  O37  1  0.74922634  0.00000000  0.50000000  1
  O  O38  1  0.74922634  0.50000000  -0.00000000  1
  O  O39  1  0.77617061  0.50000000  0.50000000  1
  O  O40  1  0.24860937  0.25115956  0.25115956  1
  O  O41  1  0.24860937  0.25115956  0.74884044  1
  O  O42  1  0.24860937  0.74884044  0.25115956  1
  O  O43  1  0.24860937  0.74884044  0.74884044  1
  O  O44  1  0.75139063  0.25115956  0.25115956  1
  O  O45  1  0.75139063  0.25115956  0.74884044  1
  O  O46  1  0.75139063  0.74884044  0.25115956  1
  O  O47  1  0.75139063  0.74884044  0.74884044  1
  O  O48  1  0.00000000  0.00000000  0.27628839  1
  O  O49  1  0.00000000  0.00000000  0.72371161  1
  O  O50  1  0.00000000  0.50000000  0.28310516  1
  O  O51  1  0.00000000  0.50000000  0.71689484  1
  O  O52  1  0.50000000  0.00000000  0.25587485  1
  O  O53  1  0.50000000  0.00000000  0.74412515  1
  O  O54  1  0.50000000  0.50000000  0.25544907  1
  O  O55  1  0.50000000  0.50000000  0.74455093  1
  O  O56  1  0.00000000  0.27628839  -0.00000000  1
  O  O57  1  0.00000000  0.28310516  0.50000000  1
  O  O58  1  0.00000000  0.72371161  -0.00000000  1
  O  O59  1  0.00000000  0.71689484  0.50000000  1
  O  O60  1  0.50000000  0.25587485  -0.00000000  1
  O  O61  1  0.50000000  0.25544907  0.50000000  1
  O  O62  1  0.50000000  0.74412515  -0.00000000  1
  O  O63  1  0.50000000  0.74455093  0.50000000  1
