# generated using pymatgen
data_Ba10Al3Ge7
_symmetry_space_group_name_H-M   'P 1'
_cell_length_a   9.87842026
_cell_length_b   9.87842026
_cell_length_c   16.64067920
_cell_angle_alpha   90.00000000
_cell_angle_beta   90.00000000
_cell_angle_gamma   119.99999998
_symmetry_Int_Tables_number   1
_chemical_formula_structural   Ba10Al3Ge7
_chemical_formula_sum   'Ba20 Al6 Ge14'
_cell_volume   1406.29579228
_cell_formula_units_Z   2
loop_
 _symmetry_equiv_pos_site_id
 _symmetry_equiv_pos_as_xyz
  1  'x, y, z'
loop_
 _atom_site_type_symbol
 _atom_site_label
 _atom_site_symmetry_multiplicity
 _atom_site_fract_x
 _atom_site_fract_y
 _atom_site_fract_z
 _atom_site_occupancy
  Al  Al0  1  0.00000000  0.26958015  0.75000000  1
  Al  Al1  1  0.73041985  0.00000000  0.25000000  1
  Al  Al2  1  0.26958015  0.26958015  0.25000000  1
  Al  Al3  1  0.73041985  0.73041985  0.75000000  1
  Al  Al4  1  0.26958015  0.00000000  0.75000000  1
  Al  Al5  1  0.00000000  0.73041985  0.25000000  1
  Ge  Ge6  1  0.00000000  0.60605605  0.11737461  1
  Ge  Ge7  1  0.00000000  0.00000000  0.25000000  1
  Ge  Ge8  1  0.39394395  0.39394395  0.11737461  1
  Ge  Ge9  1  0.00000000  0.00000000  0.75000000  1
  Ge  Ge10  1  0.60605605  0.00000000  0.11737461  1
  Ge  Ge11  1  0.00000000  0.39394395  0.61737461  1
  Ge  Ge12  1  0.60605605  0.00000000  0.38262539  1
  Ge  Ge13  1  0.60605605  0.60605605  0.61737461  1
  Ge  Ge14  1  0.39394395  0.00000000  0.61737461  1
  Ge  Ge15  1  0.60605605  0.60605605  0.88262539  1
  Ge  Ge16  1  0.00000000  0.39394395  0.88262539  1
  Ge  Ge17  1  0.00000000  0.60605605  0.38262539  1
  Ge  Ge18  1  0.39394395  0.39394395  0.38262539  1
  Ge  Ge19  1  0.39394395  0.00000000  0.88262539  1
  Ba  Ba20  1  0.26020628  0.26020628  0.60322533  1
  Ba  Ba21  1  0.73979372  0.00000000  0.60322533  1
  Ba  Ba22  1  0.00000000  0.73979372  0.60322533  1
  Ba  Ba23  1  0.00000000  0.26020628  0.10322533  1
  Ba  Ba24  1  0.73979372  0.00000000  0.89677467  1
  Ba  Ba25  1  0.73979372  0.73979372  0.10322533  1
  Ba  Ba26  1  0.26020628  0.00000000  0.10322533  1
  Ba  Ba27  1  0.73979372  0.73979372  0.39677467  1
  Ba  Ba28  1  0.00000000  0.26020628  0.39677467  1
  Ba  Ba29  1  0.00000000  0.73979372  0.89677467  1
  Ba  Ba30  1  0.26020628  0.26020628  0.89677467  1
  Ba  Ba31  1  0.26020628  0.00000000  0.39677467  1
  Ba  Ba32  1  0.33333333  0.66666667  0.50000000  1
  Ba  Ba33  1  0.66666667  0.33333333  0.00000000  1
  Ba  Ba34  1  0.66666667  0.33333333  0.50000000  1
  Ba  Ba35  1  0.33333333  0.66666667  0.00000000  1
  Ba  Ba36  1  0.33333333  0.66666667  0.75000000  1
  Ba  Ba37  1  0.66666667  0.33333333  0.25000000  1
  Ba  Ba38  1  0.66666667  0.33333333  0.75000000  1
  Ba  Ba39  1  0.33333333  0.66666667  0.25000000  1
