# generated using pymatgen
data_Ca5(AlBi3)2
_symmetry_space_group_name_H-M   'P 1'
_cell_length_a   4.58792201
_cell_length_b   7.58767341
_cell_length_c   23.58029317
_cell_angle_alpha   90.00000000
_cell_angle_beta   90.00000000
_cell_angle_gamma   90.00000000
_symmetry_Int_Tables_number   1
_chemical_formula_structural   Ca5(AlBi3)2
_chemical_formula_sum   'Ca10 Al4 Bi12'
_cell_volume   820.86900334
_cell_formula_units_Z   2
loop_
 _symmetry_equiv_pos_site_id
 _symmetry_equiv_pos_as_xyz
  1  'x, y, z'
loop_
 _atom_site_type_symbol
 _atom_site_label
 _atom_site_symmetry_multiplicity
 _atom_site_fract_x
 _atom_site_fract_y
 _atom_site_fract_z
 _atom_site_occupancy
  Al  Al0  1  0.50000000  0.81765643  0.62081946  1
  Al  Al1  1  0.50000000  0.18234357  0.37918054  1
  Al  Al2  1  0.50000000  0.31765643  0.87918054  1
  Al  Al3  1  0.50000000  0.68234357  0.12081946  1
  Ca  Ca4  1  0.00000000  0.53472998  0.41137073  1
  Ca  Ca5  1  0.00000000  0.46527002  0.58862927  1
  Ca  Ca6  1  0.00000000  0.03472998  0.08862927  1
  Ca  Ca7  1  0.00000000  0.96527002  0.91137073  1
  Ca  Ca8  1  0.00000000  0.27080081  0.75516737  1
  Ca  Ca9  1  0.00000000  0.72919919  0.24483263  1
  Ca  Ca10  1  0.00000000  0.77080081  0.74483263  1
  Ca  Ca11  1  0.00000000  0.22919919  0.25516737  1
  Ca  Ca12  1  0.00000000  0.50000000  0.00000000  1
  Ca  Ca13  1  0.00000000  0.00000000  0.50000000  1
  Bi  Bi14  1  0.00000000  0.03666813  0.63621526  1
  Bi  Bi15  1  0.00000000  0.96333187  0.36378474  1
  Bi  Bi16  1  0.00000000  0.53666813  0.86378474  1
  Bi  Bi17  1  0.00000000  0.46333187  0.13621526  1
  Bi  Bi18  1  0.50000000  0.98933938  0.18833471  1
  Bi  Bi19  1  0.50000000  0.01066062  0.81166529  1
  Bi  Bi20  1  0.50000000  0.48933938  0.31166529  1
  Bi  Bi21  1  0.50000000  0.51066062  0.68833471  1
  Bi  Bi22  1  0.50000000  0.79328857  0.00252593  1
  Bi  Bi23  1  0.50000000  0.20671143  0.99747407  1
  Bi  Bi24  1  0.50000000  0.29328857  0.49747407  1
  Bi  Bi25  1  0.50000000  0.70671143  0.50252593  1
