# generated using pymatgen
data_Sn(PO3)4
_symmetry_space_group_name_H-M   'P 1'
_cell_length_a   13.17260791
_cell_length_b   8.30685513
_cell_length_c   9.39726148
_cell_angle_alpha   90.00000000
_cell_angle_beta   90.00000000
_cell_angle_gamma   90.00000000
_symmetry_Int_Tables_number   1
_chemical_formula_structural   Sn(PO3)4
_chemical_formula_sum   'Sn4 P16 O48'
_cell_volume   1028.27603165
_cell_formula_units_Z   4
loop_
 _symmetry_equiv_pos_site_id
 _symmetry_equiv_pos_as_xyz
  1  'x, y, z'
loop_
 _atom_site_type_symbol
 _atom_site_label
 _atom_site_symmetry_multiplicity
 _atom_site_fract_x
 _atom_site_fract_y
 _atom_site_fract_z
 _atom_site_occupancy
  O  O0  1  0.07033428  0.18595280  0.62807782  1
  O  O1  1  0.07033428  0.81404720  0.12807782  1
  O  O2  1  0.06870191  0.46356211  0.13230383  1
  O  O3  1  0.06870191  0.53643789  0.63230383  1
  O  O4  1  0.12581887  0.08811219  0.37663466  1
  O  O5  1  0.12581887  0.91188781  0.87663466  1
  O  O6  1  0.12307186  0.36222685  0.88718964  1
  O  O7  1  0.12307186  0.63777315  0.38718964  1
  O  O8  1  0.18137845  0.36400114  0.47073064  1
  O  O9  1  0.18137845  0.63599886  0.97073064  1
  O  O10  1  0.25132492  0.11687410  0.58698410  1
  O  O11  1  0.25132492  0.88312590  0.08698410  1
  O  O12  1  0.24867508  0.38312590  0.08698410  1
  O  O13  1  0.24867508  0.61687410  0.58698410  1
  O  O14  1  0.31862155  0.13599886  0.97073064  1
  O  O15  1  0.31862155  0.86400114  0.47073064  1
  O  O16  1  0.37692814  0.13777315  0.38718964  1
  O  O17  1  0.37692814  0.86222685  0.88718964  1
  O  O18  1  0.37418113  0.41188781  0.87663466  1
  O  O19  1  0.37418113  0.58811219  0.37663466  1
  O  O20  1  0.43129809  0.03643789  0.63230383  1
  O  O21  1  0.43129809  0.96356211  0.13230383  1
  O  O22  1  0.42966572  0.31404720  0.12807782  1
  O  O23  1  0.42966572  0.68595280  0.62807782  1
  O  O24  1  0.57033428  0.31404720  0.37192218  1
  O  O25  1  0.57033428  0.68595280  0.87192218  1
  O  O26  1  0.56870191  0.03643789  0.86769617  1
  O  O27  1  0.56870191  0.96356211  0.36769617  1
  O  O28  1  0.62581887  0.41188781  0.62336534  1
  O  O29  1  0.62581887  0.58811219  0.12336534  1
  O  O30  1  0.62307186  0.13777315  0.11281036  1
  O  O31  1  0.62307186  0.86222685  0.61281036  1
  O  O32  1  0.68137845  0.13599886  0.52926936  1
  O  O33  1  0.68137845  0.86400114  0.02926936  1
  O  O34  1  0.75132492  0.38312590  0.41301590  1
  O  O35  1  0.75132492  0.61687410  0.91301590  1
  O  O36  1  0.74867508  0.11687410  0.91301590  1
  O  O37  1  0.74867508  0.88312590  0.41301590  1
  O  O38  1  0.81862155  0.36400114  0.02926936  1
  O  O39  1  0.81862155  0.63599886  0.52926936  1
  O  O40  1  0.87692814  0.36222685  0.61281036  1
  O  O41  1  0.87692814  0.63777315  0.11281036  1
  O  O42  1  0.87418113  0.08811219  0.12336534  1
  O  O43  1  0.87418113  0.91188781  0.62336534  1
  O  O44  1  0.93129809  0.46356211  0.36769617  1
  O  O45  1  0.93129809  0.53643789  0.86769617  1
  O  O46  1  0.92966572  0.18595280  0.87192218  1
  O  O47  1  0.92966572  0.81404720  0.37192218  1
  P  P48  1  0.14733767  0.17844597  0.50648532  1
  P  P49  1  0.14733767  0.82155403  0.00648532  1
  P  P50  1  0.15057407  0.46018615  0.01816218  1
  P  P51  1  0.15057407  0.53981385  0.51816218  1
  P  P52  1  0.34942593  0.03981385  0.51816218  1
  P  P53  1  0.34942593  0.96018615  0.01816218  1
  P  P54  1  0.35266233  0.32155403  0.00648532  1
  P  P55  1  0.35266233  0.67844597  0.50648532  1
  P  P56  1  0.64733767  0.32155403  0.49351468  1
  P  P57  1  0.64733767  0.67844597  0.99351468  1
  P  P58  1  0.65057407  0.03981385  0.98183782  1
  P  P59  1  0.65057407  0.96018615  0.48183782  1
  P  P60  1  0.84942593  0.46018615  0.48183782  1
  P  P61  1  0.84942593  0.53981385  0.98183782  1
  P  P62  1  0.85266233  0.17844597  0.99351468  1
  P  P63  1  0.85266233  0.82155403  0.49351468  1
  Sn  Sn64  1  0.00000000  0.35288132  0.75000000  1
  Sn  Sn65  1  0.00000000  0.64711868  0.25000000  1
  Sn  Sn66  1  0.50000000  0.14711868  0.25000000  1
  Sn  Sn67  1  0.50000000  0.85288132  0.75000000  1
