# generated using pymatgen
data_KH9O5
_symmetry_space_group_name_H-M   'P 1'
_cell_length_a   7.15753936
_cell_length_b   7.17209484
_cell_length_c   11.29377561
_cell_angle_alpha   90.00000000
_cell_angle_beta   90.00000000
_cell_angle_gamma   99.18241583
_symmetry_Int_Tables_number   1
_chemical_formula_structural   KH9O5
_chemical_formula_sum   'K4 H36 O20'
_cell_volume   572.33143163
_cell_formula_units_Z   4
loop_
 _symmetry_equiv_pos_site_id
 _symmetry_equiv_pos_as_xyz
  1  'x, y, z'
loop_
 _atom_site_type_symbol
 _atom_site_label
 _atom_site_symmetry_multiplicity
 _atom_site_fract_x
 _atom_site_fract_y
 _atom_site_fract_z
 _atom_site_occupancy
  H  H0  1  0.96587468  0.62122408  0.90709172  1
  H  H1  1  0.03412532  0.87877592  0.40709172  1
  H  H2  1  0.03412532  0.37877592  0.09290828  1
  H  H3  1  0.96587468  0.12122408  0.59290828  1
  H  H4  1  0.90725116  0.39665155  0.90774582  1
  H  H5  1  0.09274884  0.10334845  0.40774582  1
  H  H6  1  0.09274884  0.60334845  0.09225418  1
  H  H7  1  0.90725116  0.89665155  0.59225418  1
  H  H8  1  0.07812734  0.01210798  0.75626856  1
  H  H9  1  0.92187266  0.48789202  0.25626856  1
  H  H10  1  0.92187266  0.98789202  0.24373144  1
  H  H11  1  0.07812734  0.51210798  0.74373144  1
  H  H12  1  0.13738863  0.92752361  0.88000849  1
  H  H13  1  0.86261137  0.57247639  0.38000849  1
  H  H14  1  0.76210129  0.10374526  0.90064322  1
  H  H15  1  0.86261137  0.07247639  0.11999151  1
  H  H16  1  0.66327457  0.24140470  0.05467928  1
  H  H17  1  0.33672543  0.25859530  0.55467928  1
  H  H18  1  0.33672543  0.75859530  0.94532072  1
  H  H19  1  0.66327457  0.74140470  0.44532072  1
  H  H20  1  0.45704919  0.16219539  0.10087707  1
  H  H21  1  0.54295081  0.33780461  0.60087707  1
  H  H22  1  0.54295081  0.83780461  0.89912293  1
  H  H23  1  0.45704919  0.66219539  0.39912293  1
  H  H24  1  0.01668721  0.65917728  0.53457084  1
  H  H25  1  0.98331279  0.84082272  0.03457084  1
  H  H26  1  0.98331279  0.34082272  0.46542916  1
  H  H27  1  0.01668721  0.15917728  0.96542916  1
  H  H28  1  0.76246600  0.53351127  0.73249130  1
  H  H29  1  0.23753400  0.96648873  0.23249130  1
  H  H30  1  0.23753400  0.46648873  0.26750870  1
  H  H31  1  0.76246600  0.03351127  0.76750870  1
  H  H32  1  0.76210129  0.60374526  0.59935678  1
  H  H33  1  0.23789871  0.89625474  0.09935678  1
  H  H34  1  0.23789871  0.39625474  0.40064322  1
  H  H35  1  0.13738863  0.42752361  0.61999151  1
  O  O36  1  0.90697971  0.51171476  0.85570600  1
  O  O37  1  0.09302029  0.98828524  0.35570600  1
  O  O38  1  0.09302029  0.48828524  0.14429400  1
  O  O39  1  0.90697971  0.01171476  0.64429400  1
  O  O40  1  0.18051176  0.02350022  0.81686305  1
  O  O41  1  0.81948824  0.47649978  0.31686305  1
  O  O42  1  0.81948824  0.97649978  0.18313695  1
  O  O43  1  0.18051176  0.52350022  0.68313695  1
  O  O44  1  0.53965514  0.27839256  0.07181894  1
  O  O45  1  0.46034486  0.22160744  0.57181894  1
  O  O46  1  0.46034486  0.72160744  0.92818106  1
  O  O47  1  0.53965514  0.77839256  0.42818106  1
  O  O48  1  0.67649122  0.04188531  0.83604934  1
  O  O49  1  0.32350878  0.45811469  0.33604934  1
  O  O50  1  0.32350878  0.95811469  0.16395066  1
  O  O51  1  0.67649122  0.54188531  0.66395066  1
  O  O52  1  0.91575992  0.21762260  0.00115987  1
  O  O53  1  0.08424008  0.28237740  0.50115987  1
  O  O54  1  0.08424008  0.78237740  0.99884013  1
  O  O55  1  0.91575992  0.71762260  0.49884013  1
  K  K56  1  0.43158118  0.34982297  0.83908503  1
  K  K57  1  0.56841882  0.15017703  0.33908503  1
  K  K58  1  0.56841882  0.65017703  0.16091497  1
  K  K59  1  0.43158118  0.84982297  0.66091497  1
