# generated using pymatgen
data_Co3(AsO4)2
_symmetry_space_group_name_H-M   'P 1'
_cell_length_a   6.53831942
_cell_length_b   8.66397197
_cell_length_c   11.31263781
_cell_angle_alpha   90.00000000
_cell_angle_beta   91.02009164
_cell_angle_gamma   90.00000000
_symmetry_Int_Tables_number   1
_chemical_formula_structural   Co3(AsO4)2
_chemical_formula_sum   'Co12 As8 O32'
_cell_volume   640.73466321
_cell_formula_units_Z   4
loop_
 _symmetry_equiv_pos_site_id
 _symmetry_equiv_pos_as_xyz
  1  'x, y, z'
loop_
 _atom_site_type_symbol
 _atom_site_label
 _atom_site_symmetry_multiplicity
 _atom_site_fract_x
 _atom_site_fract_y
 _atom_site_fract_z
 _atom_site_occupancy
  O  O0  1  0.86713015  0.45964244  0.79565595  1
  O  O1  1  0.13286985  0.95964244  0.70434405  1
  O  O2  1  0.13286985  0.54035756  0.20434405  1
  O  O3  1  0.86713015  0.04035756  0.29565595  1
  O  O4  1  0.47541633  0.59319518  0.82455252  1
  O  O5  1  0.52458367  0.09319518  0.67544748  1
  O  O6  1  0.52458367  0.40680482  0.17544748  1
  O  O7  1  0.47541633  0.90680482  0.32455252  1
  O  O8  1  0.67294172  0.50203802  0.57189942  1
  O  O9  1  0.32705828  0.00203802  0.92810058  1
  O  O10  1  0.32705828  0.49796198  0.42810058  1
  O  O11  1  0.67294172  0.99796198  0.07189942  1
  O  O12  1  0.29612465  0.35671039  0.73024718  1
  O  O13  1  0.70387535  0.85671039  0.76975282  1
  O  O14  1  0.70387535  0.64328961  0.26975282  1
  O  O15  1  0.29612465  0.14328961  0.23024718  1
  O  O16  1  0.07915695  0.59572916  0.61657356  1
  O  O17  1  0.92084305  0.09572916  0.88342644  1
  O  O18  1  0.92084305  0.40427084  0.38342644  1
  O  O19  1  0.07915695  0.90427084  0.11657356  1
  O  O20  1  0.57535762  0.21429829  0.42212009  1
  O  O21  1  0.42464238  0.71429829  0.07787991  1
  O  O22  1  0.42464238  0.78570171  0.57787991  1
  O  O23  1  0.57535762  0.28570171  0.92212009  1
  O  O24  1  0.96410583  0.23343998  0.10385530  1
  O  O25  1  0.03589417  0.73343998  0.39614470  1
  O  O26  1  0.03589417  0.76656002  0.89614470  1
  O  O27  1  0.96410583  0.26656002  0.60385530  1
  O  O28  1  0.19941849  0.07075374  0.47053041  1
  O  O29  1  0.80058151  0.57075374  0.02946959  1
  O  O30  1  0.80058151  0.92924626  0.52946959  1
  O  O31  1  0.19941849  0.42924626  0.97053041  1
  Co  Co32  1  0.23983792  0.16603934  0.64140585  1
  Co  Co33  1  0.76016208  0.66603934  0.85859415  1
  Co  Co34  1  0.76016208  0.83396066  0.35859415  1
  Co  Co35  1  0.23983792  0.33396066  0.14140585  1
  Co  Co36  1  0.60963495  0.05483918  0.87434961  1
  Co  Co37  1  0.39036505  0.55483918  0.62565039  1
  Co  Co38  1  0.39036505  0.94516082  0.12565039  1
  Co  Co39  1  0.60963495  0.44516082  0.37434961  1
  Co  Co40  1  0.89094927  0.33049727  0.94510012  1
  Co  Co41  1  0.10905073  0.83049727  0.55489988  1
  Co  Co42  1  0.10905073  0.66950273  0.05489988  1
  Co  Co43  1  0.89094927  0.16950273  0.44510012  1
  As  As44  1  0.39346526  0.08753065  0.36589216  1
  As  As45  1  0.60653474  0.58753065  0.13410784  1
  As  As46  1  0.60653474  0.91246935  0.63410784  1
  As  As47  1  0.39346526  0.41246935  0.86589216  1
  As  As48  1  0.89915765  0.04603436  0.14436144  1
  As  As49  1  0.10084235  0.54603436  0.35563856  1
  As  As50  1  0.10084235  0.95396564  0.85563856  1
  As  As51  1  0.89915765  0.45396564  0.64436144  1
