# generated using pymatgen
data_K3LiSi4
_symmetry_space_group_name_H-M   'P 1'
_cell_length_a   7.67385360
_cell_length_b   9.78984365
_cell_length_c   12.29516346
_cell_angle_alpha   90.00000000
_cell_angle_beta   90.00000000
_cell_angle_gamma   90.00000000
_symmetry_Int_Tables_number   1
_chemical_formula_structural   K3LiSi4
_chemical_formula_sum   'K12 Li4 Si16'
_cell_volume   923.68432226
_cell_formula_units_Z   4
loop_
 _symmetry_equiv_pos_site_id
 _symmetry_equiv_pos_as_xyz
  1  'x, y, z'
loop_
 _atom_site_type_symbol
 _atom_site_label
 _atom_site_symmetry_multiplicity
 _atom_site_fract_x
 _atom_site_fract_y
 _atom_site_fract_z
 _atom_site_occupancy
  Li  Li0  1  0.50000000  0.50000000  0.00000000  1
  Li  Li1  1  0.00000000  0.00000000  0.50000000  1
  Li  Li2  1  0.50000000  0.00000000  0.00000000  1
  Li  Li3  1  0.00000000  0.50000000  0.50000000  1
  Si  Si4  1  0.36116826  0.75000000  0.89932367  1
  Si  Si5  1  0.86116826  0.75000000  0.60067633  1
  Si  Si6  1  0.63883174  0.25000000  0.10067633  1
  Si  Si7  1  0.13883174  0.25000000  0.39932367  1
  Si  Si8  1  0.71549972  0.62850744  0.45202164  1
  Si  Si9  1  0.21549972  0.87149256  0.04797836  1
  Si  Si10  1  0.28450028  0.12850744  0.54797836  1
  Si  Si11  1  0.78450028  0.37149256  0.95202164  1
  Si  Si12  1  0.01154233  0.25000000  0.58269324  1
  Si  Si13  1  0.51154233  0.25000000  0.91730676  1
  Si  Si14  1  0.98845767  0.75000000  0.41730676  1
  Si  Si15  1  0.48845767  0.75000000  0.08269324  1
  Si  Si16  1  0.21549972  0.62850744  0.04797836  1
  Si  Si17  1  0.71549972  0.87149256  0.45202164  1
  Si  Si18  1  0.78450028  0.12850744  0.95202164  1
  Si  Si19  1  0.28450028  0.37149256  0.54797836  1
  K  K20  1  0.65527172  0.25000000  0.39890577  1
  K  K21  1  0.15527172  0.25000000  0.10109423  1
  K  K22  1  0.34472828  0.75000000  0.60109423  1
  K  K23  1  0.84472828  0.75000000  0.89890577  1
  K  K24  1  0.65402468  0.44517187  0.69346620  1
  K  K25  1  0.15402468  0.05482813  0.80653380  1
  K  K26  1  0.34597532  0.94517187  0.30653380  1
  K  K27  1  0.84597532  0.55482813  0.19346620  1
  K  K28  1  0.34597532  0.55482813  0.30653380  1
  K  K29  1  0.84597532  0.94517187  0.19346620  1
  K  K30  1  0.65402468  0.05482813  0.69346620  1
  K  K31  1  0.15402468  0.44517187  0.80653380  1
