# generated using pymatgen
data_K4Cu8Te11
_symmetry_space_group_name_H-M   'P 1'
_cell_length_a   6.84468818
_cell_length_b   12.65838415
_cell_length_c   15.81972593
_cell_angle_alpha   80.77400630
_cell_angle_beta   77.50619995
_cell_angle_gamma   74.31420017
_symmetry_Int_Tables_number   1
_chemical_formula_structural   K4Cu8Te11
_chemical_formula_sum   'K8 Cu16 Te22'
_cell_volume   1280.78487572
_cell_formula_units_Z   2
loop_
 _symmetry_equiv_pos_site_id
 _symmetry_equiv_pos_as_xyz
  1  'x, y, z'
loop_
 _atom_site_type_symbol
 _atom_site_label
 _atom_site_symmetry_multiplicity
 _atom_site_fract_x
 _atom_site_fract_y
 _atom_site_fract_z
 _atom_site_occupancy
  K  K0  1  0.75004442  0.58790404  0.91200712  1
  K  K1  1  0.24995558  0.41209596  0.08799288  1
  K  K2  1  0.85412383  0.76456637  0.52718598  1
  K  K3  1  0.14587617  0.23543363  0.47281402  1
  K  K4  1  0.37444084  0.58313397  0.66798436  1
  K  K5  1  0.62555916  0.41686603  0.33201564  1
  K  K6  1  0.56375475  0.09499250  0.77749800  1
  K  K7  1  0.43624525  0.90500750  0.22250200  1
  Cu  Cu8  1  0.67977239  0.13829464  0.11781983  1
  Cu  Cu9  1  0.93588686  0.86170536  0.88218017  1
  Cu  Cu10  1  0.32022761  0.86170536  0.88218017  1
  Cu  Cu11  1  0.06411314  0.13829464  0.11781983  1
  Cu  Cu12  1  0.88611263  0.78496050  0.05757561  1
  Cu  Cu13  1  0.72864874  0.21503950  0.94242439  1
  Cu  Cu14  1  0.11388737  0.21503950  0.94242439  1
  Cu  Cu15  1  0.27135126  0.78496050  0.05757561  1
  Cu  Cu16  1  0.98575632  0.02043429  0.38771131  1
  Cu  Cu17  1  0.39390191  0.97956571  0.61228869  1
  Cu  Cu18  1  0.01424368  0.97956571  0.61228869  1
  Cu  Cu19  1  0.60609809  0.02043429  0.38771131  1
  Cu  Cu20  1  0.78936471  0.67790618  0.33646243  1
  Cu  Cu21  1  0.80373332  0.32209382  0.66353757  1
  Cu  Cu22  1  0.19626668  0.67790618  0.33646243  1
  Cu  Cu23  1  0.21063529  0.32209382  0.66353757  1
  Te  Te24  1  0.81250585  0.31822360  0.05676471  1
  Te  Te25  1  0.18749415  0.68177640  0.94323529  1
  Te  Te26  1  0.95742007  0.49055676  0.59460309  1
  Te  Te27  1  0.04257993  0.50944324  0.40539691  1
  Te  Te28  1  0.06276112  0.18044918  0.27365083  1
  Te  Te29  1  0.51686113  0.81955082  0.72634917  1
  Te  Te30  1  0.93723888  0.81955082  0.72634917  1
  Te  Te31  1  0.48313887  0.18044918  0.27365083  1
  Te  Te32  1  0.69877317  0.07060771  0.53184595  1
  Te  Te33  1  0.30122683  0.92939229  0.46815405  1
  Te  Te34  1  0.56791425  0.30224737  0.56192412  1
  Te  Te35  1  0.43208575  0.69775263  0.43807588  1
  Te  Te36  1  0.80255510  0.63196116  0.18085488  1
  Te  Te37  1  0.61537114  0.36803884  0.81914512  1
  Te  Te38  1  0.19744490  0.36803884  0.81914512  1
  Te  Te39  1  0.38462886  0.63196116  0.18085488  1
  Te  Te40  1  0.43288924  0.11518431  0.01903721  1
  Te  Te41  1  0.56711076  0.88481569  0.98096279  1
  Te  Te42  1  0.09029376  0.13080116  0.68861132  1
  Te  Te43  1  0.90970624  0.86919884  0.31138868  1
  Te  Te44  1  0.03609328  0.05272506  0.87508839  1
  Te  Te45  1  0.96390672  0.94727494  0.12491161  1
