# generated using pymatgen
data_Hg5(SbI3)2
_symmetry_space_group_name_H-M   'P 1'
_cell_length_a   8.43244006
_cell_length_b   11.28353120
_cell_length_c   21.89602836
_cell_angle_alpha   90.00000000
_cell_angle_beta   90.00000000
_cell_angle_gamma   90.00000000
_symmetry_Int_Tables_number   1
_chemical_formula_structural   Hg5(SbI3)2
_chemical_formula_sum   'Hg20 Sb8 I24'
_cell_volume   2083.35674874
_cell_formula_units_Z   4
loop_
 _symmetry_equiv_pos_site_id
 _symmetry_equiv_pos_as_xyz
  1  'x, y, z'
loop_
 _atom_site_type_symbol
 _atom_site_label
 _atom_site_symmetry_multiplicity
 _atom_site_fract_x
 _atom_site_fract_y
 _atom_site_fract_z
 _atom_site_occupancy
  Sb  Sb0  1  0.22928615  0.51205074  0.08505918  1
  Sb  Sb1  1  0.77071385  0.01205074  0.91494082  1
  Sb  Sb2  1  0.27071385  0.51205074  0.58505918  1
  Sb  Sb3  1  0.72928615  0.01205074  0.41494082  1
  Sb  Sb4  1  0.22454026  0.72406828  0.15891004  1
  Sb  Sb5  1  0.77545974  0.22406828  0.84108996  1
  Sb  Sb6  1  0.27545974  0.72406828  0.65891004  1
  Sb  Sb7  1  0.72454026  0.22406828  0.34108996  1
  I  I8  1  0.79330037  0.78392210  0.55906582  1
  I  I9  1  0.20669963  0.28392210  0.44093418  1
  I  I10  1  0.70669963  0.78392210  0.05906582  1
  I  I11  1  0.29330037  0.28392210  0.94093418  1
  I  I12  1  0.26095732  1.00832539  0.29591383  1
  I  I13  1  0.73904268  0.50832539  0.70408617  1
  I  I14  1  0.23904268  1.00832539  0.79591383  1
  I  I15  1  0.76095732  0.50832539  0.20408617  1
  I  I16  1  1.00463621  0.61282363  0.87726934  1
  I  I17  1  -0.00463621  0.11282363  0.12273066  1
  I  I18  1  0.49536379  0.61282363  0.37726934  1
  I  I19  1  0.50463621  0.11282363  0.62273066  1
  I  I20  1  0.49201533  0.14454173  0.11916877  1
  I  I21  1  0.50798467  0.64454173  0.88083123  1
  I  I22  1  0.00798467  0.14454173  0.61916877  1
  I  I23  1  0.99201533  0.64454173  0.38083123  1
  I  I24  1  0.71490009  0.41101917  0.51155064  1
  I  I25  1  0.28509991  0.91101917  0.48844936  1
  I  I26  1  0.78509991  0.41101917  0.01155064  1
  I  I27  1  0.21490009  0.91101917  0.98844936  1
  I  I28  1  0.30820407  0.38227405  0.74744748  1
  I  I29  1  0.69179593  0.88227405  0.25255252  1
  I  I30  1  0.19179593  0.38227405  0.24744748  1
  I  I31  1  0.80820407  0.88227405  0.75255252  1
  Hg  Hg32  1  0.90769422  0.77197534  0.17528037  1
  Hg  Hg33  1  0.09230578  0.27197534  0.82471963  1
  Hg  Hg34  1  0.59230578  0.77197534  0.67528037  1
  Hg  Hg35  1  0.40769422  0.27197534  0.32471963  1
  Hg  Hg36  1  0.15676504  0.65905621  0.76971882  1
  Hg  Hg37  1  0.84323496  0.15905621  0.23028118  1
  Hg  Hg38  1  0.34323496  0.65905621  0.26971882  1
  Hg  Hg39  1  0.65676504  0.15905621  0.73028118  1
  Hg  Hg40  1  0.94973321  0.50460634  0.60267106  1
  Hg  Hg41  1  0.05026679  1.00460634  0.39732894  1
  Hg  Hg42  1  0.55026679  0.50460634  0.10267106  1
  Hg  Hg43  1  0.44973321  1.00460634  0.89732894  1
  Hg  Hg44  1  0.23669939  0.64152625  0.47929947  1
  Hg  Hg45  1  0.76330061  0.14152625  0.52070053  1
  Hg  Hg46  1  0.26330061  0.64152625  0.97929947  1
  Hg  Hg47  1  0.73669939  0.14152625  0.02070053  1
  Hg  Hg48  1  0.08204503  0.90031076  0.61103177  1
  Hg  Hg49  1  0.91795497  0.40031076  0.38896823  1
  Hg  Hg50  1  0.41795497  0.90031076  0.11103177  1
  Hg  Hg51  1  0.58204503  0.40031076  0.88896823  1
