# generated using pymatgen
data_K4Bi2O5
_symmetry_space_group_name_H-M   'P 1'
_cell_length_a   5.82440141
_cell_length_b   9.74430322
_cell_length_c   9.95945699
_cell_angle_alpha   106.63049202
_cell_angle_beta   105.14348010
_cell_angle_gamma   106.71550528
_symmetry_Int_Tables_number   1
_chemical_formula_structural   K4Bi2O5
_chemical_formula_sum   'K8 Bi4 O10'
_cell_volume   480.99521692
_cell_formula_units_Z   2
loop_
 _symmetry_equiv_pos_site_id
 _symmetry_equiv_pos_as_xyz
  1  'x, y, z'
loop_
 _atom_site_type_symbol
 _atom_site_label
 _atom_site_symmetry_multiplicity
 _atom_site_fract_x
 _atom_site_fract_y
 _atom_site_fract_z
 _atom_site_occupancy
  O  O0  1  0.23065442  0.45869273  0.80154991  1
  O  O1  1  0.76934558  0.54130727  0.19845009  1
  O  O2  1  0.64825859  0.24816696  0.57967043  1
  O  O3  1  0.35174141  0.75183304  0.42032957  1
  O  O4  1  0.12901083  0.00611007  0.73478089  1
  O  O5  1  0.87098917  0.99388993  0.26521911  1
  O  O6  1  0.74281787  0.88514956  0.89120302  1
  O  O7  1  0.25718213  0.11485044  0.10879698  1
  O  O8  1  0.11779793  0.37253859  0.33042267  1
  O  O9  1  0.88220207  0.62746141  0.66957733  1
  K  K10  1  0.39996123  0.99137986  0.31516369  1
  K  K11  1  0.60003877  0.00862014  0.68483631  1
  K  K12  1  0.37211120  0.62184424  0.63365799  1
  K  K13  1  0.62788880  0.37815576  0.36634201  1
  K  K14  1  0.61011280  0.70232061  0.04354077  1
  K  K15  1  0.38988720  0.29767939  0.95645923  1
  K  K16  1  0.87749549  0.78528895  0.45138114  1
  K  K17  1  0.12250451  0.21471105  0.54861886  1
  Bi  Bi18  1  0.86314215  0.45697057  0.77002874  1
  Bi  Bi19  1  0.13685785  0.54302943  0.22997126  1
  Bi  Bi20  1  0.09868514  0.88441824  0.87410285  1
  Bi  Bi21  1  0.90131486  0.11558176  0.12589715  1
