# generated using pymatgen
data_AsBr5F6
_symmetry_space_group_name_H-M   'P 1'
_cell_length_a   7.39783192
_cell_length_b   7.39783193
_cell_length_c   13.23053028
_cell_angle_alpha   94.41836894
_cell_angle_beta   110.92261939
_cell_angle_gamma   102.91819959
_symmetry_Int_Tables_number   1
_chemical_formula_structural   AsBr5F6
_chemical_formula_sum   'As2 Br10 F12'
_cell_volume   649.35836320
_cell_formula_units_Z   2
loop_
 _symmetry_equiv_pos_site_id
 _symmetry_equiv_pos_as_xyz
  1  'x, y, z'
loop_
 _atom_site_type_symbol
 _atom_site_label
 _atom_site_symmetry_multiplicity
 _atom_site_fract_x
 _atom_site_fract_y
 _atom_site_fract_z
 _atom_site_occupancy
  F  F0  1  0.51144207  0.64525981  0.89333163  1
  F  F1  1  0.25192818  0.61811043  0.60666837  1
  F  F2  1  0.48855793  0.35474019  0.10666837  1
  F  F3  1  0.74807182  0.38188957  0.39333163  1
  F  F4  1  0.42986240  0.88366181  0.77056136  1
  F  F5  1  0.61310046  0.65930104  0.72943864  1
  F  F6  1  0.65511997  0.61458954  0.26809368  1
  F  F7  1  0.38689954  0.34069896  0.27056136  1
  F  F8  1  0.15350414  0.61297371  0.76809368  1
  F  F9  1  0.34488003  0.38541046  0.73190632  1
  F  F10  1  0.84649586  0.38702629  0.23190632  1
  F  F11  1  0.57013760  0.11633819  0.22943864  1
  As  As12  1  0.61314247  0.36314247  0.25000000  1
  As  As13  1  0.38685753  0.63685753  0.75000000  1
  Br  Br14  1  0.94407100  0.70180296  0.08263032  1
  Br  Br15  1  0.00272439  0.08792670  0.32272861  1
  Br  Br16  1  0.73480192  0.32000422  0.82272861  1
  Br  Br17  1  0.99727561  0.91207330  0.67727139  1
  Br  Br18  1  0.26519808  0.67999578  0.17727139  1
  Br  Br19  1  0.11917265  0.86144068  0.41736968  1
  Br  Br20  1  0.05592900  0.29819704  0.91736968  1
  Br  Br21  1  0.88082735  0.13855932  0.58263032  1
  Br  Br22  1  0.00000000  0.00000000  0.00000000  1
  Br  Br23  1  0.50000000  0.00000000  0.50000000  1
