# generated using pymatgen
data_Hg2P3Cl
_symmetry_space_group_name_H-M   'P 1'
_cell_length_a   6.01548433
_cell_length_b   6.01548434
_cell_length_c   7.77996252
_cell_angle_alpha   95.13921908
_cell_angle_beta   95.13921909
_cell_angle_gamma   96.45651272
_symmetry_Int_Tables_number   1
_chemical_formula_structural   Hg2P3Cl
_chemical_formula_sum   'Hg4 P6 Cl2'
_cell_volume   277.20002409
_cell_formula_units_Z   2
loop_
 _symmetry_equiv_pos_site_id
 _symmetry_equiv_pos_as_xyz
  1  'x, y, z'
loop_
 _atom_site_type_symbol
 _atom_site_label
 _atom_site_symmetry_multiplicity
 _atom_site_fract_x
 _atom_site_fract_y
 _atom_site_fract_z
 _atom_site_occupancy
  P  P0  1  0.94152945  0.82719071  0.02686523  1
  P  P1  1  0.17280929  0.05847055  0.47313477  1
  P  P2  1  0.05847055  0.17280929  0.97313477  1
  P  P3  1  0.80747423  0.19252577  0.75000000  1
  P  P4  1  0.19252577  0.80747423  0.25000000  1
  P  P5  1  0.82719071  0.94152945  0.52686523  1
  Cl  Cl6  1  0.37262933  0.62737067  0.75000000  1
  Cl  Cl7  1  0.62737067  0.37262933  0.25000000  1
  Hg  Hg8  1  0.86246120  0.59028976  0.67090497  1
  Hg  Hg9  1  0.40971024  0.13753880  0.82909503  1
  Hg  Hg10  1  0.59028976  0.86246120  0.17090497  1
  Hg  Hg11  1  0.13753880  0.40971024  0.32909503  1
