# generated using pymatgen
data_NaTi8O13
_symmetry_space_group_name_H-M   'P 1'
_cell_length_a   6.49660603
_cell_length_b   6.49660606
_cell_length_c   6.49660590
_cell_angle_alpha   73.50560171
_cell_angle_beta   73.50560158
_cell_angle_gamma   73.50560360
_symmetry_Int_Tables_number   1
_chemical_formula_structural   NaTi8O13
_chemical_formula_sum   'Na1 Ti8 O13'
_cell_volume   245.85071528
_cell_formula_units_Z   1
loop_
 _symmetry_equiv_pos_site_id
 _symmetry_equiv_pos_as_xyz
  1  'x, y, z'
loop_
 _atom_site_type_symbol
 _atom_site_label
 _atom_site_symmetry_multiplicity
 _atom_site_fract_x
 _atom_site_fract_y
 _atom_site_fract_z
 _atom_site_occupancy
  Na  Na0  1  0.50000000  0.50000000  0.50000000  1
  Ti  Ti1  1  0.31646275  0.87528937  0.05096211  1
  Ti  Ti2  1  0.05096211  0.31646275  0.87528937  1
  Ti  Ti3  1  0.87528937  0.05096211  0.31646275  1
  Ti  Ti4  1  0.68353725  0.12471063  0.94903789  1
  Ti  Ti5  1  0.94903789  0.68353725  0.12471063  1
  Ti  Ti6  1  0.12471063  0.94903789  0.68353725  1
  Ti  Ti7  1  0.72866530  0.72866530  0.72866530  1
  Ti  Ti8  1  0.27133470  0.27133470  0.27133470  1
  O  O9  1  0.00000000  0.00000000  0.00000000  1
  O  O10  1  0.82251928  0.73510357  0.42136053  1
  O  O11  1  0.42136053  0.82251928  0.73510357  1
  O  O12  1  0.73510357  0.42136053  0.82251928  1
  O  O13  1  0.17748072  0.26489643  0.57863947  1
  O  O14  1  0.57863947  0.17748072  0.26489643  1
  O  O15  1  0.26489643  0.57863947  0.17748072  1
  O  O16  1  0.64305484  0.79408204  0.04787273  1
  O  O17  1  0.04787273  0.64305484  0.79408204  1
  O  O18  1  0.79408204  0.04787273  0.64305484  1
  O  O19  1  0.35694516  0.20591796  0.95212727  1
  O  O20  1  0.95212727  0.35694516  0.20591796  1
  O  O21  1  0.20591796  0.95212727  0.35694516  1
