# generated using pymatgen
data_Rb2PdI6
_symmetry_space_group_name_H-M   'P 1'
_cell_length_a   8.32968156
_cell_length_b   12.65806368
_cell_length_c   14.68168255
_cell_angle_alpha   90.00000000
_cell_angle_beta   90.00000000
_cell_angle_gamma   90.00000000
_symmetry_Int_Tables_number   1
_chemical_formula_structural   Rb2PdI6
_chemical_formula_sum   'Rb8 Pd4 I24'
_cell_volume   1548.00195373
_cell_formula_units_Z   4
loop_
 _symmetry_equiv_pos_site_id
 _symmetry_equiv_pos_as_xyz
  1  'x, y, z'
loop_
 _atom_site_type_symbol
 _atom_site_label
 _atom_site_symmetry_multiplicity
 _atom_site_fract_x
 _atom_site_fract_y
 _atom_site_fract_z
 _atom_site_occupancy
  Rb  Rb0  1  0.28927675  0.01577123  0.86099638  1
  Rb  Rb1  1  0.78927675  0.48422877  0.63900362  1
  Rb  Rb2  1  0.71072325  0.51577123  0.13900362  1
  Rb  Rb3  1  0.21072325  0.98422877  0.36099638  1
  Rb  Rb4  1  0.71072325  0.98422877  0.13900362  1
  Rb  Rb5  1  0.21072325  0.51577123  0.36099638  1
  Rb  Rb6  1  0.28927675  0.48422877  0.86099638  1
  Rb  Rb7  1  0.78927675  0.01577123  0.63900362  1
  Pd  Pd8  1  0.26632320  0.25000000  0.59776003  1
  Pd  Pd9  1  0.76632320  0.25000000  0.90223997  1
  Pd  Pd10  1  0.73367680  0.75000000  0.40223997  1
  Pd  Pd11  1  0.23367680  0.75000000  0.09776003  1
  I  I12  1  0.45003744  0.25000000  0.41189009  1
  I  I13  1  0.95003744  0.25000000  0.08810991  1
  I  I14  1  0.54996256  0.75000000  0.58810991  1
  I  I15  1  0.04996256  0.75000000  0.91189009  1
  I  I16  1  0.49472040  0.25000000  0.21666779  1
  I  I17  1  0.99472040  0.25000000  0.28333221  1
  I  I18  1  0.50527960  0.75000000  0.78333221  1
  I  I19  1  0.00527960  0.75000000  0.71666779  1
  I  I20  1  0.48662990  0.25000000  0.99550537  1
  I  I21  1  0.98662990  0.25000000  0.50449463  1
  I  I22  1  0.51337010  0.75000000  0.00449463  1
  I  I23  1  0.01337010  0.75000000  0.49550537  1
  I  I24  1  0.02149566  0.25000000  0.79395132  1
  I  I25  1  0.52149566  0.25000000  0.70604868  1
  I  I26  1  0.97850434  0.75000000  0.20604868  1
  I  I27  1  0.47850434  0.75000000  0.29395132  1
  I  I28  1  0.26433643  0.03894102  0.60535819  1
  I  I29  1  0.76433643  0.46105898  0.89464181  1
  I  I30  1  0.73566357  0.53894102  0.39464181  1
  I  I31  1  0.23566357  0.96105898  0.10535819  1
  I  I32  1  0.73566357  0.96105898  0.39464181  1
  I  I33  1  0.23566357  0.53894102  0.10535819  1
  I  I34  1  0.26433643  0.46105898  0.60535819  1
  I  I35  1  0.76433643  0.03894102  0.89464181  1
