# generated using pymatgen
data_La5B4N9
_symmetry_space_group_name_H-M   'P 1'
_cell_length_a   7.71945630
_cell_length_b   9.81428381
_cell_length_c   12.65820456
_cell_angle_alpha   90.00000000
_cell_angle_beta   90.00000000
_cell_angle_gamma   90.00000000
_symmetry_Int_Tables_number   1
_chemical_formula_structural   La5B4N9
_chemical_formula_sum   'La20 B16 N36'
_cell_volume   958.99741272
_cell_formula_units_Z   4
loop_
 _symmetry_equiv_pos_site_id
 _symmetry_equiv_pos_as_xyz
  1  'x, y, z'
loop_
 _atom_site_type_symbol
 _atom_site_label
 _atom_site_symmetry_multiplicity
 _atom_site_fract_x
 _atom_site_fract_y
 _atom_site_fract_z
 _atom_site_occupancy
  B  B0  1  0.75000000  0.43393642  0.58544279  1
  B  B1  1  0.09354602  0.22570662  0.87084672  1
  B  B2  1  0.59354602  0.77429338  0.12915328  1
  B  B3  1  0.90645398  0.22570662  0.62915328  1
  B  B4  1  0.40645398  0.77429338  0.37084672  1
  B  B5  1  0.90645398  0.77429338  0.12915328  1
  B  B6  1  0.40645398  0.22570662  0.87084672  1
  B  B7  1  0.09354602  0.77429338  0.37084672  1
  B  B8  1  0.59354602  0.22570662  0.62915328  1
  B  B9  1  0.25000000  0.43393642  0.91455721  1
  B  B10  1  0.75000000  0.56606358  0.08544279  1
  B  B11  1  0.25000000  0.56606358  0.41455721  1
  B  B12  1  0.25000000  0.75523576  0.74132101  1
  B  B13  1  0.75000000  0.24476424  0.25867899  1
  B  B14  1  0.75000000  0.75523576  0.75867899  1
  B  B15  1  0.25000000  0.24476424  0.24132101  1
  N  N16  1  0.25000000  0.60707447  0.72636785  1
  N  N17  1  0.25000000  0.53377295  0.99831579  1
  N  N18  1  0.96009712  0.85859670  0.41321494  1
  N  N19  1  0.46009712  0.14140330  0.58678506  1
  N  N20  1  0.53990288  0.85859670  0.41321494  1
  N  N21  1  0.03990288  0.14140330  0.58678506  1
  N  N22  1  0.46009712  0.85859670  0.08678506  1
  N  N23  1  0.96009712  0.14140330  0.91321494  1
  N  N24  1  0.58265517  0.37576826  0.62011190  1
  N  N25  1  0.03990288  0.85859670  0.08678506  1
  N  N26  1  0.08265517  0.62423174  0.37988810  1
  N  N27  1  0.41734483  0.37576826  0.87988810  1
  N  N28  1  0.91734483  0.62423174  0.12011190  1
  N  N29  1  0.41734483  0.62423174  0.37988810  1
  N  N30  1  0.91734483  0.37576826  0.62011190  1
  N  N31  1  0.58265517  0.62423174  0.12011190  1
  N  N32  1  0.08265517  0.37576826  0.87988810  1
  N  N33  1  0.25000000  0.39292553  0.22636785  1
  N  N34  1  0.75000000  0.60707447  0.77363215  1
  N  N35  1  0.75000000  0.39292553  0.27363215  1
  N  N36  1  0.25000000  0.15923408  0.82390534  1
  N  N37  1  0.75000000  0.84076592  0.17609466  1
  N  N38  1  0.75000000  0.15923408  0.67609466  1
  N  N39  1  0.25000000  0.84076592  0.32390534  1
  N  N40  1  0.25000000  0.17901433  0.34716578  1
  N  N41  1  0.75000000  0.82098567  0.65283422  1
  N  N42  1  0.75000000  0.17901433  0.15283422  1
  N  N43  1  0.25000000  0.82098567  0.84716578  1
  N  N44  1  0.25000000  0.15463307  0.14646503  1
  N  N45  1  0.75000000  0.84536693  0.85353497  1
  N  N46  1  0.75000000  0.15463307  0.35353497  1
  N  N47  1  0.25000000  0.84536693  0.64646503  1
  N  N48  1  0.25000000  0.46622705  0.49831579  1
  N  N49  1  0.75000000  0.53377295  0.50168421  1
  N  N50  1  0.75000000  0.46622705  0.00168421  1
  N  N51  1  0.53990288  0.14140330  0.91321494  1
  La  La52  1  0.99641312  0.34586611  0.08526570  1
  La  La53  1  0.49641312  0.65413389  0.91473430  1
  La  La54  1  0.00358688  0.34586611  0.41473430  1
  La  La55  1  0.50358688  0.65413389  0.58526570  1
  La  La56  1  0.00358688  0.65413389  0.91473430  1
  La  La57  1  0.50358688  0.34586611  0.08526570  1
  La  La58  1  0.99641312  0.65413389  0.58526570  1
  La  La59  1  0.49641312  0.34586611  0.41473430  1
  La  La60  1  0.50000000  0.01041860  0.25000000  1
  La  La61  1  0.00000000  0.98958140  0.75000000  1
  La  La62  1  0.50000000  0.98958140  0.75000000  1
  La  La63  1  0.00000000  0.01041860  0.25000000  1
  La  La64  1  0.25000000  0.99499100  0.99528189  1
  La  La65  1  0.75000000  0.00500900  0.00471811  1
  La  La66  1  0.75000000  0.99499100  0.50471811  1
  La  La67  1  0.25000000  0.00500900  0.49528189  1
  La  La68  1  0.25000000  0.36024668  0.67816812  1
  La  La69  1  0.75000000  0.63975332  0.32183188  1
  La  La70  1  0.75000000  0.36024668  0.82183188  1
  La  La71  1  0.25000000  0.63975332  0.17816812  1
