# generated using pymatgen
data_PrZr3F15
_symmetry_space_group_name_H-M   'P 1'
_cell_length_a   7.52251896
_cell_length_b   7.52251895
_cell_length_c   7.52251895
_cell_angle_alpha   112.67178336
_cell_angle_beta   112.67178334
_cell_angle_gamma   112.67178334
_symmetry_Int_Tables_number   1
_chemical_formula_structural   PrZr3F15
_chemical_formula_sum   'Pr1 Zr3 F15'
_cell_volume   282.28683942
_cell_formula_units_Z   1
loop_
 _symmetry_equiv_pos_site_id
 _symmetry_equiv_pos_as_xyz
  1  'x, y, z'
loop_
 _atom_site_type_symbol
 _atom_site_label
 _atom_site_symmetry_multiplicity
 _atom_site_fract_x
 _atom_site_fract_y
 _atom_site_fract_z
 _atom_site_occupancy
  F  F0  1  0.07119840  0.85743360  0.40132771  1
  F  F1  1  0.85743360  0.40132771  0.07119840  1
  F  F2  1  0.40132771  0.07119840  0.85743360  1
  F  F3  1  0.40132771  0.85743360  0.07119840  1
  F  F4  1  0.40375385  0.74371034  0.40375385  1
  F  F5  1  0.40375385  0.40375385  0.74371034  1
  F  F6  1  0.74371034  0.40375385  0.40375385  1
  F  F7  1  0.86282829  0.64042235  0.86282829  1
  F  F8  1  0.86282829  0.86282829  0.64042235  1
  F  F9  1  0.64042235  0.86282829  0.86282829  1
  F  F10  1  0.32119779  0.08384095  0.32119779  1
  F  F11  1  0.32119779  0.32119779  0.08384095  1
  F  F12  1  0.08384095  0.32119779  0.32119779  1
  F  F13  1  0.07119840  0.40132771  0.85743360  1
  F  F14  1  0.85743360  0.07119840  0.40132771  1
  Zr  Zr15  1  0.71364769  0.14482232  0.14482232  1
  Zr  Zr16  1  0.14482232  0.14482232  0.71364769  1
  Zr  Zr17  1  0.14482232  0.71364769  0.14482232  1
  Pr  Pr18  1  0.50608805  0.50608805  0.50608805  1
