# generated using pymatgen
data_LaCrReO6
_symmetry_space_group_name_H-M   'P 1'
_cell_length_a   5.49230393
_cell_length_b   5.48953386
_cell_length_c   5.47829165
_cell_angle_alpha   59.99943275
_cell_angle_beta   120.05113119
_cell_angle_gamma   89.93378740
_symmetry_Int_Tables_number   1
_chemical_formula_structural   LaCrReO6
_chemical_formula_sum   'La1 Cr1 Re1 O6'
_cell_volume   116.63473870
_cell_formula_units_Z   1
loop_
 _symmetry_equiv_pos_site_id
 _symmetry_equiv_pos_as_xyz
  1  'x, y, z'
loop_
 _atom_site_type_symbol
 _atom_site_label
 _atom_site_symmetry_multiplicity
 _atom_site_fract_x
 _atom_site_fract_y
 _atom_site_fract_z
 _atom_site_occupancy
  La  La0  1  0.75534751  0.26031916  0.50135706  1
  Cr  Cr1  1  0.00083247  0.51031928  0.99962196  1
  Re  Re2  1  0.50137546  0.00990376  0.00116487  1
  O  O3  1  0.30615656  0.25351654  0.50758251  1
  O  O4  1  0.23050842  0.28247382  0.94998329  1
  O  O5  1  0.76295565  0.72843701  0.05111250  1
  O  O6  1  0.22510694  0.79333802  0.95610480  1
  O  O7  1  0.77002209  0.23364267  0.04089626  1
  O  O8  1  0.70793291  0.76946075  0.49258976  1
