# generated using pymatgen
data_In2Si2O7
_symmetry_space_group_name_H-M   'P 1'
_cell_length_a   4.76372238
_cell_length_b   5.51872179
_cell_length_c   5.51872178
_cell_angle_alpha   104.98615277
_cell_angle_beta   97.80320134
_cell_angle_gamma   97.80320135
_symmetry_Int_Tables_number   1
_chemical_formula_structural   In2Si2O7
_chemical_formula_sum   'In2 Si2 O7'
_cell_volume   136.62173054
_cell_formula_units_Z   1
loop_
 _symmetry_equiv_pos_site_id
 _symmetry_equiv_pos_as_xyz
  1  'x, y, z'
loop_
 _atom_site_type_symbol
 _atom_site_label
 _atom_site_symmetry_multiplicity
 _atom_site_fract_x
 _atom_site_fract_y
 _atom_site_fract_z
 _atom_site_occupancy
  O  O0  1  0.78179580  0.92144564  0.61071136  1
  O  O1  1  0.21820420  0.38928864  0.07855436  1
  O  O2  1  0.21820420  0.07855436  0.38928864  1
  O  O3  1  0.78179580  0.61071136  0.92144564  1
  O  O4  1  0.50000000  0.00000000  0.00000000  1
  O  O5  1  0.28413117  0.61034432  0.61034432  1
  O  O6  1  0.71586883  0.38965568  0.38965568  1
  Si  Si7  1  0.40918851  0.21919342  0.21919342  1
  Si  Si8  1  0.59081149  0.78080658  0.78080658  1
  In  In9  1  0.00000000  0.30830246  0.69169754  1
  In  In10  1  0.00000000  0.69169754  0.30830246  1
