# generated using pymatgen
data_HoMn2ZnO6
_symmetry_space_group_name_H-M   'P 1'
_cell_length_a   5.17980309
_cell_length_b   5.39778660
_cell_length_c   7.64953427
_cell_angle_alpha   90.00017442
_cell_angle_beta   90.00048062
_cell_angle_gamma   89.99880573
_symmetry_Int_Tables_number   1
_chemical_formula_structural   HoMn2ZnO6
_chemical_formula_sum   'Ho2 Mn4 Zn2 O12'
_cell_volume   213.87693699
_cell_formula_units_Z   2
loop_
 _symmetry_equiv_pos_site_id
 _symmetry_equiv_pos_as_xyz
  1  'x, y, z'
loop_
 _atom_site_type_symbol
 _atom_site_label
 _atom_site_symmetry_multiplicity
 _atom_site_fract_x
 _atom_site_fract_y
 _atom_site_fract_z
 _atom_site_occupancy
  Ho  Ho0  1  0.01804596  0.93522813  0.74998373  1
  Ho  Ho1  1  0.51804157  0.56478153  0.25000850  1
  Mn  Mn2  1  -0.00003481  0.49043140  0.00015058  1
  Mn  Mn3  1  -0.00003694  0.49044106  0.49984765  1
  Mn  Mn4  1  0.49995256  0.00954809  0.50017545  1
  Mn  Mn5  1  0.49995493  0.00954873  -0.00017559  1
  Zn  Zn6  1  0.49096669  0.45632098  0.75001250  1
  Zn  Zn7  1  0.99096541  0.04368940  0.24999123  1
  O  O8  1  0.10598962  0.44525077  0.24999249  1
  O  O9  1  0.19666743  0.19720969  0.93907601  1
  O  O10  1  0.19668963  0.19720866  0.56092151  1
  O  O11  1  0.30886107  0.69104223  0.93859456  1
  O  O12  1  0.30888195  0.69102938  0.56139910  1
  O  O13  1  0.37405258  0.96264296  0.25000273  1
  O  O14  1  0.60599853  0.05474060  0.74999962  1
  O  O15  1  0.69664792  0.30275904  0.43908710  1
  O  O16  1  0.69662958  0.30276709  0.06091199  1
  O  O17  1  0.80883960  0.80898500  0.06140667  1
  O  O18  1  0.80886320  0.80900440  0.43861248  1
  O  O19  1  0.87402253  0.53736986  0.75000171  1
