# generated using pymatgen
data_Sr2Al6O11
_symmetry_space_group_name_H-M   'P 1'
_cell_length_a   4.93206314
_cell_length_b   8.49226736
_cell_length_c   22.17484385
_cell_angle_alpha   90.00000000
_cell_angle_beta   90.00000000
_cell_angle_gamma   90.00000000
_symmetry_Int_Tables_number   1
_chemical_formula_structural   Sr2Al6O11
_chemical_formula_sum   'Sr8 Al24 O44'
_cell_volume   928.78000361
_cell_formula_units_Z   4
loop_
 _symmetry_equiv_pos_site_id
 _symmetry_equiv_pos_as_xyz
  1  'x, y, z'
loop_
 _atom_site_type_symbol
 _atom_site_label
 _atom_site_symmetry_multiplicity
 _atom_site_fract_x
 _atom_site_fract_y
 _atom_site_fract_z
 _atom_site_occupancy
  O  O0  1  0.47016494  0.73904555  0.21593712  1
  O  O1  1  0.97016494  0.76095445  0.28406288  1
  O  O2  1  0.52983506  0.73904555  0.78406288  1
  O  O3  1  0.02983506  0.76095445  0.71593712  1
  O  O4  1  0.52983506  0.26095445  0.78406288  1
  O  O5  1  0.02983506  0.23904555  0.71593712  1
  O  O6  1  0.47016494  0.26095445  0.21593712  1
  O  O7  1  0.97016494  0.23904555  0.28406288  1
  O  O8  1  0.15216386  0.33704376  0.54836668  1
  O  O9  1  0.65216386  0.16295624  0.95163332  1
  O  O10  1  0.84783614  0.33704376  0.45163332  1
  O  O11  1  0.34783614  0.16295624  0.04836668  1
  O  O12  1  0.84783614  0.66295624  0.45163332  1
  O  O13  1  0.34783614  0.83704376  0.04836668  1
  O  O14  1  0.15216386  0.66295624  0.54836668  1
  O  O15  1  0.65216386  0.83704376  0.95163332  1
  O  O16  1  0.67095177  0.50000000  0.95517484  1
  O  O17  1  0.17095177  0.00000000  0.54482516  1
  O  O18  1  0.17809774  0.65789517  0.95168062  1
  O  O19  1  0.32904823  0.50000000  0.04482516  1
  O  O20  1  0.99330548  0.81839059  0.15343390  1
  O  O21  1  0.49330548  0.68160941  0.34656610  1
  O  O22  1  0.00669452  0.81839059  0.84656610  1
  O  O23  1  0.50669452  0.68160941  0.65343390  1
  O  O24  1  0.00669452  0.18160941  0.84656610  1
  O  O25  1  0.50669452  0.31839059  0.65343390  1
  O  O26  1  0.99330548  0.18160941  0.15343390  1
  O  O27  1  0.49330548  0.31839059  0.34656610  1
  O  O28  1  0.82190226  0.34210483  0.04831938  1
  O  O29  1  0.32190226  0.15789517  0.45168062  1
  O  O30  1  0.17809774  0.34210483  0.95168062  1
  O  O31  1  0.67809774  0.15789517  0.54831938  1
  O  O32  1  0.82483335  0.00000000  0.05612248  1
  O  O33  1  0.32483335  0.50000000  0.44387752  1
  O  O34  1  0.17516665  0.00000000  0.94387752  1
  O  O35  1  0.67516665  0.50000000  0.55612248  1
  O  O36  1  0.56029932  0.00000000  0.29772779  1
  O  O37  1  0.06029932  0.50000000  0.20227221  1
  O  O38  1  0.43970068  0.00000000  0.70227221  1
  O  O39  1  0.93970068  0.50000000  0.79772779  1
  O  O40  1  0.32190226  0.84210483  0.45168062  1
  O  O41  1  0.82190226  0.65789517  0.04831938  1
  O  O42  1  0.67809774  0.84210483  0.54831938  1
  O  O43  1  0.82904823  0.00000000  0.45517484  1
  Al  Al44  1  0.50704025  0.67902005  0.42572458  1
  Al  Al45  1  0.00704025  0.82097995  0.07427542  1
  Al  Al46  1  0.49295975  0.67902005  0.57427542  1
  Al  Al47  1  0.99295975  0.82097995  0.92572458  1
  Al  Al48  1  0.49295975  0.32097995  0.57427542  1
  Al  Al49  1  0.99295975  0.17902005  0.92572458  1
  Al  Al50  1  0.50704025  0.32097995  0.42572458  1
  Al  Al51  1  0.00704025  0.17902005  0.07427542  1
  Al  Al52  1  0.61471527  0.79480711  0.28625350  1
  Al  Al53  1  0.11471527  0.70519289  0.21374650  1
  Al  Al54  1  0.38528473  0.79480711  0.71374650  1
  Al  Al55  1  0.88528473  0.70519289  0.78625350  1
  Al  Al56  1  0.38528473  0.20519289  0.71374650  1
  Al  Al57  1  0.88528473  0.29480711  0.78625350  1
  Al  Al58  1  0.61471527  0.20519289  0.28625350  1
  Al  Al59  1  0.11471527  0.29480711  0.21374650  1
  Al  Al60  1  0.00000000  0.16690578  0.50000000  1
  Al  Al61  1  0.50000000  0.33309422  0.00000000  1
  Al  Al62  1  0.00000000  0.83309422  0.50000000  1
  Al  Al63  1  0.50000000  0.66690578  0.00000000  1
  Al  Al64  1  0.00000000  0.50000000  0.50000000  1
  Al  Al65  1  0.50000000  0.00000000  0.00000000  1
  Al  Al66  1  0.50000000  0.00000000  0.50000000  1
  Al  Al67  1  0.00000000  0.50000000  0.00000000  1
  Sr  Sr68  1  0.96087865  0.50000000  0.65455623  1
  Sr  Sr69  1  0.46087865  0.00000000  0.84544377  1
  Sr  Sr70  1  0.03912135  0.50000000  0.34544377  1
  Sr  Sr71  1  0.53912135  0.00000000  0.15455623  1
  Sr  Sr72  1  0.38460064  0.50000000  0.86177230  1
  Sr  Sr73  1  0.88460064  0.00000000  0.63822770  1
  Sr  Sr74  1  0.61539936  0.50000000  0.13822770  1
  Sr  Sr75  1  0.11539936  0.00000000  0.36177230  1
