# generated using pymatgen
data_Al23V4
_symmetry_space_group_name_H-M   'P 1'
_cell_length_a   7.67876861
_cell_length_b   7.67876860
_cell_length_c   17.04047756
_cell_angle_alpha   90.00000000
_cell_angle_beta   90.00000000
_cell_angle_gamma   119.99999999
_symmetry_Int_Tables_number   1
_chemical_formula_structural   Al23V4
_chemical_formula_sum   'Al46 V8'
_cell_volume   870.15286562
_cell_formula_units_Z   2
loop_
 _symmetry_equiv_pos_site_id
 _symmetry_equiv_pos_as_xyz
  1  'x, y, z'
loop_
 _atom_site_type_symbol
 _atom_site_label
 _atom_site_symmetry_multiplicity
 _atom_site_fract_x
 _atom_site_fract_y
 _atom_site_fract_z
 _atom_site_occupancy
  Al  Al0  1  0.33333333  0.66666667  0.61606698  1
  Al  Al1  1  0.66666667  0.33333333  0.11606698  1
  Al  Al2  1  0.66666667  0.33333333  0.38393302  1
  Al  Al3  1  0.33333333  0.66666667  0.88393302  1
  Al  Al4  1  0.12571943  0.25143885  0.25000000  1
  Al  Al5  1  0.87428057  0.12571943  0.75000000  1
  Al  Al6  1  0.25143885  0.12571943  0.75000000  1
  Al  Al7  1  0.74856115  0.87428057  0.25000000  1
  Al  Al8  1  0.12571943  0.87428057  0.25000000  1
  Al  Al9  1  0.87428057  0.74856115  0.75000000  1
  Al  Al10  1  0.21067447  0.42134895  0.02958377  1
  Al  Al11  1  0.78932553  0.21067447  0.52958377  1
  Al  Al12  1  0.42134895  0.21067447  0.52958377  1
  Al  Al13  1  0.57865105  0.78932553  0.02958377  1
  Al  Al14  1  0.21067447  0.78932553  0.02958377  1
  Al  Al15  1  0.78932553  0.57865105  0.97041623  1
  Al  Al16  1  0.78932553  0.21067447  0.97041623  1
  Al  Al17  1  0.78932553  0.57865105  0.52958377  1
  Al  Al18  1  0.42134895  0.21067447  0.97041623  1
  Al  Al19  1  0.57865105  0.78932553  0.47041623  1
  Al  Al20  1  0.21067447  0.42134895  0.47041623  1
  Al  Al21  1  0.21067447  0.78932553  0.47041623  1
  Al  Al22  1  0.12524695  0.25049390  0.61652745  1
  Al  Al23  1  0.87475305  0.12524695  0.11652745  1
  Al  Al24  1  0.25049390  0.12524695  0.11652745  1
  Al  Al25  1  0.74950610  0.87475305  0.61652745  1
  Al  Al26  1  0.12524695  0.87475305  0.61652745  1
  Al  Al27  1  0.87475305  0.74950610  0.38347255  1
  Al  Al28  1  0.87475305  0.12524695  0.38347255  1
  Al  Al29  1  0.87475305  0.74950610  0.11652745  1
  Al  Al30  1  0.25049390  0.12524695  0.38347255  1
  Al  Al31  1  0.74950610  0.87475305  0.88347255  1
  Al  Al32  1  0.12524695  0.25049390  0.88347255  1
  Al  Al33  1  0.12524695  0.87475305  0.88347255  1
  Al  Al34  1  0.45896543  0.91793086  0.16636866  1
  Al  Al35  1  0.54103457  0.45896543  0.66636866  1
  Al  Al36  1  0.91793086  0.45896543  0.66636866  1
  Al  Al37  1  0.08206914  0.54103457  0.16636866  1
  Al  Al38  1  0.45896543  0.54103457  0.16636866  1
  Al  Al39  1  0.54103457  0.08206914  0.83363134  1
  Al  Al40  1  0.54103457  0.45896543  0.83363134  1
  Al  Al41  1  0.54103457  0.08206914  0.66636866  1
  Al  Al42  1  0.91793086  0.45896543  0.83363134  1
  Al  Al43  1  0.08206914  0.54103457  0.33363134  1
  Al  Al44  1  0.45896543  0.91793086  0.33363134  1
  Al  Al45  1  0.45896543  0.54103457  0.33363134  1
  V  V46  1  0.00000000  0.00000000  0.00000000  1
  V  V47  1  0.00000000  0.00000000  0.50000000  1
  V  V48  1  0.78117132  0.56234264  0.25000000  1
  V  V49  1  0.21882868  0.78117132  0.75000000  1
  V  V50  1  0.56234264  0.78117132  0.75000000  1
  V  V51  1  0.43765736  0.21882868  0.25000000  1
  V  V52  1  0.78117132  0.21882868  0.25000000  1
  V  V53  1  0.21882868  0.43765736  0.75000000  1
