# generated using pymatgen
data_Rb3B7O12
_symmetry_space_group_name_H-M   'P 1'
_cell_length_a   6.68190265
_cell_length_b   6.71587817
_cell_length_c   30.62288057
_cell_angle_alpha   91.10224015
_cell_angle_beta   91.75308472
_cell_angle_gamma   119.06726658
_symmetry_Int_Tables_number   1
_chemical_formula_structural   Rb3B7O12
_chemical_formula_sum   'Rb12 B28 O48'
_cell_volume   1199.63975366
_cell_formula_units_Z   4
loop_
 _symmetry_equiv_pos_site_id
 _symmetry_equiv_pos_as_xyz
  1  'x, y, z'
loop_
 _atom_site_type_symbol
 _atom_site_label
 _atom_site_symmetry_multiplicity
 _atom_site_fract_x
 _atom_site_fract_y
 _atom_site_fract_z
 _atom_site_occupancy
  B  B0  1  0.61182498  0.79839468  0.65282876  1
  B  B1  1  0.38817502  0.20160532  0.34717124  1
  B  B2  1  0.94966137  0.15441779  0.74842541  1
  B  B3  1  0.05033863  0.84558221  0.25157459  1
  B  B4  1  0.63079674  0.75068407  0.73912273  1
  B  B5  1  0.36920326  0.24931593  0.26087727  1
  B  B6  1  0.55176581  0.08059160  0.73871327  1
  B  B7  1  0.44823419  0.91940840  0.26128673  1
  B  B8  1  0.22896965  0.06492956  0.41913071  1
  B  B9  1  0.77103035  0.93507044  0.58086929  1
  B  B10  1  0.82463198  0.61919638  0.09448526  1
  B  B11  1  0.17536802  0.38080362  0.90551474  1
  B  B12  1  0.05591722  0.32771223  0.42855994  1
  B  B13  1  0.94408278  0.67228777  0.57144006  1
  B  B14  1  0.35004988  0.75218972  0.58751497  1
  B  B15  1  0.64995012  0.24781028  0.41248503  1
  B  B16  1  0.78243254  0.30166102  0.92992261  1
  B  B17  1  0.21756746  0.69833898  0.07007739  1
  B  B18  1  0.30603293  0.22518466  0.84500707  1
  B  B19  1  0.69396707  0.77481534  0.15499293  1
  B  B20  1  0.38488585  0.32492133  0.76222420  1
  B  B21  1  0.61511415  0.67507867  0.23777580  1
  B  B22  1  0.03080791  0.36209937  0.56601427  1
  B  B23  1  0.96919209  0.63790063  0.43398573  1
  B  B24  1  0.66159630  0.87871025  0.07796288  1
  B  B25  1  0.33840370  0.12128975  0.92203712  1
  B  B26  1  0.09551714  0.69472714  0.93223105  1
  B  B27  1  0.90448286  0.30527286  0.06776895  1
  O  O28  1  0.63413816  0.70669291  0.69143108  1
  O  O29  1  0.36586184  0.29330709  0.30856892  1
  O  O30  1  0.39314653  0.73025074  0.63531659  1
  O  O31  1  0.60685347  0.26974926  0.36468341  1
  O  O32  1  0.37652010  0.21483928  0.80403407  1
  O  O33  1  0.62347990  0.78516072  0.19596593  1
  O  O34  1  0.32349371  0.07716558  0.87379530  1
  O  O35  1  0.67650629  0.92283442  0.12620470  1
  O  O36  1  0.96870097  0.13695342  0.56400925  1
  O  O37  1  0.03129903  0.86304658  0.43599075  1
  O  O38  1  0.57606492  0.55659485  0.76485569  1
  O  O39  1  0.42393508  0.44340515  0.23514431  1
  O  O40  1  0.16944955  0.32737689  0.75027488  1
  O  O41  1  0.83055045  0.67262311  0.24972512  1
  O  O42  1  0.78925881  0.23095020  0.73970222  1
  O  O43  1  0.21074119  0.76904980  0.26029778  1
  O  O44  1  0.86747004  0.53353904  0.94031972  1
  O  O45  1  0.13252996  0.46646096  0.05968028  1
  O  O46  1  0.87412520  0.92859230  0.75467705  1
  O  O47  1  0.12587480  0.07140770  0.24532295  1
  O  O48  1  0.56285374  0.14658657  0.93912667  1
  O  O49  1  0.43714626  0.85341343  0.06087333  1
  O  O50  1  0.47390611  0.85328048  0.74557156  1
  O  O51  1  0.52609389  0.14671952  0.25442844  1
  O  O52  1  0.19681808  0.06376573  0.36997584  1
  O  O53  1  0.80318192  0.93623427  0.63002416  1
  O  O54  1  0.13096369  0.56340971  0.43280015  1
  O  O55  1  0.86903631  0.43659029  0.56719985  1
  O  O56  1  0.26019237  0.51786715  0.56674516  1
  O  O57  1  0.73980763  0.48213285  0.43325484  1
  O  O58  1  0.84649750  0.08482011  0.05779500  1
  O  O59  1  0.15350250  0.91517989  0.94220500  1
  O  O60  1  0.22030712  0.36713280  0.85774570  1
  O  O61  1  0.77969288  0.63286720  0.14225430  1
  O  O62  1  0.16835957  0.82181562  0.58374723  1
  O  O63  1  0.83164043  0.17818438  0.41625277  1
  O  O64  1  0.44665661  0.08088639  0.43228893  1
  O  O65  1  0.55334339  0.91911361  0.56771107  1
  O  O66  1  0.23892513  0.62471092  0.91495797  1
  O  O67  1  0.76107487  0.37528908  0.08504203  1
  O  O68  1  0.22172970  0.27075036  0.43707381  1
  O  O69  1  0.77827030  0.72924964  0.56292619  1
  O  O70  1  0.92188308  0.22944938  0.91136058  1
  O  O71  1  0.07811692  0.77055062  0.08863942  1
  O  O72  1  0.40734573  0.16570675  0.72880982  1
  O  O73  1  0.59265427  0.83429325  0.27119018  1
  O  O74  1  0.68511494  0.67992398  0.06685553  1
  O  O75  1  0.31488506  0.32007602  0.93314447  1
  Rb  Rb76  1  0.60745315  0.87427049  0.84992184  1
  Rb  Rb77  1  0.39254685  0.12572951  0.15007816  1
  Rb  Rb78  1  0.02812517  0.63770286  0.80705745  1
  Rb  Rb79  1  0.97187483  0.36229714  0.19294255  1
  Rb  Rb80  1  0.31587206  0.23891316  0.64122407  1
  Rb  Rb81  1  0.68412794  0.76108684  0.35877593  1
  Rb  Rb82  1  0.03786765  0.65496203  0.69244592  1
  Rb  Rb83  1  0.96213235  0.34503797  0.30755408  1
  Rb  Rb84  1  0.41083336  0.21377435  0.52290360  1
  Rb  Rb85  1  0.58916664  0.78622565  0.47709640  1
  Rb  Rb86  1  0.66488529  0.79481413  0.97407488  1
  Rb  Rb87  1  0.33511471  0.20518587  0.02592512  1
