# generated using pymatgen
data_Al13Co4
_symmetry_space_group_name_H-M   'P 1'
_cell_length_a   8.20886573
_cell_length_b   12.58974973
_cell_length_c   14.32444968
_cell_angle_alpha   90.00000000
_cell_angle_beta   90.00000000
_cell_angle_gamma   90.00000000
_symmetry_Int_Tables_number   1
_chemical_formula_structural   Al13Co4
_chemical_formula_sum   'Al78 Co24'
_cell_volume   1480.39699594
_cell_formula_units_Z   6
loop_
 _symmetry_equiv_pos_site_id
 _symmetry_equiv_pos_as_xyz
  1  'x, y, z'
loop_
 _atom_site_type_symbol
 _atom_site_label
 _atom_site_symmetry_multiplicity
 _atom_site_fract_x
 _atom_site_fract_y
 _atom_site_fract_z
 _atom_site_occupancy
  Al  Al0  1  -0.00000000  0.00358365  0.81696146  1
  Al  Al1  1  0.50000000  0.99641635  0.31696146  1
  Al  Al2  1  -0.00000000  0.10028096  0.97902677  1
  Al  Al3  1  0.50000000  0.89971904  0.47902677  1
  Al  Al4  1  -0.00000000  0.90547393  0.62797978  1
  Al  Al5  1  0.50000000  0.09452607  0.12797978  1
  Al  Al6  1  -0.00000000  0.90993750  0.44037343  1
  Al  Al7  1  0.50000000  0.09006250  0.94037343  1
  Al  Al8  1  -0.00000000  0.13742913  0.67005748  1
  Al  Al9  1  0.50000000  0.86257087  0.17005748  1
  Al  Al10  1  -0.00000000  0.82460322  0.15380956  1
  Al  Al11  1  0.50000000  0.17539678  0.65380956  1
  Al  Al12  1  -0.00000000  0.80516182  0.83487169  1
  Al  Al13  1  0.50000000  0.19483818  0.33487169  1
  Al  Al14  1  -0.00000000  0.24968529  0.41390541  1
  Al  Al15  1  0.50000000  0.75031471  0.91390541  1
  Al  Al16  1  -0.00000000  0.39942825  0.84966998  1
  Al  Al17  1  0.50000000  0.60057175  0.34966998  1
  Al  Al18  1  -0.00000000  0.36322560  0.15869344  1
  Al  Al19  1  0.50000000  0.63677440  0.65869344  1
  Al  Al20  1  -0.00000000  0.67373712  0.67429756  1
  Al  Al21  1  0.50000000  0.32626288  0.17429756  1
  Al  Al22  1  -0.00000000  0.59005357  0.38862417  1
  Al  Al23  1  0.50000000  0.40994643  0.88862417  1
  Al  Al24  1  -0.00000000  0.49689796  0.01110580  1
  Al  Al25  1  0.50000000  0.50310204  0.51110580  1
  Al  Al26  1  -0.00000000  0.59438635  0.20132377  1
  Al  Al27  1  0.50000000  0.40561365  0.70132377  1
  Al  Al28  1  -0.00000000  0.69554951  0.99281629  1
  Al  Al29  1  0.50000000  0.30445049  0.49281629  1
  Al  Al30  1  -0.00000000  0.09653006  0.24192805  1
  Al  Al31  1  0.50000000  0.90346994  0.74192805  1
  Al  Al32  1  -0.00000000  0.40457633  0.58837126  1
  Al  Al33  1  0.50000000  0.59542367  0.08837126  1
  Al  Al34  1  0.22231590  0.20370891  0.09742723  1
  Al  Al35  1  0.27768410  0.79629109  0.59742723  1
  Al  Al36  1  0.77768410  0.20370891  0.09742723  1
  Al  Al37  1  0.72231590  0.79629109  0.59742723  1
  Al  Al38  1  0.21184058  0.90846695  0.28291051  1
  Al  Al39  1  0.28815942  0.09153305  0.78291051  1
  Al  Al40  1  0.78815942  0.90846695  0.28291051  1
  Al  Al41  1  0.71184058  0.09153305  0.78291051  1
  Al  Al42  1  0.23319340  0.07851242  0.40608194  1
  Al  Al43  1  0.26680660  0.92148758  0.90608194  1
  Al  Al44  1  0.76680660  0.07851242  0.40608194  1
  Al  Al45  1  0.73319340  0.92148758  0.90608194  1
  Al  Al46  1  0.25028724  0.24980919  0.91442227  1
  Al  Al47  1  0.24971276  0.75019081  0.41442227  1
  Al  Al48  1  0.74971276  0.24980919  0.91442227  1
  Al  Al49  1  0.75028724  0.75019081  0.41442227  1
  Al  Al50  1  0.21993091  0.98563438  0.09314776  1
  Al  Al51  1  0.28006909  0.01436562  0.59314776  1
  Al  Al52  1  0.78006909  0.98563438  0.09314776  1
  Al  Al53  1  0.71993091  0.01436562  0.59314776  1
  Al  Al54  1  0.22413176  0.22061217  0.54924608  1
  Al  Al55  1  0.27586824  0.77938783  0.04924608  1
  Al  Al56  1  0.77586824  0.22061217  0.54924608  1
  Al  Al57  1  0.72413176  0.77938783  0.04924608  1
  Al  Al58  1  0.21266286  0.59166611  0.54552943  1
  Al  Al59  1  0.28733714  0.40833389  0.04552943  1
  Al  Al60  1  0.78733714  0.59166611  0.54552943  1
  Al  Al61  1  0.71266286  0.40833389  0.04552943  1
  Al  Al62  1  0.22226603  0.29609826  0.73142920  1
  Al  Al63  1  0.27773397  0.70390174  0.23142920  1
  Al  Al64  1  0.77773397  0.29609826  0.73142920  1
  Al  Al65  1  0.72226603  0.70390174  0.23142920  1
  Al  Al66  1  0.23225153  0.42099930  0.42289960  1
  Al  Al67  1  0.26774847  0.57900070  0.92289960  1
  Al  Al68  1  0.76774847  0.42099930  0.42289960  1
  Al  Al69  1  0.73225153  0.57900070  0.92289960  1
  Al  Al70  1  0.22040952  0.51407843  0.73601976  1
  Al  Al71  1  0.27959048  0.48592157  0.23601976  1
  Al  Al72  1  0.77959048  0.51407843  0.73601976  1
  Al  Al73  1  0.72040952  0.48592157  0.23601976  1
  Al  Al74  1  0.22446702  0.27962694  0.27915899  1
  Al  Al75  1  0.27553298  0.72037306  0.77915899  1
  Al  Al76  1  0.77553298  0.27962694  0.27915899  1
  Al  Al77  1  0.72446702  0.72037306  0.77915899  1
  Co  Co78  1  -0.00000000  0.89526328  0.99750614  1
  Co  Co79  1  0.50000000  0.10473672  0.49750614  1
  Co  Co80  1  -0.00000000  0.08858097  0.51357234  1
  Co  Co81  1  0.50000000  0.91141903  0.01357234  1
  Co  Co82  1  -0.00000000  0.19971199  0.82419038  1
  Co  Co83  1  0.50000000  0.80028801  0.32419038  1
  Co  Co84  1  -0.00000000  0.76935807  0.31284973  1
  Co  Co85  1  0.50000000  0.23064193  0.81284973  1
  Co  Co86  1  -0.00000000  0.60491069  0.83124274  1
  Co  Co87  1  0.50000000  0.39508931  0.33124274  1
  Co  Co88  1  -0.00000000  0.41113061  0.31465074  1
  Co  Co89  1  0.50000000  0.58886939  0.81465074  1
  Co  Co90  1  -0.00000000  0.73071105  0.51593576  1
  Co  Co91  1  0.50000000  0.26928895  0.01593576  1
  Co  Co92  1  -0.00000000  0.30005109  0.00430190  1
  Co  Co93  1  0.50000000  0.69994891  0.50430190  1
  Co  Co94  1  0.22480414  0.90643091  0.73726394  1
  Co  Co95  1  0.27519586  0.09356909  0.23726394  1
  Co  Co96  1  0.77519586  0.90643091  0.73726394  1
  Co  Co97  1  0.72480414  0.09356909  0.23726394  1
  Co  Co98  1  0.22448124  0.59366422  0.09157797  1
  Co  Co99  1  0.27551876  0.40633578  0.59157797  1
  Co  Co100  1  0.77551876  0.59366422  0.09157797  1
  Co  Co101  1  0.72448124  0.40633578  0.59157797  1
