# generated using pymatgen
data_Ni19Ge12
_symmetry_space_group_name_H-M   'P 1'
_cell_length_a   6.71166118
_cell_length_b   6.72279883
_cell_length_c   10.06317625
_cell_angle_alpha   90.05710328
_cell_angle_beta   90.00000000
_cell_angle_gamma   119.94521198
_symmetry_Int_Tables_number   1
_chemical_formula_structural   Ni19Ge12
_chemical_formula_sum   'Ni19 Ge12'
_cell_volume   393.44593642
_cell_formula_units_Z   1
loop_
 _symmetry_equiv_pos_site_id
 _symmetry_equiv_pos_as_xyz
  1  'x, y, z'
loop_
 _atom_site_type_symbol
 _atom_site_label
 _atom_site_symmetry_multiplicity
 _atom_site_fract_x
 _atom_site_fract_y
 _atom_site_fract_z
 _atom_site_occupancy
  Ni  Ni0  1  0.67139311  0.00000000  0.50000000  1
  Ni  Ni1  1  1.00145886  0.99600104  0.25440534  1
  Ni  Ni2  1  0.00545782  0.00399896  0.74559466  1
  Ni  Ni3  1  0.33212166  0.66880379  0.25226874  1
  Ni  Ni4  1  0.66331787  0.33119621  0.74773126  1
  Ni  Ni5  1  0.00239619  0.66386780  0.00362814  1
  Ni  Ni6  1  0.33852839  0.33613220  0.99637186  1
  Ni  Ni7  1  0.98530557  0.31875390  0.12575546  1
  Ni  Ni8  1  0.66655167  0.68124610  0.87424454  1
  Ni  Ni9  1  -0.00156412  0.33794714  0.37704444  1
  Ni  Ni10  1  0.66048874  0.66205286  0.62295556  1
  Ni  Ni11  1  0.01894823  0.35399422  0.62382085  1
  Ni  Ni12  1  0.66495401  0.64600578  0.37617915  1
  Ni  Ni13  1  -0.00239249  0.32827556  0.87422642  1
  Ni  Ni14  1  0.66933194  0.67172444  0.12577358  1
  Ni  Ni15  1  0.35131902  0.01144478  0.12584683  1
  Ni  Ni16  1  0.33987424  0.98855522  0.87415317  1
  Ni  Ni17  1  0.34648295  0.02321204  0.37725526  1
  Ni  Ni18  1  0.32327092  0.97678796  0.62274474  1
  Ge  Ge19  1  0.97427708  0.00000000  0.00000000  1
  Ge  Ge20  1  0.02276121  0.00000000  0.50000000  1
  Ge  Ge21  1  0.66819145  0.03079268  0.25249360  1
  Ge  Ge22  1  0.63739877  0.96920732  0.74750640  1
  Ge  Ge23  1  0.36860479  0.70002542  0.00228208  1
  Ge  Ge24  1  0.66857937  0.29997458  0.99771792  1
  Ge  Ge25  1  0.31973991  0.64845966  0.49796813  1
  Ge  Ge26  1  0.67128025  0.35154034  0.50203187  1
  Ge  Ge27  1  0.96410369  0.62839673  0.25225858  1
  Ge  Ge28  1  0.33570696  0.37160327  0.74774142  1
  Ge  Ge29  1  0.02848435  0.66485675  0.75201528  1
  Ge  Ge30  1  0.36362760  0.33514325  0.24798472  1
