# generated using pymatgen
data_Pb3Au
_symmetry_space_group_name_H-M   'P 1'
_cell_length_a   6.07949821
_cell_length_b   9.16282894
_cell_length_c   9.16282894
_cell_angle_alpha   83.73284147
_cell_angle_beta   70.57571520
_cell_angle_gamma   70.57571523
_symmetry_Int_Tables_number   1
_chemical_formula_structural   Pb3Au
_chemical_formula_sum   'Pb12 Au4'
_cell_volume   453.96779526
_cell_formula_units_Z   4
loop_
 _symmetry_equiv_pos_site_id
 _symmetry_equiv_pos_as_xyz
  1  'x, y, z'
loop_
 _atom_site_type_symbol
 _atom_site_label
 _atom_site_symmetry_multiplicity
 _atom_site_fract_x
 _atom_site_fract_y
 _atom_site_fract_z
 _atom_site_occupancy
  Au  Au0  1  0.79387233  0.70569393  0.70598567  1
  Au  Au1  1  0.50000000  0.70594292  0.29405708  1
  Au  Au2  1  0.50000000  0.29417383  0.70582617  1
  Au  Au3  1  0.20612767  0.29401433  0.29430607  1
  Pb  Pb4  1  0.35876336  0.64075295  0.64078938  1
  Pb  Pb5  1  0.00000000  0.64067287  0.35932713  1
  Pb  Pb6  1  0.00000000  0.35892647  0.64107353  1
  Pb  Pb7  1  0.64123664  0.35921062  0.35924705  1
  Pb  Pb8  1  0.85149677  0.00052620  0.80807090  1
  Pb  Pb9  1  0.33829949  0.80816488  0.99977823  1
  Pb  Pb10  1  0.14850323  0.19192910  0.99947380  1
  Pb  Pb11  1  0.66170051  0.00022177  0.19183512  1
  Pb  Pb12  1  0.46388895  0.99926427  0.59894762  1
  Pb  Pb13  1  0.93667197  0.59948856  0.00003508  1
  Pb  Pb14  1  0.53611105  0.40105238  0.00073573  1
  Pb  Pb15  1  0.06332803  0.99996492  0.40051144  1
