# generated using pymatgen
data_CaSn2F6
_symmetry_space_group_name_H-M   'P 1'
_cell_length_a   4.49577982
_cell_length_b   7.36290640
_cell_length_c   9.97323519
_cell_angle_alpha   98.73279355
_cell_angle_beta   101.30301188
_cell_angle_gamma   92.60599579
_symmetry_Int_Tables_number   1
_chemical_formula_structural   CaSn2F6
_chemical_formula_sum   'Ca2 Sn4 F12'
_cell_volume   319.01277430
_cell_formula_units_Z   2
loop_
 _symmetry_equiv_pos_site_id
 _symmetry_equiv_pos_as_xyz
  1  'x, y, z'
loop_
 _atom_site_type_symbol
 _atom_site_label
 _atom_site_symmetry_multiplicity
 _atom_site_fract_x
 _atom_site_fract_y
 _atom_site_fract_z
 _atom_site_occupancy
  F  F0  1  0.90826184  0.43870811  0.61226081  1
  F  F1  1  0.09173816  0.56129189  0.38773919  1
  F  F2  1  0.05472907  0.73493464  0.85498089  1
  F  F3  1  0.94527093  0.26506536  0.14501911  1
  F  F4  1  0.89711228  0.78951027  0.17616100  1
  F  F5  1  0.10288772  0.21048973  0.82383900  1
  F  F6  1  0.61296020  0.04268632  0.89198516  1
  F  F7  1  0.38703980  0.95731368  0.10801484  1
  F  F8  1  0.53053464  0.30895757  0.30536376  1
  F  F9  1  0.46946536  0.69104243  0.69463624  1
  F  F10  1  0.63707339  0.42480607  0.89851050  1
  F  F11  1  0.36292661  0.57519393  0.10148950  1
  Ca  Ca12  1  0.40062643  0.25414219  0.05344907  1
  Ca  Ca13  1  0.59937357  0.74585781  0.94655093  1
  Sn  Sn14  1  0.36151662  0.78878971  0.26811347  1
  Sn  Sn15  1  0.63848338  0.21121029  0.73188653  1
  Sn  Sn16  1  0.98022655  0.72566149  0.63358664  1
  Sn  Sn17  1  0.01977345  0.27433851  0.36641336  1
