# generated using pymatgen
data_Ho3GaO6
_symmetry_space_group_name_H-M   'P 1'
_cell_length_a   5.41991435
_cell_length_b   7.10795123
_cell_length_c   7.10795123
_cell_angle_alpha   102.85828706
_cell_angle_beta   90.00000000
_cell_angle_gamma   90.00000000
_symmetry_Int_Tables_number   1
_chemical_formula_structural   Ho3GaO6
_chemical_formula_sum   'Ho6 Ga2 O12'
_cell_volume   266.96346291
_cell_formula_units_Z   2
loop_
 _symmetry_equiv_pos_site_id
 _symmetry_equiv_pos_as_xyz
  1  'x, y, z'
loop_
 _atom_site_type_symbol
 _atom_site_label
 _atom_site_symmetry_multiplicity
 _atom_site_fract_x
 _atom_site_fract_y
 _atom_site_fract_z
 _atom_site_occupancy
  O  O0  1  0.83256087  0.78462952  0.21537048  1
  O  O1  1  0.33256087  0.21537048  0.78462952  1
  O  O2  1  0.34756294  0.96110880  0.03889120  1
  O  O3  1  0.84756294  0.03889120  0.96110880  1
  O  O4  1  0.29761648  0.32282516  0.35660860  1
  O  O5  1  0.79761648  0.67717484  0.64339140  1
  O  O6  1  0.29761648  0.64339140  0.67717484  1
  O  O7  1  0.79761648  0.35660860  0.32282516  1
  O  O8  1  0.81342507  0.42336518  0.89401757  1
  O  O9  1  0.31342507  0.57663482  0.10598243  1
  O  O10  1  0.81342507  0.10598243  0.57663482  1
  O  O11  1  0.31342507  0.89401757  0.42336518  1
  Ga  Ga12  1  0.49351728  0.80660291  0.19339709  1
  Ga  Ga13  1  0.99351728  0.19339709  0.80660291  1
  Ho  Ho14  1  0.07244749  0.60160527  0.39839473  1
  Ho  Ho15  1  0.57244749  0.39839473  0.60160527  1
  Ho  Ho16  1  0.02404416  0.08829645  0.29876223  1
  Ho  Ho17  1  0.52404416  0.91170355  0.70123777  1
  Ho  Ho18  1  0.02404416  0.70123777  0.91170355  1
  Ho  Ho19  1  0.52404416  0.29876223  0.08829645  1
