# generated using pymatgen
data_Mo2(PO4)3
_symmetry_space_group_name_H-M   'P 1'
_cell_length_a   8.76057249
_cell_length_b   9.04047176
_cell_length_c   8.77911827
_cell_angle_alpha   90.05546770
_cell_angle_beta   60.05708874
_cell_angle_gamma   118.94358203
_symmetry_Int_Tables_number   1
_chemical_formula_structural   Mo2(PO4)3
_chemical_formula_sum   'Mo4 P6 O24'
_cell_volume   500.00177738
_cell_formula_units_Z   2
loop_
 _symmetry_equiv_pos_site_id
 _symmetry_equiv_pos_as_xyz
  1  'x, y, z'
loop_
 _atom_site_type_symbol
 _atom_site_label
 _atom_site_symmetry_multiplicity
 _atom_site_fract_x
 _atom_site_fract_y
 _atom_site_fract_z
 _atom_site_occupancy
  Mo  Mo0  1  0.71302700  0.06814798  0.64488428  1
  Mo  Mo1  1  0.71140968  0.57110709  0.14289885  1
  Mo  Mo2  1  0.28534478  0.42838277  0.85440627  1
  Mo  Mo3  1  0.29159296  0.93204679  0.35417698  1
  P  P4  1  0.78207809  0.24822034  0.96477188  1
  P  P5  1  0.50649861  0.75098945  0.46228750  1
  P  P6  1  0.50364450  0.24959593  0.53227044  1
  P  P7  1  0.21286576  0.74890493  0.03214140  1
  P  P8  1  0.78266828  0.75016638  0.75215006  1
  P  P9  1  0.21417566  0.25005955  0.25051965  1
  O  O10  1  0.22217349  0.78109418  0.19948546  1
  O  O11  1  0.23078978  0.09133006  0.27055915  1
  O  O12  1  0.18972634  0.26653920  0.09382143  1
  O  O13  1  0.00921717  0.21212623  0.43666344  1
  O  O14  1  0.77771947  0.91855734  0.74272045  1
  O  O15  1  0.78609702  0.71678740  0.92691343  1
  O  O16  1  0.97450850  0.77102878  0.58183579  1
  O  O17  1  0.40868286  0.91250553  0.85351304  1
  O  O18  1  0.77856543  0.41503746  0.99578734  1
  O  O19  1  0.65207506  0.91275663  0.49513201  1
  O  O20  1  0.57993476  0.58444316  0.79221257  1
  O  O21  1  0.01266399  0.72992979  0.06682851  1
  O  O22  1  0.36202015  0.78428829  0.43965922  1
  O  O23  1  0.65768680  0.73209265  0.28310235  1
  O  O24  1  0.20714895  0.57910056  0.00690815  1
  O  O25  1  0.36580947  0.58085766  0.62205276  1
  O  O26  1  0.63576679  0.41731378  0.36094689  1
  O  O27  1  0.60614079  0.08475006  0.13601032  1
  O  O28  1  0.37133879  0.27742338  0.71163699  1
  O  O29  1  0.66275065  0.22841772  0.54265754  1
  O  O30  1  0.99402249  0.28104179  0.90926804  1
  O  O31  1  0.40314839  0.42292400  0.22895860  1
  O  O32  1  0.35102532  0.08519299  0.51186338  1
  O  O33  1  0.75768425  0.21684015  0.80095283  1
