# generated using pymatgen
data_P2Pb8O13
_symmetry_space_group_name_H-M   'P 1'
_cell_length_a   7.56432161
_cell_length_b   7.56432161
_cell_length_c   14.69033951
_cell_angle_alpha   84.10290785
_cell_angle_beta   84.10290785
_cell_angle_gamma   87.67349060
_symmetry_Int_Tables_number   1
_chemical_formula_structural   P2Pb8O13
_chemical_formula_sum   'P4 Pb16 O26'
_cell_volume   831.30966345
_cell_formula_units_Z   2
loop_
 _symmetry_equiv_pos_site_id
 _symmetry_equiv_pos_as_xyz
  1  'x, y, z'
loop_
 _atom_site_type_symbol
 _atom_site_label
 _atom_site_symmetry_multiplicity
 _atom_site_fract_x
 _atom_site_fract_y
 _atom_site_fract_z
 _atom_site_occupancy
  O  O0  1  0.07392873  0.73694527  0.56328996  1
  O  O1  1  0.26305473  0.92607127  0.43671004  1
  O  O2  1  0.92607127  0.26305473  0.43671004  1
  O  O3  1  0.73694527  0.07392873  0.56328996  1
  O  O4  1  0.70062205  0.70062205  0.13968894  1
  O  O5  1  0.29937795  0.29937795  0.86031106  1
  O  O6  1  0.97665532  0.22095536  0.86341227  1
  O  O7  1  0.77904464  0.02334468  0.13658773  1
  O  O8  1  0.02334468  0.77904464  0.13658773  1
  O  O9  1  0.22095536  0.97665532  0.86341227  1
  O  O10  1  0.85375344  0.85375344  0.99316419  1
  O  O11  1  0.14624656  0.14624656  0.00683581  1
  O  O12  1  0.67339964  0.39056429  0.79295521  1
  O  O13  1  0.60943571  0.32660036  0.20704479  1
  O  O14  1  0.32660036  0.60943571  0.20704479  1
  O  O15  1  0.39056429  0.67339964  0.79295521  1
  O  O16  1  0.27278096  0.27278096  0.33678099  1
  O  O17  1  0.72721904  0.72721904  0.66321901  1
  O  O18  1  0.73207938  0.41170460  0.56160355  1
  O  O19  1  0.58829540  0.26792062  0.43839645  1
  O  O20  1  0.67031299  0.95348661  0.80491310  1
  O  O21  1  0.04651339  0.32968701  0.19508690  1
  O  O22  1  0.32968701  0.04651339  0.19508690  1
  O  O23  1  0.95348661  0.67031299  0.80491310  1
  O  O24  1  0.41170460  0.73207938  0.56160355  1
  O  O25  1  0.26792062  0.58829540  0.43839645  1
  P  P26  1  0.74748168  0.25251832  0.50000000  1
  P  P27  1  0.25251832  0.74748168  0.50000000  1
  P  P28  1  0.84111259  0.84111259  0.09983668  1
  P  P29  1  0.15888741  0.15888741  0.90016332  1
  Pb  Pb30  1  0.92552199  0.45477908  0.70349788  1
  Pb  Pb31  1  0.54522092  0.07447801  0.29650212  1
  Pb  Pb32  1  0.07447801  0.54522092  0.29650212  1
  Pb  Pb33  1  0.45477908  0.92552199  0.70349788  1
  Pb  Pb34  1  0.84571327  0.32432952  0.09433464  1
  Pb  Pb35  1  0.67567048  0.15428673  0.90566536  1
  Pb  Pb36  1  0.15428673  0.67567048  0.90566536  1
  Pb  Pb37  1  0.32432952  0.84571327  0.09433464  1
  Pb  Pb38  1  0.56751907  0.56751907  0.28444341  1
  Pb  Pb39  1  0.43248093  0.43248093  0.71555659  1
  Pb  Pb40  1  0.26569553  0.26569553  0.48700671  1
  Pb  Pb41  1  0.73430447  0.73430447  0.51299329  1
  Pb  Pb42  1  0.66730440  0.66730440  0.88421446  1
  Pb  Pb43  1  0.33269560  0.33269560  0.11578554  1
  Pb  Pb44  1  0.07197690  0.07197690  0.30545322  1
  Pb  Pb45  1  0.92802310  0.92802310  0.69454678  1
