# generated using pymatgen
data_PNF2
_symmetry_space_group_name_H-M   'P 1'
_cell_length_a   5.37516639
_cell_length_b   7.84765037
_cell_length_c   14.79641928
_cell_angle_alpha   90.00000000
_cell_angle_beta   90.00000000
_cell_angle_gamma   109.48197045
_symmetry_Int_Tables_number   1
_chemical_formula_structural   PNF2
_chemical_formula_sum   'P8 N8 F16'
_cell_volume   588.41415192
_cell_formula_units_Z   8
loop_
 _symmetry_equiv_pos_site_id
 _symmetry_equiv_pos_as_xyz
  1  'x, y, z'
loop_
 _atom_site_type_symbol
 _atom_site_label
 _atom_site_symmetry_multiplicity
 _atom_site_fract_x
 _atom_site_fract_y
 _atom_site_fract_z
 _atom_site_occupancy
  P  P0  1  0.37321470  0.28355043  0.40774259  1
  P  P1  1  0.12678530  0.21644957  0.90774259  1
  P  P2  1  0.62678530  0.71644957  0.59225741  1
  P  P3  1  0.87321470  0.78355043  0.09225741  1
  P  P4  1  0.42217248  0.66684335  0.40343577  1
  P  P5  1  0.07782752  0.83315665  0.90343577  1
  P  P6  1  0.57782752  0.33315665  0.59656423  1
  P  P7  1  0.92217248  0.16684335  0.09656423  1
  N  N8  1  0.50062101  0.74089861  0.50061190  1
  N  N9  1  0.32266567  0.46117007  0.38008450  1
  N  N10  1  0.17733433  0.03882993  0.88008450  1
  N  N11  1  0.67733433  0.53882993  0.61991550  1
  N  N12  1  0.82266567  0.96117007  0.11991550  1
  N  N13  1  0.99937899  0.75910139  0.00061190  1
  N  N14  1  0.49937899  0.25910139  0.49938810  1
  N  N15  1  0.00062101  0.24089861  0.99938810  1
  F  F16  1  0.03488811  0.73073671  0.16819019  1
  F  F17  1  0.46511189  0.76926329  0.66819019  1
  F  F18  1  0.96511189  0.26926329  0.83180981  1
  F  F19  1  0.10627414  0.12694307  0.39555769  1
  F  F20  1  0.53488811  0.23073671  0.33180981  1
  F  F21  1  0.60627414  0.62694307  0.10444231  1
  F  F22  1  0.89372586  0.87305693  0.60444231  1
  F  F23  1  0.39372586  0.37305693  0.89555769  1
  F  F24  1  0.14668035  0.26908829  0.16353608  1
  F  F25  1  0.35331965  0.23091171  0.66353608  1
  F  F26  1  0.85331965  0.73091171  0.83646392  1
  F  F27  1  0.64668035  0.76908829  0.33646392  1
  F  F28  1  0.70378445  0.24203309  0.12942559  1
  F  F29  1  0.79621555  0.25796691  0.62942559  1
  F  F30  1  0.29621555  0.75796691  0.87057441  1
  F  F31  1  0.20378445  0.74203309  0.37057441  1
