# generated using pymatgen
data_MoP2O7
_symmetry_space_group_name_H-M   'P 1'
_cell_length_a   8.84482074
_cell_length_b   5.27114022
_cell_length_c   12.58868500
_cell_angle_alpha   90.00000000
_cell_angle_beta   77.31581620
_cell_angle_gamma   90.00000000
_symmetry_Int_Tables_number   1
_chemical_formula_structural   MoP2O7
_chemical_formula_sum   'Mo4 P8 O28'
_cell_volume   572.58982111
_cell_formula_units_Z   4
loop_
 _symmetry_equiv_pos_site_id
 _symmetry_equiv_pos_as_xyz
  1  'x, y, z'
loop_
 _atom_site_type_symbol
 _atom_site_label
 _atom_site_symmetry_multiplicity
 _atom_site_fract_x
 _atom_site_fract_y
 _atom_site_fract_z
 _atom_site_occupancy
  Mo  Mo0  1  0.26392019  0.74625616  0.46972736  1
  Mo  Mo1  1  0.76392019  0.75374384  0.96972736  1
  Mo  Mo2  1  0.73607981  0.25374384  0.53027264  1
  Mo  Mo3  1  0.23607981  0.24625616  0.03027264  1
  P  P4  1  0.42459253  0.73217247  0.88431705  1
  P  P5  1  0.47435239  0.25752727  0.35814695  1
  P  P6  1  0.57540747  0.26782753  0.11568295  1
  P  P7  1  0.07540747  0.23217247  0.61568295  1
  P  P8  1  0.97435239  0.24247273  0.85814695  1
  P  P9  1  0.02564761  0.75752727  0.14185305  1
  P  P10  1  0.92459253  0.76782753  0.38431705  1
  P  P11  1  0.52564761  0.74247273  0.64185305  1
  O  O12  1  0.65407775  0.93840437  0.63016146  1
  O  O13  1  0.90817821  0.29846167  0.61135131  1
  O  O14  1  0.92060158  0.70851654  0.06297396  1
  O  O15  1  0.91234106  0.73205930  0.25982603  1
  O  O16  1  0.88727198  0.04671607  0.41494470  1
  O  O17  1  0.09182179  0.70153833  0.38864869  1
  O  O18  1  0.57939842  0.20851654  0.43702604  1
  O  O19  1  0.58430750  0.46535659  0.63803417  1
  O  O20  1  0.42060158  0.79148346  0.56297396  1
  O  O21  1  0.91569250  0.96535659  0.86196583  1
  O  O22  1  0.61272802  0.54671607  0.08505530  1
  O  O23  1  0.30295753  0.90932569  0.94715318  1
  O  O24  1  0.34592225  0.06159563  0.36983854  1
  O  O25  1  0.15407775  0.56159563  0.13016146  1
  O  O26  1  0.08430750  0.03464341  0.13803417  1
  O  O27  1  0.19704247  0.40932569  0.55284682  1
  O  O28  1  0.08765894  0.26794070  0.74017397  1
  O  O29  1  0.58765894  0.23205930  0.24017397  1
  O  O30  1  0.69704247  0.09067431  0.05284682  1
  O  O31  1  0.59182179  0.79846167  0.88864869  1
  O  O32  1  0.41234106  0.76794070  0.75982603  1
  O  O33  1  0.11272802  0.95328393  0.58505530  1
  O  O34  1  0.41569250  0.53464341  0.36196583  1
  O  O35  1  0.84592225  0.43840437  0.86983854  1
  O  O36  1  0.38727198  0.45328393  0.91494470  1
  O  O37  1  0.07939842  0.29148346  0.93702604  1
  O  O38  1  0.80295753  0.59067431  0.44715318  1
  O  O39  1  0.40817821  0.20153833  0.11135131  1
