# generated using pymatgen
data_Ce4B2N5
_symmetry_space_group_name_H-M   'P 1'
_cell_length_a   3.54653186
_cell_length_b   6.32165585
_cell_length_c   7.12345005
_cell_angle_alpha   82.89174799
_cell_angle_beta   75.58558403
_cell_angle_gamma   73.70955995
_symmetry_Int_Tables_number   1
_chemical_formula_structural   Ce4B2N5
_chemical_formula_sum   'Ce4 B2 N5'
_cell_volume   148.21993066
_cell_formula_units_Z   1
loop_
 _symmetry_equiv_pos_site_id
 _symmetry_equiv_pos_as_xyz
  1  'x, y, z'
loop_
 _atom_site_type_symbol
 _atom_site_label
 _atom_site_symmetry_multiplicity
 _atom_site_fract_x
 _atom_site_fract_y
 _atom_site_fract_z
 _atom_site_occupancy
  B  B0  1  0.41113937  0.56817263  0.60954863  1
  B  B1  1  0.58886063  0.43182737  0.39045137  1
  N  N2  1  0.29159586  0.81349218  0.60331610  1
  N  N3  1  0.70840414  0.18650782  0.39668390  1
  N  N4  1  0.00000000  0.00000000  0.00000000  1
  N  N5  1  0.37964633  0.43952447  0.80118286  1
  N  N6  1  0.62035367  0.56047553  0.19881714  1
  Ce  Ce7  1  0.07466385  0.19851586  0.65215644  1
  Ce  Ce8  1  0.92533615  0.80148414  0.34784356  1
  Ce  Ce9  1  0.68739453  0.73797008  0.88724087  1
  Ce  Ce10  1  0.31260547  0.26202992  0.11275913  1
