# generated using pymatgen
data_Ba6Zn7F26
_symmetry_space_group_name_H-M   'P 1'
_cell_length_a   6.02539135
_cell_length_b   10.34675024
_cell_length_c   10.46612451
_cell_angle_alpha   73.68406088
_cell_angle_beta   73.27059341
_cell_angle_gamma   73.07179724
_symmetry_Int_Tables_number   1
_chemical_formula_structural   Ba6Zn7F26
_chemical_formula_sum   'Ba6 Zn7 F26'
_cell_volume   583.79921322
_cell_formula_units_Z   1
loop_
 _symmetry_equiv_pos_site_id
 _symmetry_equiv_pos_as_xyz
  1  'x, y, z'
loop_
 _atom_site_type_symbol
 _atom_site_label
 _atom_site_symmetry_multiplicity
 _atom_site_fract_x
 _atom_site_fract_y
 _atom_site_fract_z
 _atom_site_occupancy
  F  F0  1  0.62620897  0.91029685  0.83728520  1
  F  F1  1  0.37379103  0.08970315  0.16271480  1
  F  F2  1  0.91074536  0.59634707  0.58216221  1
  F  F3  1  0.08925464  0.40365293  0.41783779  1
  F  F4  1  0.85824183  0.36818999  0.91532635  1
  F  F5  1  0.14175817  0.63181001  0.08467365  1
  F  F6  1  0.11184181  0.10098863  0.67532775  1
  F  F7  1  0.88815819  0.89901137  0.32467225  1
  F  F8  1  0.40863715  0.60214904  0.58057667  1
  F  F9  1  0.59136285  0.39785096  0.41942333  1
  F  F10  1  0.77268170  0.86600891  0.08702422  1
  F  F11  1  0.72571482  0.13399109  0.91297578  1
  F  F12  1  0.22731830  0.13399109  0.91297578  1
  F  F13  1  0.47908635  0.13506873  0.38099340  1
  F  F14  1  0.99514848  0.86493127  0.61900660  1
  F  F15  1  0.52091365  0.86493127  0.61900660  1
  F  F16  1  0.00485152  0.13506873  0.38099340  1
  F  F17  1  0.47674869  0.35867287  0.14673307  1
  F  F18  1  0.98215462  0.64132713  0.85326693  1
  F  F19  1  0.52325131  0.64132713  0.85326693  1
  F  F20  1  0.01784538  0.35867287  0.14673307  1
  F  F21  1  0.27710125  0.65546564  0.32601006  1
  F  F22  1  0.25857694  0.34453436  0.67398994  1
  F  F23  1  0.72289875  0.34453436  0.67398994  1
  F  F24  1  0.74142306  0.65546564  0.32601006  1
  F  F25  1  0.27428518  0.86600891  0.08702422  1
  Zn  Zn26  1  0.74419959  0.50000000  0.50000000  1
  Zn  Zn27  1  0.25580041  0.50000000  0.50000000  1
  Zn  Zn28  1  0.98578116  0.24842243  0.78001524  1
  Zn  Zn29  1  0.01421884  0.75157757  0.21998476  1
  Zn  Zn30  1  0.77807046  0.73171870  0.71214038  1
  Zn  Zn31  1  0.22192954  0.26828130  0.28785962  1
  Zn  Zn32  1  0.50000000  0.00000000  0.00000000  1
  Ba  Ba33  1  0.34404167  0.41827050  0.89364616  1
  Ba  Ba34  1  0.65595833  0.58172950  0.10635384  1
  Ba  Ba35  1  0.64341081  0.11852123  0.59465715  1
  Ba  Ba36  1  0.35658919  0.88147877  0.40534285  1
  Ba  Ba37  1  0.14652444  0.85787161  0.84907951  1
  Ba  Ba38  1  0.85347556  0.14212839  0.15092049  1
