# generated using pymatgen
data_CeSi4Ni9
_symmetry_space_group_name_H-M   'P 1'
_cell_length_a   7.80914389
_cell_length_b   7.80914389
_cell_length_c   7.93447065
_cell_angle_alpha   119.47885926
_cell_angle_beta   119.47885922
_cell_angle_gamma   90.00000002
_symmetry_Int_Tables_number   1
_chemical_formula_structural   CeSi4Ni9
_chemical_formula_sum   'Ce2 Si8 Ni18'
_cell_volume   347.46490405
_cell_formula_units_Z   2
loop_
 _symmetry_equiv_pos_site_id
 _symmetry_equiv_pos_as_xyz
  1  'x, y, z'
loop_
 _atom_site_type_symbol
 _atom_site_label
 _atom_site_symmetry_multiplicity
 _atom_site_fract_x
 _atom_site_fract_y
 _atom_site_fract_z
 _atom_site_occupancy
  Si  Si0  1  0.94682144  0.44682144  0.23503485  1
  Si  Si1  1  0.71178659  0.21178659  0.76496515  1
  Si  Si2  1  0.55317856  0.71178659  0.76496515  1
  Si  Si3  1  0.78821341  0.94682144  0.23503485  1
  Si  Si4  1  0.44682144  0.28821341  0.23503485  1
  Si  Si5  1  0.28821341  0.78821341  0.23503485  1
  Si  Si6  1  0.05317856  0.55317856  0.76496515  1
  Si  Si7  1  0.21178659  0.05317856  0.76496515  1
  Ni  Ni8  1  0.70354146  0.56888832  0.00000000  1
  Ni  Ni9  1  0.93111168  0.79645854  0.00000000  1
  Ni  Ni10  1  0.81698852  0.31698852  0.37064860  1
  Ni  Ni11  1  0.05366009  0.81698852  0.37064860  1
  Ni  Ni12  1  0.29645854  0.43111168  0.00000000  1
  Ni  Ni13  1  0.94633991  0.18301148  0.62935140  1
  Ni  Ni14  1  0.68301148  0.44633991  0.62935140  1
  Ni  Ni15  1  0.44633991  0.94633991  0.62935140  1
  Ni  Ni16  1  0.18301148  0.68301148  0.62935140  1
  Ni  Ni17  1  0.55366009  0.05366009  0.37064860  1
  Ni  Ni18  1  0.00000000  0.50000000  0.00000000  1
  Ni  Ni19  1  0.50000000  0.00000000  0.00000000  1
  Ni  Ni20  1  0.56888832  0.29645854  0.00000000  1
  Ni  Ni21  1  0.20354146  0.93111168  0.00000000  1
  Ni  Ni22  1  0.79645854  0.06888832  0.00000000  1
  Ni  Ni23  1  0.06888832  0.20354146  0.00000000  1
  Ni  Ni24  1  0.31698852  0.55366009  0.37064860  1
  Ni  Ni25  1  0.43111168  0.70354146  0.00000000  1
  Ce  Ce26  1  0.75000000  0.75000000  0.50000000  1
  Ce  Ce27  1  0.25000000  0.25000000  0.50000000  1
