# generated using pymatgen
data_HoZnCr2O6
_symmetry_space_group_name_H-M   'P 1'
_cell_length_a   5.20011674
_cell_length_b   5.39106606
_cell_length_c   7.61614524
_cell_angle_alpha   89.99883461
_cell_angle_beta   90.02379861
_cell_angle_gamma   90.35273625
_symmetry_Int_Tables_number   1
_chemical_formula_structural   HoZnCr2O6
_chemical_formula_sum   'Ho2 Zn2 Cr4 O12'
_cell_volume   213.50826775
_cell_formula_units_Z   2
loop_
 _symmetry_equiv_pos_site_id
 _symmetry_equiv_pos_as_xyz
  1  'x, y, z'
loop_
 _atom_site_type_symbol
 _atom_site_label
 _atom_site_symmetry_multiplicity
 _atom_site_fract_x
 _atom_site_fract_y
 _atom_site_fract_z
 _atom_site_occupancy
  Ho  Ho0  1  0.01337645  0.92971206  0.74989917  1
  Ho  Ho1  1  0.51313508  0.56797290  0.24984066  1
  Zn  Zn2  1  0.49594968  0.46883462  0.75006932  1
  Zn  Zn3  1  0.99460673  0.03538212  0.24999021  1
  Cr  Cr4  1  0.99807379  0.48832865  0.00108373  1
  Cr  Cr5  1  0.99824161  0.48851256  0.49897488  1
  Cr  Cr6  1  0.49768789  0.01519844  0.50131353  1
  Cr  Cr7  1  0.49728473  0.01527798  0.99863697  1
  O  O8  1  0.10734190  0.43535395  0.25009341  1
  O  O9  1  0.19752157  0.19057297  0.93868813  1
  O  O10  1  0.19785543  0.19049988  0.56162503  1
  O  O11  1  0.31929489  0.69273072  0.94114191  1
  O  O12  1  0.31987166  0.69311523  0.55864218  1
  O  O13  1  0.37704815  0.96468988  0.25006068  1
  O  O14  1  0.60850004  0.06078764  0.74996899  1
  O  O15  1  0.68407177  0.29947323  0.43906902  1
  O  O16  1  0.68475387  0.29953833  0.06127211  1
  O  O17  1  0.81028663  0.81441659  0.05908649  1
  O  O18  1  0.80973385  0.81435011  0.44058957  1
  O  O19  1  0.87536129  0.53525214  0.74995400  1
