# generated using pymatgen
data_Cd2(TeO3)3
_symmetry_space_group_name_H-M   'P 1'
_cell_length_a   7.42432594
_cell_length_b   9.51033862
_cell_length_c   11.53191931
_cell_angle_alpha   101.09411582
_cell_angle_beta   90.00000000
_cell_angle_gamma   90.00000000
_symmetry_Int_Tables_number   1
_chemical_formula_structural   Cd2(TeO3)3
_chemical_formula_sum   'Cd8 Te12 O36'
_cell_volume   799.02782906
_cell_formula_units_Z   4
loop_
 _symmetry_equiv_pos_site_id
 _symmetry_equiv_pos_as_xyz
  1  'x, y, z'
loop_
 _atom_site_type_symbol
 _atom_site_label
 _atom_site_symmetry_multiplicity
 _atom_site_fract_x
 _atom_site_fract_y
 _atom_site_fract_z
 _atom_site_occupancy
  O  O0  1  0.08179660  0.18652491  0.83851801  1
  O  O1  1  0.58179660  0.31347509  0.66148199  1
  O  O2  1  0.91820340  0.81347509  0.16148199  1
  O  O3  1  0.41820340  0.68652491  0.33851801  1
  O  O4  1  0.87965578  0.12826157  0.53597241  1
  O  O5  1  0.37965578  0.37173843  0.96402759  1
  O  O6  1  0.12034422  0.87173843  0.46402759  1
  O  O7  1  0.62034422  0.62826157  0.03597241  1
  O  O8  1  0.36830917  0.11862290  0.52975983  1
  O  O9  1  0.86830917  0.38137710  0.97024017  1
  O  O10  1  0.63169083  0.88137710  0.47024017  1
  O  O11  1  0.13169083  0.61862290  0.02975983  1
  O  O12  1  0.16076810  0.32508821  0.65704015  1
  O  O13  1  0.66076810  0.17491179  0.84295985  1
  O  O14  1  0.83923190  0.67491179  0.34295985  1
  O  O15  1  0.33923190  0.82508821  0.15704015  1
  O  O16  1  0.86944764  0.55968185  0.78307352  1
  O  O17  1  0.36944764  0.94031815  0.71692648  1
  O  O18  1  0.13055236  0.44031815  0.21692648  1
  O  O19  1  0.63055236  0.05968185  0.28307352  1
  O  O20  1  0.37617704  0.27158240  0.30746575  1
  O  O21  1  0.87617704  0.22841760  0.19253425  1
  O  O22  1  0.62382296  0.72841760  0.69253425  1
  O  O23  1  0.12382296  0.77158240  0.80746575  1
  O  O24  1  0.06489200  0.34142845  0.41923319  1
  O  O25  1  0.56489200  0.15857155  0.08076681  1
  O  O26  1  0.93510800  0.65857155  0.58076681  1
  O  O27  1  0.43510800  0.84142845  0.91923319  1
  O  O28  1  0.68817973  0.33276582  0.41834439  1
  O  O29  1  0.18817973  0.16723418  0.08165561  1
  O  O30  1  0.31182027  0.66723418  0.58165561  1
  O  O31  1  0.81182027  0.83276582  0.91834439  1
  O  O32  1  0.11918958  0.06595808  0.28606359  1
  O  O33  1  0.61918958  0.43404192  0.21393641  1
  O  O34  1  0.88081042  0.93404192  0.71393641  1
  O  O35  1  0.38081042  0.56595808  0.78606359  1
  Cd  Cd36  1  0.37599477  0.95412282  0.35252564  1
  Cd  Cd37  1  0.87599477  0.54587718  0.14747436  1
  Cd  Cd38  1  0.62400523  0.04587718  0.64747436  1
  Cd  Cd39  1  0.12400523  0.45412282  0.85252564  1
  Cd  Cd40  1  0.37483097  0.55184715  0.14721861  1
  Cd  Cd41  1  0.87483097  0.94815285  0.35278139  1
  Cd  Cd42  1  0.62516903  0.44815285  0.85278139  1
  Cd  Cd43  1  0.12516903  0.05184715  0.64721861  1
  Te  Te44  1  0.87382808  0.74800262  0.75002568  1
  Te  Te45  1  0.37382808  0.75199738  0.74997432  1
  Te  Te46  1  0.12617192  0.25199738  0.24997432  1
  Te  Te47  1  0.62617192  0.24800262  0.25002568  1
  Te  Te48  1  0.62108469  0.82776601  0.03991156  1
  Te  Te49  1  0.12108469  0.67223399  0.46008844  1
  Te  Te50  1  0.37891531  0.17223399  0.96008844  1
  Te  Te51  1  0.87891531  0.32776601  0.53991156  1
  Te  Te52  1  0.12383593  0.82369802  0.06127984  1
  Te  Te53  1  0.62383593  0.67630198  0.43872016  1
  Te  Te54  1  0.87616407  0.17630198  0.93872016  1
  Te  Te55  1  0.37616407  0.32369802  0.56127984  1
