# generated using pymatgen
data_Eu(Mo3S4)2
_symmetry_space_group_name_H-M   'P 1'
_cell_length_a   6.57565811
_cell_length_b   6.57565812
_cell_length_c   6.57565812
_cell_angle_alpha   89.10247172
_cell_angle_beta   89.10247175
_cell_angle_gamma   89.10247181
_symmetry_Int_Tables_number   1
_chemical_formula_structural   Eu(Mo3S4)2
_chemical_formula_sum   'Eu1 Mo6 S8'
_cell_volume   284.22314813
_cell_formula_units_Z   1
loop_
 _symmetry_equiv_pos_site_id
 _symmetry_equiv_pos_as_xyz
  1  'x, y, z'
loop_
 _atom_site_type_symbol
 _atom_site_label
 _atom_site_symmetry_multiplicity
 _atom_site_fract_x
 _atom_site_fract_y
 _atom_site_fract_z
 _atom_site_occupancy
  S  S0  1  0.75680594  0.75680594  0.75680594  1
  S  S1  1  0.24319406  0.24319406  0.24319406  1
  S  S2  1  0.25566717  0.87305181  0.62040663  1
  S  S3  1  0.87305181  0.62040663  0.25566717  1
  S  S4  1  0.62040663  0.25566717  0.87305181  1
  S  S5  1  0.74433283  0.12694819  0.37959337  1
  S  S6  1  0.12694819  0.37959337  0.74433283  1
  S  S7  1  0.37959337  0.74433283  0.12694819  1
  Mo  Mo8  1  0.58171900  0.77375589  0.43837606  1
  Mo  Mo9  1  0.77375589  0.43837606  0.58171900  1
  Mo  Mo10  1  0.43837606  0.58171900  0.77375589  1
  Mo  Mo11  1  0.41828100  0.22624411  0.56162394  1
  Mo  Mo12  1  0.22624411  0.56162394  0.41828100  1
  Mo  Mo13  1  0.56162394  0.41828100  0.22624411  1
  Eu  Eu14  1  0.00000000  0.00000000  0.00000000  1
