# generated using pymatgen
data_SrRuO3
_symmetry_space_group_name_H-M   'P 1'
_cell_length_a   5.58681359
_cell_length_b   5.71184733
_cell_length_c   7.89377256
_cell_angle_alpha   90.00000000
_cell_angle_beta   90.00000000
_cell_angle_gamma   90.00000000
_symmetry_Int_Tables_number   1
_chemical_formula_structural   SrRuO3
_chemical_formula_sum   'Sr4 Ru4 O12'
_cell_volume   251.89838367
_cell_formula_units_Z   4
loop_
 _symmetry_equiv_pos_site_id
 _symmetry_equiv_pos_as_xyz
  1  'x, y, z'
loop_
 _atom_site_type_symbol
 _atom_site_label
 _atom_site_symmetry_multiplicity
 _atom_site_fract_x
 _atom_site_fract_y
 _atom_site_fract_z
 _atom_site_occupancy
  Sr  Sr0  1  0.00115859  0.99496522  0.25000000  1
  Sr  Sr1  1  0.99884141  0.00503478  0.75000000  1
  Sr  Sr2  1  0.50115859  0.50503478  0.25000000  1
  Sr  Sr3  1  0.49884141  0.49496522  0.75000000  1
  Ru  Ru4  1  -0.00000000  0.50000000  -0.00000000  1
  Ru  Ru5  1  -0.00000000  0.50000000  0.50000000  1
  Ru  Ru6  1  0.50000000  0.00000000  0.50000000  1
  Ru  Ru7  1  0.50000000  0.00000000  -0.00000000  1
  O  O8  1  0.25118380  0.74878584  0.03963448  1
  O  O9  1  0.50200007  0.92815096  0.75000000  1
  O  O10  1  0.74881620  0.25121416  0.53963448  1
  O  O11  1  0.75118380  0.75121416  0.46036552  1
  O  O12  1  0.75118380  0.75121416  0.03963448  1
  O  O13  1  0.00200007  0.57184904  0.75000000  1
  O  O14  1  0.24881620  0.24878584  0.96036552  1
  O  O15  1  0.24881620  0.24878584  0.53963448  1
  O  O16  1  0.25118380  0.74878584  0.46036552  1
  O  O17  1  0.49799993  0.07184904  0.25000000  1
  O  O18  1  0.74881620  0.25121416  0.96036552  1
  O  O19  1  0.99799993  0.42815096  0.25000000  1
