# generated using pymatgen
data_V4As2O13
_symmetry_space_group_name_H-M   'P 1'
_cell_length_a   5.05919701
_cell_length_b   5.06841277
_cell_length_c   8.96281098
_cell_angle_alpha   89.70588141
_cell_angle_beta   79.66715704
_cell_angle_gamma   80.31647603
_symmetry_Int_Tables_number   1
_chemical_formula_structural   V4As2O13
_chemical_formula_sum   'V4 As2 O13'
_cell_volume   222.80230135
_cell_formula_units_Z   1
loop_
 _symmetry_equiv_pos_site_id
 _symmetry_equiv_pos_as_xyz
  1  'x, y, z'
loop_
 _atom_site_type_symbol
 _atom_site_label
 _atom_site_symmetry_multiplicity
 _atom_site_fract_x
 _atom_site_fract_y
 _atom_site_fract_z
 _atom_site_occupancy
  O  O0  1  0.92268823  0.49203946  0.27803798  1
  O  O1  1  0.25578999  0.95163463  0.31731305  1
  O  O2  1  0.70181430  0.92722714  0.46887853  1
  O  O3  1  0.59723281  0.71794491  0.78641954  1
  O  O4  1  0.53562026  0.57245623  0.09839865  1
  O  O5  1  0.41559074  0.27052911  0.71984122  1
  O  O6  1  0.80294980  0.16059290  0.87255036  1
  O  O7  1  0.08832715  0.67324881  0.95157138  1
  O  O8  1  0.79212144  0.01764193  0.17962569  1
  O  O9  1  0.97554587  0.26986819  0.56435655  1
  O  O10  1  0.11621087  0.75736033  0.64129774  1
  O  O11  1  0.47274155  0.43404772  0.41874490  1
  O  O12  1  0.26823208  0.15516949  0.01709188  1
  V  V13  1  0.90839096  0.18380406  0.35875749  1
  V  V14  1  0.57559332  0.75400442  0.29720690  1
  V  V15  1  0.73909637  0.95482171  0.68349103  1
  V  V16  1  0.44868537  0.46072506  0.93984179  1
  As  As17  1  0.24218302  0.43454674  0.58640061  1
  As  As18  1  0.00130435  0.00503862  0.99914448  1
