# generated using pymatgen
data_LiGa3Te5
_symmetry_space_group_name_H-M   'P 1'
_cell_length_a   10.38486792
_cell_length_b   10.38486739
_cell_length_c   10.38486794
_cell_angle_alpha   90.03979310
_cell_angle_beta   90.03979328
_cell_angle_gamma   90.03979324
_symmetry_Int_Tables_number   1
_chemical_formula_structural   LiGa3Te5
_chemical_formula_sum   'Li4 Ga12 Te20'
_cell_volume   1119.96021761
_cell_formula_units_Z   4
loop_
 _symmetry_equiv_pos_site_id
 _symmetry_equiv_pos_as_xyz
  1  'x, y, z'
loop_
 _atom_site_type_symbol
 _atom_site_label
 _atom_site_symmetry_multiplicity
 _atom_site_fract_x
 _atom_site_fract_y
 _atom_site_fract_z
 _atom_site_occupancy
  Ga  Ga0  1  0.12714819  0.15847583  0.42969155  1
  Ga  Ga1  1  0.15847583  0.42969155  0.12714819  1
  Ga  Ga2  1  0.16723000  0.33729510  0.75016854  1
  Ga  Ga3  1  0.24810881  0.65965766  0.83329839  1
  Ga  Ga4  1  0.33729510  0.75016854  0.16723000  1
  Ga  Ga5  1  0.42969155  0.12714819  0.15847583  1
  Ga  Ga6  1  0.57174038  0.84232170  0.87538046  1
  Ga  Ga7  1  0.65965766  0.83329839  0.24810881  1
  Ga  Ga8  1  0.75016854  0.16723000  0.33729510  1
  Ga  Ga9  1  0.83329839  0.24810881  0.65965766  1
  Ga  Ga10  1  0.84232170  0.87538046  0.57174038  1
  Ga  Ga11  1  0.87538046  0.57174038  0.84232170  1
  Li  Li12  1  0.26497451  0.00392062  0.73290031  1
  Li  Li13  1  0.55440367  0.55440367  0.55440367  1
  Li  Li14  1  0.73290031  0.26497451  0.00392062  1
  Li  Li15  1  0.00392062  0.73290031  0.26497451  1
  Te  Te16  1  0.99793240  0.16822469  0.83376175  1
  Te  Te17  1  0.06769668  0.56628639  0.67140971  1
  Te  Te18  1  0.08431788  0.91527852  0.49981471  1
  Te  Te19  1  0.16822469  0.83376175  0.99793240  1
  Te  Te20  1  0.17232383  0.17232383  0.17232383  1
  Te  Te21  1  0.24012982  0.57437674  0.32041565  1
  Te  Te22  1  0.32041565  0.24012982  0.57437674  1
  Te  Te23  1  0.32745900  0.43236922  0.93219175  1
  Te  Te24  1  0.42491613  0.76193992  0.68051379  1
  Te  Te25  1  0.43236922  0.93219175  0.32745900  1
  Te  Te26  1  0.49981471  0.08431788  0.91527852  1
  Te  Te27  1  0.56628639  0.67140971  0.06769668  1
  Te  Te28  1  0.57437674  0.32041565  0.24012982  1
  Te  Te29  1  0.67140971  0.06769668  0.56628639  1
  Te  Te30  1  0.68051379  0.42491613  0.76193992  1
  Te  Te31  1  0.76193992  0.68051379  0.42491613  1
  Te  Te32  1  0.82805870  0.82805870  0.82805870  1
  Te  Te33  1  0.83376175  0.99793240  0.16822469  1
  Te  Te34  1  0.91527852  0.49981471  0.08431788  1
  Te  Te35  1  0.93219175  0.32745900  0.43236922  1
