# generated using pymatgen
data_Mg(GaO2)2
_symmetry_space_group_name_H-M   'P 1'
_cell_length_a   5.93271532
_cell_length_b   5.98155758
_cell_length_c   17.80777747
_cell_angle_alpha   59.73867679
_cell_angle_beta   59.75399220
_cell_angle_gamma   59.69995385
_symmetry_Int_Tables_number   1
_chemical_formula_structural   Mg(GaO2)2
_chemical_formula_sum   'Mg6 Ga12 O24'
_cell_volume   444.11941571
_cell_formula_units_Z   6
loop_
 _symmetry_equiv_pos_site_id
 _symmetry_equiv_pos_as_xyz
  1  'x, y, z'
loop_
 _atom_site_type_symbol
 _atom_site_label
 _atom_site_symmetry_multiplicity
 _atom_site_fract_x
 _atom_site_fract_y
 _atom_site_fract_z
 _atom_site_occupancy
  Ga  Ga0  1  0.13343441  0.11379955  0.37954536  1
  Ga  Ga1  1  0.49686881  0.00329645  0.16754915  1
  Ga  Ga2  1  0.49510508  0.49578479  0.00446322  1
  Ga  Ga3  1  0.49693614  0.49711209  0.16752887  1
  Ga  Ga4  1  0.50029187  0.00053423  0.49970426  1
  Ga  Ga5  1  0.13776836  0.11758800  0.70902707  1
  Ga  Ga6  1  0.50028769  0.50014540  0.49968347  1
  Ga  Ga7  1  0.49899042  0.00617590  0.83169112  1
  Ga  Ga8  1  0.86524087  0.88480452  0.28851226  1
  Ga  Ga9  1  0.49897608  0.49978818  0.83168070  1
  Ga  Ga10  1  0.86516133  0.88505099  0.62165289  1
  Ga  Ga11  1  0.86040347  0.88117145  0.95913307  1
  Mg  Mg12  1  0.13558114  0.12008049  0.04132237  1
  Mg  Mg13  1  0.00147229  0.49780495  0.16764896  1
  Mg  Mg14  1  0.00024071  0.50018636  0.49981967  1
  Mg  Mg15  1  0.49993838  0.50041124  0.33304966  1
  Mg  Mg16  1  0.00296369  0.50050609  0.83201123  1
  Mg  Mg17  1  0.50018070  0.50062864  0.66617733  1
  O  O18  1  0.27177229  0.25408870  0.08642866  1
  O  O19  1  0.27172260  0.71452482  0.08652082  1
  O  O20  1  0.25810941  0.24824191  0.24844687  1
  O  O21  1  0.72087836  0.25764086  0.08784874  1
  O  O22  1  0.26228211  0.24712999  0.42086878  1
  O  O23  1  0.26443022  0.75043511  0.24494492  1
  O  O24  1  0.73858201  0.27090031  0.24554700  1
  O  O25  1  0.26434486  0.25211741  0.57714520  1
  O  O26  1  0.26225198  0.72773045  0.42093652  1
  O  O27  1  0.73753094  0.74710466  0.08941166  1
  O  O28  1  0.73425396  0.25092561  0.42125669  1
  O  O29  1  0.73854366  0.75394769  0.24563777  1
  O  O30  1  0.26042927  0.24763386  0.75287632  1
  O  O31  1  0.26428771  0.74911177  0.57920093  1
  O  O32  1  0.73800949  0.27107734  0.57943627  1
  O  O33  1  0.26037499  0.73325848  0.75291177  1
  O  O34  1  0.27662192  0.25687380  0.90321623  1
  O  O35  1  0.73721438  0.74890334  0.42167768  1
  O  O36  1  0.74127002  0.24991239  0.75295384  1
  O  O37  1  0.73794634  0.75261903  0.57951385  1
  O  O38  1  0.26637275  0.74366752  0.91545254  1
  O  O39  1  0.73451325  0.27356633  0.91572108  1
  O  O40  1  0.73390549  0.74893184  0.75608571  1
  O  O41  1  0.73451054  0.74478748  0.91575951  1
