# generated using pymatgen
data_V4ZnO9
_symmetry_space_group_name_H-M   'P 1'
_cell_length_a   4.99039331
_cell_length_b   8.33691342
_cell_length_c   8.33691342
_cell_angle_alpha   90.00000000
_cell_angle_beta   90.00000000
_cell_angle_gamma   90.00000000
_symmetry_Int_Tables_number   1
_chemical_formula_structural   V4ZnO9
_chemical_formula_sum   'V8 Zn2 O18'
_cell_volume   346.85292228
_cell_formula_units_Z   2
loop_
 _symmetry_equiv_pos_site_id
 _symmetry_equiv_pos_as_xyz
  1  'x, y, z'
loop_
 _atom_site_type_symbol
 _atom_site_label
 _atom_site_symmetry_multiplicity
 _atom_site_fract_x
 _atom_site_fract_y
 _atom_site_fract_z
 _atom_site_occupancy
  V  V0  1  0.63013711  0.53172970  0.33963308  1
  V  V1  1  0.36986389  0.83963208  0.46827130  1
  V  V2  1  0.63013711  0.33963208  0.96827130  1
  V  V3  1  0.36986389  0.03172870  0.83963208  1
  V  V4  1  0.63013711  0.96827130  0.16036692  1
  V  V5  1  0.63013711  0.16036792  0.53172970  1
  V  V6  1  0.36986389  0.46827130  0.66036692  1
  V  V7  1  0.36986389  0.66036692  0.03172870  1
  Zn  Zn8  1  0.14100353  0.25000000  0.25000000  1
  Zn  Zn9  1  0.85899747  0.75000000  0.74999900  1
  O  O10  1  0.49999900  0.75000000  0.25000000  1
  O  O11  1  0.49999900  0.25000100  0.75000000  1
  O  O12  1  0.05090490  0.68572505  0.97981654  1
  O  O13  1  0.05090490  0.52018446  0.68572405  1
  O  O14  1  0.05090490  0.97981654  0.81427595  1
  O  O15  1  0.05090490  0.81427595  0.52018346  1
  O  O16  1  0.94909610  0.31427595  0.02018346  1
  O  O17  1  0.94909610  0.47981554  0.31427595  1
  O  O18  1  0.94909610  0.02018346  0.18572405  1
  O  O19  1  0.94909610  0.18572405  0.47981554  1
  O  O20  1  0.45017803  0.04543486  0.35658374  1
  O  O21  1  0.45017803  0.14341526  0.04543586  1
  O  O22  1  0.45017803  0.35658374  0.45456514  1
  O  O23  1  0.45017803  0.45456514  0.14341626  1
  O  O24  1  0.54982097  0.54543486  0.85658374  1
  O  O25  1  0.54982097  0.85658374  0.95456514  1
  O  O26  1  0.54982097  0.64341626  0.54543486  1
  O  O27  1  0.54982097  0.95456414  0.64341626  1
