# generated using pymatgen
data_U16N25
_symmetry_space_group_name_H-M   'P 1'
_cell_length_a   9.20512153
_cell_length_b   9.23648117
_cell_length_c   9.23648181
_cell_angle_alpha   109.53989173
_cell_angle_beta   109.40245913
_cell_angle_gamma   109.40246052
_symmetry_Int_Tables_number   1
_chemical_formula_structural   U16N25
_chemical_formula_sum   'U16 N25'
_cell_volume   605.04630712
_cell_formula_units_Z   1
loop_
 _symmetry_equiv_pos_site_id
 _symmetry_equiv_pos_as_xyz
  1  'x, y, z'
loop_
 _atom_site_type_symbol
 _atom_site_label
 _atom_site_symmetry_multiplicity
 _atom_site_fract_x
 _atom_site_fract_y
 _atom_site_fract_z
 _atom_site_occupancy
  N  N0  1  0.02280041  0.49828222  0.76253202  1
  N  N1  1  0.24045940  0.97692158  0.50620140  1
  N  N2  1  0.26482374  0.76427171  0.73714466  1
  N  N3  1  0.23874199  0.27035393  0.74379095  1
  N  N4  1  0.00589135  0.02875740  0.27042769  1
  N  N5  1  0.23723977  0.46873383  0.46993689  1
  N  N6  1  0.26026839  0.73746798  0.23575020  1
  N  N7  1  0.02451819  0.26424980  0.00171778  1
  N  N8  1  0.73425801  0.99379860  0.97072019  1
  N  N9  1  0.52767909  0.76285534  0.52712705  1
  N  N10  1  0.51986288  0.53273919  0.75056453  1
  N  N11  1  0.48712369  0.21782534  0.96726081  1
  N  N12  1  0.49495104  0.75620905  0.02656298  1
  N  N13  1  0.46838806  0.47343702  0.22964607  1
  N  N14  1  0.47713395  0.24167029  0.47124260  1
  N  N15  1  0.26850595  0.00120306  0.03126617  1
  N  N16  1  0.73101527  0.24608214  0.75073341  1
  N  N17  1  0.98028185  0.74926659  0.99534873  1
  N  N18  1  0.76353782  0.52927981  0.52307842  1
  N  N19  1  1.00055204  0.97287295  0.73572829  1
  N  N20  1  0.76929835  0.74943547  0.28217466  1
  N  N21  1  0.73261169  0.50000000  1.00000000  1
  N  N22  1  0.73546366  0.22957231  0.25832971  1
  N  N23  1  0.76730288  0.03006311  0.49879694  1
  N  N24  1  0.98493313  0.50465127  0.25391786  1
  U  U25  1  0.02136765  0.74870184  0.77043575  1
  U  U26  1  0.23089803  0.98065333  0.25284132  1
  U  U27  1  0.97916611  0.50000000  0.00000000  1
  U  U28  1  0.24824302  0.22645032  0.97946971  1
  U  U29  1  0.26877331  0.52053029  0.74698060  1
  U  U30  1  0.25093190  0.72956425  0.47826609  1
  U  U31  1  0.49374566  0.26732774  0.74467291  1
  U  U32  1  0.49961486  0.49871286  0.49515062  1
  U  U33  1  0.52179270  0.75301940  0.27354968  1
  U  U34  1  0.75024471  0.27218800  0.51934667  1
  U  U35  1  0.72641792  0.47734518  0.23267226  1
  U  U36  1  0.74907275  0.75532709  0.02265482  1
  U  U37  1  0.50090200  0.99643776  0.00128714  1
  U  U38  1  0.77266581  0.02173391  0.75129816  1
  U  U39  1  0.97805671  0.24715868  0.22781200  1
  U  U40  1  0.00446424  0.00484938  0.50356224  1
