# generated using pymatgen
data_SrTe3O8
_symmetry_space_group_name_H-M   'P 1'
_cell_length_a   6.85824051
_cell_length_b   6.96432173
_cell_length_c   6.96432173
_cell_angle_alpha   90.00000000
_cell_angle_beta   90.00000000
_cell_angle_gamma   90.00000000
_symmetry_Int_Tables_number   1
_chemical_formula_structural   SrTe3O8
_chemical_formula_sum   'Sr2 Te6 O16'
_cell_volume   332.63685292
_cell_formula_units_Z   2
loop_
 _symmetry_equiv_pos_site_id
 _symmetry_equiv_pos_as_xyz
  1  'x, y, z'
loop_
 _atom_site_type_symbol
 _atom_site_label
 _atom_site_symmetry_multiplicity
 _atom_site_fract_x
 _atom_site_fract_y
 _atom_site_fract_z
 _atom_site_occupancy
  O  O0  1  0.00000000  0.32237959  0.95376484  1
  O  O1  1  0.50000000  0.04623516  0.32237959  1
  O  O2  1  0.50000000  0.95376484  0.67762041  1
  O  O3  1  0.00000000  0.67762041  0.04623516  1
  O  O4  1  0.00000000  0.88288286  0.75691730  1
  O  O5  1  0.50000000  0.24308270  0.88288286  1
  O  O6  1  0.50000000  0.75691730  0.11711714  1
  O  O7  1  0.00000000  0.11711714  0.24308270  1
  O  O8  1  0.30602162  0.41217058  0.18795838  1
  O  O9  1  0.80602162  0.81204162  0.41217058  1
  O  O10  1  0.80602162  0.18795838  0.58782942  1
  O  O11  1  0.30602162  0.58782942  0.81204162  1
  O  O12  1  0.69397838  0.58782942  0.81204162  1
  O  O13  1  0.19397838  0.18795838  0.58782942  1
  O  O14  1  0.19397838  0.81204162  0.41217058  1
  O  O15  1  0.69397838  0.41217058  0.18795838  1
  Sr  Sr16  1  0.25000000  0.00000000  0.00000000  1
  Sr  Sr17  1  0.75000000  0.00000000  0.00000000  1
  Te  Te18  1  0.00000000  0.56572044  0.78479947  1
  Te  Te19  1  0.50000000  0.21520053  0.56572044  1
  Te  Te20  1  0.50000000  0.78479947  0.43427956  1
  Te  Te21  1  0.00000000  0.43427956  0.21520053  1
  Te  Te22  1  0.00000000  0.00000000  0.50000000  1
  Te  Te23  1  0.50000000  0.50000000  0.00000000  1
