# generated using pymatgen
data_UTeO5
_symmetry_space_group_name_H-M   'P 1'
_cell_length_a   5.53802688
_cell_length_b   7.84815767
_cell_length_c   10.41745673
_cell_angle_alpha   90.00000000
_cell_angle_beta   90.00000000
_cell_angle_gamma   90.00000000
_symmetry_Int_Tables_number   1
_chemical_formula_structural   UTeO5
_chemical_formula_sum   'U4 Te4 O20'
_cell_volume   452.77713184
_cell_formula_units_Z   4
loop_
 _symmetry_equiv_pos_site_id
 _symmetry_equiv_pos_as_xyz
  1  'x, y, z'
loop_
 _atom_site_type_symbol
 _atom_site_label
 _atom_site_symmetry_multiplicity
 _atom_site_fract_x
 _atom_site_fract_y
 _atom_site_fract_z
 _atom_site_occupancy
  O  O0  1  0.69693707  0.75000000  0.58489603  1
  O  O1  1  0.69693707  0.25000000  0.91510397  1
  O  O2  1  0.30306293  0.25000000  0.41510397  1
  O  O3  1  0.30306293  0.75000000  0.08489603  1
  O  O4  1  0.23694574  0.75000000  0.38574155  1
  O  O5  1  0.23694574  0.25000000  0.11425845  1
  O  O6  1  0.76305426  0.25000000  0.61425845  1
  O  O7  1  0.76305426  0.75000000  0.88574155  1
  O  O8  1  0.26688723  0.75000000  0.79236101  1
  O  O9  1  0.26688723  0.25000000  0.70763899  1
  O  O10  1  0.73311277  0.25000000  0.20763899  1
  O  O11  1  0.73311277  0.75000000  0.29236101  1
  O  O12  1  0.14448799  0.47306102  0.89522913  1
  O  O13  1  0.14448799  0.52693898  0.60477087  1
  O  O14  1  0.85551201  0.97306102  0.10477087  1
  O  O15  1  0.85551201  0.02693898  0.39522913  1
  O  O16  1  0.85551201  0.52693898  0.10477087  1
  O  O17  1  0.85551201  0.47306102  0.39522913  1
  O  O18  1  0.14448799  0.02693898  0.89522913  1
  O  O19  1  0.14448799  0.97306102  0.60477087  1
  Te  Te20  1  0.35884273  0.00000000  0.75000000  1
  Te  Te21  1  0.64115727  0.50000000  0.25000000  1
  Te  Te22  1  0.64115727  0.00000000  0.25000000  1
  Te  Te23  1  0.35884273  0.50000000  0.75000000  1
  U  U24  1  0.96777093  0.75000000  0.48459319  1
  U  U25  1  0.96777093  0.25000000  0.01540681  1
  U  U26  1  0.03222907  0.25000000  0.51540681  1
  U  U27  1  0.03222907  0.75000000  0.98459319  1
