# generated using pymatgen
data_CoH32C8S4(NO5)2
_symmetry_space_group_name_H-M   'P 1'
_cell_length_a   10.53349459
_cell_length_b   10.56102866
_cell_length_c   10.60205606
_cell_angle_alpha   90.00000000
_cell_angle_beta   109.91628725
_cell_angle_gamma   90.00000000
_symmetry_Int_Tables_number   1
_chemical_formula_structural   CoH32C8S4(NO5)2
_chemical_formula_sum   'Co2 H64 C16 S8 N4 O20'
_cell_volume   1108.88124078
_cell_formula_units_Z   2
loop_
 _symmetry_equiv_pos_site_id
 _symmetry_equiv_pos_as_xyz
  1  'x, y, z'
loop_
 _atom_site_type_symbol
 _atom_site_label
 _atom_site_symmetry_multiplicity
 _atom_site_fract_x
 _atom_site_fract_y
 _atom_site_fract_z
 _atom_site_occupancy
  Co  Co0  1  0.50000000  0.50000000  0.50000000  1
  Co  Co1  1  0.00000000  -0.00000000  0.00000000  1
  H  H2  1  0.31308297  0.49512866  0.73592860  1
  H  H3  1  0.81308297  0.00487134  0.23592860  1
  H  H4  1  0.68691703  0.50487134  0.26407140  1
  H  H5  1  0.18691703  0.99512866  0.76407140  1
  H  H6  1  0.16610137  0.40530671  0.73265754  1
  H  H7  1  0.66610137  0.09469329  0.23265754  1
  H  H8  1  0.83389863  0.59469329  0.26734246  1
  H  H9  1  0.33389863  0.90530671  0.76734246  1
  H  H10  1  0.30276527  0.42478430  0.88822311  1
  H  H11  1  0.80276527  0.07521570  0.38822311  1
  H  H12  1  0.69723473  0.57521570  0.11177689  1
  H  H13  1  0.19723473  0.92478430  0.61177689  1
  H  H14  1  0.04152165  0.63775172  0.91649201  1
  H  H15  1  0.54152165  0.86224828  0.41649201  1
  H  H16  1  0.95847835  0.36224828  0.08350799  1
  H  H17  1  0.45847835  0.13775172  0.58350799  1
  H  H18  1  0.14601279  0.50170609  0.98536560  1
  H  H19  1  0.64601279  0.99829391  0.48536560  1
  H  H20  1  0.85398721  0.49829391  0.01463440  1
  H  H21  1  0.35398721  0.00170609  0.51463440  1
  H  H22  1  0.00940950  0.48730578  0.82883676  1
  H  H23  1  0.50940950  0.01269422  0.32883676  1
  H  H24  1  0.99059050  0.51269422  0.17116324  1
  H  H25  1  0.49059050  0.98730578  0.67116324  1
  H  H26  1  0.02756368  0.58329588  0.62908113  1
  H  H27  1  0.52756368  0.91670412  0.12908113  1
  H  H28  1  0.97243632  0.41670412  0.37091887  1
  H  H29  1  0.47243632  0.08329588  0.87091887  1
  H  H30  1  0.17409715  0.67444156  0.63749511  1
  H  H31  1  0.67409715  0.82555844  0.13749511  1
  H  H32  1  0.82590285  0.32555844  0.36250489  1
  H  H33  1  0.32590285  0.17444156  0.86250489  1
  H  H34  1  0.05495223  0.73451546  0.71217494  1
  H  H35  1  0.55495223  0.76548454  0.21217494  1
  H  H36  1  0.94504777  0.26548454  0.28782506  1
  H  H37  1  0.44504777  0.23451546  0.78782506  1
  H  H38  1  0.23781678  0.75909139  0.92592928  1
  H  H39  1  0.73781678  0.74090861  0.42592928  1
  H  H40  1  0.76218322  0.24090861  0.07407072  1
  H  H41  1  0.26218322  0.25909139  0.57407072  1
  H  H42  1  0.35661256  0.69715684  0.85193097  1
  H  H43  1  0.85661256  0.80284316  0.35193097  1
  H  H44  1  0.64338744  0.30284316  0.14806903  1
  H  H45  1  0.14338744  0.19715684  0.64806903  1
  H  H46  1  0.34090990  0.62453196  0.99922634  1
  H  H47  1  0.84090990  0.87546804  0.49922634  1
  H  H48  1  0.65909010  0.37546804  0.00077366  1
  H  H49  1  0.15909010  0.12453196  0.50077366  1
  H  H50  1  0.37456386  0.66646403  0.29327069  1
  H  H51  1  0.87456386  0.83353597  0.79327069  1
  H  H52  1  0.62543614  0.33353597  0.70672931  1
  H  H53  1  0.12543614  0.16646403  0.20672931  1
  H  H54  1  0.41707253  0.53619544  0.24204525  1
  H  H55  1  0.91707253  0.96380456  0.74204525  1
  H  H56  1  0.58292747  0.46380456  0.75795475  1
  H  H57  1  0.08292747  0.03619544  0.25795475  1
  H  H58  1  0.23132443  0.54358296  0.41102129  1
  H  H59  1  0.73132443  0.95641704  0.91102129  1
  H  H60  1  0.76867557  0.45641704  0.58897871  1
  H  H61  1  0.26867557  0.04358296  0.08897871  1
  H  H62  1  0.26231346  0.40160658  0.37701328  1
  H  H63  1  0.76231346  0.09839342  0.87701328  1
  H  H64  1  0.73768654  0.59839342  0.62298672  1
  H  H65  1  0.23768654  0.90160658  0.12298672  1
  C  C66  1  0.24650629  0.46879489  0.79174291  1
  C  C67  1  0.74650629  0.03120511  0.29174291  1
  C  C68  1  0.75349371  0.53120511  0.20825709  1
  C  C69  1  0.25349371  0.96879489  0.70825709  1
  C  C70  1  0.08647837  0.55106568  0.89321892  1
  C  C71  1  0.58647837  0.94893432  0.39321892  1
  C  C72  1  0.91352163  0.44893432  0.10678108  1
  C  C73  1  0.41352163  0.05106568  0.60678108  1
  C  C74  1  0.10367285  0.64992526  0.68964817  1
  C  C75  1  0.60367285  0.85007474  0.18964817  1
  C  C76  1  0.89632715  0.35007474  0.31035183  1
  C  C77  1  0.39632715  0.14992526  0.81035183  1
  C  C78  1  0.28712197  0.67400423  0.90552885  1
  C  C79  1  0.78712197  0.82599577  0.40552885  1
  C  C80  1  0.71287803  0.32599577  0.09447115  1
  C  C81  1  0.21287803  0.17400423  0.59447115  1
  S  S82  1  0.46211482  0.69844318  0.60939385  1
  S  S83  1  0.96211482  0.80155682  0.10939385  1
  S  S84  1  0.53788518  0.30155682  0.39060615  1
  S  S85  1  0.03788518  0.19844318  0.89060615  1
  S  S86  1  0.62744116  0.70914037  0.77874103  1
  S  S87  1  0.12744116  0.79085963  0.27874103  1
  S  S88  1  0.37255884  0.29085963  0.22125897  1
  S  S89  1  0.87255884  0.20914037  0.72125897  1
  N  N90  1  0.18073994  0.58629467  0.81977018  1
  N  N91  1  0.68073994  0.91370533  0.31977018  1
  N  N92  1  0.81926006  0.41370533  0.18022982  1
  N  N93  1  0.31926006  0.08629467  0.68022982  1
  O  O94  1  0.61626613  0.82595535  0.85195570  1
  O  O95  1  0.11626613  0.67404465  0.35195570  1
  O  O96  1  0.38373387  0.17404465  0.14804430  1
  O  O97  1  0.88373387  0.32595535  0.64804430  1
  O  O98  1  0.44944529  0.60388255  0.31181758  1
  O  O99  1  0.94944529  0.89611745  0.81181758  1
  O  O100  1  0.55055471  0.39611745  0.68818242  1
  O  O101  1  0.05055471  0.10388255  0.18818242  1
  O  O102  1  0.28650802  0.46749309  0.44906314  1
  O  O103  1  0.78650802  0.03250691  0.94906314  1
  O  O104  1  0.71349198  0.53250691  0.55093686  1
  O  O105  1  0.21349198  0.96749309  0.05093686  1
  O  O106  1  0.75109369  0.71454429  0.73824256  1
  O  O107  1  0.25109369  0.78545571  0.23824256  1
  O  O108  1  0.24890631  0.28545571  0.26175744  1
  O  O109  1  0.74890631  0.21454429  0.76175744  1
  O  O110  1  0.63120318  0.59378261  0.86031495  1
  O  O111  1  0.13120318  0.90621739  0.36031495  1
  O  O112  1  0.36879682  0.40621739  0.13968505  1
  O  O113  1  0.86879682  0.09378261  0.63968505  1
