# generated using pymatgen
data_SmTaO4
_symmetry_space_group_name_H-M   'P 1'
_cell_length_a   5.14824961
_cell_length_b   5.48134394
_cell_length_c   6.68019623
_cell_angle_alpha   111.93791709
_cell_angle_beta   110.26104487
_cell_angle_gamma   95.46020322
_symmetry_Int_Tables_number   1
_chemical_formula_structural   SmTaO4
_chemical_formula_sum   'Sm2 Ta2 O8'
_cell_volume   158.48616648
_cell_formula_units_Z   2
loop_
 _symmetry_equiv_pos_site_id
 _symmetry_equiv_pos_as_xyz
  1  'x, y, z'
loop_
 _atom_site_type_symbol
 _atom_site_label
 _atom_site_symmetry_multiplicity
 _atom_site_fract_x
 _atom_site_fract_y
 _atom_site_fract_z
 _atom_site_occupancy
  O  O0  1  0.99651857  0.79180859  0.06353779  1
  O  O1  1  0.56701922  0.27172921  0.06353779  1
  O  O2  1  0.00348143  0.20819141  0.93646221  1
  O  O3  1  0.43298078  0.72827079  0.93646221  1
  O  O4  1  0.20066549  0.35954143  0.41398976  1
  O  O5  1  0.71332427  0.05444833  0.41398976  1
  O  O6  1  0.79933451  0.64045857  0.58601024  1
  O  O7  1  0.28667573  0.94555167  0.58601024  1
  Sm  Sm8  1  0.38147964  0.63147964  0.26295928  1
  Sm  Sm9  1  0.61852036  0.36852036  0.73704072  1
  Ta  Ta10  1  0.85019754  0.10019754  0.20039508  1
  Ta  Ta11  1  0.14980246  0.89980246  0.79960492  1
