# generated using pymatgen
data_Na3PO4
_symmetry_space_group_name_H-M   'P 1'
_cell_length_a   6.87761369
_cell_length_b   10.94302934
_cell_length_c   10.94302934
_cell_angle_alpha   90.00000000
_cell_angle_beta   90.00000000
_cell_angle_gamma   90.00000000
_symmetry_Int_Tables_number   1
_chemical_formula_structural   Na3PO4
_chemical_formula_sum   'Na24 P8 O32'
_cell_volume   823.59349065
_cell_formula_units_Z   8
loop_
 _symmetry_equiv_pos_site_id
 _symmetry_equiv_pos_as_xyz
  1  'x, y, z'
loop_
 _atom_site_type_symbol
 _atom_site_label
 _atom_site_symmetry_multiplicity
 _atom_site_fract_x
 _atom_site_fract_y
 _atom_site_fract_z
 _atom_site_occupancy
  O  O0  1  0.20377101  0.37506682  0.89653743  1
  O  O1  1  0.83222682  0.60479523  0.80817114  1
  O  O2  1  0.83222682  0.39520477  0.19182886  1
  O  O3  1  0.16777318  0.19182886  0.60479523  1
  O  O4  1  0.16777318  0.80817114  0.39520477  1
  O  O5  1  0.33222682  0.69182886  0.89520477  1
  O  O6  1  0.66777318  0.89520477  0.30817114  1
  O  O7  1  0.66777318  0.10479523  0.69182886  1
  O  O8  1  0.35839068  0.16617783  0.91859806  1
  O  O9  1  0.64160932  0.91859806  0.83382217  1
  O  O10  1  0.64160932  0.08140194  0.16617783  1
  O  O11  1  0.35839068  0.83382217  0.08140194  1
  O  O12  1  0.14160932  0.66617783  0.58140194  1
  O  O13  1  0.14160932  0.33382217  0.41859806  1
  O  O14  1  0.85839068  0.58140194  0.33382217  1
  O  O15  1  0.85839068  0.41859806  0.66617783  1
  O  O16  1  0.33222682  0.30817114  0.10479523  1
  O  O17  1  0.79622899  0.89653743  0.62493318  1
  O  O18  1  0.79622899  0.10346257  0.37506682  1
  O  O19  1  0.20377101  0.62493318  0.10346257  1
  O  O20  1  0.29622899  0.87506682  0.60346257  1
  O  O21  1  0.29622899  0.12493318  0.39653743  1
  O  O22  1  0.70377101  0.60346257  0.12493318  1
  O  O23  1  0.70377101  0.39653743  0.87506682  1
  O  O24  1  0.02714226  0.20902327  0.01492720  1
  O  O25  1  0.97285774  0.01492720  0.79097673  1
  O  O26  1  0.97285774  0.98507280  0.20902327  1
  O  O27  1  0.52714226  0.51492720  0.70902327  1
  O  O28  1  0.47285774  0.70902327  0.48507280  1
  O  O29  1  0.47285774  0.29097673  0.51492720  1
  O  O30  1  0.52714226  0.48507280  0.29097673  1
  O  O31  1  0.02714226  0.79097673  0.98507280  1
  Na  Na32  1  0.53820662  0.74120431  0.71662598  1
  Na  Na33  1  0.00000000  0.00000000  0.00000000  1
  Na  Na34  1  0.50000000  0.50000000  0.50000000  1
  Na  Na35  1  0.50000000  0.00000000  0.00000000  1
  Na  Na36  1  0.00000000  0.50000000  0.50000000  1
  Na  Na37  1  0.05079079  0.00000000  0.50000000  1
  Na  Na38  1  0.94920921  0.50000000  0.00000000  1
  Na  Na39  1  0.44920921  0.50000000  0.00000000  1
  Na  Na40  1  0.69558418  0.25798433  0.03546568  1
  Na  Na41  1  0.30441582  0.03546568  0.74201567  1
  Na  Na42  1  0.30441582  0.96453432  0.25798433  1
  Na  Na43  1  0.69558418  0.74201567  0.96453432  1
  Na  Na44  1  0.80441582  0.75798433  0.46453432  1
  Na  Na45  1  0.80441582  0.24201567  0.53546568  1
  Na  Na46  1  0.19558418  0.46453432  0.24201567  1
  Na  Na47  1  0.19558418  0.53546568  0.75798433  1
  Na  Na48  1  0.03820662  0.21662598  0.24120431  1
  Na  Na49  1  0.96179338  0.24120431  0.78337402  1
  Na  Na50  1  0.96179338  0.75879569  0.21662598  1
  Na  Na51  1  0.03820662  0.78337402  0.75879569  1
  Na  Na52  1  0.46179338  0.71662598  0.25879569  1
  Na  Na53  1  0.46179338  0.28337402  0.74120431  1
  Na  Na54  1  0.53820662  0.25879569  0.28337402  1
  Na  Na55  1  0.55079079  0.00000000  0.50000000  1
  P  P56  1  0.73015654  0.48521655  0.76368467  1
  P  P57  1  0.73015654  0.51478345  0.23631533  1
  P  P58  1  0.26984346  0.23631533  0.48521655  1
  P  P59  1  0.26984346  0.76368467  0.51478345  1
  P  P60  1  0.23015654  0.73631533  0.01478345  1
  P  P61  1  0.76984346  0.01478345  0.26368467  1
  P  P62  1  0.76984346  0.98521655  0.73631533  1
  P  P63  1  0.23015654  0.26368467  0.98521655  1
