# generated using pymatgen
data_Sr(NdS2)2
_symmetry_space_group_name_H-M   'P 1'
_cell_length_a   7.53591215
_cell_length_b   7.53591185
_cell_length_c   7.53591193
_cell_angle_alpha   109.43741207
_cell_angle_beta   109.53885252
_cell_angle_gamma   109.43741224
_symmetry_Int_Tables_number   1
_chemical_formula_structural   Sr(NdS2)2
_chemical_formula_sum   'Sr2 Nd4 S8'
_cell_volume   329.44668356
_cell_formula_units_Z   2
loop_
 _symmetry_equiv_pos_site_id
 _symmetry_equiv_pos_as_xyz
  1  'x, y, z'
loop_
 _atom_site_type_symbol
 _atom_site_label
 _atom_site_symmetry_multiplicity
 _atom_site_fract_x
 _atom_site_fract_y
 _atom_site_fract_z
 _atom_site_occupancy
  Nd  Nd0  1  0.25000000  0.62711062  0.37711062  1
  Nd  Nd1  1  0.62288938  0.37288938  0.25000000  1
  Nd  Nd2  1  0.75000000  0.87288938  0.12288938  1
  Nd  Nd3  1  0.87711062  0.12711062  0.75000000  1
  S  S4  1  0.98950235  0.84727832  0.49078272  1
  S  S5  1  0.51049765  0.00128037  0.85777598  1
  S  S6  1  0.14222402  0.15272168  0.14350440  1
  S  S7  1  0.35777598  0.50128037  0.01049765  1
  S  S8  1  0.64350440  0.65272168  0.64222402  1
  S  S9  1  0.50921728  0.99871963  0.35649560  1
  S  S10  1  0.85649560  0.49871963  0.00921728  1
  S  S11  1  0.99078272  0.34727832  0.48950235  1
  Sr  Sr12  1  0.12500000  0.75000000  0.87500000  1
  Sr  Sr13  1  0.37500000  0.25000000  0.62500000  1
