# generated using pymatgen
data_NdTaO4
_symmetry_space_group_name_H-M   'P 1'
_cell_length_a   5.17513619
_cell_length_b   5.54752601
_cell_length_c   6.75122036
_cell_angle_alpha   112.02454669
_cell_angle_beta   110.17231464
_cell_angle_gamma   95.36704235
_symmetry_Int_Tables_number   1
_chemical_formula_structural   NdTaO4
_chemical_formula_sum   'Nd2 Ta2 O8'
_cell_volume   163.03124378
_cell_formula_units_Z   2
loop_
 _symmetry_equiv_pos_site_id
 _symmetry_equiv_pos_as_xyz
  1  'x, y, z'
loop_
 _atom_site_type_symbol
 _atom_site_label
 _atom_site_symmetry_multiplicity
 _atom_site_fract_x
 _atom_site_fract_y
 _atom_site_fract_z
 _atom_site_occupancy
  O  O0  1  0.99438543  0.79421603  0.06376820  1
  O  O1  1  0.56938276  0.26955216  0.06376820  1
  O  O2  1  0.00561457  0.20578397  0.93623180  1
  O  O3  1  0.43061724  0.73044784  0.93623180  1
  O  O4  1  0.19693796  0.35600279  0.41129364  1
  O  O5  1  0.71435567  0.05529085  0.41129364  1
  O  O6  1  0.80306204  0.64399721  0.58870636  1
  O  O7  1  0.28564433  0.94470915  0.58870636  1
  Nd  Nd8  1  0.38151202  0.63151202  0.26302405  1
  Nd  Nd9  1  0.61848798  0.36848798  0.73697595  1
  Ta  Ta10  1  0.84965417  0.09965417  0.19930834  1
  Ta  Ta11  1  0.15034583  0.90034583  0.80069166  1
