# generated using pymatgen
data_Ca(BiO2)2
_symmetry_space_group_name_H-M   'P 1'
_cell_length_a   3.43735622
_cell_length_b   11.38404524
_cell_length_c   11.48282330
_cell_angle_alpha   89.99995778
_cell_angle_beta   89.99990139
_cell_angle_gamma   89.99994031
_symmetry_Int_Tables_number   1
_chemical_formula_structural   Ca(BiO2)2
_chemical_formula_sum   'Ca4 Bi8 O16'
_cell_volume   449.33457345
_cell_formula_units_Z   4
loop_
 _symmetry_equiv_pos_site_id
 _symmetry_equiv_pos_as_xyz
  1  'x, y, z'
loop_
 _atom_site_type_symbol
 _atom_site_label
 _atom_site_symmetry_multiplicity
 _atom_site_fract_x
 _atom_site_fract_y
 _atom_site_fract_z
 _atom_site_occupancy
  Ca  Ca0  1  0.30880192  0.75000755  0.13495525  1
  Ca  Ca1  1  0.30880147  0.25000807  0.36504452  1
  Ca  Ca2  1  0.69120053  0.75000607  0.63495348  1
  Ca  Ca3  1  0.69119708  0.25000655  0.86504575  1
  Bi  Bi4  1  0.78818929  0.57744293  0.38116064  1
  Bi  Bi5  1  0.78819460  0.07744298  0.11883868  1
  Bi  Bi6  1  0.21180971  0.07744193  0.61883836  1
  Bi  Bi7  1  0.78819516  0.42257612  0.11883621  1
  Bi  Bi8  1  0.21180465  0.42257667  0.61883560  1
  Bi  Bi9  1  0.78819135  0.92257667  0.38116440  1
  Bi  Bi10  1  0.21180484  0.92257512  0.88116279  1
  Bi  Bi11  1  0.21180440  0.57744198  0.88116132  1
  O  O12  1  0.22538887  0.87930158  0.52354607  1
  O  O13  1  0.77461637  0.12068404  0.47645275  1
  O  O14  1  0.23776536  0.99999101  0.24999886  1
  O  O15  1  0.77462139  0.87930258  0.02354802  1
  O  O16  1  0.77461274  0.62068315  0.02354880  1
  O  O17  1  0.81097902  0.24999522  0.22508226  1
  O  O18  1  0.22538326  0.12068515  0.97645320  1
  O  O19  1  0.18902077  0.24999494  0.72508162  1
  O  O20  1  0.23776128  0.49999317  0.25000034  1
  O  O21  1  0.76223872  0.99999517  0.75000066  1
  O  O22  1  0.22538563  0.62068504  0.52354725  1
  O  O23  1  0.18901998  0.74999622  0.77491774  1
  O  O24  1  0.81098023  0.74999494  0.27491938  1
  O  O25  1  0.76223464  0.49999201  0.75000114  1
  O  O26  1  0.22538161  0.37930358  0.97645098  1
  O  O27  1  0.77461513  0.37930058  0.47645293  1
