# generated using pymatgen
data_La(BO2)3
_symmetry_space_group_name_H-M   'P 1'
_cell_length_a   6.49562378
_cell_length_b   6.49562379
_cell_length_c   6.58025479
_cell_angle_alpha   61.98332271
_cell_angle_beta   61.98332272
_cell_angle_gamma   78.66105976
_symmetry_Int_Tables_number   1
_chemical_formula_structural   La(BO2)3
_chemical_formula_sum   'La2 B6 O12'
_cell_volume   216.27844457
_cell_formula_units_Z   2
loop_
 _symmetry_equiv_pos_site_id
 _symmetry_equiv_pos_as_xyz
  1  'x, y, z'
loop_
 _atom_site_type_symbol
 _atom_site_label
 _atom_site_symmetry_multiplicity
 _atom_site_fract_x
 _atom_site_fract_y
 _atom_site_fract_z
 _atom_site_occupancy
  B  B0  1  0.72293638  0.77706362  0.75000000  1
  B  B1  1  0.15807361  0.79668061  0.41873916  1
  B  B2  1  0.70331939  0.34192639  0.08126084  1
  B  B3  1  0.27706362  0.22293638  0.25000000  1
  B  B4  1  0.29668061  0.65807361  0.91873916  1
  B  B5  1  0.84192639  0.20331939  0.58126084  1
  O  O6  1  0.91655107  0.78840732  0.51060252  1
  O  O7  1  0.71159268  0.58344893  0.98939748  1
  O  O8  1  0.72087225  0.98991772  0.78419469  1
  O  O9  1  0.51008228  0.77912775  0.71580531  1
  O  O10  1  0.27912775  0.01008228  0.21580531  1
  O  O11  1  0.48991772  0.22087225  0.28419469  1
  O  O12  1  0.28800390  0.61849510  0.50047358  1
  O  O13  1  0.88150490  0.21199610  0.99952642  1
  O  O14  1  0.71199610  0.38150490  0.49952642  1
  O  O15  1  0.11849510  0.78800390  0.00047358  1
  O  O16  1  0.28840732  0.41655107  0.01060252  1
  O  O17  1  0.08344893  0.21159268  0.48939748  1
  La  La18  1  0.29780741  0.20219259  0.75000000  1
  La  La19  1  0.70219259  0.79780741  0.25000000  1
