# generated using pymatgen
data_CaZnF4
_symmetry_space_group_name_H-M   'P 1'
_cell_length_a   5.35205891
_cell_length_b   5.35201992
_cell_length_c   6.76814151
_cell_angle_alpha   113.30551692
_cell_angle_beta   113.30689910
_cell_angle_gamma   89.99096558
_symmetry_Int_Tables_number   1
_chemical_formula_structural   CaZnF4
_chemical_formula_sum   'Ca2 Zn2 F8'
_cell_volume   160.68668437
_cell_formula_units_Z   2
loop_
 _symmetry_equiv_pos_site_id
 _symmetry_equiv_pos_as_xyz
  1  'x, y, z'
loop_
 _atom_site_type_symbol
 _atom_site_label
 _atom_site_symmetry_multiplicity
 _atom_site_fract_x
 _atom_site_fract_y
 _atom_site_fract_z
 _atom_site_occupancy
  F  F0  1  0.30132017  0.46396344  0.07529233  1
  F  F1  1  0.61138743  0.80130006  0.57527183  1
  F  F2  1  0.96399647  0.27404988  0.57541601  1
  F  F3  1  0.77403269  0.11132539  0.07531413  1
  F  F4  1  0.22596731  0.88867461  0.92468587  1
  F  F5  1  0.03600353  0.72595012  0.42458399  1
  F  F6  1  0.38861257  0.19869994  0.42472817  1
  F  F7  1  0.69867983  0.53603656  0.92470767  1
  Ca  Ca8  1  0.62500709  0.87504246  0.25000338  1
  Ca  Ca9  1  0.37499291  0.12495754  0.74999662  1
  Zn  Zn10  1  0.12505396  0.37499331  0.24993486  1
  Zn  Zn11  1  0.87494604  0.62500669  0.75006514  1
