# generated using pymatgen
data_MgV2O6
_symmetry_space_group_name_H-M   'P 1'
_cell_length_a   3.53531431
_cell_length_b   5.19368518
_cell_length_c   7.05547228
_cell_angle_alpha   105.13043038
_cell_angle_beta   90.00048300
_cell_angle_gamma   109.89657205
_symmetry_Int_Tables_number   1
_chemical_formula_structural   MgV2O6
_chemical_formula_sum   'Mg1 V2 O6'
_cell_volume   117.02745025
_cell_formula_units_Z   1
loop_
 _symmetry_equiv_pos_site_id
 _symmetry_equiv_pos_as_xyz
  1  'x, y, z'
loop_
 _atom_site_type_symbol
 _atom_site_label
 _atom_site_symmetry_multiplicity
 _atom_site_fract_x
 _atom_site_fract_y
 _atom_site_fract_z
 _atom_site_occupancy
  O  O0  1  0.28693955  0.57388547  0.41738779  1
  O  O1  1  0.71305903  0.42611412  0.58260653  1
  O  O2  1  0.07617069  0.15237208  0.75956289  1
  O  O3  1  0.63310581  0.26626004  0.12313963  1
  O  O4  1  0.92383630  0.84764204  0.24043671  1
  O  O5  1  0.36689498  0.73374273  0.87685968  1
  Mg  Mg6  1  0.00000162  0.00000287  -0.00000051  1
  V  V7  1  0.77864853  0.55731289  0.32338687  1
  V  V8  1  0.22134048  0.44266776  0.67661841  1
