# generated using pymatgen
data_CsReO4
_symmetry_space_group_name_H-M   'P 1'
_cell_length_a   6.06440038
_cell_length_b   6.06440057
_cell_length_c   8.65560826
_cell_angle_alpha   110.50666310
_cell_angle_beta   110.50666380
_cell_angle_gamma   89.99999545
_symmetry_Int_Tables_number   1
_chemical_formula_structural   CsReO4
_chemical_formula_sum   'Cs2 Re2 O8'
_cell_volume   276.51542284
_cell_formula_units_Z   2
loop_
 _symmetry_equiv_pos_site_id
 _symmetry_equiv_pos_as_xyz
  1  'x, y, z'
loop_
 _atom_site_type_symbol
 _atom_site_label
 _atom_site_symmetry_multiplicity
 _atom_site_fract_x
 _atom_site_fract_y
 _atom_site_fract_z
 _atom_site_occupancy
  Re  Re0  1  0.37500000  0.62500000  0.75000000  1
  Re  Re1  1  0.62500000  0.37500000  0.25000000  1
  Cs  Cs2  1  0.12500000  0.87500000  0.25000000  1
  Cs  Cs3  1  0.87500000  0.12500000  0.75000000  1
  O  O4  1  0.69173549  0.20406713  0.38347099  1
  O  O5  1  0.67940386  0.69173549  0.88347099  1
  O  O6  1  0.20406713  0.69173549  0.88347099  1
  O  O7  1  0.30826451  0.79593287  0.61652901  1
  O  O8  1  0.30826451  0.32059614  0.61652901  1
  O  O9  1  0.32059614  0.30826451  0.11652901  1
  O  O10  1  0.79593287  0.30826451  0.11652901  1
  O  O11  1  0.69173549  0.67940386  0.38347099  1
