# generated using pymatgen
data_K2PbO3
_symmetry_space_group_name_H-M   'P 1'
_cell_length_a   6.10369603
_cell_length_b   7.08744484
_cell_length_c   10.77962523
_cell_angle_alpha   90.00000000
_cell_angle_beta   90.00000000
_cell_angle_gamma   90.00000000
_symmetry_Int_Tables_number   1
_chemical_formula_structural   K2PbO3
_chemical_formula_sum   'K8 Pb4 O12'
_cell_volume   466.32237189
_cell_formula_units_Z   4
loop_
 _symmetry_equiv_pos_site_id
 _symmetry_equiv_pos_as_xyz
  1  'x, y, z'
loop_
 _atom_site_type_symbol
 _atom_site_label
 _atom_site_symmetry_multiplicity
 _atom_site_fract_x
 _atom_site_fract_y
 _atom_site_fract_z
 _atom_site_occupancy
  Pb  Pb0  1  0.73125305  0.84795401  0.75000000  1
  Pb  Pb1  1  0.23125305  0.65204599  0.75000000  1
  Pb  Pb2  1  0.76874695  0.34795401  0.25000000  1
  Pb  Pb3  1  0.26874695  0.15204599  0.25000000  1
  K  K4  1  0.76727116  0.38793915  0.91402207  1
  K  K5  1  0.26727116  0.11206085  0.58597793  1
  K  K6  1  0.73272884  0.88793915  0.08597793  1
  K  K7  1  0.23272884  0.61206085  0.41402207  1
  K  K8  1  0.23272884  0.61206085  0.08597793  1
  K  K9  1  0.73272884  0.88793915  0.41402207  1
  K  K10  1  0.26727116  0.11206085  0.91402207  1
  K  K11  1  0.76727116  0.38793915  0.58597793  1
  O  O12  1  0.99454308  0.78206636  0.88385463  1
  O  O13  1  0.49454308  0.71793364  0.61614537  1
  O  O14  1  0.50545692  0.28206636  0.11614537  1
  O  O15  1  0.00545692  0.21793364  0.38385463  1
  O  O16  1  0.00545692  0.21793364  0.11614537  1
  O  O17  1  0.50545692  0.28206636  0.38385463  1
  O  O18  1  0.49454308  0.71793364  0.88385463  1
  O  O19  1  0.99454308  0.78206636  0.61614537  1
  O  O20  1  0.13043620  0.37462945  0.75000000  1
  O  O21  1  0.63043620  0.12537055  0.75000000  1
  O  O22  1  0.36956380  0.87462945  0.25000000  1
  O  O23  1  0.86956380  0.62537055  0.25000000  1
