# generated using pymatgen
data_AsHPbO4
_symmetry_space_group_name_H-M   'P 1'
_cell_length_a   4.97294534
_cell_length_b   5.93595324
_cell_length_c   6.79012239
_cell_angle_alpha   90.00000000
_cell_angle_beta   90.00000000
_cell_angle_gamma   95.10183327
_symmetry_Int_Tables_number   1
_chemical_formula_structural   AsHPbO4
_chemical_formula_sum   'As2 H2 Pb2 O8'
_cell_volume   199.64468964
_cell_formula_units_Z   2
loop_
 _symmetry_equiv_pos_site_id
 _symmetry_equiv_pos_as_xyz
  1  'x, y, z'
loop_
 _atom_site_type_symbol
 _atom_site_label
 _atom_site_symmetry_multiplicity
 _atom_site_fract_x
 _atom_site_fract_y
 _atom_site_fract_z
 _atom_site_occupancy
  Pb  Pb0  1  0.00000000  0.75000000  0.79690799  1
  Pb  Pb1  1  0.00000000  0.25000000  0.20309201  1
  As  As2  1  0.50000000  0.75000000  0.20806575  1
  As  As3  1  0.50000000  0.25000000  0.79193425  1
  O  O4  1  0.63972316  0.55406872  0.35815554  1
  O  O5  1  0.36027684  0.94593128  0.35815554  1
  O  O6  1  0.36027684  0.44593128  0.64184446  1
  O  O7  1  0.63972316  0.05406872  0.64184446  1
  O  O8  1  0.75182119  0.89041795  0.07028385  1
  O  O9  1  0.24817881  0.60958205  0.07028385  1
  O  O10  1  0.24817881  0.10958205  0.92971615  1
  O  O11  1  0.75182119  0.39041795  0.92971615  1
  H  H12  1  0.50000000  0.50000000  0.50000000  1
  H  H13  1  0.50000000  0.00000000  0.50000000  1
