# generated using pymatgen
data_Li9V3P8O29
_symmetry_space_group_name_H-M   'P 1'
_cell_length_a   9.89554468
_cell_length_b   9.89587954
_cell_length_c   13.77716833
_cell_angle_alpha   89.99541254
_cell_angle_beta   89.99808686
_cell_angle_gamma   59.99735336
_symmetry_Int_Tables_number   1
_chemical_formula_structural   Li9V3P8O29
_chemical_formula_sum   'Li18 V6 P16 O58'
_cell_volume   1168.35041208
_cell_formula_units_Z   2
loop_
 _symmetry_equiv_pos_site_id
 _symmetry_equiv_pos_as_xyz
  1  'x, y, z'
loop_
 _atom_site_type_symbol
 _atom_site_label
 _atom_site_symmetry_multiplicity
 _atom_site_fract_x
 _atom_site_fract_y
 _atom_site_fract_z
 _atom_site_occupancy
  Li  Li0  1  0.09942532  0.23398478  0.56391383  1
  Li  Li1  1  0.23400200  0.09944475  0.06392804  1
  Li  Li2  1  0.09950310  0.66658711  0.06390041  1
  Li  Li3  1  0.33331721  0.33338486  0.37979880  1
  Li  Li4  1  0.99992274  0.00005747  0.00004359  1
  Li  Li5  1  0.33334263  0.33329304  0.87980153  1
  Li  Li6  1  0.23400066  0.66660100  0.56393215  1
  Li  Li7  1  0.66659027  0.09947370  0.56391435  1
  Li  Li8  1  0.33336974  0.76606944  0.93607114  1
  Li  Li9  1  0.66663957  0.23396455  0.06393749  1
  Li  Li10  1  0.33339652  0.90055243  0.43610240  1
  Li  Li11  1  0.76596872  0.33334769  0.43605703  1
  Li  Li12  1  0.66670563  0.66664512  0.62019355  1
  Li  Li13  1  0.66662700  0.66674446  0.12019055  1
  Li  Li14  1  0.90056132  0.33339297  0.93606741  1
  Li  Li15  1  0.76604522  0.90053880  0.93608088  1
  Li  Li16  1  0.90051808  0.76600114  0.43610103  1
  Li  Li17  1  0.00014767  0.99998205  0.50002970  1
  O  O18  1  0.00000512  0.21444694  0.25000675  1
  O  O19  1  0.00351225  0.22498784  0.06668584  1
  O  O20  1  0.07753544  0.25002021  0.84473629  1
  O  O21  1  0.21443136  -0.00000294  0.75001081  1
  O  O22  1  0.22492349  0.00348781  0.56669119  1
  O  O23  1  0.24999413  0.07754317  0.34480637  1
  O  O24  1  0.10933281  0.37042352  0.33459801  1
  O  O25  1  0.18911794  0.32497368  0.66287530  1
  O  O26  1  0.10937723  0.52020043  0.83457225  1
  O  O27  1  0.00351861  0.77153432  0.56668161  1
  O  O28  1  0.00001271  0.78555484  0.75000586  1
  O  O29  1  0.07749217  0.67247182  0.34476662  1
  O  O30  1  0.32494541  0.18911841  0.16292271  1
  O  O31  1  0.37042975  0.10932581  0.83458371  1
  O  O32  1  0.18914691  0.48594111  0.16293638  1
  O  O33  1  0.33325007  0.33338022  0.01411308  1
  O  O34  1  0.33343025  0.33332526  0.51410960  1
  O  O35  1  0.32496469  0.48594887  0.66291442  1
  O  O36  1  0.52022476  0.10930974  0.33453945  1
  O  O37  1  0.48595744  0.18913022  0.66293804  1
  O  O38  1  0.25002105  0.67242717  0.84478064  1
  O  O39  1  0.21437440  0.78560575  0.25000831  1
  O  O40  1  0.22487909  0.77168886  0.06668705  1
  O  O41  1  0.22841269  0.77506144  0.43332377  1
  O  O42  1  0.37037819  0.52027209  0.33459178  1
  O  O43  1  0.48595912  0.32492128  0.16287959  1
  O  O44  1  0.32755455  0.74998847  0.65526793  1
  O  O45  1  0.52028426  0.37039257  0.83458646  1
  O  O46  1  0.67248321  0.07750873  0.84475407  1
  O  O47  1  0.22844900  0.99653364  0.93332963  1
  O  O48  1  0.77161961  0.00349127  0.06666662  1
  O  O49  1  0.78559052  0.99997562  0.24998398  1
  O  O50  1  0.32754562  0.92248914  0.15528708  1
  O  O51  1  0.47969306  0.62960594  0.16540460  1
  O  O52  1  0.67239700  0.24999036  0.34472457  1
  O  O53  1  0.51405218  0.67506081  0.83708282  1
  O  O54  1  0.62958871  0.47973837  0.66540758  1
  O  O55  1  0.77156903  0.22494423  0.56667880  1
  O  O56  1  0.77508626  0.22839846  0.93331637  1
  O  O57  1  0.78561610  0.21439994  0.74999683  1
  O  O58  1  0.74998976  0.32759980  0.15523469  1
  O  O59  1  0.51405843  0.81087461  0.33710195  1
  O  O60  1  0.47974661  0.89068345  0.66540601  1
  O  O61  1  0.67499781  0.51406176  0.33711979  1
  O  O62  1  0.66664331  0.66664863  0.98588203  1
  O  O63  1  0.66674283  0.66667997  0.48588297  1
  O  O64  1  0.81088568  0.51406020  0.83708079  1
  O  O65  1  0.62961139  0.89067005  0.16537795  1
  O  O66  1  0.67505360  0.81087590  0.83708911  1
  O  O67  1  0.92247936  0.32754451  0.65523045  1
  O  O68  1  0.99644848  0.22850350  0.43332365  1
  O  O69  1  0.89069564  0.47976846  0.16540872  1
  O  O70  1  0.81088826  0.67500006  0.33704110  1
  O  O71  1  0.89067981  0.62958261  0.66541891  1
  O  O72  1  0.74999543  0.92246195  0.65523455  1
  O  O73  1  0.77496901  0.99648522  0.43330385  1
  O  O74  1  0.92251935  0.74997995  0.15522405  1
  O  O75  1  0.99650629  0.77496221  0.93332318  1
  P  P76  1  0.08967315  0.22623349  0.34464563  1
  P  P77  1  0.22622011  0.08969575  0.84462743  1
  P  P78  1  0.08970450  0.68405050  0.84463252  1
  P  P79  1  0.33336605  0.33334848  0.62374744  1
  P  P80  1  0.33333361  0.33331818  0.12374751  1
  P  P81  1  0.22617525  0.68411583  0.34463857  1
  P  P82  1  0.31585456  0.77383965  0.15538672  1
  P  P83  1  0.68408350  0.08965581  0.34459705  1
  P  P84  1  0.31590713  0.91030872  0.65538253  1
  P  P85  1  0.68413548  0.22617792  0.84462215  1
  P  P86  1  0.77380252  0.31589832  0.65536252  1
  P  P87  1  0.66666872  0.66665443  0.87624724  1
  P  P88  1  0.66668619  0.66662978  0.37624868  1
  P  P89  1  0.91032607  0.31592852  0.15537362  1
  P  P90  1  0.77382095  0.91029757  0.15534863  1
  P  P91  1  0.91032424  0.77378240  0.65537242  1
  V  V92  1  0.00001985  0.43474971  0.74998811  1
  V  V93  1  0.00002874  0.56523098  0.24997580  1
  V  V94  1  0.43476326  0.99997489  0.25003524  1
  V  V95  1  0.56526706  0.99998457  0.75000858  1
  V  V96  1  0.43476813  0.56524363  0.75002967  1
  V  V97  1  0.56521423  0.43475927  0.24998054  1
