# generated using pymatgen
data_Dy2Te4O11
_symmetry_space_group_name_H-M   'P 1'
_cell_length_a   5.17684042
_cell_length_b   6.76470711
_cell_length_c   16.05414061
_cell_angle_alpha   80.03835035
_cell_angle_beta   80.72851832
_cell_angle_gamma   67.50012036
_symmetry_Int_Tables_number   1
_chemical_formula_structural   Dy2Te4O11
_chemical_formula_sum   'Dy4 Te8 O22'
_cell_volume   508.79607277
_cell_formula_units_Z   2
loop_
 _symmetry_equiv_pos_site_id
 _symmetry_equiv_pos_as_xyz
  1  'x, y, z'
loop_
 _atom_site_type_symbol
 _atom_site_label
 _atom_site_symmetry_multiplicity
 _atom_site_fract_x
 _atom_site_fract_y
 _atom_site_fract_z
 _atom_site_occupancy
  Dy  Dy0  1  0.36918401  0.79870390  0.96289112  1
  Dy  Dy1  1  0.86924866  0.29874375  0.46289389  1
  Dy  Dy2  1  0.13075134  0.70125625  0.53710611  1
  Dy  Dy3  1  0.63081599  0.20129610  0.03710888  1
  Te  Te4  1  0.59998852  0.54471646  0.69839454  1
  Te  Te5  1  0.15693274  0.04472340  0.19836247  1
  Te  Te6  1  0.84306726  0.95527660  0.80163753  1
  Te  Te7  1  0.58939975  0.88216158  0.37469751  1
  Te  Te8  1  0.40001148  0.45528354  0.30160546  1
  Te  Te9  1  0.41060025  0.11783842  0.62530249  1
  Te  Te10  1  0.84626654  0.61803534  0.12527663  1
  Te  Te11  1  0.15373346  0.38196466  0.87472337  1
  O  O12  1  0.20627339  0.86926683  0.83271301  1
  O  O13  1  0.44630036  0.54751294  0.40385570  1
  O  O14  1  0.18998173  0.36713806  0.12755319  1
  O  O15  1  0.82345365  0.68348556  0.45508657  1
  O  O16  1  0.55369964  0.45248706  0.59614430  1
  O  O17  1  0.03796749  0.18341815  0.95512953  1
  O  O18  1  0.75290122  0.03189947  0.55227207  1
  O  O19  1  0.31531333  0.86709782  0.62754229  1
  O  O20  1  0.66295278  0.53191723  0.05227301  1
  O  O21  1  0.24709878  0.96810053  0.44772793  1
  O  O22  1  0.85453251  0.24999328  0.75001343  1
  O  O23  1  0.33704722  0.46808277  0.94772699  1
  O  O24  1  0.39770099  0.95246544  0.09613020  1
  O  O25  1  0.60229901  0.04753456  0.90386980  1
  O  O26  1  0.79372661  0.13073317  0.16728699  1
  O  O27  1  0.14546749  0.75000672  0.24998657  1
  O  O28  1  0.68468667  0.13290218  0.37245771  1
  O  O29  1  0.17654635  0.31651444  0.54491343  1
  O  O30  1  0.09188601  0.36914381  0.33270185  1
  O  O31  1  0.90811399  0.63085619  0.66729815  1
  O  O32  1  0.81001827  0.63286194  0.87244681  1
  O  O33  1  0.96203251  0.81658185  0.04487047  1
