# generated using pymatgen
data_LiGa5O8
_symmetry_space_group_name_H-M   'P 1'
_cell_length_a   8.33332410
_cell_length_b   8.33332410
_cell_length_c   8.29703471
_cell_angle_alpha   90.00000000
_cell_angle_beta   90.00000000
_cell_angle_gamma   90.98711100
_symmetry_Int_Tables_number   1
_chemical_formula_structural   LiGa5O8
_chemical_formula_sum   'Li4 Ga20 O32'
_cell_volume   576.09618150
_cell_formula_units_Z   4
loop_
 _symmetry_equiv_pos_site_id
 _symmetry_equiv_pos_as_xyz
  1  'x, y, z'
loop_
 _atom_site_type_symbol
 _atom_site_label
 _atom_site_symmetry_multiplicity
 _atom_site_fract_x
 _atom_site_fract_y
 _atom_site_fract_z
 _atom_site_occupancy
  Ga  Ga0  1  0.00339531  0.50291042  0.50942124  1
  Ga  Ga1  1  0.12463726  0.62487091  0.12525707  1
  Ga  Ga2  1  0.13456168  0.88456168  0.37500000  1
  Ga  Ga3  1  0.11536816  0.36514980  0.87521158  1
  Ga  Ga4  1  0.24662931  0.74665309  0.74112299  1
  Ga  Ga5  1  0.25337069  0.25334691  0.24112299  1
  Ga  Ga6  1  0.36543832  0.11543832  0.87500000  1
  Ga  Ga7  1  0.38463184  0.63485020  0.37521158  1
  Ga  Ga8  1  0.37536274  0.37512909  0.62525707  1
  Ga  Ga9  1  0.49660469  0.49708958  0.00942124  1
  Ga  Ga10  1  0.50334691  0.00337069  0.50887701  1
  Ga  Ga11  1  0.61514980  0.86536816  0.87478842  1
  Ga  Ga12  1  0.62512909  0.12536274  0.12474293  1
  Ga  Ga13  1  0.63497442  0.38497442  0.37500000  1
  Ga  Ga14  1  0.75291042  0.75339531  0.24057876  1
  Ga  Ga15  1  0.74708958  0.24660469  0.74057876  1
  Ga  Ga16  1  0.86502558  0.61502558  0.87500000  1
  Ga  Ga17  1  0.87487091  0.87463726  0.62474293  1
  Ga  Ga18  1  0.88485020  0.13463184  0.37478842  1
  Ga  Ga19  1  0.99665309  0.99662931  0.00887701  1
  Li  Li20  1  0.12546860  0.12453140  0.62500000  1
  Li  Li21  1  0.37453140  0.87546860  0.12500000  1
  Li  Li22  1  0.62499322  0.62500678  0.62500000  1
  Li  Li23  1  0.87500678  0.37499322  0.12500000  1
  O  O24  1  0.11587420  0.61589658  0.88238676  1
  O  O25  1  0.11404514  0.87604547  0.61331538  1
  O  O26  1  0.12047516  0.12023513  0.36986222  1
  O  O27  1  0.12358329  0.38573236  0.11354250  1
  O  O28  1  0.12976487  0.12952484  0.88013778  1
  O  O29  1  0.12604547  0.86404514  0.13668462  1
  O  O30  1  0.13388441  0.63383442  0.36800544  1
  O  O31  1  0.13608092  0.37346570  0.63691538  1
  O  O32  1  0.36391908  0.62653430  0.13691538  1
  O  O33  1  0.36611559  0.36616558  0.86800544  1
  O  O34  1  0.37395453  0.13595486  0.63668462  1
  O  O35  1  0.37023513  0.87047516  0.38013778  1
  O  O36  1  0.37641671  0.61426764  0.61354250  1
  O  O37  1  0.37952484  0.87976487  0.86986222  1
  O  O38  1  0.38595486  0.12395453  0.11331538  1
  O  O39  1  0.38412580  0.38410342  0.38238676  1
  O  O40  1  0.62346570  0.88608092  0.11308462  1
  O  O41  1  0.62027933  0.62057109  0.36986411  1
  O  O42  1  0.61453158  0.37649298  0.61329474  1
  O  O43  1  0.61616558  0.11611559  0.88199456  1
  O  O44  1  0.62649298  0.36453158  0.13670526  1
  O  O45  1  0.62942891  0.62972067  0.88013589  1
  O  O46  1  0.63573236  0.87358329  0.63645750  1
  O  O47  1  0.63410342  0.13412580  0.36761324  1
  O  O48  1  0.86589658  0.86587420  0.86761324  1
  O  O49  1  0.86426764  0.12641671  0.13645750  1
  O  O50  1  0.87057109  0.37027933  0.38013589  1
  O  O51  1  0.87350702  0.63546842  0.63670526  1
  O  O52  1  0.88383442  0.88388441  0.38199456  1
  O  O53  1  0.88546842  0.62350702  0.11329474  1
  O  O54  1  0.87972067  0.37942891  0.86986411  1
  O  O55  1  0.87653430  0.11391908  0.61308462  1
