# generated using pymatgen
data_AlAsO4
_symmetry_space_group_name_H-M   'P 1'
_cell_length_a   5.13990041
_cell_length_b   5.13990041
_cell_length_c   11.46257322
_cell_angle_alpha   90.00000000
_cell_angle_beta   90.00000000
_cell_angle_gamma   120.00000004
_symmetry_Int_Tables_number   1
_chemical_formula_structural   AlAsO4
_chemical_formula_sum   'Al3 As3 O12'
_cell_volume   262.25402554
_cell_formula_units_Z   3
loop_
 _symmetry_equiv_pos_site_id
 _symmetry_equiv_pos_as_xyz
  1  'x, y, z'
loop_
 _atom_site_type_symbol
 _atom_site_label
 _atom_site_symmetry_multiplicity
 _atom_site_fract_x
 _atom_site_fract_y
 _atom_site_fract_z
 _atom_site_occupancy
  O  O0  1  0.28213199  0.40549017  0.11789124  1
  O  O1  1  0.59450983  0.87664182  0.45122457  1
  O  O2  1  0.12335818  0.71786801  0.78455791  1
  O  O3  1  0.87664182  0.59450983  0.54877543  1
  O  O4  1  0.71786801  0.12335818  0.21544209  1
  O  O5  1  0.40549017  0.28213199  0.88210876  1
  O  O6  1  0.40662752  0.29104255  0.38665244  1
  O  O7  1  0.70895745  0.11558497  0.71998577  1
  O  O8  1  0.88441503  0.59337248  0.05331911  1
  O  O9  1  0.11558497  0.70895745  0.28001423  1
  O  O10  1  0.59337248  0.88441503  0.94668089  1
  O  O11  1  0.29104255  0.40662752  0.61334756  1
  Al  Al12  1  0.46159350  0.00000000  0.33333333  1
  Al  Al13  1  0.00000000  0.46159350  0.66666667  1
  Al  Al14  1  0.53840650  0.53840650  0.00000000  1
  As  As15  1  0.46016576  0.00000000  0.83333333  1
  As  As16  1  0.00000000  0.46016576  0.16666667  1
  As  As17  1  0.53983424  0.53983424  0.50000000  1
