# generated using pymatgen
data_Ca3(PO4)2
_symmetry_space_group_name_H-M   'P 1'
_cell_length_a   13.95813661
_cell_length_b   13.95813611
_cell_length_c   13.95813663
_cell_angle_alpha   44.40588881
_cell_angle_beta   44.40589090
_cell_angle_gamma   44.40589016
_symmetry_Int_Tables_number   1
_chemical_formula_structural   Ca3(PO4)2
_chemical_formula_sum   'Ca21 P14 O56'
_cell_volume   1210.41804868
_cell_formula_units_Z   7
loop_
 _symmetry_equiv_pos_site_id
 _symmetry_equiv_pos_as_xyz
  1  'x, y, z'
loop_
 _atom_site_type_symbol
 _atom_site_label
 _atom_site_symmetry_multiplicity
 _atom_site_fract_x
 _atom_site_fract_y
 _atom_site_fract_z
 _atom_site_occupancy
  Ca  Ca0  1  0.23501050  0.23501050  0.23501050  1
  Ca  Ca1  1  0.14513758  0.58049901  0.17924068  1
  Ca  Ca2  1  0.17924068  0.14513758  0.58049901  1
  Ca  Ca3  1  0.58049901  0.17924068  0.14513758  1
  Ca  Ca4  1  0.18695702  0.21967341  0.78260453  1
  Ca  Ca5  1  0.21967341  0.78260453  0.18695702  1
  Ca  Ca6  1  0.08547260  0.64249644  0.67101313  1
  Ca  Ca7  1  0.78260453  0.18695702  0.21967341  1
  Ca  Ca8  1  0.30232126  0.30774072  0.89082649  1
  Ca  Ca9  1  0.30774072  0.89082649  0.30232126  1
  Ca  Ca10  1  0.64249644  0.67101313  0.08547260  1
  Ca  Ca11  1  0.67101313  0.08547260  0.64249644  1
  Ca  Ca12  1  0.30101242  0.69953295  0.67818560  1
  Ca  Ca13  1  0.89082649  0.30232126  0.30774072  1
  Ca  Ca14  1  0.67818560  0.30101242  0.69953295  1
  Ca  Ca15  1  0.69953295  0.67818560  0.30101242  1
  Ca  Ca16  1  0.39247252  0.80860923  0.79855400  1
  Ca  Ca17  1  0.79855400  0.39247252  0.80860923  1
  Ca  Ca18  1  0.80860923  0.79855400  0.39247252  1
  Ca  Ca19  1  0.73473697  0.73473697  0.73473697  1
  Ca  Ca20  1  0.92285128  0.92285128  0.92285128  1
  O  O21  1  0.04007518  0.04007518  0.04007518  1
  O  O22  1  0.10024890  0.10059804  0.39407718  1
  O  O23  1  0.10059804  0.39407718  0.10024890  1
  O  O24  1  0.98568578  0.65902213  0.07907920  1
  O  O25  1  0.39407718  0.10024890  0.10059804  1
  O  O26  1  0.07907920  0.98568578  0.65902213  1
  O  O27  1  0.09537508  0.35618963  0.37944101  1
  O  O28  1  0.35618963  0.37944101  0.09537508  1
  O  O29  1  0.65902213  0.07907920  0.98568578  1
  O  O30  1  0.37944101  0.09537508  0.35618963  1
  O  O31  1  0.07707250  0.34066661  0.62534690  1
  O  O32  1  0.11610636  0.57934289  0.37056005  1
  O  O33  1  0.34066661  0.62534690  0.07707250  1
  O  O34  1  0.37056005  0.11610636  0.57934289  1
  O  O35  1  0.12313122  0.50403951  0.59645306  1
  O  O36  1  0.57934289  0.37056005  0.11610636  1
  O  O37  1  0.62534690  0.07707250  0.34066661  1
  O  O38  1  0.13309310  0.83010392  0.37599052  1
  O  O39  1  0.09192510  0.35880698  0.90538732  1
  O  O40  1  0.50403951  0.59645306  0.12313122  1
  O  O41  1  0.59645306  0.12313122  0.50403951  1
  O  O42  1  0.37599052  0.13309310  0.83010392  1
  O  O43  1  0.35880698  0.90538732  0.09192510  1
  O  O44  1  0.06545030  0.63221721  0.86777253  1
  O  O45  1  0.13147873  0.83842136  0.57424571  1
  O  O46  1  0.34610121  0.49562884  0.62859036  1
  O  O47  1  0.49562884  0.62859036  0.34610121  1
  O  O48  1  0.83010392  0.37599052  0.13309310  1
  O  O49  1  0.90538732  0.09192510  0.35880698  1
  O  O50  1  0.62859036  0.34610121  0.49562884  1
  O  O51  1  0.57424571  0.13147873  0.83842136  1
  O  O52  1  0.63221721  0.86777253  0.06545030  1
  O  O53  1  0.40046691  0.42297633  0.85534878  1
  O  O54  1  0.54375064  0.54375064  0.54375064  1
  O  O55  1  0.42297633  0.85534878  0.40046691  1
  O  O56  1  0.83842136  0.57424571  0.13147873  1
  O  O57  1  0.86777253  0.06545030  0.63221721  1
  O  O58  1  0.32639143  0.63376784  0.87589946  1
  O  O59  1  0.40462856  0.85814809  0.59000308  1
  O  O60  1  0.12114876  0.98284146  0.84638612  1
  O  O61  1  0.85534878  0.40046691  0.42297633  1
  O  O62  1  0.63376784  0.87589946  0.32639143  1
  O  O63  1  0.59000308  0.40462856  0.85814809  1
  O  O64  1  0.87589946  0.32639143  0.63376784  1
  O  O65  1  0.85814809  0.59000308  0.40462856  1
  O  O66  1  0.84638612  0.12114876  0.98284146  1
  O  O67  1  0.35202789  0.92379198  0.90407560  1
  O  O68  1  0.60426510  0.87807436  0.59834755  1
  O  O69  1  0.59834755  0.60426510  0.87807436  1
  O  O70  1  0.98284146  0.84638612  0.12114876  1
  O  O71  1  0.87807436  0.59834755  0.60426510  1
  O  O72  1  0.90407560  0.35202789  0.92379198  1
  O  O73  1  0.92379198  0.90407560  0.35202789  1
  O  O74  1  0.59441893  0.87902288  0.85676224  1
  O  O75  1  0.85676224  0.59441893  0.87902288  1
  O  O76  1  0.87902288  0.85676224  0.59441893  1
  P  P77  1  -0.00042300  -0.00042300  -0.00042300  1
  P  P78  1  0.99886169  0.56720880  0.04007326  1
  P  P79  1  0.04007326  0.99886169  0.56720880  1
  P  P80  1  0.56720880  0.04007326  0.99886169  1
  P  P81  1  0.05431391  0.50674010  0.54402728  1
  P  P82  1  0.50674010  0.54402728  0.05431391  1
  P  P83  1  0.54402728  0.05431391  0.50674010  1
  P  P84  1  0.50200432  0.50200432  0.50200432  1
  P  P85  1  0.41949510  0.46160265  0.91979116  1
  P  P86  1  0.46160265  0.91979116  0.41949510  1
  P  P87  1  0.91979116  0.41949510  0.46160265  1
  P  P88  1  0.41921319  0.96092515  0.92144970  1
  P  P89  1  0.92144970  0.41921319  0.96092515  1
  P  P90  1  0.96092515  0.92144970  0.41921319  1
