# generated using pymatgen
data_FePO4
_symmetry_space_group_name_H-M   'P 1'
_cell_length_a   8.73512497
_cell_length_b   5.35055230
_cell_length_c   8.80320434
_cell_angle_alpha   90.00000000
_cell_angle_beta   107.75620042
_cell_angle_gamma   90.00000000
_symmetry_Int_Tables_number   1
_chemical_formula_structural   FePO4
_chemical_formula_sum   'Fe4 P4 O16'
_cell_volume   391.84196282
_cell_formula_units_Z   4
loop_
 _symmetry_equiv_pos_site_id
 _symmetry_equiv_pos_as_xyz
  1  'x, y, z'
loop_
 _atom_site_type_symbol
 _atom_site_label
 _atom_site_symmetry_multiplicity
 _atom_site_fract_x
 _atom_site_fract_y
 _atom_site_fract_z
 _atom_site_occupancy
  Fe  Fe0  1  0.22404258  0.30690941  0.87015132  1
  Fe  Fe1  1  0.36792705  0.80510682  0.37030068  1
  Fe  Fe2  1  0.72404258  0.69309059  0.87015132  1
  Fe  Fe3  1  0.86792705  0.19489318  0.37030068  1
  O  O4  1  0.01353865  0.22932097  0.87108072  1
  O  O5  1  0.00182892  0.42225119  0.30649714  1
  O  O6  1  0.22466703  0.62875973  0.78263206  1
  O  O7  1  0.28892403  0.07622138  0.73955217  1
  O  O8  1  0.15887505  0.76371870  0.22657070  1
  O  O9  1  0.36393886  0.73728865  0.57764343  1
  O  O10  1  0.51353865  0.77067903  0.87108072  1
  O  O11  1  0.36635258  0.28720398  0.07687086  1
  O  O12  1  0.44689590  0.12964332  0.35971613  1
  O  O13  1  0.50182892  0.57774881  0.30649714  1
  O  O14  1  0.72466703  0.37124027  0.78263206  1
  O  O15  1  0.78892403  0.92377862  0.73955217  1
  O  O16  1  0.65887505  0.23628130  0.22657070  1
  O  O17  1  0.86393886  0.26271135  0.57764343  1
  O  O18  1  0.86635258  0.71279602  0.07687086  1
  O  O19  1  0.94689590  0.87035668  0.35971613  1
  P  P20  1  0.99250023  0.69227891  0.24184614  1
  P  P21  1  0.34797612  0.80373533  0.74262765  1
  P  P22  1  0.49250023  0.30772109  0.24184614  1
  P  P23  1  0.84797612  0.19626467  0.74262765  1
