# generated using pymatgen
data_Na3(Pt3O4)4
_symmetry_space_group_name_H-M   'P 1'
_cell_length_a   5.73767436
_cell_length_b   5.74242057
_cell_length_c   46.12431161
_cell_angle_alpha   90.00000000
_cell_angle_beta   90.00000000
_cell_angle_gamma   90.00000000
_symmetry_Int_Tables_number   1
_chemical_formula_structural   Na3(Pt3O4)4
_chemical_formula_sum   'Na12 Pt48 O64'
_cell_volume   1519.71024260
_cell_formula_units_Z   4
loop_
 _symmetry_equiv_pos_site_id
 _symmetry_equiv_pos_as_xyz
  1  'x, y, z'
loop_
 _atom_site_type_symbol
 _atom_site_label
 _atom_site_symmetry_multiplicity
 _atom_site_fract_x
 _atom_site_fract_y
 _atom_site_fract_z
 _atom_site_occupancy
  Na  Na0  1  0.00000000  0.00000000  0.49926736  1
  Na  Na1  1  0.00000000  0.00000000  0.62483830  1
  Na  Na2  1  0.00000000  0.00000000  0.75016170  1
  Na  Na3  1  0.00000000  0.00000000  0.87573264  1
  Na  Na4  1  0.50000000  0.50000000  0.06288603  1
  Na  Na5  1  0.50000000  0.50000000  0.18750000  1
  Na  Na6  1  0.50000000  0.50000000  0.31211397  1
  Na  Na7  1  0.50000000  0.50000000  0.43722222  1
  Na  Na8  1  0.50000000  0.50000000  0.68750000  1
  Na  Na9  1  0.50000000  0.50000000  0.56211385  1
  Na  Na10  1  0.50000000  0.50000000  0.81288615  1
  Na  Na11  1  0.50000000  0.50000000  0.93777778  1
  O  O12  1  0.25580877  0.25611892  0.03264954  1
  O  O13  1  0.25643942  0.25647161  0.15715736  1
  O  O14  1  0.25682608  0.25692117  0.28180448  1
  O  O15  1  0.25923348  0.25924452  0.40632615  1
  O  O16  1  0.25128301  0.25033233  0.53072628  1
  O  O17  1  0.25046092  0.24976010  0.65618060  1
  O  O18  1  0.25643942  0.74352839  0.15715736  1
  O  O19  1  0.25682608  0.25692117  0.09319552  1
  O  O20  1  0.25580877  0.25611892  0.34235046  1
  O  O21  1  0.24997392  0.24915866  0.78151978  1
  O  O22  1  0.25580877  0.74388108  0.03264954  1
  O  O23  1  0.24800409  0.24741174  0.90704907  1
  O  O24  1  0.25682608  0.74307883  0.09319552  1
  O  O25  1  0.25643942  0.25647161  0.21784264  1
  O  O26  1  0.24800409  0.24741174  0.46795093  1
  O  O27  1  0.25923348  0.74075548  0.40632615  1
  O  O28  1  0.24997392  0.24915866  0.59348022  1
  O  O29  1  0.25643942  0.74352839  0.21784264  1
  O  O30  1  0.25682608  0.74307883  0.28180448  1
  O  O31  1  0.25580877  0.74388108  0.34235046  1
  O  O32  1  0.25046092  0.24976010  0.71881940  1
  O  O33  1  0.25046092  0.75023990  0.65618060  1
  O  O34  1  0.24800409  0.75258826  0.46795093  1
  O  O35  1  0.25128301  0.74966767  0.53072628  1
  O  O36  1  0.24997392  0.75084134  0.59348022  1
  O  O37  1  0.24997392  0.75084134  0.78151978  1
  O  O38  1  0.25046092  0.75023990  0.71881940  1
  O  O39  1  0.25128301  0.25033233  0.84427372  1
  O  O40  1  0.25923348  0.25924452  0.96867385  1
  O  O41  1  0.24800409  0.75258826  0.90704907  1
  O  O42  1  0.25923348  0.74075548  0.96867385  1
  O  O43  1  0.25128301  0.74966767  0.84427372  1
  O  O44  1  0.74356058  0.74352839  0.15715736  1
  O  O45  1  0.74356058  0.25647161  0.15715736  1
  O  O46  1  0.74419123  0.25611892  0.03264954  1
  O  O47  1  0.74317392  0.25692117  0.09319552  1
  O  O48  1  0.74419123  0.74388108  0.03264954  1
  O  O49  1  0.74076652  0.25924452  0.40632615  1
  O  O50  1  0.74356058  0.25647161  0.21784264  1
  O  O51  1  0.74317392  0.25692117  0.28180448  1
  O  O52  1  0.74419123  0.25611892  0.34235046  1
  O  O53  1  0.75199591  0.24741174  0.46795093  1
  O  O54  1  0.74317392  0.74307883  0.28180448  1
  O  O55  1  0.74076652  0.74075548  0.40632615  1
  O  O56  1  0.74953908  0.24976010  0.65618060  1
  O  O57  1  0.74871699  0.25033233  0.53072628  1
  O  O58  1  0.75002608  0.24915866  0.59348022  1
  O  O59  1  0.75002608  0.24915866  0.78151978  1
  O  O60  1  0.74953908  0.24976010  0.71881940  1
  O  O61  1  0.74317392  0.74307883  0.09319552  1
  O  O62  1  0.74871699  0.74966767  0.53072628  1
  O  O63  1  0.74953908  0.75023990  0.65618060  1
  O  O64  1  0.75002608  0.75084134  0.78151978  1
  O  O65  1  0.75199591  0.24741174  0.90704907  1
  O  O66  1  0.74871699  0.25033233  0.84427372  1
  O  O67  1  0.74076652  0.25924452  0.96867385  1
  O  O68  1  0.74419123  0.74388108  0.34235046  1
  O  O69  1  0.75199591  0.75258826  0.90704907  1
  O  O70  1  0.74356058  0.74352839  0.21784264  1
  O  O71  1  0.75199591  0.75258826  0.46795093  1
  O  O72  1  0.75002608  0.75084134  0.59348022  1
  O  O73  1  0.74953908  0.75023990  0.71881940  1
  O  O74  1  0.74871699  0.74966767  0.84427372  1
  O  O75  1  0.74076652  0.74075548  0.96867385  1
  Pt  Pt76  1  0.00000000  0.50000000  0.03117752  1
  Pt  Pt77  1  0.00000000  0.50000000  0.21934712  1
  Pt  Pt78  1  0.00000000  0.50000000  0.28037258  1
  Pt  Pt79  1  0.00000000  0.50000000  0.40472437  1
  Pt  Pt80  1  0.00000000  0.50000000  0.59347209  1
  Pt  Pt81  1  0.00000000  0.50000000  0.71880891  1
  Pt  Pt82  1  0.00000000  0.50000000  0.78152791  1
  Pt  Pt83  1  0.00000000  0.50000000  0.84433469  1
  Pt  Pt84  1  0.00000000  0.50000000  0.90713388  1
  Pt  Pt85  1  0.00000000  0.50000000  0.97027563  1
  Pt  Pt86  1  0.00000000  0.50000000  0.53066531  1
  Pt  Pt87  1  0.00000000  0.50000000  0.65619109  1
  Pt  Pt88  1  0.24497788  0.00000000  0.06300345  1
  Pt  Pt89  1  0.24501713  0.00000000  0.18750000  1
  Pt  Pt90  1  0.24497788  0.00000000  0.31199655  1
  Pt  Pt91  1  0.24791793  0.00000000  0.43593874  1
  Pt  Pt92  1  0.25069065  0.00000000  0.56201881  1
  Pt  Pt93  1  0.25067089  0.00000000  0.68750000  1
  Pt  Pt94  1  0.25069065  0.00000000  0.81298119  1
  Pt  Pt95  1  0.24791793  0.00000000  0.93906126  1
  Pt  Pt96  1  0.50000000  0.24443576  0.00088738  1
  Pt  Pt97  1  0.50000000  0.24413959  0.12521011  1
  Pt  Pt98  1  0.50000000  0.24443576  0.37411262  1
  Pt  Pt99  1  0.50000000  0.24413959  0.24978989  1
  Pt  Pt100  1  0.50000000  0.24908100  0.49910639  1
  Pt  Pt101  1  0.50000000  0.75586041  0.12521011  1
  Pt  Pt102  1  0.50000000  0.24926495  0.62479476  1
  Pt  Pt103  1  0.50000000  0.75556424  0.00088738  1
  Pt  Pt104  1  0.50000000  0.75556424  0.37411262  1
  Pt  Pt105  1  0.50000000  0.24908100  0.87589361  1
  Pt  Pt106  1  0.50000000  0.24926495  0.75020524  1
  Pt  Pt107  1  0.50000000  0.75586041  0.24978989  1
  Pt  Pt108  1  0.50000000  0.75073505  0.62479476  1
  Pt  Pt109  1  0.50000000  0.75091900  0.49910639  1
  Pt  Pt110  1  0.50000000  0.75091900  0.87589361  1
  Pt  Pt111  1  0.50000000  0.75073505  0.75020524  1
  Pt  Pt112  1  0.75502212  0.00000000  0.06300345  1
  Pt  Pt113  1  0.75498287  0.00000000  0.18750000  1
  Pt  Pt114  1  0.75502212  0.00000000  0.31199655  1
  Pt  Pt115  1  0.75208207  0.00000000  0.43593874  1
  Pt  Pt116  1  0.74930935  0.00000000  0.56201881  1
  Pt  Pt117  1  0.74932911  0.00000000  0.68750000  1
  Pt  Pt118  1  0.74930935  0.00000000  0.81298119  1
  Pt  Pt119  1  0.75208207  0.00000000  0.93906126  1
  Pt  Pt120  1  0.00000000  0.50000000  0.15565288  1
  Pt  Pt121  1  0.00000000  0.50000000  0.09462742  1
  Pt  Pt122  1  0.00000000  0.50000000  0.34382248  1
  Pt  Pt123  1  0.00000000  0.50000000  0.46786612  1
