# generated using pymatgen
data_MgCr2CuO7
_symmetry_space_group_name_H-M   'P 1'
_cell_length_a   8.41167239
_cell_length_b   9.90274998
_cell_length_c   10.26211608
_cell_angle_alpha   94.39390848
_cell_angle_beta   90.00000000
_cell_angle_gamma   90.00000000
_symmetry_Int_Tables_number   1
_chemical_formula_structural   MgCr2CuO7
_chemical_formula_sum   'Mg6 Cr12 Cu6 O42'
_cell_volume   852.30841060
_cell_formula_units_Z   6
loop_
 _symmetry_equiv_pos_site_id
 _symmetry_equiv_pos_as_xyz
  1  'x, y, z'
loop_
 _atom_site_type_symbol
 _atom_site_label
 _atom_site_symmetry_multiplicity
 _atom_site_fract_x
 _atom_site_fract_y
 _atom_site_fract_z
 _atom_site_occupancy
  Mg  Mg0  1  0.43291100  0.15155635  0.57244072  1
  Mg  Mg1  1  0.92515526  0.50000000  0.75000000  1
  Mg  Mg2  1  0.43291100  0.84844365  0.92755928  1
  Mg  Mg3  1  0.07484474  0.50000000  0.25000000  1
  Mg  Mg4  1  0.56708900  0.84844365  0.42755928  1
  Mg  Mg5  1  0.56708900  0.15155635  0.07244072  1
  Cr  Cr6  1  0.22336753  0.16746827  0.28703213  1
  Cr  Cr7  1  0.74083601  0.16524907  0.37734772  1
  Cr  Cr8  1  0.25916399  0.16524907  0.87734772  1
  Cr  Cr9  1  0.77663247  0.16746827  0.78703213  1
  Cr  Cr10  1  0.27395028  0.48545135  0.95808143  1
  Cr  Cr11  1  0.74083601  0.83475093  0.12265228  1
  Cr  Cr12  1  0.72604972  0.48545135  0.45808143  1
  Cr  Cr13  1  0.25916399  0.83475093  0.62265228  1
  Cr  Cr14  1  0.27395028  0.51454865  0.54191857  1
  Cr  Cr15  1  0.72604972  0.51454865  0.04191857  1
  Cr  Cr16  1  0.77663247  0.83253173  0.71296787  1
  Cr  Cr17  1  0.22336753  0.83253173  0.21296787  1
  Cu  Cu18  1  0.93611359  0.80515463  0.40984890  1
  Cu  Cu19  1  0.06388641  0.19484537  0.59015110  1
  Cu  Cu20  1  0.44507171  0.50000000  0.25000000  1
  Cu  Cu21  1  0.93611359  0.19484537  0.09015110  1
  Cu  Cu22  1  0.55492829  0.50000000  0.75000000  1
  Cu  Cu23  1  0.06388641  0.80515463  0.90984890  1
  O  O24  1  0.76141875  0.19094338  0.95565878  1
  O  O25  1  0.75747277  0.83435610  0.29013187  1
  O  O26  1  0.85142490  0.00000000  0.75000000  1
  O  O27  1  0.90103790  0.50477810  0.11425149  1
  O  O28  1  0.40142543  0.94100059  0.56723916  1
  O  O29  1  0.91851083  0.27165949  0.72147195  1
  O  O30  1  0.35610415  0.31882265  0.93000516  1
  O  O31  1  0.09896210  0.50477810  0.61425149  1
  O  O32  1  0.73150625  0.48397936  0.87439759  1
  O  O33  1  0.40142543  0.05899941  0.93276084  1
  O  O34  1  0.73150625  0.51602064  0.62560241  1
  O  O35  1  0.41068458  0.58069001  0.88023217  1
  O  O36  1  0.91467576  0.85659264  0.04546847  1
  O  O37  1  0.08148917  0.27165949  0.22147195  1
  O  O38  1  0.64389585  0.68117735  0.06999484  1
  O  O39  1  0.35610415  0.68117735  0.56999484  1
  O  O40  1  0.91851083  0.72834051  0.77852805  1
  O  O41  1  0.59857457  0.05899941  0.43276084  1
  O  O42  1  0.23858125  0.19094338  0.45565878  1
  O  O43  1  0.58931542  0.41930999  0.11976783  1
  O  O44  1  0.39376744  0.81342207  0.29075466  1
  O  O45  1  0.26849375  0.51602064  0.12560241  1
  O  O46  1  0.08532424  0.85659264  0.54546847  1
  O  O47  1  0.26849375  0.48397936  0.37439759  1
  O  O48  1  0.90103790  0.49522190  0.38574851  1
  O  O49  1  0.58931542  0.58069001  0.38023217  1
  O  O50  1  0.09896210  0.49522190  0.88574851  1
  O  O51  1  0.60623256  0.81342207  0.79075466  1
  O  O52  1  0.60623256  0.18657793  0.70924534  1
  O  O53  1  0.08532424  0.14340736  0.95453153  1
  O  O54  1  0.08148917  0.72834051  0.27852805  1
  O  O55  1  0.76141875  0.80905662  0.54434122  1
  O  O56  1  0.14857510  0.00000000  0.25000000  1
  O  O57  1  0.24252723  0.83435610  0.79013187  1
  O  O58  1  0.59857457  0.94100059  0.06723916  1
  O  O59  1  0.91467576  0.14340736  0.45453153  1
  O  O60  1  0.23858125  0.80905662  0.04434122  1
  O  O61  1  0.75747277  0.16564390  0.20986813  1
  O  O62  1  0.41068458  0.41930999  0.61976783  1
  O  O63  1  0.64389585  0.31882265  0.43000516  1
  O  O64  1  0.24252723  0.16564390  0.70986813  1
  O  O65  1  0.39376744  0.18657793  0.20924534  1
