# generated using pymatgen
data_V3As2
_symmetry_space_group_name_H-M   'P 1'
_cell_length_a   3.29671410
_cell_length_b   9.43930307
_cell_length_c   9.43930307
_cell_angle_alpha   90.00000000
_cell_angle_beta   90.00000000
_cell_angle_gamma   90.00000000
_symmetry_Int_Tables_number   1
_chemical_formula_structural   V3As2
_chemical_formula_sum   'V12 As8'
_cell_volume   293.73868493
_cell_formula_units_Z   4
loop_
 _symmetry_equiv_pos_site_id
 _symmetry_equiv_pos_as_xyz
  1  'x, y, z'
loop_
 _atom_site_type_symbol
 _atom_site_label
 _atom_site_symmetry_multiplicity
 _atom_site_fract_x
 _atom_site_fract_y
 _atom_site_fract_z
 _atom_site_occupancy
  V  V0  1  0.50000000  0.13234797  0.17844025  1
  V  V1  1  0.50000000  0.82155975  0.13234797  1
  V  V2  1  0.50000000  0.17844025  0.86765203  1
  V  V3  1  0.50000000  0.86765203  0.82155975  1
  V  V4  1  0.00000000  0.39763396  0.28478422  1
  V  V5  1  0.00000000  0.71521578  0.39763396  1
  V  V6  1  0.00000000  0.28478422  0.60236604  1
  V  V7  1  0.00000000  0.60236604  0.71521578  1
  V  V8  1  0.50000000  0.00000000  0.50000000  1
  V  V9  1  0.50000000  0.50000000  0.00000000  1
  V  V10  1  0.50000000  0.50000000  0.50000000  1
  V  V11  1  0.00000000  0.00000000  0.00000000  1
  As  As12  1  0.50000000  0.24541285  0.41056112  1
  As  As13  1  0.50000000  0.58943888  0.24541285  1
  As  As14  1  0.50000000  0.41056112  0.75458715  1
  As  As15  1  0.50000000  0.75458715  0.58943888  1
  As  As16  1  0.00000000  0.28552616  0.03955133  1
  As  As17  1  0.00000000  0.96044867  0.28552616  1
  As  As18  1  0.00000000  0.03955133  0.71447384  1
  As  As19  1  0.00000000  0.71447384  0.96044867  1
