# generated using pymatgen
data_SeBr
_symmetry_space_group_name_H-M   'P 1'
_cell_length_a   5.31824551
_cell_length_b   7.70196456
_cell_length_c   15.24108681
_cell_angle_alpha   90.00000000
_cell_angle_beta   90.00000000
_cell_angle_gamma   95.56285881
_symmetry_Int_Tables_number   1
_chemical_formula_structural   SeBr
_chemical_formula_sum   'Se8 Br8'
_cell_volume   621.34909605
_cell_formula_units_Z   8
loop_
 _symmetry_equiv_pos_site_id
 _symmetry_equiv_pos_as_xyz
  1  'x, y, z'
loop_
 _atom_site_type_symbol
 _atom_site_label
 _atom_site_symmetry_multiplicity
 _atom_site_fract_x
 _atom_site_fract_y
 _atom_site_fract_z
 _atom_site_occupancy
  Se  Se0  1  0.04557412  0.39828118  0.13776272  1
  Se  Se1  1  0.45442588  0.60171882  0.63776272  1
  Se  Se2  1  0.95442588  0.60171882  0.86223728  1
  Se  Se3  1  0.54557412  0.39828118  0.36223728  1
  Se  Se4  1  0.81203805  0.21044561  0.05134432  1
  Se  Se5  1  0.68796195  0.78955439  0.55134432  1
  Se  Se6  1  0.18796195  0.78955439  0.94865568  1
  Se  Se7  1  0.31203805  0.21044561  0.44865568  1
  Br  Br8  1  0.84011140  0.66572671  0.13987399  1
  Br  Br9  1  0.65988860  0.33427329  0.63987399  1
  Br  Br10  1  0.15988860  0.33427329  0.86012601  1
  Br  Br11  1  0.34011140  0.66572671  0.36012601  1
  Br  Br12  1  0.49107415  0.05459229  0.14349569  1
  Br  Br13  1  0.00892585  0.94540771  0.64349569  1
  Br  Br14  1  0.50892585  0.94540771  0.85650431  1
  Br  Br15  1  0.99107415  0.05459229  0.35650431  1
