# generated using pymatgen
data_Ba2SnS4
_symmetry_space_group_name_H-M   'P 1'
_cell_length_a   7.51816062
_cell_length_b   12.82133858
_cell_length_c   18.07472590
_cell_angle_alpha   90.00000000
_cell_angle_beta   90.00000000
_cell_angle_gamma   90.00000000
_symmetry_Int_Tables_number   1
_chemical_formula_structural   Ba2SnS4
_chemical_formula_sum   'Ba16 Sn8 S32'
_cell_volume   1742.27493546
_cell_formula_units_Z   8
loop_
 _symmetry_equiv_pos_site_id
 _symmetry_equiv_pos_as_xyz
  1  'x, y, z'
loop_
 _atom_site_type_symbol
 _atom_site_label
 _atom_site_symmetry_multiplicity
 _atom_site_fract_x
 _atom_site_fract_y
 _atom_site_fract_z
 _atom_site_occupancy
  Sn  Sn0  1  0.77107552  0.60812325  0.97585586  1
  Sn  Sn1  1  0.22892448  0.10812325  0.02414414  1
  Sn  Sn2  1  0.72892448  0.60812325  0.47585586  1
  Sn  Sn3  1  0.27107552  0.10812325  0.52414414  1
  Sn  Sn4  1  0.71515686  0.27269779  0.73354134  1
  Sn  Sn5  1  0.28484314  0.77269779  0.26645866  1
  Sn  Sn6  1  0.78484314  0.27269779  0.23354134  1
  Sn  Sn7  1  0.21515686  0.77269779  0.76645866  1
  Ba  Ba8  1  0.71749833  0.00148276  0.62620912  1
  Ba  Ba9  1  0.28250167  0.50148276  0.37379088  1
  Ba  Ba10  1  0.78250167  0.00148276  0.12620912  1
  Ba  Ba11  1  0.21749833  0.50148276  0.87379088  1
  Ba  Ba12  1  0.69822878  0.87837108  0.87489925  1
  Ba  Ba13  1  0.30177122  0.37837108  0.12510075  1
  Ba  Ba14  1  0.80177122  0.87837108  0.37489925  1
  Ba  Ba15  1  0.19822878  0.37837108  0.62510075  1
  Ba  Ba16  1  0.69892112  0.61476067  0.68828367  1
  Ba  Ba17  1  0.30107888  0.11476067  0.31171633  1
  Ba  Ba18  1  0.80107888  0.61476067  0.18828367  1
  Ba  Ba19  1  0.19892112  0.11476067  0.81171633  1
  Ba  Ba20  1  0.72542617  0.26131537  0.94459059  1
  Ba  Ba21  1  0.27457383  0.76131537  0.05540941  1
  Ba  Ba22  1  0.77457383  0.26131537  0.44459059  1
  Ba  Ba23  1  0.22542617  0.76131537  0.55540941  1
  S  S24  1  0.99996904  0.90936875  0.75142290  1
  S  S25  1  0.00003096  0.40936875  0.24857710  1
  S  S26  1  0.50003096  0.90936875  0.25142290  1
  S  S27  1  0.49996904  0.40936875  0.74857710  1
  S  S28  1  0.96020991  0.48317736  0.49254163  1
  S  S29  1  0.03979009  0.98317736  0.50745837  1
  S  S30  1  0.53979009  0.48317736  0.99254163  1
  S  S31  1  0.46020991  0.98317736  0.00745837  1
  S  S32  1  0.98199212  0.32512508  0.80080850  1
  S  S33  1  0.01800788  0.82512508  0.19919150  1
  S  S34  1  0.51800788  0.32512508  0.30080850  1
  S  S35  1  0.48199212  0.82512508  0.69919150  1
  S  S36  1  0.96068541  0.04490741  0.96315220  1
  S  S37  1  0.03931459  0.54490741  0.03684780  1
  S  S38  1  0.53931459  0.04490741  0.46315220  1
  S  S39  1  0.46068541  0.54490741  0.53684780  1
  S  S40  1  0.85439887  0.64769492  0.85148044  1
  S  S41  1  0.14560113  0.14769492  0.14851956  1
  S  S42  1  0.64560113  0.64769492  0.35148044  1
  S  S43  1  0.35439887  0.14769492  0.64851956  1
  S  S44  1  0.84070275  0.23638532  0.61481729  1
  S  S45  1  0.15929725  0.73638532  0.38518271  1
  S  S46  1  0.65929725  0.23638532  0.11481729  1
  S  S47  1  0.34070275  0.73638532  0.88518271  1
  S  S48  1  0.79718872  0.76726417  0.54254560  1
  S  S49  1  0.20281128  0.26726417  0.45745440  1
  S  S50  1  0.70281128  0.76726417  0.04254560  1
  S  S51  1  0.29718872  0.26726417  0.95745440  1
  S  S52  1  0.63362405  0.11512606  0.80129003  1
  S  S53  1  0.36637595  0.61512606  0.19870997  1
  S  S54  1  0.86637595  0.11512606  0.30129003  1
  S  S55  1  0.13362405  0.61512606  0.69870997  1
