# generated using pymatgen
data_CsB5O8
_symmetry_space_group_name_H-M   'P 1'
_cell_length_a   7.17965469
_cell_length_b   10.02456900
_cell_length_c   10.58450767
_cell_angle_alpha   90.00000000
_cell_angle_beta   100.39849237
_cell_angle_gamma   90.00000000
_symmetry_Int_Tables_number   1
_chemical_formula_structural   CsB5O8
_chemical_formula_sum   'Cs4 B20 O32'
_cell_volume   749.28657115
_cell_formula_units_Z   4
loop_
 _symmetry_equiv_pos_site_id
 _symmetry_equiv_pos_as_xyz
  1  'x, y, z'
loop_
 _atom_site_type_symbol
 _atom_site_label
 _atom_site_symmetry_multiplicity
 _atom_site_fract_x
 _atom_site_fract_y
 _atom_site_fract_z
 _atom_site_occupancy
  Cs  Cs0  1  0.91998632  0.99301643  0.22291509  1
  Cs  Cs1  1  0.08001368  0.00698357  0.77708491  1
  Cs  Cs2  1  0.58001368  0.49301643  0.27708491  1
  Cs  Cs3  1  0.41998632  0.50698357  0.72291509  1
  B  B4  1  0.98382753  0.74936077  0.51222937  1
  B  B5  1  0.59684059  0.90494811  0.86719178  1
  B  B6  1  0.40315941  0.09505189  0.13280822  1
  B  B7  1  0.04830551  0.41240486  0.17955663  1
  B  B8  1  0.09684059  0.59505189  0.36719178  1
  B  B9  1  0.65032928  0.80781234  0.50223654  1
  B  B10  1  0.80731930  0.72392823  0.97064949  1
  B  B11  1  0.84967072  0.30781234  0.99776346  1
  B  B12  1  0.90315941  0.40494811  0.63280822  1
  B  B13  1  0.34967072  0.19218766  0.49776346  1
  B  B14  1  0.45169449  0.91240486  0.32044337  1
  B  B15  1  0.01617247  0.25063923  0.48777063  1
  B  B16  1  0.95169449  0.58759514  0.82044337  1
  B  B17  1  0.69268070  0.22392823  0.52935051  1
  B  B18  1  0.15032928  0.69218766  0.00223654  1
  B  B19  1  0.54830551  0.08759514  0.67955663  1
  B  B20  1  0.30731930  0.77607177  0.47064949  1
  B  B21  1  0.19268070  0.27607177  0.02935051  1
  B  B22  1  0.48382753  0.75063923  0.01222937  1
  B  B23  1  0.51617247  0.24936077  0.98777063  1
  O  O24  1  0.50326089  0.22721258  0.44670133  1
  O  O25  1  0.66617204  0.29070861  0.93151457  1
  O  O26  1  0.22505410  0.14374924  0.09712185  1
  O  O27  1  0.12981490  0.63485761  0.87992183  1
  O  O28  1  0.79578824  0.61798566  0.87031906  1
  O  O29  1  0.95160862  0.51193441  0.71244442  1
  O  O30  1  0.00326089  0.27278742  0.94670133  1
  O  O31  1  0.99673911  0.72721258  0.05329867  1
  O  O32  1  0.16010223  0.80137309  0.54882994  1
  O  O33  1  0.29578824  0.88201434  0.37031906  1
  O  O34  1  0.05339496  0.34921681  0.58232042  1
  O  O35  1  0.83382796  0.79070861  0.56848543  1
  O  O36  1  0.04839138  0.48806559  0.28755558  1
  O  O37  1  0.49673911  0.77278742  0.55329867  1
  O  O38  1  0.54839138  0.01193441  0.78755558  1
  O  O39  1  0.27494590  0.64374924  0.40287815  1
  O  O40  1  0.94660504  0.65078319  0.41767958  1
  O  O41  1  0.62981490  0.86514239  0.37992183  1
  O  O42  1  0.45160862  0.98806559  0.21244442  1
  O  O43  1  0.70421176  0.11798566  0.62968094  1
  O  O44  1  0.33382796  0.70929139  0.06848543  1
  O  O45  1  0.55339496  0.15078319  0.08232042  1
  O  O46  1  0.72505410  0.35625076  0.59712185  1
  O  O47  1  0.33989777  0.30137309  0.95117006  1
  O  O48  1  0.77494590  0.85625076  0.90287815  1
  O  O49  1  0.16617204  0.20929139  0.43151457  1
  O  O50  1  0.37018510  0.13485761  0.62007817  1
  O  O51  1  0.87018510  0.36514239  0.12007817  1
  O  O52  1  0.83989777  0.19862691  0.45117006  1
  O  O53  1  0.20421176  0.38201434  0.12968094  1
  O  O54  1  0.44660504  0.84921681  0.91767958  1
  O  O55  1  0.66010223  0.69862691  0.04882994  1
