# generated using pymatgen
data_LiFe(PO3)3
_symmetry_space_group_name_H-M   'P 1'
_cell_length_a   8.53617425
_cell_length_b   8.63891494
_cell_length_c   8.85460536
_cell_angle_alpha   90.00000000
_cell_angle_beta   90.00000000
_cell_angle_gamma   90.00000000
_symmetry_Int_Tables_number   1
_chemical_formula_structural   LiFe(PO3)3
_chemical_formula_sum   'Li4 Fe4 P12 O36'
_cell_volume   652.96767121
_cell_formula_units_Z   4
loop_
 _symmetry_equiv_pos_site_id
 _symmetry_equiv_pos_as_xyz
  1  'x, y, z'
loop_
 _atom_site_type_symbol
 _atom_site_label
 _atom_site_symmetry_multiplicity
 _atom_site_fract_x
 _atom_site_fract_y
 _atom_site_fract_z
 _atom_site_occupancy
  Fe  Fe0  1  0.12837291  0.14285817  0.15927189  1
  Fe  Fe1  1  0.37162709  0.85714183  0.65927189  1
  Fe  Fe2  1  0.62837291  0.35714183  0.84072811  1
  Fe  Fe3  1  0.87162709  0.64285817  0.34072811  1
  Li  Li4  1  0.15338583  0.86540300  0.38570170  1
  Li  Li5  1  0.34661417  0.13459700  0.88570170  1
  Li  Li6  1  0.65338583  0.63459700  0.61429830  1
  Li  Li7  1  0.84661417  0.36540300  0.11429830  1
  O  O8  1  0.04038582  0.22542276  0.65472585  1
  O  O9  1  0.09180347  0.38746138  0.13625151  1
  O  O10  1  0.10375841  0.12333506  0.91635548  1
  O  O11  1  0.12377494  0.61772786  0.31856376  1
  O  O12  1  0.12920058  0.80616689  0.62163178  1
  O  O13  1  0.13858051  0.53580681  0.73613981  1
  O  O14  1  0.15803574  0.13850343  0.40638247  1
  O  O15  1  0.19174686  0.90801807  0.15599678  1
  O  O16  1  0.22786235  0.63571640  0.04994018  1
  O  O17  1  0.27213765  0.36428360  0.54994018  1
  O  O18  1  0.30825314  0.09198193  0.65599678  1
  O  O19  1  0.34196426  0.86149657  0.90638247  1
  O  O20  1  0.36141949  0.46419319  0.23613981  1
  O  O21  1  0.37079942  0.19383311  0.12163178  1
  O  O22  1  0.37622506  0.38227214  0.81856376  1
  O  O23  1  0.39624159  0.87666494  0.41635548  1
  O  O24  1  0.40819653  0.61253862  0.63625151  1
  O  O25  1  0.45961418  0.77457724  0.15472585  1
  O  O26  1  0.54038582  0.27457724  0.34527415  1
  O  O27  1  0.59180347  0.11253862  0.86374849  1
  O  O28  1  0.60375841  0.37666494  0.08364452  1
  O  O29  1  0.62377494  0.88227214  0.68143624  1
  O  O30  1  0.62920058  0.69383311  0.37836822  1
  O  O31  1  0.63858051  0.96419319  0.26386019  1
  O  O32  1  0.65803574  0.36149657  0.59361753  1
  O  O33  1  0.69174686  0.59198193  0.84400322  1
  O  O34  1  0.72786235  0.86428360  0.95005982  1
  O  O35  1  0.77213765  0.13571640  0.45005982  1
  O  O36  1  0.80825314  0.40801807  0.34400322  1
  O  O37  1  0.84196426  0.63850343  0.09361753  1
  O  O38  1  0.86141949  0.03580681  0.76386019  1
  O  O39  1  0.87079942  0.30616689  0.87836822  1
  O  O40  1  0.87622506  0.11772786  0.18143624  1
  O  O41  1  0.89624159  0.62333506  0.58364452  1
  O  O42  1  0.90819653  0.88746138  0.36374849  1
  O  O43  1  0.95961418  0.72542276  0.84527415  1
  P  P44  1  0.02804223  0.67808544  0.68244325  1
  P  P45  1  0.18876634  0.52195799  0.19066311  1
  P  P46  1  0.20025777  0.19117326  0.56182168  1
  P  P47  1  0.29974223  0.80882674  0.06182168  1
  P  P48  1  0.31123366  0.47804201  0.69066311  1
  P  P49  1  0.47195777  0.32191456  0.18244325  1
  P  P50  1  0.52804223  0.82191456  0.31755675  1
  P  P51  1  0.68876634  0.97804201  0.80933689  1
  P  P52  1  0.70025777  0.30882674  0.43817832  1
  P  P53  1  0.79974223  0.69117326  0.93817832  1
  P  P54  1  0.81123366  0.02195799  0.30933689  1
  P  P55  1  0.97195777  0.17808544  0.81755675  1
