# generated using pymatgen
data_Cu4Se3O10
_symmetry_space_group_name_H-M   'P 1'
_cell_length_a   8.10978863
_cell_length_b   8.26835839
_cell_length_c   8.49937427
_cell_angle_alpha   77.44994428
_cell_angle_beta   65.67288159
_cell_angle_gamma   81.51058587
_symmetry_Int_Tables_number   1
_chemical_formula_structural   Cu4Se3O10
_chemical_formula_sum   'Cu8 Se6 O20'
_cell_volume   505.82667055
_cell_formula_units_Z   2
loop_
 _symmetry_equiv_pos_site_id
 _symmetry_equiv_pos_as_xyz
  1  'x, y, z'
loop_
 _atom_site_type_symbol
 _atom_site_label
 _atom_site_symmetry_multiplicity
 _atom_site_fract_x
 _atom_site_fract_y
 _atom_site_fract_z
 _atom_site_occupancy
  Cu  Cu0  1  0.67835704  0.55083042  0.38992777  1
  Cu  Cu1  1  0.32164296  0.44916958  0.61007223  1
  Cu  Cu2  1  0.09264083  0.56334494  0.26004245  1
  Cu  Cu3  1  0.90735917  0.43665506  0.73995755  1
  Cu  Cu4  1  0.51387900  0.36887657  0.17680825  1
  Cu  Cu5  1  0.48612100  0.63112343  0.82319175  1
  Cu  Cu6  1  0.60759336  0.16236463  0.48602360  1
  Cu  Cu7  1  0.39240664  0.83763537  0.51397640  1
  O  O8  1  0.52885846  0.38631672  0.39815366  1
  O  O9  1  0.47114154  0.61368328  0.60184634  1
  Se  Se10  1  0.16388450  0.18897067  0.47046863  1
  Se  Se11  1  0.83611550  0.81102933  0.52953137  1
  O  O12  1  0.14458883  0.29581263  0.63602093  1
  O  O13  1  0.85541117  0.70418737  0.36397907  1
  O  O14  1  0.37237390  0.08016582  0.42363911  1
  O  O15  1  0.62762610  0.91983418  0.57636089  1
  O  O16  1  0.23915222  0.34838307  0.28670310  1
  O  O17  1  0.76084778  0.65161693  0.71329690  1
  Se  Se18  1  0.94385864  0.28191328  0.12299639  1
  Se  Se19  1  0.05614136  0.71808672  0.87700361  1
  O  O20  1  0.77906665  0.32599485  0.03640860  1
  O  O21  1  0.22093335  0.67400515  0.96359140  1
  O  O22  1  0.90891818  0.46452919  0.21632645  1
  O  O23  1  0.09108182  0.53547081  0.78367355  1
  O  O24  1  0.85214087  0.13368075  0.30272554  1
  O  O25  1  0.14785913  0.86631925  0.69727446  1
  Se  Se26  1  0.40390038  0.79753468  0.16040479  1
  Se  Se27  1  0.59609962  0.20246532  0.83959521  1
  O  O28  1  0.51976789  0.64206334  0.04056729  1
  O  O29  1  0.48023211  0.35793666  0.95943271  1
  O  O30  1  0.22144145  0.69503909  0.33007886  1
  O  O31  1  0.77855855  0.30496091  0.66992114  1
  O  O32  1  0.54265028  0.79676884  0.26953949  1
  O  O33  1  0.45734972  0.20323116  0.73046051  1
