# generated using pymatgen
data_BiAuBr6
_symmetry_space_group_name_H-M   'P 1'
_cell_length_a   8.15775072
_cell_length_b   10.67193313
_cell_length_c   15.15421573
_cell_angle_alpha   103.97052620
_cell_angle_beta   95.69274163
_cell_angle_gamma   112.01361164
_symmetry_Int_Tables_number   1
_chemical_formula_structural   BiAuBr6
_chemical_formula_sum   'Bi4 Au4 Br24'
_cell_volume   1160.26438681
_cell_formula_units_Z   4
loop_
 _symmetry_equiv_pos_site_id
 _symmetry_equiv_pos_as_xyz
  1  'x, y, z'
loop_
 _atom_site_type_symbol
 _atom_site_label
 _atom_site_symmetry_multiplicity
 _atom_site_fract_x
 _atom_site_fract_y
 _atom_site_fract_z
 _atom_site_occupancy
  Au  Au0  1  0.29528029  0.62928957  0.76453758  1
  Au  Au1  1  0.70471971  0.37071043  0.23546242  1
  Au  Au2  1  0.50000000  0.50000000  0.50000000  1
  Au  Au3  1  0.00000000  0.00000000  0.00000000  1
  Bi  Bi4  1  0.60050890  0.92944379  0.61960230  1
  Bi  Bi5  1  0.39949110  0.07055621  0.38039770  1
  Bi  Bi6  1  0.97239477  0.31413740  0.87253782  1
  Bi  Bi7  1  0.02760523  0.68586260  0.12746218  1
  Br  Br8  1  0.61256417  0.72867714  0.74863606  1
  Br  Br9  1  0.38743583  0.27132286  0.25136394  1
  Br  Br10  1  0.26601154  0.84023962  0.73952822  1
  Br  Br11  1  0.73398846  0.15976038  0.26047178  1
  Br  Br12  1  0.97550003  0.53168261  0.77921171  1
  Br  Br13  1  0.02449997  0.46831739  0.22078829  1
  Br  Br14  1  0.32137100  0.41462688  0.78753401  1
  Br  Br15  1  0.67862900  0.58537312  0.21246599  1
  Br  Br16  1  0.69430681  0.37029418  0.50624204  1
  Br  Br17  1  0.30569319  0.62970582  0.49375796  1
  Br  Br18  1  0.76830813  0.72288875  0.52262490  1
  Br  Br19  1  0.23169187  0.27711125  0.47737510  1
  Br  Br20  1  0.78027754  0.10158364  0.97033681  1
  Br  Br21  1  0.21972246  0.89841636  0.02966319  1
  Br  Br22  1  0.76307692  0.80140671  0.03372754  1
  Br  Br23  1  0.23692308  0.19859329  0.96627246  1
  Br  Br24  1  0.61344268  0.18625273  0.74431564  1
  Br  Br25  1  0.38655732  0.81374727  0.25568436  1
  Br  Br26  1  0.96159645  0.05306564  0.72295569  1
  Br  Br27  1  0.03840355  0.94693436  0.27704431  1
  Br  Br28  1  0.73542187  0.04857642  0.48272720  1
  Br  Br29  1  0.26457813  0.95142358  0.51727280  1
  Br  Br30  1  0.75565686  0.43517080  0.97434245  1
  Br  Br31  1  0.24434314  0.56482920  0.02565755  1
