# generated using pymatgen
data_Rb2Mo9Se10
_symmetry_space_group_name_H-M   'P 1'
_cell_length_a   14.05112150
_cell_length_b   14.05112097
_cell_length_c   14.05112101
_cell_angle_alpha   40.50861309
_cell_angle_beta   40.50861575
_cell_angle_gamma   40.50861537
_symmetry_Int_Tables_number   1
_chemical_formula_structural   Rb2Mo9Se10
_chemical_formula_sum   'Rb4 Mo18 Se20'
_cell_volume   1055.69706167
_cell_formula_units_Z   2
loop_
 _symmetry_equiv_pos_site_id
 _symmetry_equiv_pos_as_xyz
  1  'x, y, z'
loop_
 _atom_site_type_symbol
 _atom_site_label
 _atom_site_symmetry_multiplicity
 _atom_site_fract_x
 _atom_site_fract_y
 _atom_site_fract_z
 _atom_site_occupancy
  Mo  Mo0  1  0.00133068  0.31407582  0.12631616  1
  Mo  Mo1  1  0.12631616  0.00133068  0.31407582  1
  Mo  Mo2  1  0.31407582  0.12631616  0.00133068  1
  Mo  Mo3  1  0.99866932  0.68592418  0.87368384  1
  Mo  Mo4  1  0.87368384  0.99866932  0.68592418  1
  Mo  Mo5  1  0.68592418  0.87368384  0.99866932  1
  Mo  Mo6  1  0.23802617  0.92054923  0.10431752  1
  Mo  Mo7  1  0.10431752  0.23802617  0.92054923  1
  Mo  Mo8  1  0.92054923  0.10431752  0.23802617  1
  Mo  Mo9  1  0.76197383  0.07945077  0.89568248  1
  Mo  Mo10  1  0.89568248  0.76197383  0.07945077  1
  Mo  Mo11  1  0.07945077  0.89568248  0.76197383  1
  Mo  Mo12  1  0.11824110  0.80357359  0.98913581  1
  Mo  Mo13  1  0.98913581  0.11824110  0.80357359  1
  Mo  Mo14  1  0.80357359  0.98913581  0.11824110  1
  Mo  Mo15  1  0.88175890  0.19642641  0.01086419  1
  Mo  Mo16  1  0.01086419  0.88175890  0.19642641  1
  Mo  Mo17  1  0.19642641  0.01086419  0.88175890  1
  Rb  Rb18  1  0.29520682  0.29520682  0.29520682  1
  Rb  Rb19  1  0.70479318  0.70479318  0.70479318  1
  Rb  Rb20  1  0.42362612  0.42362612  0.42362612  1
  Rb  Rb21  1  0.57637388  0.57637388  0.57637388  1
  Se  Se22  1  0.19965634  0.19965634  0.19965634  1
  Se  Se23  1  0.80034366  0.80034366  0.80034366  1
  Se  Se24  1  0.43320114  0.81348326  0.18239930  1
  Se  Se25  1  0.18239930  0.43320114  0.81348326  1
  Se  Se26  1  0.81348326  0.18239930  0.43320114  1
  Se  Se27  1  0.56679886  0.18651674  0.81760070  1
  Se  Se28  1  0.81760070  0.56679886  0.18651674  1
  Se  Se29  1  0.18651674  0.81760070  0.56679886  1
  Se  Se30  1  0.20305591  0.58547010  0.94558073  1
  Se  Se31  1  0.94558073  0.20305591  0.58547010  1
  Se  Se32  1  0.58547010  0.94558073  0.20305591  1
  Se  Se33  1  0.79694409  0.41452990  0.05441927  1
  Se  Se34  1  0.05441927  0.79694409  0.41452990  1
  Se  Se35  1  0.41452990  0.05441927  0.79694409  1
  Se  Se36  1  0.30265840  0.93187797  0.67906145  1
  Se  Se37  1  0.67906145  0.30265840  0.93187797  1
  Se  Se38  1  0.93187797  0.67906145  0.30265840  1
  Se  Se39  1  0.69734160  0.06812203  0.32093855  1
  Se  Se40  1  0.32093855  0.69734160  0.06812203  1
  Se  Se41  1  0.06812203  0.32093855  0.69734160  1
