# generated using pymatgen
data_CuBi3PbS6
_symmetry_space_group_name_H-M   'P 1'
_cell_length_a   4.04192186
_cell_length_b   11.15923487
_cell_length_c   11.80751273
_cell_angle_alpha   90.00000000
_cell_angle_beta   90.00000000
_cell_angle_gamma   90.00000000
_symmetry_Int_Tables_number   1
_chemical_formula_structural   CuBi3PbS6
_chemical_formula_sum   'Cu2 Bi6 Pb2 S12'
_cell_volume   532.57497312
_cell_formula_units_Z   2
loop_
 _symmetry_equiv_pos_site_id
 _symmetry_equiv_pos_as_xyz
  1  'x, y, z'
loop_
 _atom_site_type_symbol
 _atom_site_label
 _atom_site_symmetry_multiplicity
 _atom_site_fract_x
 _atom_site_fract_y
 _atom_site_fract_z
 _atom_site_occupancy
  Bi  Bi0  1  0.00000000  0.92186794  0.42721204  1
  Bi  Bi1  1  0.00000000  0.07813206  0.92721204  1
  Bi  Bi2  1  0.50000000  0.56499864  0.39367407  1
  Bi  Bi3  1  0.50000000  0.43500136  0.89367407  1
  Bi  Bi4  1  0.50000000  0.21295921  0.56220853  1
  Bi  Bi5  1  0.50000000  0.78704079  0.06220853  1
  Pb  Pb6  1  0.00000000  0.25314584  0.23425759  1
  Pb  Pb7  1  0.00000000  0.74685416  0.73425759  1
  Cu  Cu8  1  0.00000000  0.46085050  0.63924216  1
  Cu  Cu9  1  0.00000000  0.53914950  0.13924216  1
  S  S10  1  0.50000000  0.79869699  0.52873167  1
  S  S11  1  0.50000000  0.20130301  0.02873167  1
  S  S12  1  0.50000000  0.10714007  0.36358490  1
  S  S13  1  0.50000000  0.89285993  0.86358490  1
  S  S14  1  0.50000000  0.44869809  0.19298210  1
  S  S15  1  0.50000000  0.55130191  0.69298210  1
  S  S16  1  0.00000000  0.68902153  0.28853002  1
  S  S17  1  0.00000000  0.31097847  0.78853002  1
  S  S18  1  0.00000000  0.37807435  0.45909707  1
  S  S19  1  0.00000000  0.62192565  0.95909707  1
  S  S20  1  0.00000000  0.05580650  0.62142986  1
  S  S21  1  0.00000000  0.94419350  0.12142986  1
