# generated using pymatgen
data_Mn2Cu3H24(OF)12
_symmetry_space_group_name_H-M   'P 1'
_cell_length_a   7.53926562
_cell_length_b   7.65433925
_cell_length_c   8.26147889
_cell_angle_alpha   89.81712395
_cell_angle_beta   88.00261974
_cell_angle_gamma   86.27572515
_symmetry_Int_Tables_number   1
_chemical_formula_structural   Mn2Cu3H24(OF)12
_chemical_formula_sum   'Mn2 Cu3 H24 O12 F12'
_cell_volume   475.45814790
_cell_formula_units_Z   1
loop_
 _symmetry_equiv_pos_site_id
 _symmetry_equiv_pos_as_xyz
  1  'x, y, z'
loop_
 _atom_site_type_symbol
 _atom_site_label
 _atom_site_symmetry_multiplicity
 _atom_site_fract_x
 _atom_site_fract_y
 _atom_site_fract_z
 _atom_site_occupancy
  Cu  Cu0  1  0.00000000  0.00000000  0.00000000  1
  Cu  Cu1  1  0.50000000  0.00000000  0.50000000  1
  Cu  Cu2  1  0.50000000  0.50000000  0.00000000  1
  Mn  Mn3  1  0.50000000  0.00000000  0.00000000  1
  Mn  Mn4  1  0.00000000  0.50000000  0.50000000  1
  F  F5  1  0.71741782  0.09849607  0.97025067  1
  F  F6  1  0.28258218  0.90150393  0.02974933  1
  F  F7  1  0.41621201  0.11239772  0.77621228  1
  F  F8  1  0.58378799  0.88760228  0.22378772  1
  F  F9  1  0.40362749  0.21616658  0.10836711  1
  F  F10  1  0.59637251  0.78383342  0.89163389  1
  F  F11  1  0.90846444  0.41200555  0.70153638  1
  F  F12  1  0.09153556  0.58799445  0.29846362  1
  F  F13  1  0.00753923  0.23432956  0.40782624  1
  F  F14  1  0.99246077  0.76567044  0.59217376  1
  F  F15  1  0.23040092  0.45377432  0.57805174  1
  F  F16  1  0.76959908  0.54622568  0.42194826  1
  O  O17  1  0.07575104  0.09961366  0.78841160  1
  O  O18  1  0.92424896  0.90038634  0.21158840  1
  O  O19  1  0.02747526  0.23392090  0.10373460  1
  O  O20  1  0.97252474  0.76607910  0.89626540  1
  O  O21  1  0.75209180  0.03580324  0.54830849  1
  O  O22  1  0.24790820  0.96419676  0.45169151  1
  O  O23  1  0.47817508  0.24146786  0.41507756  1
  O  O24  1  0.52182492  0.75853214  0.58492244  1
  O  O25  1  0.74498030  0.48669983  0.09068314  1
  O  O26  1  0.25501970  0.51330017  0.90931686  1
  O  O27  1  0.57327582  0.40468126  0.78624323  1
  O  O28  1  0.42672418  0.59531874  0.21375677  1
  H  H29  1  0.01441412  0.21351212  0.76002892  1
  H  H30  1  0.98558588  0.78648788  0.23997108  1
  H  H31  1  0.20841374  0.11241290  0.78028559  1
  H  H32  1  0.79158626  0.88758710  0.21971441  1
  H  H33  1  0.02089118  0.22600702  0.22779600  1
  H  H34  1  0.97910882  0.77399298  0.77220400  1
  H  H35  1  0.14734986  0.27191778  0.07584032  1
  H  H36  1  0.85265014  0.72808222  0.92415968  1
  H  H37  1  0.81937430  0.11949500  0.48289480  1
  H  H38  1  0.18062470  0.88050500  0.51710520  1
  H  H39  1  0.83506220  0.93032980  0.56098534  1
  H  H40  1  0.16493780  0.06967020  0.43901466  1
  H  H41  1  0.44769502  0.24080441  0.29814441  1
  H  H42  1  0.55230498  0.75919559  0.70185559  1
  H  H43  1  0.39020673  0.32287539  0.47338231  1
  H  H44  1  0.60979327  0.67712461  0.52661769  1
  H  H45  1  0.73981869  0.50368053  0.20991620  1
  H  H46  1  0.26018131  0.49631947  0.79008380  1
  H  H47  1  0.83033104  0.38428026  0.07038223  1
  H  H48  1  0.16966896  0.61571974  0.92961777  1
  H  H49  1  0.52872455  0.28466177  0.77417611  1
  H  H50  1  0.47127545  0.71533823  0.22582389  1
  H  H51  1  0.70233578  0.39965800  0.75459976  1
  H  H52  1  0.29766422  0.60034200  0.24540024  1
