# generated using pymatgen
data_Mn2O3
_symmetry_space_group_name_H-M   'P 1'
_cell_length_a   8.32822577
_cell_length_b   8.32822577
_cell_length_c   8.32822577
_cell_angle_alpha   109.47122063
_cell_angle_beta   109.47122063
_cell_angle_gamma   109.47122063
_symmetry_Int_Tables_number   1
_chemical_formula_structural   Mn2O3
_chemical_formula_sum   'Mn16 O24'
_cell_volume   444.66769486
_cell_formula_units_Z   8
loop_
 _symmetry_equiv_pos_site_id
 _symmetry_equiv_pos_as_xyz
  1  'x, y, z'
loop_
 _atom_site_type_symbol
 _atom_site_label
 _atom_site_symmetry_multiplicity
 _atom_site_fract_x
 _atom_site_fract_y
 _atom_site_fract_z
 _atom_site_occupancy
  Mn  Mn0  1  0.00000000  0.50000000  0.50000000  1
  Mn  Mn1  1  0.50000000  0.00000000  0.50000000  1
  Mn  Mn2  1  0.50000000  0.50000000  0.00000000  1
  Mn  Mn3  1  0.00000000  0.00000000  0.00000000  1
  Mn  Mn4  1  0.75000000  0.21426616  0.96426616  1
  Mn  Mn5  1  0.25000000  0.28573384  0.53573384  1
  Mn  Mn6  1  0.21426616  0.96426616  0.75000000  1
  Mn  Mn7  1  0.28573384  0.53573384  0.25000000  1
  Mn  Mn8  1  0.96426616  0.75000000  0.21426616  1
  Mn  Mn9  1  0.53573384  0.25000000  0.28573384  1
  Mn  Mn10  1  0.25000000  0.78573384  0.03573384  1
  Mn  Mn11  1  0.75000000  0.71426616  0.46426616  1
  Mn  Mn12  1  0.78573384  0.03573384  0.25000000  1
  Mn  Mn13  1  0.71426616  0.46426616  0.75000000  1
  Mn  Mn14  1  0.03573384  0.25000000  0.78573384  1
  Mn  Mn15  1  0.46426616  0.75000000  0.71426616  1
  O  O16  1  0.78468789  0.26997861  0.22562172  1
  O  O17  1  0.45564312  0.23002139  0.51470928  1
  O  O18  1  0.71531211  0.44093383  0.98529072  1
  O  O19  1  0.04435688  0.05906617  0.27437828  1
  O  O20  1  0.26997861  0.22562172  0.78468789  1
  O  O21  1  0.23002139  0.51470928  0.45564312  1
  O  O22  1  0.44093383  0.98529072  0.71531211  1
  O  O23  1  0.05906617  0.27437828  0.04435688  1
  O  O24  1  0.22562172  0.78468789  0.26997861  1
  O  O25  1  0.51470928  0.45564312  0.23002139  1
  O  O26  1  0.98529072  0.71531211  0.44093383  1
  O  O27  1  0.27437828  0.04435688  0.05906617  1
  O  O28  1  0.21531211  0.73002139  0.77437828  1
  O  O29  1  0.54435688  0.76997861  0.48529072  1
  O  O30  1  0.28468789  0.55906617  0.01470928  1
  O  O31  1  0.95564312  0.94093383  0.72562172  1
  O  O32  1  0.73002139  0.77437828  0.21531211  1
  O  O33  1  0.76997861  0.48529072  0.54435688  1
  O  O34  1  0.55906617  0.01470928  0.28468789  1
  O  O35  1  0.94093383  0.72562172  0.95564312  1
  O  O36  1  0.77437828  0.21531211  0.73002139  1
  O  O37  1  0.48529072  0.54435688  0.76997861  1
  O  O38  1  0.01470928  0.28468789  0.55906617  1
  O  O39  1  0.72562172  0.95564312  0.94093383  1
