# generated using pymatgen
data_BaCeC2O6F
_symmetry_space_group_name_H-M   'P 1'
_cell_length_a   13.22308321
_cell_length_b   13.22308305
_cell_length_c   13.22308328
_cell_angle_alpha   22.37446712
_cell_angle_beta   22.37446884
_cell_angle_gamma   22.37446942
_symmetry_Int_Tables_number   1
_chemical_formula_structural   BaCeC2O6F
_chemical_formula_sum   'Ba2 Ce2 C4 O12 F2'
_cell_volume   293.82004856
_cell_formula_units_Z   2
loop_
 _symmetry_equiv_pos_site_id
 _symmetry_equiv_pos_as_xyz
  1  'x, y, z'
loop_
 _atom_site_type_symbol
 _atom_site_label
 _atom_site_symmetry_multiplicity
 _atom_site_fract_x
 _atom_site_fract_y
 _atom_site_fract_z
 _atom_site_occupancy
  Ba  Ba0  1  0.00000000  0.00000000  0.00000000  1
  Ba  Ba1  1  0.50000000  0.50000000  0.50000000  1
  Ce  Ce2  1  0.24485595  0.24485595  0.24485595  1
  Ce  Ce3  1  0.75514405  0.75514405  0.75514405  1
  C  C4  1  0.10748530  0.10748530  0.10748530  1
  C  C5  1  0.89251470  0.89251470  0.89251470  1
  C  C6  1  0.37372019  0.37372019  0.37372019  1
  C  C7  1  0.62627981  0.62627981  0.62627981  1
  O  O8  1  0.25230796  0.81525421  0.25230796  1
  O  O9  1  0.25230796  0.25230796  0.81525421  1
  O  O10  1  0.81525421  0.25230796  0.25230796  1
  O  O11  1  0.18474579  0.74769204  0.74769204  1
  O  O12  1  0.74769204  0.18474579  0.74769204  1
  O  O13  1  0.74769204  0.74769204  0.18474579  1
  O  O14  1  0.51890765  0.08100865  0.51890765  1
  O  O15  1  0.51890765  0.51890765  0.08100865  1
  O  O16  1  0.08100865  0.51890765  0.51890765  1
  O  O17  1  0.91899135  0.48109235  0.48109235  1
  O  O18  1  0.48109235  0.91899135  0.48109235  1
  O  O19  1  0.48109235  0.48109235  0.91899135  1
  F  F20  1  0.18459223  0.18459223  0.18459223  1
  F  F21  1  0.81540777  0.81540777  0.81540777  1
