# generated using pymatgen
data_ZnCr2CuO7
_symmetry_space_group_name_H-M   'P 1'
_cell_length_a   8.38328791
_cell_length_b   10.20184258
_cell_length_c   10.24323426
_cell_angle_alpha   94.48446676
_cell_angle_beta   90.00000000
_cell_angle_gamma   90.00000000
_symmetry_Int_Tables_number   1
_chemical_formula_structural   ZnCr2CuO7
_chemical_formula_sum   'Zn6 Cr12 Cu6 O42'
_cell_volume   873.37046676
_cell_formula_units_Z   6
loop_
 _symmetry_equiv_pos_site_id
 _symmetry_equiv_pos_as_xyz
  1  'x, y, z'
loop_
 _atom_site_type_symbol
 _atom_site_label
 _atom_site_symmetry_multiplicity
 _atom_site_fract_x
 _atom_site_fract_y
 _atom_site_fract_z
 _atom_site_occupancy
  Zn  Zn0  1  0.43158622  0.13560379  0.57214014  1
  Zn  Zn1  1  0.92308628  0.50000000  0.75000000  1
  Zn  Zn2  1  0.43158622  0.86439621  0.92785986  1
  Zn  Zn3  1  0.07691372  0.50000000  0.25000000  1
  Zn  Zn4  1  0.56841378  0.86439621  0.42785986  1
  Zn  Zn5  1  0.56841378  0.13560379  0.07214014  1
  Cr  Cr6  1  0.22967894  0.16480751  0.28655331  1
  Cr  Cr7  1  0.74284007  0.16816098  0.37690072  1
  Cr  Cr8  1  0.25715993  0.16816098  0.87690072  1
  Cr  Cr9  1  0.77032106  0.16480751  0.78655331  1
  Cr  Cr10  1  0.26946392  0.48445923  0.95694314  1
  Cr  Cr11  1  0.74284007  0.83183902  0.12309928  1
  Cr  Cr12  1  0.73053608  0.48445923  0.45694314  1
  Cr  Cr13  1  0.25715993  0.83183902  0.62309928  1
  Cr  Cr14  1  0.26946392  0.51554077  0.54305686  1
  Cr  Cr15  1  0.73053608  0.51554077  0.04305686  1
  Cr  Cr16  1  0.77032106  0.83519249  0.71344669  1
  Cr  Cr17  1  0.22967894  0.83519249  0.21344669  1
  Cu  Cu18  1  0.93552354  0.80695607  0.40963053  1
  Cu  Cu19  1  0.06447646  0.19304393  0.59036947  1
  Cu  Cu20  1  0.44469049  0.50000000  0.25000000  1
  Cu  Cu21  1  0.93552354  0.19304393  0.09036947  1
  Cu  Cu22  1  0.55530951  0.50000000  0.75000000  1
  Cu  Cu23  1  0.06447646  0.80695607  0.90963053  1
  O  O24  1  0.75769081  0.18902693  0.95668282  1
  O  O25  1  0.75741047  0.83877283  0.29209902  1
  O  O26  1  0.84020849  -0.00000000  0.75000000  1
  O  O27  1  0.90708544  0.50033180  0.11379119  1
  O  O28  1  0.40494262  0.93326595  0.56752677  1
  O  O29  1  0.91632674  0.26244542  0.72240092  1
  O  O30  1  0.34475313  0.32060955  0.92803752  1
  O  O31  1  0.09291456  0.50033180  0.61379119  1
  O  O32  1  0.73195133  0.48307194  0.87385797  1
  O  O33  1  0.40494262  0.06673405  0.93247323  1
  O  O34  1  0.73195133  0.51692806  0.62614203  1
  O  O35  1  0.40910482  0.57233224  0.87985907  1
  O  O36  1  0.91541014  0.85580121  0.04555926  1
  O  O37  1  0.08367326  0.26244542  0.22240092  1
  O  O38  1  0.65524687  0.67939045  0.07196248  1
  O  O39  1  0.34475313  0.67939045  0.57196248  1
  O  O40  1  0.91632674  0.73755458  0.77759908  1
  O  O41  1  0.59505738  0.06673405  0.43247323  1
  O  O42  1  0.24230919  0.18902693  0.45668282  1
  O  O43  1  0.59089518  0.42766776  0.12014093  1
  O  O44  1  0.40037631  0.81208502  0.29167241  1
  O  O45  1  0.26804867  0.51692806  0.12614203  1
  O  O46  1  0.08458986  0.85580121  0.54555926  1
  O  O47  1  0.26804867  0.48307194  0.37385797  1
  O  O48  1  0.90708544  0.49966820  0.38620881  1
  O  O49  1  0.59089518  0.57233224  0.37985907  1
  O  O50  1  0.09291456  0.49966820  0.88620881  1
  O  O51  1  0.59962369  0.81208502  0.79167241  1
  O  O52  1  0.59962369  0.18791498  0.70832759  1
  O  O53  1  0.08458986  0.14419879  0.95444074  1
  O  O54  1  0.08367326  0.73755458  0.27759908  1
  O  O55  1  0.75769081  0.81097307  0.54331718  1
  O  O56  1  0.15979151  -0.00000000  0.25000000  1
  O  O57  1  0.24258953  0.83877283  0.79209902  1
  O  O58  1  0.59505738  0.93326595  0.06752677  1
  O  O59  1  0.91541014  0.14419879  0.45444074  1
  O  O60  1  0.24230919  0.81097307  0.04331718  1
  O  O61  1  0.75741047  0.16122717  0.20790098  1
  O  O62  1  0.40910482  0.42766776  0.62014093  1
  O  O63  1  0.65524687  0.32060955  0.42803752  1
  O  O64  1  0.24258953  0.16122717  0.70790098  1
  O  O65  1  0.40037631  0.18791498  0.20832759  1
