# generated using pymatgen
data_CaBeB2O5
_symmetry_space_group_name_H-M   'P 1'
_cell_length_a   3.79386000
_cell_length_b   5.22266308
_cell_length_c   17.26641736
_cell_angle_alpha   97.65724157
_cell_angle_beta   90.00000000
_cell_angle_gamma   90.00000000
_symmetry_Int_Tables_number   1
_chemical_formula_structural   CaBeB2O5
_chemical_formula_sum   'Ca4 Be4 B8 O20'
_cell_volume   339.06700780
_cell_formula_units_Z   4
loop_
 _symmetry_equiv_pos_site_id
 _symmetry_equiv_pos_as_xyz
  1  'x, y, z'
loop_
 _atom_site_type_symbol
 _atom_site_label
 _atom_site_symmetry_multiplicity
 _atom_site_fract_x
 _atom_site_fract_y
 _atom_site_fract_z
 _atom_site_occupancy
  Ca  Ca0  1  0.61790807  0.80015672  0.07433498  1
  Ca  Ca1  1  0.38209193  0.19984328  0.92566502  1
  Ca  Ca2  1  0.11790807  0.69984328  0.42566502  1
  Ca  Ca3  1  0.88209193  0.30015672  0.57433498  1
  Be  Be4  1  0.73455472  0.89444304  0.28886115  1
  Be  Be5  1  0.23455472  0.60555696  0.21113885  1
  Be  Be6  1  0.76544528  0.39444304  0.78886115  1
  Be  Be7  1  0.26544528  0.10555696  0.71113885  1
  B  B8  1  0.75169181  0.38370559  0.28711356  1
  B  B9  1  0.47259980  0.19995429  0.40452845  1
  B  B10  1  0.25169181  0.11629441  0.21288644  1
  B  B11  1  0.24830819  0.61629441  0.71288644  1
  B  B12  1  0.52740020  0.80004571  0.59547155  1
  B  B13  1  0.97259980  0.30004571  0.09547155  1
  B  B14  1  0.02740020  0.69995429  0.90452845  1
  B  B15  1  0.74830819  0.88370559  0.78711356  1
  O  O16  1  0.09565511  0.09190060  0.13290864  1
  O  O17  1  0.07377088  0.54873252  0.12365656  1
  O  O18  1  0.47827849  0.35196747  0.22420945  1
  O  O19  1  0.75909268  0.24168347  0.03232323  1
  O  O20  1  0.40434489  0.59190060  0.63290864  1
  O  O21  1  0.24090732  0.75831653  0.96767677  1
  O  O22  1  0.44712626  0.87734113  0.21777081  1
  O  O23  1  0.74090732  0.74168347  0.53232323  1
  O  O24  1  0.97827849  0.14803253  0.27579055  1
  O  O25  1  0.55287374  0.12265887  0.78222919  1
  O  O26  1  0.42622912  0.04873252  0.62365656  1
  O  O27  1  0.92622912  0.45126748  0.87634344  1
  O  O28  1  0.25909268  0.25831653  0.46767677  1
  O  O29  1  0.52172151  0.64803253  0.77579055  1
  O  O30  1  0.59565511  0.40809940  0.36709136  1
  O  O31  1  0.05287374  0.37734113  0.71777081  1
  O  O32  1  0.90434489  0.90809940  0.86709136  1
  O  O33  1  0.02172151  0.85196747  0.72420945  1
  O  O34  1  0.94712626  0.62265887  0.28222919  1
  O  O35  1  0.57377088  0.95126748  0.37634344  1
