# generated using pymatgen
data_Fe2(SO4)3
_symmetry_space_group_name_H-M   'P 1'
_cell_length_a   8.44665113
_cell_length_b   8.66209133
_cell_length_c   11.86612531
_cell_angle_alpha   90.00000000
_cell_angle_beta   90.60702579
_cell_angle_gamma   90.00000000
_symmetry_Int_Tables_number   1
_chemical_formula_structural   Fe2(SO4)3
_chemical_formula_sum   'Fe8 S12 O48'
_cell_volume   868.14420681
_cell_formula_units_Z   4
loop_
 _symmetry_equiv_pos_site_id
 _symmetry_equiv_pos_as_xyz
  1  'x, y, z'
loop_
 _atom_site_type_symbol
 _atom_site_label
 _atom_site_symmetry_multiplicity
 _atom_site_fract_x
 _atom_site_fract_y
 _atom_site_fract_z
 _atom_site_occupancy
  Fe  Fe0  1  0.74931501  0.46707179  0.61536600  1
  Fe  Fe1  1  0.75068499  0.96707179  0.88463400  1
  Fe  Fe2  1  0.25068499  0.53292821  0.38463400  1
  Fe  Fe3  1  0.24931501  0.03292821  0.11536600  1
  Fe  Fe4  1  0.75288656  0.03443126  0.38532103  1
  Fe  Fe5  1  0.74711344  0.53443126  0.11467897  1
  Fe  Fe6  1  0.24711344  0.96556874  0.61467897  1
  Fe  Fe7  1  0.25288656  0.46556874  0.88532103  1
  S  S8  1  0.03719472  0.25210425  0.49608654  1
  S  S9  1  0.46280528  0.75210425  0.00391346  1
  S  S10  1  0.96280528  0.74789575  0.50391346  1
  S  S11  1  0.53719472  0.24789575  0.99608654  1
  S  S12  1  0.60433826  0.38150957  0.34967592  1
  S  S13  1  0.89566174  0.88150957  0.15032408  1
  S  S14  1  0.39566174  0.61849043  0.65032408  1
  S  S15  1  0.10433826  0.11849043  0.84967592  1
  S  S16  1  0.60827403  0.11529505  0.64601260  1
  S  S17  1  0.89172597  0.61529505  0.85398740  1
  S  S18  1  0.39172597  0.88470495  0.35398740  1
  S  S19  1  0.10827403  0.38470495  0.14601260  1
  O  O20  1  0.09003420  0.12784887  0.57355073  1
  O  O21  1  0.40996580  0.62784887  0.92644927  1
  O  O22  1  0.90996580  0.87215113  0.42644927  1
  O  O23  1  0.59003420  0.37215113  0.07355073  1
  O  O24  1  0.93879802  0.18914614  0.40239188  1
  O  O25  1  0.56120198  0.68914614  0.09760812  1
  O  O26  1  0.06120198  0.81085386  0.59760812  1
  O  O27  1  0.43879802  0.31085386  0.90239188  1
  O  O28  1  0.17855971  0.32824131  0.44876973  1
  O  O29  1  0.32144029  0.82824131  0.05123027  1
  O  O30  1  0.82144029  0.67175869  0.55123027  1
  O  O31  1  0.67855971  0.17175869  0.94876973  1
  O  O32  1  0.94643818  0.36432597  0.56374256  1
  O  O33  1  0.55356182  0.86432597  0.93625744  1
  O  O34  1  0.05356182  0.63567403  0.43625744  1
  O  O35  1  0.44643818  0.13567403  0.06374256  1
  O  O36  1  0.70907132  0.47846106  0.27906860  1
  O  O37  1  0.79092868  0.97846106  0.22093140  1
  O  O38  1  0.29092868  0.52153894  0.72093140  1
  O  O39  1  0.20907132  0.02153894  0.77906860  1
  O  O40  1  0.43641596  0.41640760  0.32339891  1
  O  O41  1  0.06358404  0.91640760  0.17660109  1
  O  O42  1  0.56358404  0.58359240  0.67660109  1
  O  O43  1  0.93641596  0.08359240  0.82339891  1
  O  O44  1  0.63839205  0.41361116  0.46965998  1
  O  O45  1  0.86160795  0.91361116  0.03034002  1
  O  O46  1  0.36160795  0.58638884  0.53034002  1
  O  O47  1  0.13839205  0.08638884  0.96965998  1
  O  O48  1  0.62838503  0.21459182  0.32573070  1
  O  O49  1  0.87161497  0.71459182  0.17426930  1
  O  O50  1  0.37161497  0.78540818  0.67426930  1
  O  O51  1  0.12838503  0.28540818  0.82573070  1
  O  O52  1  0.63486248  0.00502105  0.73947819  1
  O  O53  1  0.86513752  0.50502105  0.76052181  1
  O  O54  1  0.36513752  0.99497895  0.26052181  1
  O  O55  1  0.13486248  0.49497895  0.23947819  1
  O  O56  1  0.70804993  0.06889724  0.54961809  1
  O  O57  1  0.79195007  0.56889724  0.95038191  1
  O  O58  1  0.29195007  0.93110276  0.45038191  1
  O  O59  1  0.20804993  0.43110276  0.04961809  1
  O  O60  1  0.43769004  0.11253253  0.61386827  1
  O  O61  1  0.06230996  0.61253253  0.88613173  1
  O  O62  1  0.56230996  0.88746747  0.38613173  1
  O  O63  1  0.93769004  0.38746747  0.11386827  1
  O  O64  1  0.65306997  0.27305364  0.68272917  1
  O  O65  1  0.84693003  0.77305364  0.81727083  1
  O  O66  1  0.34693003  0.72694636  0.31727083  1
  O  O67  1  0.15306997  0.22694636  0.18272917  1
