# generated using pymatgen
data_Y3GaO6
_symmetry_space_group_name_H-M   'P 1'
_cell_length_a   5.45711244
_cell_length_b   7.16708708
_cell_length_c   7.16708778
_cell_angle_alpha   102.88228375
_cell_angle_beta   90.00000000
_cell_angle_gamma   90.00000000
_symmetry_Int_Tables_number   1
_chemical_formula_structural   Y3GaO6
_chemical_formula_sum   'Y6 Ga2 O12'
_cell_volume   273.26075994
_cell_formula_units_Z   2
loop_
 _symmetry_equiv_pos_site_id
 _symmetry_equiv_pos_as_xyz
  1  'x, y, z'
loop_
 _atom_site_type_symbol
 _atom_site_label
 _atom_site_symmetry_multiplicity
 _atom_site_fract_x
 _atom_site_fract_y
 _atom_site_fract_z
 _atom_site_occupancy
  Y  Y0  1  0.53153076  0.29846756  0.08822236  1
  Y  Y1  1  0.53153076  0.91177764  0.70153244  1
  Y  Y2  1  0.07781793  0.60198861  0.39801139  1
  Y  Y3  1  0.57781793  0.39801139  0.60198861  1
  Y  Y4  1  0.03153076  0.70153244  0.91177764  1
  Y  Y5  1  0.03153076  0.08822236  0.29846756  1
  Ga  Ga6  1  0.50096362  0.80548489  0.19451511  1
  Ga  Ga7  1  0.00096362  0.19451511  0.80548489  1
  O  O8  1  0.80306170  0.35629431  0.32316657  1
  O  O9  1  0.33863765  0.21485108  0.78514892  1
  O  O10  1  0.82178309  0.10684007  0.57760512  1
  O  O11  1  0.30306170  0.64370569  0.67683343  1
  O  O12  1  0.32178309  0.89315993  0.42239488  1
  O  O13  1  0.30306170  0.32316657  0.35629431  1
  O  O14  1  0.82178309  0.42239488  0.89315993  1
  O  O15  1  0.86060971  0.04035752  0.95964248  1
  O  O16  1  0.32178309  0.57760512  0.10684007  1
  O  O17  1  0.36060971  0.95964248  0.04035752  1
  O  O18  1  0.80306170  0.67683343  0.64370569  1
  O  O19  1  0.83863765  0.78514892  0.21485108  1
