# generated using pymatgen
data_Na6Se2O9
_symmetry_space_group_name_H-M   'P 1'
_cell_length_a   7.92510299
_cell_length_b   14.93984729
_cell_length_c   16.07983681
_cell_angle_alpha   90.00000000
_cell_angle_beta   90.00000000
_cell_angle_gamma   90.00000000
_symmetry_Int_Tables_number   1
_chemical_formula_structural   Na6Se2O9
_chemical_formula_sum   'Na48 Se16 O72'
_cell_volume   1903.84991946
_cell_formula_units_Z   8
loop_
 _symmetry_equiv_pos_site_id
 _symmetry_equiv_pos_as_xyz
  1  'x, y, z'
loop_
 _atom_site_type_symbol
 _atom_site_label
 _atom_site_symmetry_multiplicity
 _atom_site_fract_x
 _atom_site_fract_y
 _atom_site_fract_z
 _atom_site_occupancy
  Na  Na0  1  0.46973996  0.84095412  0.72890005  1
  Na  Na1  1  0.25000000  0.74030817  0.87892687  1
  Na  Na2  1  0.25000000  0.00724569  0.63543926  1
  Na  Na3  1  0.96973996  0.15904588  0.27109995  1
  Na  Na4  1  0.46542565  0.61868950  0.73796511  1
  Na  Na5  1  0.25000000  0.23115728  0.88676147  1
  Na  Na6  1  0.03026004  0.65904588  0.22890005  1
  Na  Na7  1  0.75000000  0.73115728  0.61323853  1
  Na  Na8  1  0.03457435  0.88131050  0.23796511  1
  Na  Na9  1  0.53177124  0.37877844  0.48171891  1
  Na  Na10  1  0.53457435  0.38131050  0.26203489  1
  Na  Na11  1  0.04058426  0.65701276  0.02179751  1
  Na  Na12  1  0.53457435  0.11868950  0.76203489  1
  Na  Na13  1  0.53026004  0.34095412  0.77109995  1
  Na  Na14  1  0.75000000  0.95214536  0.86299204  1
  Na  Na15  1  0.75000000  0.25969183  0.12107313  1
  Na  Na16  1  0.25000000  0.49275431  0.13543926  1
  Na  Na17  1  0.04058426  0.84298724  0.52179751  1
  Na  Na18  1  0.45941574  0.84298724  0.52179751  1
  Na  Na19  1  0.53177124  0.12122156  0.98171891  1
  Na  Na20  1  0.46822876  0.87877844  0.01828109  1
  Na  Na21  1  0.96822876  0.37877844  0.48171891  1
  Na  Na22  1  0.75000000  0.50724569  0.86456074  1
  Na  Na23  1  0.96542565  0.11868950  0.76203489  1
  Na  Na24  1  0.95941574  0.34298724  0.97820249  1
  Na  Na25  1  0.96973996  0.34095412  0.77109995  1
  Na  Na26  1  0.46822876  0.62122156  0.51828109  1
  Na  Na27  1  0.96542565  0.38131050  0.26203489  1
  Na  Na28  1  0.03457435  0.61868950  0.73796511  1
  Na  Na29  1  0.54058426  0.34298724  0.97820249  1
  Na  Na30  1  0.75000000  0.54785464  0.36299204  1
  Na  Na31  1  0.25000000  0.04785464  0.13700796  1
  Na  Na32  1  0.46542565  0.88131050  0.23796511  1
  Na  Na33  1  0.54058426  0.15701276  0.47820249  1
  Na  Na34  1  0.25000000  0.75969183  0.37892687  1
  Na  Na35  1  0.75000000  0.76884272  0.11323853  1
  Na  Na36  1  0.25000000  0.45214536  0.63700796  1
  Na  Na37  1  0.25000000  0.26884272  0.38676147  1
  Na  Na38  1  0.03177124  0.87877844  0.01828109  1
  Na  Na39  1  0.03177124  0.62122156  0.51828109  1
  Na  Na40  1  0.03026004  0.84095412  0.72890005  1
  Na  Na41  1  0.75000000  0.24030817  0.62107313  1
  Na  Na42  1  0.75000000  0.99275431  0.36456074  1
  Na  Na43  1  0.53026004  0.15904588  0.27109995  1
  Na  Na44  1  0.46973996  0.65904588  0.22890005  1
  Na  Na45  1  0.95941574  0.15701276  0.47820249  1
  Na  Na46  1  0.45941574  0.65701276  0.02179751  1
  Na  Na47  1  0.96822876  0.12122156  0.98171891  1
  Se  Se48  1  0.75000000  0.73793699  0.87350249  1
  Se  Se49  1  0.75000000  0.02066956  0.13295256  1
  Se  Se50  1  0.25000000  0.48345201  0.88205778  1
  Se  Se51  1  0.75000000  0.47933044  0.63295256  1
  Se  Se52  1  0.25000000  0.77308606  0.12835241  1
  Se  Se53  1  0.75000000  0.51654799  0.11794222  1
  Se  Se54  1  0.75000000  0.27308606  0.37164759  1
  Se  Se55  1  0.25000000  0.01654799  0.38205778  1
  Se  Se56  1  0.75000000  0.22691394  0.87164759  1
  Se  Se57  1  0.75000000  0.98345201  0.61794222  1
  Se  Se58  1  0.25000000  0.97933044  0.86704744  1
  Se  Se59  1  0.25000000  0.26206301  0.12649751  1
  Se  Se60  1  0.75000000  0.76206301  0.37350249  1
  Se  Se61  1  0.25000000  0.72691394  0.62835241  1
  Se  Se62  1  0.25000000  0.52066956  0.36704744  1
  Se  Se63  1  0.25000000  0.23793699  0.62649751  1
  O  O64  1  0.75000000  0.53764676  0.54379494  1
  O  O65  1  0.75000000  0.96235324  0.04379494  1
  O  O66  1  0.25000000  0.60155486  0.62845663  1
  O  O67  1  0.25000000  0.77298946  0.01276122  1
  O  O68  1  0.75000000  0.35250079  0.87126540  1
  O  O69  1  0.07706641  0.01613886  0.32168800  1
  O  O70  1  0.07787010  0.32755304  0.12521115  1
  O  O71  1  0.07787010  0.17244696  0.62521115  1
  O  O72  1  0.25000000  0.89844514  0.12845663  1
  O  O73  1  0.75000000  0.55007838  0.71426655  1
  O  O74  1  0.75000000  0.27298946  0.48723878  1
  O  O75  1  0.75000000  0.80669147  0.95618117  1
  O  O76  1  0.75000000  0.89048036  0.55881918  1
  O  O77  1  0.07623407  0.91463439  0.86472039  1
  O  O78  1  0.75000000  0.27206209  0.25647935  1
  O  O79  1  0.25000000  0.64749921  0.12873460  1
  O  O80  1  0.98192550  0.27354468  0.37214655  1
  O  O81  1  0.25000000  0.19330853  0.04381883  1
  O  O82  1  0.57706641  0.98386114  0.67831200  1
  O  O83  1  0.25000000  0.30669147  0.54381883  1
  O  O84  1  0.25000000  0.92721681  0.44484106  1
  O  O85  1  0.57787010  0.67244696  0.87478885  1
  O  O86  1  0.25000000  0.57278319  0.94484106  1
  O  O87  1  0.25000000  0.03764676  0.95620506  1
  O  O88  1  0.75000000  0.94992162  0.21426655  1
  O  O89  1  0.75000000  0.60951964  0.05881918  1
  O  O90  1  0.57623407  0.08536561  0.13527961  1
  O  O91  1  0.25000000  0.72701054  0.51276122  1
  O  O92  1  0.25000000  0.44992162  0.28573345  1
  O  O93  1  0.25000000  0.72793791  0.74352065  1
  O  O94  1  0.92293359  0.98386114  0.67831200  1
  O  O95  1  0.75000000  0.22793791  0.75647935  1
  O  O96  1  0.75000000  0.69330853  0.45618117  1
  O  O97  1  0.25000000  0.10951964  0.44118082  1
  O  O98  1  0.25000000  0.46235324  0.45620506  1
  O  O99  1  0.75000000  0.22701054  0.98723878  1
  O  O100  1  0.25000000  0.05007838  0.78573345  1
  O  O101  1  0.92376593  0.08536561  0.13527961  1
  O  O102  1  0.75000000  0.80286256  0.78766008  1
  O  O103  1  0.75000000  0.39844514  0.37154337  1
  O  O104  1  0.42293359  0.01613886  0.32168800  1
  O  O105  1  0.01807450  0.77354468  0.12785345  1
  O  O106  1  0.25000000  0.85250079  0.62873460  1
  O  O107  1  0.25000000  0.30286256  0.71233992  1
  O  O108  1  0.07623407  0.58536561  0.36472039  1
  O  O109  1  0.25000000  0.19713744  0.21233992  1
  O  O110  1  0.92212990  0.82755304  0.37478885  1
  O  O111  1  0.92293359  0.51613886  0.17831200  1
  O  O112  1  0.75000000  0.10155486  0.87154337  1
  O  O113  1  0.75000000  0.14749921  0.37126540  1
  O  O114  1  0.42293359  0.48386114  0.82168800  1
  O  O115  1  0.25000000  0.77206209  0.24352065  1
  O  O116  1  0.51807450  0.22645532  0.87214655  1
  O  O117  1  0.75000000  0.42721681  0.05515894  1
  O  O118  1  0.07706641  0.48386114  0.82168800  1
  O  O119  1  0.01807450  0.72645532  0.62785345  1
  O  O120  1  0.42212990  0.32755304  0.12521115  1
  O  O121  1  0.51807450  0.27354468  0.37214655  1
  O  O122  1  0.42376593  0.58536561  0.36472039  1
  O  O123  1  0.42212990  0.17244696  0.62521115  1
  O  O124  1  0.92212990  0.67244696  0.87478885  1
  O  O125  1  0.98192550  0.22645532  0.87214655  1
  O  O126  1  0.57787010  0.82755304  0.37478885  1
  O  O127  1  0.42376593  0.91463439  0.86472039  1
  O  O128  1  0.57623407  0.41463439  0.63527961  1
  O  O129  1  0.48192550  0.77354468  0.12785345  1
  O  O130  1  0.75000000  0.69713744  0.28766008  1
  O  O131  1  0.92376593  0.41463439  0.63527961  1
  O  O132  1  0.48192550  0.72645532  0.62785345  1
  O  O133  1  0.57706641  0.51613886  0.17831200  1
  O  O134  1  0.25000000  0.39048036  0.94118082  1
  O  O135  1  0.75000000  0.07278319  0.55515894  1
