# generated using pymatgen
data_NaGa(TeO3)2
_symmetry_space_group_name_H-M   'P 1'
_cell_length_a   7.92105890
_cell_length_b   10.48827741
_cell_length_c   13.59140622
_cell_angle_alpha   90.00000000
_cell_angle_beta   90.00000000
_cell_angle_gamma   90.00000000
_symmetry_Int_Tables_number   1
_chemical_formula_structural   NaGa(TeO3)2
_chemical_formula_sum   'Na8 Ga8 Te16 O48'
_cell_volume   1129.15042217
_cell_formula_units_Z   8
loop_
 _symmetry_equiv_pos_site_id
 _symmetry_equiv_pos_as_xyz
  1  'x, y, z'
loop_
 _atom_site_type_symbol
 _atom_site_label
 _atom_site_symmetry_multiplicity
 _atom_site_fract_x
 _atom_site_fract_y
 _atom_site_fract_z
 _atom_site_occupancy
  Na  Na0  1  0.32649605  0.75653485  0.14295729  1
  Na  Na1  1  0.82649605  0.24346515  0.35704271  1
  Na  Na2  1  0.67350395  0.24346515  0.85704271  1
  Na  Na3  1  0.67350395  0.74346515  0.64295729  1
  Na  Na4  1  0.82649605  0.74346515  0.14295729  1
  Na  Na5  1  0.32649605  0.25653485  0.35704271  1
  Na  Na6  1  0.17350395  0.75653485  0.64295729  1
  Na  Na7  1  0.17350395  0.25653485  0.85704271  1
  Ga  Ga8  1  0.69439328  0.50244494  0.98009345  1
  Ga  Ga9  1  0.30560672  0.49755506  0.01990655  1
  Ga  Ga10  1  0.80560672  0.00244494  0.01990655  1
  Ga  Ga11  1  0.30560672  0.99755506  0.48009345  1
  Ga  Ga12  1  0.69439328  0.00244494  0.51990655  1
  Ga  Ga13  1  0.19439328  0.49755506  0.51990655  1
  Ga  Ga14  1  0.80560672  0.50244494  0.48009345  1
  Ga  Ga15  1  0.19439328  0.99755506  0.98009345  1
  Te  Te16  1  0.45044526  0.71144648  0.42561005  1
  Te  Te17  1  0.07987679  0.01005638  0.23261396  1
  Te  Te18  1  0.92012321  0.48994362  0.73261396  1
  Te  Te19  1  0.57987679  0.98994362  0.26738604  1
  Te  Te20  1  0.42012321  0.51005638  0.76738604  1
  Te  Te21  1  0.57987679  0.48994362  0.23261396  1
  Te  Te22  1  0.04955474  0.21144648  0.57438995  1
  Te  Te23  1  0.04955474  0.71144648  0.92561005  1
  Te  Te24  1  0.92012321  0.98994362  0.76738604  1
  Te  Te25  1  0.95044526  0.78855352  0.42561005  1
  Te  Te26  1  0.07987679  0.51005638  0.26738604  1
  Te  Te27  1  0.45044526  0.21144648  0.07438995  1
  Te  Te28  1  0.54955474  0.28855352  0.57438995  1
  Te  Te29  1  0.42012321  0.01005638  0.73261396  1
  Te  Te30  1  0.54955474  0.78855352  0.92561005  1
  Te  Te31  1  0.95044526  0.28855352  0.07438995  1
  O  O32  1  0.13178748  0.12427280  0.45864619  1
  O  O33  1  0.56986083  0.31082725  0.23362097  1
  O  O34  1  0.49833752  0.87219494  0.49204124  1
  O  O35  1  0.26247017  0.48053301  0.87290007  1
  O  O36  1  0.81910485  0.16085068  0.54804299  1
  O  O37  1  0.87074063  0.97300449  0.16329101  1
  O  O38  1  0.73752983  0.51946699  0.12709993  1
  O  O39  1  0.76247017  0.51946699  0.62709993  1
  O  O40  1  0.87074063  0.47300449  0.33670899  1
  O  O41  1  0.36821252  0.12427280  0.95864619  1
  O  O42  1  0.13178748  0.62427280  0.04135381  1
  O  O43  1  0.93013917  0.81082725  0.76637903  1
  O  O44  1  0.63178748  0.37572720  0.45864619  1
  O  O45  1  0.81910485  0.66085068  0.95195701  1
  O  O46  1  0.68089515  0.66085068  0.45195701  1
  O  O47  1  0.31910485  0.33914932  0.54804299  1
  O  O48  1  0.68089515  0.16085068  0.04804299  1
  O  O49  1  0.86821252  0.37572720  0.95864619  1
  O  O50  1  0.00166248  0.87219494  0.99204124  1
  O  O51  1  0.36821252  0.62427280  0.54135381  1
  O  O52  1  0.18089515  0.83914932  0.45195701  1
  O  O53  1  0.37074063  0.52699551  0.16329101  1
  O  O54  1  0.12925937  0.02699551  0.83670899  1
  O  O55  1  0.99833752  0.12780506  0.00795876  1
  O  O56  1  0.23752983  0.98053301  0.12709993  1
  O  O57  1  0.63178748  0.87572720  0.04135381  1
  O  O58  1  0.49833752  0.37219494  0.00795876  1
  O  O59  1  0.26247017  0.98053301  0.62709993  1
  O  O60  1  0.31910485  0.83914932  0.95195701  1
  O  O61  1  0.93013917  0.31082725  0.73362097  1
  O  O62  1  0.56986083  0.81082725  0.26637903  1
  O  O63  1  0.43013917  0.68917275  0.76637903  1
  O  O64  1  0.23752983  0.48053301  0.37290007  1
  O  O65  1  0.99833752  0.62780506  0.49204124  1
  O  O66  1  0.37074063  0.02699551  0.33670899  1
  O  O67  1  0.62925937  0.47300449  0.83670899  1
  O  O68  1  0.50166248  0.62780506  0.99204124  1
  O  O69  1  0.06986083  0.18917275  0.23362097  1
  O  O70  1  0.00166248  0.37219494  0.50795876  1
  O  O71  1  0.73752983  0.01946699  0.37290007  1
  O  O72  1  0.50166248  0.12780506  0.50795876  1
  O  O73  1  0.06986083  0.68917275  0.26637903  1
  O  O74  1  0.12925937  0.52699551  0.66329101  1
  O  O75  1  0.86821252  0.87572720  0.54135381  1
  O  O76  1  0.62925937  0.97300449  0.66329101  1
  O  O77  1  0.43013917  0.18917275  0.73362097  1
  O  O78  1  0.76247017  0.01946699  0.87290007  1
  O  O79  1  0.18089515  0.33914932  0.04804299  1
