# generated using pymatgen
data_TlHgAsS3
_symmetry_space_group_name_H-M   'P 1'
_cell_length_a   6.28974147
_cell_length_b   6.28967297
_cell_length_c   16.68005054
_cell_angle_alpha   90.00000000
_cell_angle_beta   90.00000000
_cell_angle_gamma   96.11284156
_symmetry_Int_Tables_number   1
_chemical_formula_structural   TlHgAsS3
_chemical_formula_sum   'Tl4 Hg4 As4 S12'
_cell_volume   656.11780185
_cell_formula_units_Z   4
loop_
 _symmetry_equiv_pos_site_id
 _symmetry_equiv_pos_as_xyz
  1  'x, y, z'
loop_
 _atom_site_type_symbol
 _atom_site_label
 _atom_site_symmetry_multiplicity
 _atom_site_fract_x
 _atom_site_fract_y
 _atom_site_fract_z
 _atom_site_occupancy
  Tl  Tl0  1  0.33357585  0.16643791  0.44936604  1
  Tl  Tl1  1  0.66642415  0.83356209  0.55063396  1
  Tl  Tl2  1  0.83357585  0.66643791  0.05063396  1
  Tl  Tl3  1  0.16642415  0.33356209  0.94936604  1
  Hg  Hg4  1  0.07808702  0.92238174  0.75000533  1
  Hg  Hg5  1  0.92191298  0.07761826  0.24999467  1
  Hg  Hg6  1  0.42191298  0.57761826  0.25000533  1
  Hg  Hg7  1  0.57808702  0.42238174  0.74999467  1
  As  As8  1  0.57327977  0.92674912  0.89037116  1
  As  As9  1  0.92672023  0.57325088  0.39037116  1
  As  As10  1  0.42672023  0.07325088  0.10962884  1
  As  As11  1  0.07327977  0.42674912  0.60962884  1
  S  S12  1  0.86281072  0.20811978  0.39118703  1
  S  S13  1  0.70823344  0.36239830  0.60881034  1
  S  S14  1  0.36281072  0.70811978  0.10881297  1
  S  S15  1  0.29176656  0.63760170  0.39118966  1
  S  S16  1  0.13718928  0.79188022  0.60881297  1
  S  S17  1  0.14511727  0.35472613  0.73860179  1
  S  S18  1  0.64511727  0.85472613  0.76139821  1
  S  S19  1  0.35488273  0.14527387  0.23860179  1
  S  S20  1  0.85488273  0.64527387  0.26139821  1
  S  S21  1  0.79176656  0.13760170  0.10881034  1
  S  S22  1  0.20823344  0.86239830  0.89118966  1
  S  S23  1  0.63718928  0.29188022  0.89118703  1
