# generated using pymatgen
data_Sr2Co2O5
_symmetry_space_group_name_H-M   'P 1'
_cell_length_a   5.43795911
_cell_length_b   5.53068709
_cell_length_c   9.03852054
_cell_angle_alpha   108.25579752
_cell_angle_beta   107.95365830
_cell_angle_gamma   88.60521169
_symmetry_Int_Tables_number   1
_chemical_formula_structural   Sr2Co2O5
_chemical_formula_sum   'Sr4 Co4 O10'
_cell_volume   244.80037862
_cell_formula_units_Z   2
loop_
 _symmetry_equiv_pos_site_id
 _symmetry_equiv_pos_as_xyz
  1  'x, y, z'
loop_
 _atom_site_type_symbol
 _atom_site_label
 _atom_site_symmetry_multiplicity
 _atom_site_fract_x
 _atom_site_fract_y
 _atom_site_fract_z
 _atom_site_occupancy
  Sr  Sr0  1  0.60274398  0.11968453  0.22156490  1
  Sr  Sr1  1  0.38032905  0.88025900  0.77881980  1
  Sr  Sr2  1  0.10147975  0.60140976  0.22118048  1
  Sr  Sr3  1  0.88119095  0.39813854  0.77843582  1
  Co  Co4  1  0.98987216  0.99990896  0.99994105  1
  Co  Co5  1  0.48991803  0.49996432  0.00005217  1
  Co  Co6  1  0.27323205  0.18689295  0.49999511  1
  Co  Co7  1  0.77520684  0.81269561  0.50000239  1
  O  O8  1  0.73804390  0.24792031  0.99297807  1
  O  O9  1  0.74605094  0.75265800  0.00845538  1
  O  O10  1  0.23740474  0.24392073  0.99156255  1
  O  O11  1  0.24492053  0.75499261  0.00699880  1
  O  O12  1  0.12154568  0.17483313  0.28805824  1
  O  O13  1  0.83410664  0.82361107  0.71140155  1
  O  O14  1  0.62267880  0.61220363  0.28854684  1
  O  O15  1  0.33360110  0.38674537  0.71200885  1
  O  O16  1  0.62577910  0.13136088  0.49999862  1
  O  O17  1  0.12589976  0.87280059  0.49999938  1
