# generated using pymatgen
data_Na4Si3(SnO6)2
_symmetry_space_group_name_H-M   'P 1'
_cell_length_a   9.10439541
_cell_length_b   9.10439597
_cell_length_c   9.10439551
_cell_angle_alpha   60.44551322
_cell_angle_beta   60.44551120
_cell_angle_gamma   60.44551213
_symmetry_Int_Tables_number   1
_chemical_formula_structural   Na4Si3(SnO6)2
_chemical_formula_sum   'Na8 Si6 Sn4 O24'
_cell_volume   539.00245611
_cell_formula_units_Z   2
loop_
 _symmetry_equiv_pos_site_id
 _symmetry_equiv_pos_as_xyz
  1  'x, y, z'
loop_
 _atom_site_type_symbol
 _atom_site_label
 _atom_site_symmetry_multiplicity
 _atom_site_fract_x
 _atom_site_fract_y
 _atom_site_fract_z
 _atom_site_occupancy
  Na  Na0  1  0.00000000  0.00000000  0.00000000  1
  Na  Na1  1  0.38324297  0.75000000  0.11675703  1
  Na  Na2  1  0.11675703  0.38324297  0.75000000  1
  Na  Na3  1  0.75000000  0.11675703  0.38324297  1
  Na  Na4  1  0.25000000  0.88324297  0.61675703  1
  Na  Na5  1  0.50000000  0.50000000  0.50000000  1
  Na  Na6  1  0.88324297  0.61675703  0.25000000  1
  Na  Na7  1  0.61675703  0.25000000  0.88324297  1
  Si  Si8  1  0.75000000  0.45568040  0.04431960  1
  Si  Si9  1  0.95568040  0.25000000  0.54431960  1
  Si  Si10  1  0.25000000  0.54431960  0.95568040  1
  Si  Si11  1  0.45568040  0.04431960  0.75000000  1
  Si  Si12  1  0.54431960  0.95568040  0.25000000  1
  Si  Si13  1  0.04431960  0.75000000  0.45568040  1
  Sn  Sn14  1  0.64664293  0.64664293  0.64664293  1
  Sn  Sn15  1  0.14664293  0.14664293  0.14664293  1
  Sn  Sn16  1  0.85335707  0.85335707  0.85335707  1
  Sn  Sn17  1  0.35335707  0.35335707  0.35335707  1
  O  O18  1  0.13024018  0.28080906  0.51993439  1
  O  O19  1  0.07793743  0.73025816  0.93569672  1
  O  O20  1  0.06430328  0.92206257  0.26974184  1
  O  O21  1  0.36975982  0.98006561  0.21919094  1
  O  O22  1  0.78080906  0.63024018  0.01993439  1
  O  O23  1  0.01993439  0.78080906  0.63024018  1
  O  O24  1  0.21919094  0.36975982  0.98006561  1
  O  O25  1  0.98006561  0.21919094  0.36975982  1
  O  O26  1  0.76974184  0.42206257  0.56430328  1
  O  O27  1  0.42206257  0.56430328  0.76974184  1
  O  O28  1  0.93569672  0.07793743  0.73025816  1
  O  O29  1  0.86975982  0.71919094  0.48006561  1
  O  O30  1  0.43569672  0.23025816  0.57793743  1
  O  O31  1  0.73025816  0.93569672  0.07793743  1
  O  O32  1  0.23025816  0.57793743  0.43569672  1
  O  O33  1  0.28080906  0.51993439  0.13024018  1
  O  O34  1  0.51993439  0.13024018  0.28080906  1
  O  O35  1  0.92206257  0.26974184  0.06430328  1
  O  O36  1  0.57793743  0.43569672  0.23025816  1
  O  O37  1  0.56430328  0.76974184  0.42206257  1
  O  O38  1  0.26974184  0.06430328  0.92206257  1
  O  O39  1  0.48006561  0.86975982  0.71919094  1
  O  O40  1  0.71919094  0.48006561  0.86975982  1
  O  O41  1  0.63024018  0.01993439  0.78080906  1
