# generated using pymatgen
data_Na6Si8O19
_symmetry_space_group_name_H-M   'P 1'
_cell_length_a   4.96282508
_cell_length_b   15.58733927
_cell_length_c   23.76076085
_cell_angle_alpha   90.00000000
_cell_angle_beta   90.00000000
_cell_angle_gamma   90.11526719
_symmetry_Int_Tables_number   1
_chemical_formula_structural   Na6Si8O19
_chemical_formula_sum   'Na24 Si32 O76'
_cell_volume   1838.06312069
_cell_formula_units_Z   4
loop_
 _symmetry_equiv_pos_site_id
 _symmetry_equiv_pos_as_xyz
  1  'x, y, z'
loop_
 _atom_site_type_symbol
 _atom_site_label
 _atom_site_symmetry_multiplicity
 _atom_site_fract_x
 _atom_site_fract_y
 _atom_site_fract_z
 _atom_site_occupancy
  Na  Na0  1  0.73958863  0.50761185  0.22906158  1
  Na  Na1  1  0.23397022  0.57241833  0.48336819  1
  Na  Na2  1  0.73925833  0.47209215  0.04994297  1
  Na  Na3  1  0.76280093  0.60529505  0.40042305  1
  Na  Na4  1  0.73556897  0.04317130  0.63886709  1
  Na  Na5  1  0.76602978  0.92758167  0.98336819  1
  Na  Na6  1  0.26074167  0.02790785  0.54994297  1
  Na  Na7  1  0.26041137  0.99238815  0.72906158  1
  Na  Na8  1  0.73493926  0.96797078  0.81994244  1
  Na  Na9  1  0.73925833  0.97209215  0.45005703  1
  Na  Na10  1  0.23719907  0.89470495  0.90042305  1
  Na  Na11  1  0.73958863  0.00761185  0.27093842  1
  Na  Na12  1  0.23719907  0.39470495  0.59957695  1
  Na  Na13  1  0.73556897  0.54317130  0.86113291  1
  Na  Na14  1  0.26074167  0.52790785  0.95005703  1
  Na  Na15  1  0.76280093  0.10529505  0.09957695  1
  Na  Na16  1  0.76602978  0.42758167  0.51663181  1
  Na  Na17  1  0.26506074  0.03202922  0.18005756  1
  Na  Na18  1  0.26041137  0.49238815  0.77093842  1
  Na  Na19  1  0.73493926  0.46797078  0.68005756  1
  Na  Na20  1  0.26506074  0.53202922  0.31994244  1
  Na  Na21  1  0.23397022  0.07241833  0.01663181  1
  Na  Na22  1  0.26443103  0.95682870  0.36113291  1
  Na  Na23  1  0.26443103  0.45682870  0.13886709  1
  Si  Si24  1  0.70482328  0.25215169  0.28400047  1
  Si  Si25  1  0.79738884  0.36192301  0.80589608  1
  Si  Si26  1  0.30133865  0.73381294  0.39494908  1
  Si  Si27  1  0.29517672  0.74784831  0.71599953  1
  Si  Si28  1  0.19690136  0.58850910  0.63543873  1
  Si  Si29  1  0.21011785  0.85662840  0.49314163  1
  Si  Si30  1  0.21011785  0.35662840  0.00685837  1
  Si  Si31  1  0.70041442  0.82582629  0.56598976  1
  Si  Si32  1  0.29958558  0.67417371  0.06598976  1
  Si  Si33  1  0.30257125  0.87989156  0.06164467  1
  Si  Si34  1  0.70041442  0.32582629  0.93401024  1
  Si  Si35  1  0.19824150  0.17713141  0.65855093  1
  Si  Si36  1  0.80309864  0.41149090  0.36456127  1
  Si  Si37  1  0.78988215  0.64337160  0.99314163  1
  Si  Si38  1  0.78988215  0.14337160  0.50685837  1
  Si  Si39  1  0.79738884  0.86192301  0.69410392  1
  Si  Si40  1  0.69742875  0.12010844  0.93835533  1
  Si  Si41  1  0.20261116  0.13807699  0.30589608  1
  Si  Si42  1  0.69866135  0.76618706  0.89494908  1
  Si  Si43  1  0.69742875  0.62010844  0.56164467  1
  Si  Si44  1  0.30257125  0.37989156  0.43835533  1
  Si  Si45  1  0.69866135  0.26618706  0.60505092  1
  Si  Si46  1  0.80175850  0.82286859  0.34144907  1
  Si  Si47  1  0.19690136  0.08850910  0.86456127  1
  Si  Si48  1  0.19824150  0.67713141  0.84144907  1
  Si  Si49  1  0.80309864  0.91149090  0.13543873  1
  Si  Si50  1  0.80175850  0.32286859  0.15855093  1
  Si  Si51  1  0.29958558  0.17417371  0.43401024  1
  Si  Si52  1  0.20261116  0.63807699  0.19410392  1
  Si  Si53  1  0.70482328  0.75215169  0.21599953  1
  Si  Si54  1  0.30133865  0.23381294  0.10505092  1
  Si  Si55  1  0.29517672  0.24784831  0.78400047  1
  O  O56  1  0.73531931  0.99297267  0.17368916  1
  O  O57  1  0.27084402  0.77666366  0.07108181  1
  O  O58  1  0.89146695  0.85986459  0.51453064  1
  O  O59  1  0.73345562  0.55844821  0.95782950  1
  O  O60  1  0.87911168  0.70219365  0.85427085  1
  O  O61  1  0.73531931  0.49297267  0.32631084  1
  O  O62  1  0.73897593  0.73536778  0.96111405  1
  O  O63  1  0.27023388  0.54740278  0.22199352  1
  O  O64  1  0.27084402  0.27666366  0.42891819  1
  O  O65  1  0.10853305  0.64013541  0.01453064  1
  O  O66  1  0.77756420  0.31669988  0.33520220  1
  O  O67  1  0.75841645  0.36680779  0.60894469  1
  O  O68  1  0.27023388  0.04740278  0.27800648  1
  O  O69  1  0.37869989  0.74749273  0.87791145  1
  O  O70  1  0.61745363  0.40712468  0.42258619  1
  O  O71  1  0.72915598  0.72333634  0.57108181  1
  O  O72  1  0.72976612  0.45259722  0.77800648  1
  O  O73  1  0.25168794  0.57802702  0.85480770  1
  O  O74  1  0.37869989  0.24749273  0.62208855  1
  O  O75  1  0.26468069  0.50702733  0.67368916  1
  O  O76  1  0.60745946  0.77988248  0.71219646  1
  O  O77  1  0.22243580  0.18330012  0.83520220  1
  O  O78  1  0.39081226  0.85524946  0.55216669  1
  O  O79  1  0.38254637  0.59287532  0.57741381  1
  O  O80  1  0.25168794  0.07802702  0.64519230  1
  O  O81  1  0.72915598  0.22333634  0.92891819  1
  O  O82  1  0.73897593  0.23536778  0.53888595  1
  O  O83  1  0.75012056  0.80370095  0.27429838  1
  O  O84  1  0.78755534  0.87312515  0.62458722  1
  O  O85  1  0.10964011  0.83471641  0.71164225  1
  O  O86  1  0.26468069  0.00702733  0.82631084  1
  O  O87  1  0.22243580  0.68330012  0.66479780  1
  O  O88  1  0.11637835  0.92377642  0.11214343  1
  O  O89  1  0.39254054  0.22011752  0.28780354  1
  O  O90  1  0.26102407  0.76463222  0.46111405  1
  O  O91  1  0.76199257  0.08373757  -0.00032514  1
  O  O92  1  0.24158355  0.63319221  0.39105531  1
  O  O93  1  0.62130011  0.75250727  0.37791145  1
  O  O94  1  0.24987944  0.69629905  0.77429838  1
  O  O95  1  0.12088832  0.79780635  0.35427085  1
  O  O96  1  0.62130011  0.25250727  0.12208855  1
  O  O97  1  0.11637835  0.42377642  0.38785657  1
  O  O98  1  0.23800743  0.91626243  1.00032514  1
  O  O99  1  0.76199257  0.58373757  0.50032514  1
  O  O100  1  0.24987944  0.19629905  0.72570162  1
  O  O101  1  0.12088832  0.29780635  0.14572915  1
  O  O102  1  0.39081226  0.35524946  0.94783331  1
  O  O103  1  0.72976612  0.95259722  0.72199352  1
  O  O104  1  0.88362165  0.07622358  0.88785657  1
  O  O105  1  0.10964011  0.33471641  0.78835775  1
  O  O106  1  0.77756420  0.81669988  0.16479780  1
  O  O107  1  0.26654438  0.94155179  0.45782950  1
  O  O108  1  0.61745363  0.90712468  0.07741381  1
  O  O109  1  0.87911168  0.20219365  0.64572915  1
  O  O110  1  0.24158355  0.13319221  0.10894469  1
  O  O111  1  0.89146695  0.35986459  0.98546936  1
  O  O112  1  0.74831206  0.42197298  0.14519230  1
  O  O113  1  0.89035989  0.66528359  0.21164225  1
  O  O114  1  0.78755534  0.37312515  0.87541278  1
  O  O115  1  0.60745946  0.27988248  0.78780354  1
  O  O116  1  0.21244466  0.62687485  0.12458722  1
  O  O117  1  0.21244466  0.12687485  0.37541278  1
  O  O118  1  0.73345562  0.05844821  0.54217050  1
  O  O119  1  0.26654438  0.44155179  0.04217050  1
  O  O120  1  0.74831206  0.92197298  0.35480770  1
  O  O121  1  0.23800743  0.41626243  0.49967486  1
  O  O122  1  0.75012056  0.30370095  0.22570162  1
  O  O123  1  0.60918774  0.14475054  0.44783331  1
  O  O124  1  0.75841645  0.86680779  0.89105531  1
  O  O125  1  0.88362165  0.57622358  0.61214343  1
  O  O126  1  0.10853305  0.14013541  0.48546936  1
  O  O127  1  0.89035989  0.16528359  0.28835775  1
  O  O128  1  0.39254054  0.72011752  0.21219646  1
  O  O129  1  0.60918774  0.64475054  0.05216669  1
  O  O130  1  0.38254637  0.09287532  0.92258619  1
  O  O131  1  0.26102407  0.26463222  0.03888595  1
