# generated using pymatgen
data_Bi(WO4)2
_symmetry_space_group_name_H-M   'P 1'
_cell_length_a   5.37379106
_cell_length_b   5.97118215
_cell_length_c   7.18935339
_cell_angle_alpha   121.85470382
_cell_angle_beta   116.81876982
_cell_angle_gamma   88.95344511
_symmetry_Int_Tables_number   1
_chemical_formula_structural   Bi(WO4)2
_chemical_formula_sum   'Bi1 W2 O8'
_cell_volume   167.35402612
_cell_formula_units_Z   1
loop_
 _symmetry_equiv_pos_site_id
 _symmetry_equiv_pos_as_xyz
  1  'x, y, z'
loop_
 _atom_site_type_symbol
 _atom_site_label
 _atom_site_symmetry_multiplicity
 _atom_site_fract_x
 _atom_site_fract_y
 _atom_site_fract_z
 _atom_site_occupancy
  Bi  Bi0  1  0.12499924  0.22319690  0.09990418  1
  W  W1  1  0.89092395  0.40836564  0.61088012  1
  W  W2  1  0.35837367  0.03808197  0.58851472  1
  O  O3  1  0.12833988  0.75472030  0.86663023  1
  O  O4  1  0.62716938  0.45916219  0.37663766  1
  O  O5  1  0.16002544  0.21555892  0.77539414  1
  O  O6  1  0.54556383  0.03991464  0.40851831  1
  O  O7  1  0.62255360  0.98763261  0.82285484  1
  O  O8  1  0.12129590  0.69160258  0.33286031  1
  O  O9  1  0.08910038  0.23066478  0.42385604  1
  O  O10  1  0.70331573  0.40672847  0.79056545  1
