# generated using pymatgen
data_Sn(SeO3)2
_symmetry_space_group_name_H-M   'P 1'
_cell_length_a   4.89503436
_cell_length_b   7.03524957
_cell_length_c   8.70923026
_cell_angle_alpha   90.00000000
_cell_angle_beta   90.00000000
_cell_angle_gamma   109.03948099
_symmetry_Int_Tables_number   1
_chemical_formula_structural   Sn(SeO3)2
_chemical_formula_sum   'Sn2 Se4 O12'
_cell_volume   283.51884562
_cell_formula_units_Z   2
loop_
 _symmetry_equiv_pos_site_id
 _symmetry_equiv_pos_as_xyz
  1  'x, y, z'
loop_
 _atom_site_type_symbol
 _atom_site_label
 _atom_site_symmetry_multiplicity
 _atom_site_fract_x
 _atom_site_fract_y
 _atom_site_fract_z
 _atom_site_occupancy
  Sn  Sn0  1  0.00000000  0.50000000  0.50000000  1
  Sn  Sn1  1  0.50000000  0.00000000  0.00000000  1
  Se  Se2  1  0.82559612  0.68537116  0.85160299  1
  Se  Se3  1  0.32559612  0.18537116  0.64839701  1
  Se  Se4  1  0.17440388  0.31462884  0.14839701  1
  Se  Se5  1  0.67440388  0.81462884  0.35160299  1
  O  O6  1  0.15575955  0.74114027  0.94233656  1
  O  O7  1  0.07791890  0.30258337  0.34120978  1
  O  O8  1  0.23624303  0.08414910  0.15436922  1
  O  O9  1  0.26375697  0.41585090  0.65436922  1
  O  O10  1  0.84424045  0.25885973  0.05766344  1
  O  O11  1  0.65575955  0.24114027  0.55766344  1
  O  O12  1  0.76375697  0.91585090  0.84563078  1
  O  O13  1  0.42208110  0.19741663  0.84120978  1
  O  O14  1  0.57791890  0.80258337  0.15879022  1
  O  O15  1  0.34424045  0.75885973  0.44233656  1
  O  O16  1  0.92208110  0.69741663  0.65879022  1
  O  O17  1  0.73624303  0.58414910  0.34563078  1
