# generated using pymatgen
data_AlCo3F15
_symmetry_space_group_name_H-M   'P 1'
_cell_length_a   9.15854857
_cell_length_b   5.87068028
_cell_length_c   10.68657704
_cell_angle_alpha   90.00000000
_cell_angle_beta   90.00000000
_cell_angle_gamma   105.43093777
_symmetry_Int_Tables_number   1
_chemical_formula_structural   AlCo3F15
_chemical_formula_sum   'Al2 Co6 F30'
_cell_volume   553.87154502
_cell_formula_units_Z   2
loop_
 _symmetry_equiv_pos_site_id
 _symmetry_equiv_pos_as_xyz
  1  'x, y, z'
loop_
 _atom_site_type_symbol
 _atom_site_label
 _atom_site_symmetry_multiplicity
 _atom_site_fract_x
 _atom_site_fract_y
 _atom_site_fract_z
 _atom_site_occupancy
  Al  Al0  1  0.91049752  0.44065290  0.25000000  1
  Al  Al1  1  0.42283548  0.55934710  0.75000000  1
  Co  Co2  1  0.16666700  0.00000000  0.50000000  1
  Co  Co3  1  0.50510344  0.01663141  0.49956576  1
  Co  Co4  1  0.82822956  0.98336859  0.50043424  1
  Co  Co5  1  0.16666700  0.00000000  0.00000000  1
  Co  Co6  1  0.50510344  0.01663141  0.00043424  1
  Co  Co7  1  0.82822956  0.98336859  0.99956576  1
  F  F8  1  0.09635497  0.57861737  0.25000000  1
  F  F9  1  0.44153117  0.64623882  0.25000000  1
  F  F10  1  0.78673015  0.60650924  0.25000000  1
  F  F11  1  0.23697803  0.42138263  0.75000000  1
  F  F12  1  0.54660385  0.39349076  0.75000000  1
  F  F13  1  0.89180183  0.35376118  0.75000000  1
  F  F14  1  0.02729103  0.12746685  0.58956930  1
  F  F15  1  0.34110690  0.12013362  0.60075934  1
  F  F16  1  0.69499447  0.12930939  0.59434250  1
  F  F17  1  0.30604297  0.87253315  0.41043070  1
  F  F18  1  0.63833853  0.87069061  0.40565750  1
  F  F19  1  0.99222610  0.87986638  0.39924066  1
  F  F20  1  0.11736518  0.74386434  0.90893846  1
  F  F21  1  0.45656126  0.74340442  0.88157527  1
  F  F22  1  0.79455681  0.72680523  0.91035098  1
  F  F23  1  0.21596882  0.25613566  0.09106154  1
  F  F24  1  0.53877619  0.27319477  0.08964902  1
  F  F25  1  0.87677174  0.25659558  0.11842473  1
  F  F26  1  0.21596882  0.25613566  0.40893846  1
  F  F27  1  0.53877619  0.27319477  0.41035098  1
  F  F28  1  0.87677174  0.25659558  0.38157527  1
  F  F29  1  0.11736518  0.74386434  0.59106154  1
  F  F30  1  0.45656126  0.74340442  0.61842473  1
  F  F31  1  0.79455681  0.72680523  0.58964902  1
  F  F32  1  0.02729103  0.12746685  0.91043070  1
  F  F33  1  0.34110690  0.12013362  0.89924066  1
  F  F34  1  0.69499447  0.12930939  0.90565750  1
  F  F35  1  0.30604297  0.87253315  0.08956930  1
  F  F36  1  0.63833853  0.87069061  0.09434250  1
  F  F37  1  0.99222610  0.87986638  0.10075934  1
