# generated using pymatgen
data_MnCdF5
_symmetry_space_group_name_H-M   'P 1'
_cell_length_a   5.57732696
_cell_length_b   5.57732695
_cell_length_c   7.92626715
_cell_angle_alpha   97.70847081
_cell_angle_beta   109.35286822
_cell_angle_gamma   109.78096213
_symmetry_Int_Tables_number   1
_chemical_formula_structural   MnCdF5
_chemical_formula_sum   'Mn2 Cd2 F10'
_cell_volume   210.30993041
_cell_formula_units_Z   2
loop_
 _symmetry_equiv_pos_site_id
 _symmetry_equiv_pos_as_xyz
  1  'x, y, z'
loop_
 _atom_site_type_symbol
 _atom_site_label
 _atom_site_symmetry_multiplicity
 _atom_site_fract_x
 _atom_site_fract_y
 _atom_site_fract_z
 _atom_site_occupancy
  F  F0  1  0.35565759  0.10565759  0.25000000  1
  F  F1  1  0.64434241  0.89434241  0.75000000  1
  F  F2  1  0.58775259  0.75222356  0.37904931  1
  F  F3  1  0.87317425  0.20870328  0.12095069  1
  F  F4  1  0.75431957  0.69063068  0.03637469  1
  F  F5  1  0.15425599  0.71794488  0.46362531  1
  F  F6  1  0.24568043  0.30936932  0.96362531  1
  F  F7  1  0.84574401  0.28205512  0.53637469  1
  F  F8  1  0.12682575  0.79129672  0.87904931  1
  F  F9  1  0.41224741  0.24777644  0.62095069  1
  Mn  Mn10  1  0.50000000  0.00000000  0.50000000  1
  Mn  Mn11  1  0.00000000  0.00000000  0.00000000  1
  Cd  Cd12  1  0.70845604  0.45845604  0.25000000  1
  Cd  Cd13  1  0.29154396  0.54154396  0.75000000  1
