# generated using pymatgen
data_SrDy2O4
_symmetry_space_group_name_H-M   'P 1'
_cell_length_a   3.43427930
_cell_length_b   10.15742108
_cell_length_c   12.00685702
_cell_angle_alpha   90.00000000
_cell_angle_beta   90.00000000
_cell_angle_gamma   90.00000000
_symmetry_Int_Tables_number   1
_chemical_formula_structural   SrDy2O4
_chemical_formula_sum   'Sr4 Dy8 O16'
_cell_volume   418.84024779
_cell_formula_units_Z   4
loop_
 _symmetry_equiv_pos_site_id
 _symmetry_equiv_pos_as_xyz
  1  'x, y, z'
loop_
 _atom_site_type_symbol
 _atom_site_label
 _atom_site_symmetry_multiplicity
 _atom_site_fract_x
 _atom_site_fract_y
 _atom_site_fract_z
 _atom_site_occupancy
  Sr  Sr0  1  0.75000000  0.25244585  0.14869902  1
  Sr  Sr1  1  0.25000000  0.24755415  0.64869902  1
  Sr  Sr2  1  0.75000000  0.75244585  0.35130098  1
  Sr  Sr3  1  0.25000000  0.74755415  0.85130098  1
  Dy  Dy4  1  0.25000000  0.57633904  0.11109381  1
  Dy  Dy5  1  0.75000000  0.42216280  0.38801717  1
  Dy  Dy6  1  0.25000000  0.57783720  0.61198283  1
  Dy  Dy7  1  0.75000000  0.42366096  0.88890619  1
  Dy  Dy8  1  0.25000000  0.07633904  0.38890619  1
  Dy  Dy9  1  0.25000000  0.07783720  0.88801717  1
  Dy  Dy10  1  0.75000000  0.92216280  0.11198283  1
  Dy  Dy11  1  0.75000000  0.92366096  0.61109381  1
  O  O12  1  0.25000000  0.37439550  0.01965404  1
  O  O13  1  0.25000000  0.98627098  0.71628431  1
  O  O14  1  0.25000000  0.57382574  0.42245805  1
  O  O15  1  0.75000000  0.92617426  0.92245805  1
  O  O16  1  0.75000000  0.21217651  0.82517670  1
  O  O17  1  0.75000000  0.12560450  0.51965404  1
  O  O18  1  0.25000000  0.28782349  0.32517670  1
  O  O19  1  0.25000000  0.48627098  0.78371569  1
  O  O20  1  0.25000000  0.07382574  0.07754195  1
  O  O21  1  0.75000000  0.71217651  0.67482330  1
  O  O22  1  0.75000000  0.01372902  0.28371569  1
  O  O23  1  0.75000000  0.42617426  0.57754195  1
  O  O24  1  0.75000000  0.62560450  0.98034596  1
  O  O25  1  0.75000000  0.51372902  0.21628431  1
  O  O26  1  0.25000000  0.87439550  0.48034596  1
  O  O27  1  0.25000000  0.78782349  0.17482330  1
