# generated using pymatgen
data_SrCu2Te2(ClO3)2
_symmetry_space_group_name_H-M   'P 1'
_cell_length_a   7.30303773
_cell_length_b   7.37437872
_cell_length_c   8.38358528
_cell_angle_alpha   90.00000000
_cell_angle_beta   96.73247792
_cell_angle_gamma   90.00000000
_symmetry_Int_Tables_number   1
_chemical_formula_structural   SrCu2Te2(ClO3)2
_chemical_formula_sum   'Sr2 Cu4 Te4 Cl4 O12'
_cell_volume   448.38766346
_cell_formula_units_Z   2
loop_
 _symmetry_equiv_pos_site_id
 _symmetry_equiv_pos_as_xyz
  1  'x, y, z'
loop_
 _atom_site_type_symbol
 _atom_site_label
 _atom_site_symmetry_multiplicity
 _atom_site_fract_x
 _atom_site_fract_y
 _atom_site_fract_z
 _atom_site_occupancy
  Sr  Sr0  1  0.62565453  0.04627272  0.55987208  1
  Sr  Sr1  1  0.37434547  0.54627272  0.44012792  1
  Cu  Cu2  1  0.81927706  0.05629465  0.08495743  1
  Cu  Cu3  1  0.86057909  0.53828449  0.58677673  1
  Cu  Cu4  1  0.18072294  0.55629465  0.91504257  1
  Cu  Cu5  1  0.13942091  0.03828449  0.41322327  1
  Te  Te6  1  0.63130707  0.40418063  0.88478377  1
  Te  Te7  1  0.85149767  0.67892062  0.26717657  1
  Te  Te8  1  0.36869293  0.90418063  0.11521623  1
  Te  Te9  1  0.14850233  0.17892062  0.73282343  1
  Cl  Cl10  1  0.39948224  0.79610473  0.73160683  1
  Cl  Cl11  1  0.04745038  0.27179189  0.11632197  1
  Cl  Cl12  1  0.95254962  0.77179189  0.88367803  1
  Cl  Cl13  1  0.60051776  0.29610473  0.26839317  1
  O  O14  1  0.03780352  0.59837130  0.43527127  1
  O  O15  1  0.70213103  0.70640263  0.44221780  1
  O  O16  1  0.96199085  0.91702091  0.25692186  1
  O  O17  1  0.96219648  0.09837130  0.56472873  1
  O  O18  1  0.64087792  0.42132250  0.65794513  1
  O  O19  1  0.69155851  0.15330758  0.88497567  1
  O  O20  1  0.37071128  0.36933535  0.87597628  1
  O  O21  1  0.03800915  0.41702091  0.74307814  1
  O  O22  1  0.30844149  0.65330758  0.11502433  1
  O  O23  1  0.35912208  0.92132250  0.34205487  1
  O  O24  1  0.62928872  0.86933535  0.12402372  1
  O  O25  1  0.29786897  0.20640263  0.55778220  1
