# generated using pymatgen
data_ReO2F3
_symmetry_space_group_name_H-M   'P 1'
_cell_length_a   5.09844173
_cell_length_b   5.72555445
_cell_length_c   13.08906554
_cell_angle_alpha   99.55206102
_cell_angle_beta   90.00000000
_cell_angle_gamma   90.00000000
_symmetry_Int_Tables_number   1
_chemical_formula_structural   ReO2F3
_chemical_formula_sum   'Re4 O8 F12'
_cell_volume   376.79065626
_cell_formula_units_Z   4
loop_
 _symmetry_equiv_pos_site_id
 _symmetry_equiv_pos_as_xyz
  1  'x, y, z'
loop_
 _atom_site_type_symbol
 _atom_site_label
 _atom_site_symmetry_multiplicity
 _atom_site_fract_x
 _atom_site_fract_y
 _atom_site_fract_z
 _atom_site_occupancy
  Re  Re0  1  0.70969544  0.32434153  0.13715344  1
  Re  Re1  1  0.20969544  0.67565847  0.36284656  1
  Re  Re2  1  0.79030456  0.32434153  0.63715344  1
  Re  Re3  1  0.29030456  0.67565847  0.86284656  1
  O  O4  1  0.43258320  0.16898662  0.09767336  1
  O  O5  1  0.56741680  0.83101338  0.90232664  1
  O  O6  1  0.59164978  0.25604912  0.53175616  1
  O  O7  1  0.06741680  0.16898662  0.59767336  1
  O  O8  1  0.90835022  0.25604912  0.03175616  1
  O  O9  1  0.93258320  0.83101338  0.40232664  1
  O  O10  1  0.09164978  0.74395088  0.96824384  1
  O  O11  1  0.40835022  0.74395088  0.46824384  1
  F  F12  1  0.65524137  0.11480025  0.71846079  1
  F  F13  1  0.98669897  0.46129966  0.78132262  1
  F  F14  1  0.84475863  0.11480025  0.21846079  1
  F  F15  1  0.10372743  0.37814232  0.38917524  1
  F  F16  1  0.01330103  0.53870034  0.21867738  1
  F  F17  1  0.34475863  0.88519975  0.28153921  1
  F  F18  1  0.48669897  0.53870034  0.71867738  1
  F  F19  1  0.89627257  0.62185768  0.61082476  1
  F  F20  1  0.51330103  0.46129966  0.28132262  1
  F  F21  1  0.15524137  0.88519975  0.78153921  1
  F  F22  1  0.39627257  0.37814232  0.88917524  1
  F  F23  1  0.60372743  0.62185768  0.11082476  1
