# generated using pymatgen
data_NbS2
_symmetry_space_group_name_H-M   'P 1'
_cell_length_a   3.35617861
_cell_length_b   3.35617866
_cell_length_c   22.12723353
_cell_angle_alpha   91.56499095
_cell_angle_beta   91.56499097
_cell_angle_gamma   119.85444082
_symmetry_Int_Tables_number   1
_chemical_formula_structural   NbS2
_chemical_formula_sum   'Nb1 S2'
_cell_volume   215.84253751
_cell_formula_units_Z   1
loop_
 _symmetry_equiv_pos_site_id
 _symmetry_equiv_pos_as_xyz
  1  'x, y, z'
loop_
 _atom_site_type_symbol
 _atom_site_label
 _atom_site_symmetry_multiplicity
 _atom_site_fract_x
 _atom_site_fract_y
 _atom_site_fract_z
 _atom_site_occupancy
  Nb  Nb0  1  0.07053857  0.92946143  0.00000000  1
  S  S1  1  0.71116913  0.23790770  0.92906754  1
  S  S2  1  0.76209230  0.28883087  0.07093246  1
