# generated using pymatgen
data_BaNb2Bi2O9
_symmetry_space_group_name_H-M   'P 1'
_cell_length_a   5.76026499
_cell_length_b   5.72365262
_cell_length_c   13.05287189
_cell_angle_alpha   102.66491162
_cell_angle_beta   90.00000000
_cell_angle_gamma   90.00000000
_symmetry_Int_Tables_number   1
_chemical_formula_structural   BaNb2Bi2O9
_chemical_formula_sum   'Ba2 Nb4 Bi4 O18'
_cell_volume   419.87915133
_cell_formula_units_Z   2
loop_
 _symmetry_equiv_pos_site_id
 _symmetry_equiv_pos_as_xyz
  1  'x, y, z'
loop_
 _atom_site_type_symbol
 _atom_site_label
 _atom_site_symmetry_multiplicity
 _atom_site_fract_x
 _atom_site_fract_y
 _atom_site_fract_z
 _atom_site_occupancy
  Ba  Ba0  1  0.46479215  0.24828565  1.00000000  1
  Ba  Ba1  1  0.96479215  0.75171435  0.00000000  1
  Nb  Nb2  1  0.47713920  0.83373941  0.17089198  1
  Nb  Nb3  1  0.97713920  0.33715256  0.17089198  1
  Nb  Nb4  1  0.47713920  0.66284744  0.82910802  1
  Nb  Nb5  1  0.97713920  0.16626059  0.82910802  1
  Bi  Bi6  1  0.07279365  0.92491746  0.40283079  1
  Bi  Bi7  1  0.57279365  0.47791333  0.40283079  1
  Bi  Bi8  1  0.57279365  0.07508254  0.59716921  1
  Bi  Bi9  1  0.07279365  0.52208667  0.59716921  1
  O  O10  1  0.76847980  0.76624193  0.50301470  1
  O  O11  1  0.20090163  0.42147054  0.84950831  1
  O  O12  1  0.43348605  0.54663366  0.68206521  1
  O  O13  1  0.70090163  0.42803777  0.84950831  1
  O  O14  1  0.19709043  0.08060495  0.16621548  1
  O  O15  1  0.19709043  0.91438947  0.83378452  1
  O  O16  1  0.93348605  0.13543155  0.68206521  1
  O  O17  1  0.93348605  0.45336634  0.31793479  1
  O  O18  1  0.69709043  0.08561053  0.16621548  1
  O  O19  1  0.69709043  0.91939505  0.83378452  1
  O  O20  1  0.20090163  0.57196223  0.15049169  1
  O  O21  1  0.70090163  0.57852946  0.15049169  1
  O  O22  1  0.26847980  0.23375807  0.49698530  1
  O  O23  1  0.76847980  0.26322723  0.49698530  1
  O  O24  1  0.26847980  0.73677277  0.50301470  1
  O  O25  1  0.43348605  0.86456845  0.31793479  1
  O  O26  1  0.94742633  0.23505339  0.00000000  1
  O  O27  1  0.44742633  0.76494661  1.00000000  1
