# generated using pymatgen
data_Na2AlB(As2O7)2
_symmetry_space_group_name_H-M   'P 1'
_cell_length_a   4.67997321
_cell_length_b   11.14139647
_cell_length_c   21.11519297
_cell_angle_alpha   90.00000000
_cell_angle_beta   90.00000000
_cell_angle_gamma   90.38941509
_symmetry_Int_Tables_number   1
_chemical_formula_structural   Na2AlB(As2O7)2
_chemical_formula_sum   'Na8 Al4 B4 As16 O56'
_cell_volume   1100.95107530
_cell_formula_units_Z   4
loop_
 _symmetry_equiv_pos_site_id
 _symmetry_equiv_pos_as_xyz
  1  'x, y, z'
loop_
 _atom_site_type_symbol
 _atom_site_label
 _atom_site_symmetry_multiplicity
 _atom_site_fract_x
 _atom_site_fract_y
 _atom_site_fract_z
 _atom_site_occupancy
  Na  Na0  1  0.78114726  0.58437050  0.97482733  1
  Na  Na1  1  0.21885274  0.91562950  0.47482733  1
  Na  Na2  1  0.78114726  0.08437050  0.52517267  1
  Na  Na3  1  0.22225852  0.47504041  0.29033182  1
  Na  Na4  1  0.77774148  0.52495959  0.70966818  1
  Na  Na5  1  0.21885274  0.41562950  0.02517267  1
  Na  Na6  1  0.77774148  0.02495959  0.79033182  1
  Na  Na7  1  0.22225852  0.97504041  0.20966818  1
  Al  Al8  1  0.22439739  0.27448723  0.17734752  1
  Al  Al9  1  0.22439739  0.77448723  0.32265248  1
  Al  Al10  1  0.77560261  0.72551277  0.82265248  1
  Al  Al11  1  0.77560261  0.22551277  0.67734752  1
  B  B12  1  0.20149732  0.63733649  0.60605090  1
  B  B13  1  0.79850268  0.36266351  0.39394910  1
  B  B14  1  0.20149732  0.13733649  0.89394910  1
  B  B15  1  0.79850268  0.86266351  0.10605090  1
  As  As16  1  0.74133637  0.46570272  0.14556257  1
  As  As17  1  0.25866363  0.03429728  0.64556257  1
  As  As18  1  0.25866363  0.53429728  0.85443743  1
  As  As19  1  0.27306414  0.78430116  0.72116837  1
  As  As20  1  0.26291947  0.37501764  0.60696062  1
  As  As21  1  0.74133637  0.96570272  0.35443743  1
  As  As22  1  0.73708053  0.62498236  0.39303938  1
  As  As23  1  0.73708053  0.12498236  0.10696062  1
  As  As24  1  0.27306414  0.28430116  0.77883163  1
  As  As25  1  0.26291947  0.87501764  0.89303938  1
  As  As26  1  0.72693586  0.21569884  0.27883163  1
  As  As27  1  0.72693586  0.71569884  0.22116837  1
  As  As28  1  0.70226370  0.70825973  0.53552594  1
  As  As29  1  0.29773630  0.79174027  0.03552594  1
  As  As30  1  0.29773630  0.29174027  0.46447406  1
  As  As31  1  0.70226370  0.20825973  0.96447406  1
  O  O32  1  0.90241637  0.28836428  0.34017110  1
  O  O33  1  0.99029397  0.23472523  0.10449797  1
  O  O34  1  0.98505813  0.16838296  0.22773484  1
  O  O35  1  0.02352454  0.09650064  0.69943442  1
  O  O36  1  0.88995442  0.02769789  0.41783425  1
  O  O37  1  0.39839899  0.38907038  0.52878861  1
  O  O38  1  0.54652343  0.69820875  0.74780001  1
  O  O39  1  0.01494187  0.83161704  0.77226516  1
  O  O40  1  0.35561198  0.65014180  0.01727359  1
  O  O41  1  0.56332594  0.58200904  0.19297391  1
  O  O42  1  0.90241637  0.78836428  0.15982890  1
  O  O43  1  0.51567116  0.64120197  0.59804969  1
  O  O44  1  0.99029397  0.73472523  0.39550203  1
  O  O45  1  0.09758363  0.71163572  0.65982890  1
  O  O46  1  0.11004558  0.47230211  0.91783425  1
  O  O47  1  0.60160101  0.61092962  0.47121139  1
  O  O48  1  0.45414617  0.13575492  0.15712978  1
  O  O49  1  0.54585383  0.86424508  0.84287022  1
  O  O50  1  0.45347657  0.30179125  0.25219999  1
  O  O51  1  0.88995442  0.52769789  0.08216575  1
  O  O52  1  0.01494187  0.33161704  0.72773484  1
  O  O53  1  0.54652343  0.19820875  0.75219999  1
  O  O54  1  0.89296233  0.98744243  0.12308030  1
  O  O55  1  0.54633523  0.62443865  0.87233419  1
  O  O56  1  0.09758363  0.21163572  0.84017110  1
  O  O57  1  0.97647546  0.90349936  0.30056558  1
  O  O58  1  0.43667406  0.91799096  0.69297391  1
  O  O59  1  0.97647546  0.40349936  0.19943442  1
  O  O60  1  0.45347657  0.80179125  0.24780001  1
  O  O61  1  0.64438802  0.34985820  0.98272641  1
  O  O62  1  0.10703767  0.51255757  0.62308030  1
  O  O63  1  0.54585383  0.36424508  0.65712978  1
  O  O64  1  0.45366477  0.87556135  0.37233419  1
  O  O65  1  0.64438802  0.84985820  0.51727359  1
  O  O66  1  0.45414617  0.63575492  0.34287022  1
  O  O67  1  0.11004558  0.97230211  0.58216575  1
  O  O68  1  0.35561198  0.15014180  0.48272641  1
  O  O69  1  0.48432884  0.35879803  0.40195031  1
  O  O70  1  0.43667406  0.41799096  0.80702609  1
  O  O71  1  0.93800046  0.32282842  0.45283007  1
  O  O72  1  0.48432884  0.85879803  0.09804969  1
  O  O73  1  0.45366477  0.37556135  0.12766581  1
  O  O74  1  0.51567116  0.14120197  0.90195031  1
  O  O75  1  0.00970603  0.76527477  0.89550203  1
  O  O76  1  0.56332594  0.08200904  0.30702609  1
  O  O77  1  0.39839899  0.88907038  0.97121139  1
  O  O78  1  0.93800046  0.82282842  0.04716993  1
  O  O79  1  0.06199954  0.67717158  0.54716993  1
  O  O80  1  0.60160101  0.11092962  0.02878861  1
  O  O81  1  0.54633523  0.12443865  0.62766581  1
  O  O82  1  0.89296233  0.48744243  0.37691970  1
  O  O83  1  0.10703767  0.01255757  0.87691970  1
  O  O84  1  0.98505813  0.66838296  0.27226516  1
  O  O85  1  0.02352454  0.59650064  0.80056558  1
  O  O86  1  0.06199954  0.17717158  0.95283007  1
  O  O87  1  0.00970603  0.26527477  0.60449797  1
