# generated using pymatgen
data_Na5P3O10
_symmetry_space_group_name_H-M   'P 1'
_cell_length_a   5.40812030
_cell_length_b   5.61432473
_cell_length_c   18.72673472
_cell_angle_alpha   96.00976300
_cell_angle_beta   90.00000000
_cell_angle_gamma   118.79229756
_symmetry_Int_Tables_number   1
_chemical_formula_structural   Na5P3O10
_chemical_formula_sum   'Na10 P6 O20'
_cell_volume   494.73494036
_cell_formula_units_Z   2
loop_
 _symmetry_equiv_pos_site_id
 _symmetry_equiv_pos_as_xyz
  1  'x, y, z'
loop_
 _atom_site_type_symbol
 _atom_site_label
 _atom_site_symmetry_multiplicity
 _atom_site_fract_x
 _atom_site_fract_y
 _atom_site_fract_z
 _atom_site_occupancy
  Na  Na0  1  0.34092544  0.65101848  0.06724343  1
  Na  Na1  1  0.89434108  0.93026419  0.82373936  1
  Na  Na2  1  0.46407689  0.06973581  0.67626064  1
  Na  Na3  1  0.18990696  0.34898152  0.43275657  1
  Na  Na4  1  0.65907456  0.34898152  0.93275657  1
  Na  Na5  1  0.53592311  0.93026419  0.32373936  1
  Na  Na6  1  0.00000000  0.00000000  0.00000000  1
  Na  Na7  1  0.10565892  0.06973581  0.17626064  1
  Na  Na8  1  0.81009304  0.65101848  0.56724343  1
  Na  Na9  1  0.50000000  0.00000000  0.50000000  1
  P  P10  1  0.85554369  0.66646862  0.40026676  1
  P  P11  1  0.31092493  0.66646862  0.90026676  1
  P  P12  1  0.90108610  0.50000000  0.25000000  1
  P  P13  1  0.09891390  0.50000000  0.75000000  1
  P  P14  1  0.68907507  0.33353138  0.09973324  1
  P  P15  1  0.14445631  0.33353138  0.59973324  1
  O  O16  1  0.83405214  0.26353068  0.59663935  1
  O  O17  1  0.25598292  0.41250588  0.68698424  1
  O  O18  1  0.16784992  0.74673360  0.23232954  1
  O  O19  1  0.24740860  0.41123324  0.93599030  1
  O  O20  1  0.19461343  0.09150956  0.57728190  1
  O  O21  1  0.07888368  0.74673360  0.73232954  1
  O  O22  1  0.80538657  0.90849044  0.42271810  1
  O  O23  1  0.39689613  0.09150956  0.07728190  1
  O  O24  1  0.07052145  0.73646932  0.90336065  1
  O  O25  1  0.60310387  0.90849044  0.92271810  1
  O  O26  1  0.33617537  0.58876676  0.56400970  1
  O  O27  1  0.16594786  0.73646932  0.40336065  1
  O  O28  1  0.92947855  0.26353068  0.09663935  1
  O  O29  1  0.92111632  0.25326640  0.26767046  1
  O  O30  1  0.66382463  0.41123324  0.43599030  1
  O  O31  1  0.75259140  0.58876676  0.06400970  1
  O  O32  1  0.74401708  0.58749412  0.31301576  1
  O  O33  1  0.83215008  0.25326640  0.76767046  1
  O  O34  1  0.65652296  0.41250588  0.18698424  1
  O  O35  1  0.34347704  0.58749412  0.81301576  1
