# generated using pymatgen
data_Bi2MoO6
_symmetry_space_group_name_H-M   'P 1'
_cell_length_a   5.65596183
_cell_length_b   17.48922471
_cell_length_c   22.85529720
_cell_angle_alpha   90.00000000
_cell_angle_beta   90.00000000
_cell_angle_gamma   90.53257103
_symmetry_Int_Tables_number   1
_chemical_formula_structural   Bi2MoO6
_chemical_formula_sum   'Bi32 Mo16 O96'
_cell_volume   2260.71147857
_cell_formula_units_Z   16
loop_
 _symmetry_equiv_pos_site_id
 _symmetry_equiv_pos_as_xyz
  1  'x, y, z'
loop_
 _atom_site_type_symbol
 _atom_site_label
 _atom_site_symmetry_multiplicity
 _atom_site_fract_x
 _atom_site_fract_y
 _atom_site_fract_z
 _atom_site_occupancy
  Bi  Bi0  1  0.01930312  0.09337933  0.19502694  1
  Bi  Bi1  1  0.48069688  0.90662067  0.69502694  1
  Bi  Bi2  1  0.98069688  0.90662067  0.80497306  1
  Bi  Bi3  1  0.51930312  0.09337933  0.30497306  1
  Bi  Bi4  1  0.00179803  0.25985693  0.07005948  1
  Bi  Bi5  1  0.49820197  0.74014307  0.57005948  1
  Bi  Bi6  1  0.99820197  0.74014307  0.92994052  1
  Bi  Bi7  1  0.50179803  0.25985693  0.42994052  1
  Bi  Bi8  1  0.44154145  0.25703781  0.18854221  1
  Bi  Bi9  1  0.05845855  0.74296219  0.68854221  1
  Bi  Bi10  1  0.55845855  0.74296219  0.81145779  1
  Bi  Bi11  1  0.94154145  0.25703781  0.31145779  1
  Bi  Bi12  1  0.50477924  0.41025910  0.07009115  1
  Bi  Bi13  1  0.99522076  0.58974090  0.57009115  1
  Bi  Bi14  1  0.49522076  0.58974090  0.92990885  1
  Bi  Bi15  1  0.00477924  0.41025910  0.42990885  1
  Bi  Bi16  1  0.93535465  0.40958628  0.19154719  1
  Bi  Bi17  1  0.56464535  0.59041372  0.69154719  1
  Bi  Bi18  1  0.06464535  0.59041372  0.80845281  1
  Bi  Bi19  1  0.43535465  0.40958628  0.30845281  1
  Bi  Bi20  1  0.52571651  0.57320880  0.19386846  1
  Bi  Bi21  1  0.97428349  0.42679120  0.69386846  1
  Bi  Bi22  1  0.47428349  0.42679120  0.80613154  1
  Bi  Bi23  1  0.02571651  0.57320880  0.30613154  1
  Bi  Bi24  1  0.99963749  0.74193048  0.19529188  1
  Bi  Bi25  1  0.50036251  0.25806952  0.69529188  1
  Bi  Bi26  1  0.00036251  0.25806952  0.80470812  1
  Bi  Bi27  1  0.49963749  0.74193048  0.30470812  1
  Bi  Bi28  1  0.00041574  0.91111852  0.06433612  1
  Bi  Bi29  1  0.49958426  0.08888148  0.56433612  1
  Bi  Bi30  1  0.99958426  0.08888148  0.93566388  1
  Bi  Bi31  1  0.50041574  0.91111852  0.43566388  1
  Mo  Mo32  1  0.49370096  0.08247873  0.05589752  1
  Mo  Mo33  1  0.00629904  0.91752127  0.55589752  1
  Mo  Mo34  1  0.50629904  0.91752127  0.94410248  1
  Mo  Mo35  1  0.99370096  0.08247873  0.44410248  1
  Mo  Mo36  1  0.99750818  0.58322505  0.06749530  1
  Mo  Mo37  1  0.50249182  0.41677495  0.56749530  1
  Mo  Mo38  1  0.00249182  0.41677495  0.93250470  1
  Mo  Mo39  1  0.49750818  0.58322505  0.43250470  1
  Mo  Mo40  1  0.50732556  0.76691888  0.06096197  1
  Mo  Mo41  1  0.99267444  0.23308112  0.56096197  1
  Mo  Mo42  1  0.49267444  0.23308112  0.93903803  1
  Mo  Mo43  1  0.00732556  0.76691888  0.43903803  1
  Mo  Mo44  1  0.51506631  0.91570006  0.18321317  1
  Mo  Mo45  1  0.98493369  0.08429994  0.68321317  1
  Mo  Mo46  1  0.48493369  0.08429994  0.81678683  1
  Mo  Mo47  1  0.01506631  0.91570006  0.31678683  1
  O  O48  1  0.30737903  0.02350527  0.10056228  1
  O  O49  1  0.19262097  0.97649473  0.60056228  1
  O  O50  1  0.69262097  0.97649473  0.89943772  1
  O  O51  1  0.80737903  0.02350527  0.39943772  1
  O  O52  1  0.73258569  0.02783587  0.02185459  1
  O  O53  1  0.76741431  0.97216413  0.52185459  1
  O  O54  1  0.26741431  0.97216413  0.97814541  1
  O  O55  1  0.23258569  0.02783587  0.47814541  1
  O  O56  1  0.75112999  0.15291114  0.24399397  1
  O  O57  1  0.74887001  0.84708886  0.74399397  1
  O  O58  1  0.24887001  0.84708886  0.75600603  1
  O  O59  1  0.25112999  0.15291114  0.25600603  1
  O  O60  1  0.74516993  0.32611501  0.11783045  1
  O  O61  1  0.75483007  0.67388499  0.61783045  1
  O  O62  1  0.25483007  0.67388499  0.88216955  1
  O  O63  1  0.24516993  0.32611501  0.38216955  1
  O  O64  1  0.73437742  0.33157266  0.24983412  1
  O  O65  1  0.76562258  0.66842734  0.74983412  1
  O  O66  1  0.26562258  0.66842734  0.75016588  1
  O  O67  1  0.23437742  0.33157266  0.25016588  1
  O  O68  1  0.12481143  0.63598934  0.00786041  1
  O  O69  1  0.37518857  0.36401066  0.50786041  1
  O  O70  1  0.87518857  0.36401066  0.99213959  1
  O  O71  1  0.62481143  0.63598934  0.49213959  1
  O  O72  1  0.19797280  0.51142801  0.09306278  1
  O  O73  1  0.30202720  0.48857199  0.59306278  1
  O  O74  1  0.80202720  0.48857199  0.90693722  1
  O  O75  1  0.69797280  0.51142801  0.40693722  1
  O  O76  1  0.77211699  0.51235090  0.25120801  1
  O  O77  1  0.72788301  0.48764910  0.75120801  1
  O  O78  1  0.22788301  0.48764910  0.74879199  1
  O  O79  1  0.27211699  0.51235090  0.24879199  1
  O  O80  1  0.74246932  0.53561456  0.03969150  1
  O  O81  1  0.75753068  0.46438544  0.53969150  1
  O  O82  1  0.25753068  0.46438544  0.96030850  1
  O  O83  1  0.24246932  0.53561456  0.46030850  1
  O  O84  1  0.91069208  0.63835613  0.13307028  1
  O  O85  1  0.58930792  0.36164387  0.63307028  1
  O  O86  1  0.08930792  0.36164387  0.86692972  1
  O  O87  1  0.41069208  0.63835613  0.36692972  1
  O  O88  1  0.25375070  0.67920630  0.24827525  1
  O  O89  1  0.24624930  0.32079370  0.74827525  1
  O  O90  1  0.74624930  0.32079370  0.75172475  1
  O  O91  1  0.75375070  0.67920630  0.25172475  1
  O  O92  1  0.62500336  0.70479516  0.00714322  1
  O  O93  1  0.87499664  0.29520484  0.50714322  1
  O  O94  1  0.37499664  0.29520484  0.99285678  1
  O  O95  1  0.12500336  0.70479516  0.49285678  1
  O  O96  1  0.25919238  0.81936841  0.02633489  1
  O  O97  1  0.24080762  0.18063159  0.52633489  1
  O  O98  1  0.74080762  0.18063159  0.97366511  1
  O  O99  1  0.75919238  0.81936841  0.47366511  1
  O  O100  1  0.76352120  0.81264182  0.10006363  1
  O  O101  1  0.73647880  0.18735818  0.60006363  1
  O  O102  1  0.23647880  0.18735818  0.89993637  1
  O  O103  1  0.26352120  0.81264182  0.39993637  1
  O  O104  1  0.62715028  0.83927236  0.22856840  1
  O  O105  1  0.87284972  0.16072764  0.72856840  1
  O  O106  1  0.37284972  0.16072764  0.77143160  1
  O  O107  1  0.12715028  0.83927236  0.27143160  1
  O  O108  1  0.27952549  0.87246757  0.13913083  1
  O  O109  1  0.22047451  0.12753243  0.63913083  1
  O  O110  1  0.72047451  0.12753243  0.86086917  1
  O  O111  1  0.77952549  0.87246757  0.36086917  1
  O  O112  1  0.28609837  0.13320237  0.00756714  1
  O  O113  1  0.21390163  0.86679763  0.50756714  1
  O  O114  1  0.71390163  0.86679763  0.99243286  1
  O  O115  1  0.78609837  0.13320237  0.49243286  1
  O  O116  1  0.10800996  0.19746685  0.14831275  1
  O  O117  1  0.39199004  0.80253315  0.64831275  1
  O  O118  1  0.89199004  0.80253315  0.85168725  1
  O  O119  1  0.60800996  0.19746685  0.35168725  1
  O  O120  1  0.62973650  0.15024782  0.10358961  1
  O  O121  1  0.87026350  0.84975218  0.60358961  1
  O  O122  1  0.37026350  0.84975218  0.89641039  1
  O  O123  1  0.12973650  0.15024782  0.39641039  1
  O  O124  1  0.24718812  0.33693916  0.11684100  1
  O  O125  1  0.25281188  0.66306084  0.61684100  1
  O  O126  1  0.75281188  0.66306084  0.88315900  1
  O  O127  1  0.74718812  0.33693916  0.38315900  1
  O  O128  1  0.60241577  0.46025514  0.15302555  1
  O  O129  1  0.89758423  0.53974486  0.65302555  1
  O  O130  1  0.39758423  0.53974486  0.84697445  1
  O  O131  1  0.10241577  0.46025514  0.34697445  1
  O  O132  1  0.37894356  0.70789879  0.11521156  1
  O  O133  1  0.12105644  0.29210121  0.61521156  1
  O  O134  1  0.62105644  0.29210121  0.88478844  1
  O  O135  1  0.87894356  0.70789879  0.38478844  1
  O  O136  1  0.38920133  0.98872657  0.22724858  1
  O  O137  1  0.11079867  0.01127343  0.72724858  1
  O  O138  1  0.61079867  0.01127343  0.77275142  1
  O  O139  1  0.88920133  0.98872657  0.27275142  1
  O  O140  1  0.75955150  0.95918301  0.14327496  1
  O  O141  1  0.74044850  0.04081699  0.64327496  1
  O  O142  1  0.24044850  0.04081699  0.85672504  1
  O  O143  1  0.25955150  0.95918301  0.35672504  1
