# generated using pymatgen
data_KPO3
_symmetry_space_group_name_H-M   'P 1'
_cell_length_a   7.49784000
_cell_length_b   11.26362013
_cell_length_c   12.18313327
_cell_angle_alpha   90.00000000
_cell_angle_beta   90.00000000
_cell_angle_gamma   102.17506782
_symmetry_Int_Tables_number   1
_chemical_formula_structural   KPO3
_chemical_formula_sum   'K12 P12 O36'
_cell_volume   1005.75771364
_cell_formula_units_Z   12
loop_
 _symmetry_equiv_pos_site_id
 _symmetry_equiv_pos_as_xyz
  1  'x, y, z'
loop_
 _atom_site_type_symbol
 _atom_site_label
 _atom_site_symmetry_multiplicity
 _atom_site_fract_x
 _atom_site_fract_y
 _atom_site_fract_z
 _atom_site_occupancy
  K  K0  1  0.90263961  0.60109647  0.24373227  1
  K  K1  1  0.14717549  0.37860677  0.41865508  1
  K  K2  1  0.15806324  0.08055106  0.64121973  1
  K  K3  1  0.64717549  0.87860677  0.08134492  1
  K  K4  1  0.84193676  0.91944894  0.35878027  1
  K  K5  1  0.65806324  0.58055106  0.85878027  1
  K  K6  1  0.35282451  0.12139323  0.91865508  1
  K  K7  1  0.09736039  0.39890353  0.75626773  1
  K  K8  1  0.59736039  0.89890353  0.74373227  1
  K  K9  1  0.85282451  0.62139323  0.58134492  1
  K  K10  1  0.40263961  0.10109647  0.25626773  1
  K  K11  1  0.34193676  0.41944894  0.14121973  1
  P  P12  1  0.22787698  0.83536269  0.44533280  1
  P  P13  1  0.37252665  0.65435849  0.57001385  1
  P  P14  1  0.77212302  0.16463731  0.55466720  1
  P  P15  1  0.57625726  0.32416383  0.67124982  1
  P  P16  1  0.72787698  0.33536269  0.05466720  1
  P  P17  1  0.27212302  0.66463731  0.94533280  1
  P  P18  1  0.12747335  0.84564151  0.07001385  1
  P  P19  1  0.62747335  0.34564151  0.42998615  1
  P  P20  1  0.92374274  0.17583617  0.17124982  1
  P  P21  1  0.87252665  0.15435849  0.92998615  1
  P  P22  1  0.07625726  0.82416383  0.82875018  1
  P  P23  1  0.42374274  0.67583617  0.32875018  1
  O  O24  1  0.04026263  0.75883625  0.42793615  1
  O  O25  1  0.09578668  0.20405717  0.23753869  1
  O  O26  1  0.51438596  0.66623207  0.65793188  1
  O  O27  1  0.76369563  0.08154040  0.20981978  1
  O  O28  1  0.75036453  0.02962477  0.54816270  1
  O  O29  1  0.48561404  0.33376793  0.34206812  1
  O  O30  1  0.74963547  0.47037523  0.04816270  1
  O  O31  1  0.59578668  0.70405717  0.26246131  1
  O  O32  1  0.73630437  0.41845960  0.70981978  1
  O  O33  1  0.90421332  0.79594283  0.76246131  1
  O  O34  1  0.13391538  0.69318829  0.84920140  1
  O  O35  1  0.24963547  0.97037523  0.45183730  1
  O  O36  1  0.70087781  0.05842992  0.92254497  1
  O  O37  1  0.63391538  0.19318829  0.65079860  1
  O  O38  1  0.36608462  0.80681171  0.34920140  1
  O  O39  1  0.95973737  0.24116375  0.57206385  1
  O  O40  1  0.26369563  0.58154040  0.29018022  1
  O  O41  1  0.54026263  0.25883625  0.07206385  1
  O  O42  1  0.67782130  0.21127714  0.44593583  1
  O  O43  1  0.97946923  0.14309505  0.04637334  1
  O  O44  1  0.79912219  0.44157008  0.42254497  1
  O  O45  1  0.82217870  0.28872286  0.94593583  1
  O  O46  1  0.47946923  0.64309505  0.45362666  1
  O  O47  1  0.86608462  0.30681171  0.15079860  1
  O  O48  1  0.02053077  0.85690495  0.95362666  1
  O  O49  1  0.29912219  0.94157008  0.07745503  1
  O  O50  1  0.17782130  0.71127714  0.05406417  1
  O  O51  1  0.32217870  0.78872286  0.55406417  1
  O  O52  1  0.25036453  0.52962477  0.95183730  1
  O  O53  1  0.98561404  0.83376793  0.15793188  1
  O  O54  1  0.45973737  0.74116375  0.92793615  1
  O  O55  1  0.40421332  0.29594283  0.73753869  1
  O  O56  1  0.01438596  0.16623207  0.84206812  1
  O  O57  1  0.20087781  0.55842992  0.57745503  1
  O  O58  1  0.52053077  0.35690495  0.54637334  1
  O  O59  1  0.23630437  0.91845960  0.79018022  1
