# generated using pymatgen
data_Ag2NClO3
_symmetry_space_group_name_H-M   'P 1'
_cell_length_a   5.15050794
_cell_length_b   6.66386090
_cell_length_c   12.95491722
_cell_angle_alpha   90.00000000
_cell_angle_beta   90.00000000
_cell_angle_gamma   90.00000000
_symmetry_Int_Tables_number   1
_chemical_formula_structural   Ag2NClO3
_chemical_formula_sum   'Ag8 N4 Cl4 O12'
_cell_volume   444.64214692
_cell_formula_units_Z   4
loop_
 _symmetry_equiv_pos_site_id
 _symmetry_equiv_pos_as_xyz
  1  'x, y, z'
loop_
 _atom_site_type_symbol
 _atom_site_label
 _atom_site_symmetry_multiplicity
 _atom_site_fract_x
 _atom_site_fract_y
 _atom_site_fract_z
 _atom_site_occupancy
  Ag  Ag0  1  0.25000000  0.26332834  0.03246770  1
  Ag  Ag1  1  0.75000000  0.73667166  0.96753230  1
  Ag  Ag2  1  0.25000000  0.85373390  0.74816300  1
  Ag  Ag3  1  0.75000000  0.23667166  0.53246770  1
  Ag  Ag4  1  0.75000000  0.64626610  0.24816300  1
  Ag  Ag5  1  0.25000000  0.35373390  0.75183700  1
  Ag  Ag6  1  0.25000000  0.76332834  0.46753230  1
  Ag  Ag7  1  0.75000000  0.14626610  0.25183700  1
  N  N8  1  0.75000000  0.64223511  0.64700236  1
  N  N9  1  0.25000000  0.35776489  0.35299764  1
  N  N10  1  0.75000000  0.14223511  0.85299764  1
  N  N11  1  0.25000000  0.85776489  0.14700236  1
  Cl  Cl12  1  0.75000000  0.89648123  0.40854504  1
  Cl  Cl13  1  0.75000000  0.39648123  0.09145496  1
  Cl  Cl14  1  0.25000000  0.60351877  0.90854504  1
  Cl  Cl15  1  0.25000000  0.10351877  0.59145496  1
  O  O16  1  0.75000000  0.29091164  0.79218688  1
  O  O17  1  0.03680858  0.43404332  0.38365180  1
  O  O18  1  0.46319142  0.93404332  0.11634820  1
  O  O19  1  0.25000000  0.20908836  0.29218688  1
  O  O20  1  0.96319142  0.06595668  0.88365180  1
  O  O21  1  0.53680858  0.56595668  0.61634820  1
  O  O22  1  0.46319142  0.43404332  0.38365180  1
  O  O23  1  0.25000000  0.70908836  0.20781312  1
  O  O24  1  0.96319142  0.56595668  0.61634820  1
  O  O25  1  0.03680858  0.93404332  0.11634820  1
  O  O26  1  0.75000000  0.79091164  0.70781312  1
  O  O27  1  0.53680858  0.06595668  0.88365180  1
