# generated using pymatgen
data_CuClF10
_symmetry_space_group_name_H-M   'P 1'
_cell_length_a   5.14838698
_cell_length_b   9.31231159
_cell_length_c   7.88631376
_cell_angle_alpha   89.60879026
_cell_angle_beta   102.98228972
_cell_angle_gamma   90.04036325
_symmetry_Int_Tables_number   1
_chemical_formula_structural   CuClF10
_chemical_formula_sum   'Cu2 Cl2 F20'
_cell_volume   368.42352758
_cell_formula_units_Z   2
loop_
 _symmetry_equiv_pos_site_id
 _symmetry_equiv_pos_as_xyz
  1  'x, y, z'
loop_
 _atom_site_type_symbol
 _atom_site_label
 _atom_site_symmetry_multiplicity
 _atom_site_fract_x
 _atom_site_fract_y
 _atom_site_fract_z
 _atom_site_occupancy
  Cu  Cu0  1  0.00047427  0.00185132  -0.00016936  1
  Cu  Cu1  1  0.49915183  0.49831273  0.00038328  1
  Cl  Cl2  1  0.50013511  -0.00014642  0.49986966  1
  Cl  Cl3  1  0.00016578  0.50003102  0.49996512  1
  F  F4  1  0.40830080  0.09695744  0.65833314  1
  F  F5  1  0.09048512  0.59894014  0.34079160  1
  F  F6  1  0.59202544  0.90278085  0.34137729  1
  F  F7  1  0.90970587  0.40101723  0.65921974  1
  F  F8  1  0.78522431  0.09774283  0.52608113  1
  F  F9  1  0.71460615  0.59754472  0.47421713  1
  F  F10  1  0.21512300  0.90204767  0.47379575  1
  F  F11  1  0.28587823  0.40257212  0.52564046  1
  F  F12  1  0.34087734  0.12065594  0.34600983  1
  F  F13  1  0.15970861  0.61948166  0.65287711  1
  F  F14  1  0.65928577  0.87919738  0.65362839  1
  F  F15  1  0.84060547  0.38056265  0.34690640  1
  F  F16  1  0.78026407  0.10432042  0.09132990  1
  F  F17  1  0.72260287  0.60041347  0.90980927  1
  F  F18  1  0.22049564  0.89873397  0.90910658  1
  F  F19  1  0.27579535  0.39639727  0.09197510  1
  F  F20  1  0.11226491  0.15791835  0.91172031  1
  F  F21  1  0.39191291  0.65521340  0.08753677  1
  F  F22  1  0.88861548  0.84559584  0.08725340  1
  F  F23  1  0.60631266  0.34186201  0.91234801  1
