# generated using pymatgen
data_KCa2Nb3O10
_symmetry_space_group_name_H-M   'P 1'
_cell_length_a   7.80844310
_cell_length_b   7.85488076
_cell_length_c   15.19056053
_cell_angle_alpha   97.00606140
_cell_angle_beta   90.00000000
_cell_angle_gamma   90.00000000
_symmetry_Int_Tables_number   1
_chemical_formula_structural   KCa2Nb3O10
_chemical_formula_sum   'K4 Ca8 Nb12 O40'
_cell_volume   924.74695970
_cell_formula_units_Z   4
loop_
 _symmetry_equiv_pos_site_id
 _symmetry_equiv_pos_as_xyz
  1  'x, y, z'
loop_
 _atom_site_type_symbol
 _atom_site_label
 _atom_site_symmetry_multiplicity
 _atom_site_fract_x
 _atom_site_fract_y
 _atom_site_fract_z
 _atom_site_occupancy
  K  K0  1  0.25000000  0.63585922  0.52281775  1
  K  K1  1  0.25000000  0.13060735  0.50956911  1
  K  K2  1  0.75000000  0.86939265  0.49043089  1
  K  K3  1  0.75000000  0.36414078  0.47718225  1
  Ca  Ca4  1  0.25000000  0.79830205  0.14917225  1
  Ca  Ca5  1  0.25000000  0.29259145  0.15799341  1
  Ca  Ca6  1  0.75000000  0.78395456  0.14909887  1
  Ca  Ca7  1  0.75000000  0.20169795  0.85082775  1
  Ca  Ca8  1  0.75000000  0.70740855  0.84200659  1
  Ca  Ca9  1  0.25000000  0.71185979  0.86191839  1
  Ca  Ca10  1  0.25000000  0.21604544  0.85090113  1
  Ca  Ca11  1  0.75000000  0.28814021  0.13808161  1
  Nb  Nb12  1  0.50521599  0.06766937  0.28588059  1
  Nb  Nb13  1  0.00521599  0.93233063  0.71411941  1
  Nb  Nb14  1  0.49478401  0.93233063  0.71411941  1
  Nb  Nb15  1  0.00331766  0.42855699  0.71330828  1
  Nb  Nb16  1  0.50331766  0.57144301  0.28669172  1
  Nb  Nb17  1  0.99478401  0.06766937  0.28588059  1
  Nb  Nb18  1  0.99668234  0.57144301  0.28669172  1
  Nb  Nb19  1  0.50000000  0.50000000  0.00000000  1
  Nb  Nb20  1  0.49668234  0.42855699  0.71330828  1
  Nb  Nb21  1  0.00000000  0.00000000  0.00000000  1
  Nb  Nb22  1  0.00000000  0.50000000  0.00000000  1
  Nb  Nb23  1  0.50000000  0.00000000  0.00000000  1
  O  O24  1  0.51077394  0.68500338  0.73107281  1
  O  O25  1  0.04492699  0.91687275  0.59705281  1
  O  O26  1  0.51228771  0.80936744  0.24516026  1
  O  O27  1  0.03572441  0.50003272  0.12787159  1
  O  O28  1  0.48922606  0.31499662  0.26892719  1
  O  O29  1  0.25000000  0.45274258  0.75807330  1
  O  O30  1  0.98771229  0.80936744  0.24516026  1
  O  O31  1  0.25000000  0.04820532  0.28134656  1
  O  O32  1  0.56680137  0.24716428  0.98896454  1
  O  O33  1  0.06680137  0.75283572  0.01103546  1
  O  O34  1  0.75000000  0.06981746  0.23682528  1
  O  O35  1  0.46686823  0.38838469  0.59518019  1
  O  O36  1  0.98922606  0.68500338  0.73107281  1
  O  O37  1  0.75000000  0.54725742  0.24192670  1
  O  O38  1  0.25000000  0.04387841  0.96853011  1
  O  O39  1  0.75000000  0.41556436  0.72608100  1
  O  O40  1  0.53313177  0.61161531  0.40481981  1
  O  O41  1  0.75000000  0.56351937  0.02542929  1
  O  O42  1  0.03313177  0.38838469  0.59518019  1
  O  O43  1  0.05100975  0.05777964  0.12714782  1
  O  O44  1  0.25000000  0.58443564  0.27391900  1
  O  O45  1  0.46427559  0.50003272  0.12787159  1
  O  O46  1  0.95507301  0.08312725  0.40294719  1
  O  O47  1  0.54492699  0.08312725  0.40294719  1
  O  O48  1  0.01228771  0.19063256  0.75483974  1
  O  O49  1  0.94899025  0.94222036  0.87285218  1
  O  O50  1  0.48771229  0.19063256  0.75483974  1
  O  O51  1  0.75000000  0.95179468  0.71865344  1
  O  O52  1  0.01077394  0.31499662  0.26892719  1
  O  O53  1  0.25000000  0.43648063  0.97457071  1
  O  O54  1  0.96427559  0.49996728  0.87212841  1
  O  O55  1  0.96686823  0.61161531  0.40481981  1
  O  O56  1  0.75000000  0.95612159  0.03146989  1
  O  O57  1  0.43319863  0.75283572  0.01103546  1
  O  O58  1  0.44899025  0.05777964  0.12714782  1
  O  O59  1  0.53572441  0.49996728  0.87212841  1
  O  O60  1  0.55100975  0.94222036  0.87285218  1
  O  O61  1  0.45507301  0.91687275  0.59705281  1
  O  O62  1  0.93319863  0.24716428  0.98896454  1
  O  O63  1  0.25000000  0.93018254  0.76317472  1
