# generated using pymatgen
data_Ba5Ru2Cl2O9
_symmetry_space_group_name_H-M   'P 1'
_cell_length_a   6.02961349
_cell_length_b   14.52819598
_cell_length_c   15.57496847
_cell_angle_alpha   90.00000000
_cell_angle_beta   90.00000000
_cell_angle_gamma   90.00000000
_symmetry_Int_Tables_number   1
_chemical_formula_structural   Ba5Ru2Cl2O9
_chemical_formula_sum   'Ba20 Ru8 Cl8 O36'
_cell_volume   1364.35799370
_cell_formula_units_Z   4
loop_
 _symmetry_equiv_pos_site_id
 _symmetry_equiv_pos_as_xyz
  1  'x, y, z'
loop_
 _atom_site_type_symbol
 _atom_site_label
 _atom_site_symmetry_multiplicity
 _atom_site_fract_x
 _atom_site_fract_y
 _atom_site_fract_z
 _atom_site_occupancy
  Ba  Ba0  1  0.75000000  0.72998874  0.50208933  1
  Ba  Ba1  1  0.25000000  0.67173297  0.79098169  1
  Ba  Ba2  1  0.75000000  0.01997729  0.37297048  1
  Ba  Ba3  1  0.25000000  0.51997729  0.12702952  1
  Ba  Ba4  1  0.75000000  0.44218690  0.43017987  1
  Ba  Ba5  1  0.25000000  0.27001126  0.49791067  1
  Ba  Ba6  1  0.75000000  0.85409818  0.76048273  1
  Ba  Ba7  1  0.75000000  0.64590182  0.26048273  1
  Ba  Ba8  1  0.75000000  0.17173297  0.70901831  1
  Ba  Ba9  1  0.75000000  0.05781310  0.93017987  1
  Ba  Ba10  1  0.25000000  0.98002271  0.62702952  1
  Ba  Ba11  1  0.75000000  0.48002271  0.87297048  1
  Ba  Ba12  1  0.75000000  0.32826703  0.20901831  1
  Ba  Ba13  1  0.25000000  0.94218690  0.06982013  1
  Ba  Ba14  1  0.25000000  0.22998874  0.99791067  1
  Ba  Ba15  1  0.25000000  0.82826703  0.29098169  1
  Ba  Ba16  1  0.25000000  0.35409818  0.73951727  1
  Ba  Ba17  1  0.25000000  0.55781310  0.56982013  1
  Ba  Ba18  1  0.75000000  0.77001126  0.00208933  1
  Ba  Ba19  1  0.25000000  0.14590182  0.23951727  1
  Ru  Ru20  1  0.75000000  0.43782796  0.65407545  1
  Ru  Ru21  1  0.25000000  0.93782796  0.84592455  1
  Ru  Ru22  1  0.25000000  0.37485148  0.30255328  1
  Ru  Ru23  1  0.25000000  0.12514852  0.80255328  1
  Ru  Ru24  1  0.75000000  0.87485148  0.19744672  1
  Ru  Ru25  1  0.25000000  0.56217204  0.34592455  1
  Ru  Ru26  1  0.75000000  0.62514852  0.69744672  1
  Ru  Ru27  1  0.75000000  0.06217204  0.15407545  1
  Cl  Cl28  1  0.25000000  0.44455044  0.92733931  1
  Cl  Cl29  1  0.75000000  0.94455044  0.57266069  1
  Cl  Cl30  1  0.75000000  0.55544956  0.07266069  1
  Cl  Cl31  1  0.25000000  0.68592887  0.99099422  1
  Cl  Cl32  1  0.25000000  0.81407113  0.49099422  1
  Cl  Cl33  1  0.75000000  0.18592887  0.50900578  1
  Cl  Cl34  1  0.75000000  0.31407113  0.00900578  1
  Cl  Cl35  1  0.25000000  0.05544956  0.42733931  1
  O  O36  1  0.50854145  0.11313168  0.09096263  1
  O  O37  1  0.02243080  0.20382523  0.84282357  1
  O  O38  1  0.47756920  0.29617477  0.34282357  1
  O  O39  1  0.25000000  0.64882903  0.25411202  1
  O  O40  1  0.25000000  0.33036806  0.18313467  1
  O  O41  1  0.75000000  0.94392166  0.07968431  1
  O  O42  1  0.75000000  0.66963194  0.81686533  1
  O  O43  1  0.47836366  0.01993183  0.77333372  1
  O  O44  1  0.75000000  0.14882903  0.24588798  1
  O  O45  1  0.97756920  0.79617477  0.15717643  1
  O  O46  1  0.25000000  0.05607834  0.92031569  1
  O  O47  1  0.75000000  0.35117097  0.74588798  1
  O  O48  1  0.25000000  0.85117097  0.75411202  1
  O  O49  1  0.52243080  0.70382523  0.65717643  1
  O  O50  1  0.99145855  0.11313168  0.09096263  1
  O  O51  1  0.47756920  0.20382523  0.84282357  1
  O  O52  1  0.52163634  0.98006817  0.22666628  1
  O  O53  1  0.50854145  0.38686832  0.59096263  1
  O  O54  1  0.52163634  0.51993183  0.72666628  1
  O  O55  1  0.00854145  0.61313168  0.40903737  1
  O  O56  1  0.49145855  0.61313168  0.40903737  1
  O  O57  1  0.99145855  0.38686832  0.59096263  1
  O  O58  1  0.02243080  0.29617477  0.34282357  1
  O  O59  1  0.00854145  0.88686832  0.90903737  1
  O  O60  1  0.02163634  0.48006817  0.27333372  1
  O  O61  1  0.97756920  0.70382523  0.65717643  1
  O  O62  1  0.02163634  0.01993183  0.77333372  1
  O  O63  1  0.52243080  0.79617477  0.15717643  1
  O  O64  1  0.97836366  0.98006817  0.22666628  1
  O  O65  1  0.75000000  0.55607834  0.57968431  1
  O  O66  1  0.25000000  0.44392166  0.42031569  1
  O  O67  1  0.49145855  0.88686832  0.90903737  1
  O  O68  1  0.47836366  0.48006817  0.27333372  1
  O  O69  1  0.75000000  0.83036806  0.31686533  1
  O  O70  1  0.97836366  0.51993183  0.72666628  1
  O  O71  1  0.25000000  0.16963194  0.68313467  1
