# generated using pymatgen
data_BaYCuAgO5
_symmetry_space_group_name_H-M   'P 1'
_cell_length_a   3.98280174
_cell_length_b   3.98189561
_cell_length_c   8.01243804
_cell_angle_alpha   90.00000543
_cell_angle_beta   90.00002202
_cell_angle_gamma   90.00000000
_symmetry_Int_Tables_number   1
_chemical_formula_structural   BaYCuAgO5
_chemical_formula_sum   'Ba1 Y1 Cu1 Ag1 O5'
_cell_volume   127.07006224
_cell_formula_units_Z   1
loop_
 _symmetry_equiv_pos_site_id
 _symmetry_equiv_pos_as_xyz
  1  'x, y, z'
loop_
 _atom_site_type_symbol
 _atom_site_label
 _atom_site_symmetry_multiplicity
 _atom_site_fract_x
 _atom_site_fract_y
 _atom_site_fract_z
 _atom_site_occupancy
  Ba  Ba0  1  0.00000100  0.99999900  0.99863568  1
  Y  Y1  1  0.00000000  0.00000000  0.45657987  1
  Cu  Cu2  1  0.49999900  0.49999800  0.23820982  1
  Ag  Ag3  1  0.50000000  0.50000000  0.69583888  1
  O  O4  1  1.00000000  0.50000000  0.62653990  1
  O  O5  1  0.50000000  1.00000000  0.62650745  1
  O  O6  1  0.99999900  0.50000000  0.27965437  1
  O  O7  1  0.49999800  0.99999900  0.27965144  1
  O  O8  1  0.49999900  0.50000000  0.98629957  1
