# generated using pymatgen
data_KNaSiF6
_symmetry_space_group_name_H-M   'P 1'
_cell_length_a   5.54966650
_cell_length_b   9.52433889
_cell_length_c   9.90833347
_cell_angle_alpha   90.00000000
_cell_angle_beta   90.00000000
_cell_angle_gamma   90.00000000
_symmetry_Int_Tables_number   1
_chemical_formula_structural   KNaSiF6
_chemical_formula_sum   'K4 Na4 Si4 F24'
_cell_volume   523.72383571
_cell_formula_units_Z   4
loop_
 _symmetry_equiv_pos_site_id
 _symmetry_equiv_pos_as_xyz
  1  'x, y, z'
loop_
 _atom_site_type_symbol
 _atom_site_label
 _atom_site_symmetry_multiplicity
 _atom_site_fract_x
 _atom_site_fract_y
 _atom_site_fract_z
 _atom_site_occupancy
  K  K0  1  0.75000000  0.98594467  0.67613540  1
  K  K1  1  0.25000000  0.51405533  0.17613540  1
  K  K2  1  0.25000000  0.01405533  0.32386460  1
  K  K3  1  0.75000000  0.48594467  0.82386460  1
  Na  Na4  1  0.75000000  0.12688721  0.05312825  1
  Na  Na5  1  0.75000000  0.62688721  0.44687175  1
  Na  Na6  1  0.25000000  0.37311279  0.55312825  1
  Na  Na7  1  0.25000000  0.87311279  0.94687175  1
  Si  Si8  1  0.75000000  0.27176730  0.42198484  1
  Si  Si9  1  0.25000000  0.22823270  0.92198484  1
  Si  Si10  1  0.75000000  0.77176730  0.07801516  1
  Si  Si11  1  0.25000000  0.72823270  0.57801516  1
  F  F12  1  0.52940351  0.17111139  0.49607746  1
  F  F13  1  0.96942832  0.37727939  0.35460191  1
  F  F14  1  0.75000000  0.16566870  0.28291554  1
  F  F15  1  0.97059649  0.67111139  0.00392254  1
  F  F16  1  0.03057168  0.62272061  0.64539809  1
  F  F17  1  0.97059649  0.17111139  0.49607746  1
  F  F18  1  0.25000000  0.62082155  0.43630625  1
  F  F19  1  0.02940351  0.82888861  0.50392254  1
  F  F20  1  0.25000000  0.83433130  0.71708446  1
  F  F21  1  0.25000000  0.33433130  0.78291554  1
  F  F22  1  0.46942832  0.12272061  0.85460191  1
  F  F23  1  0.52940351  0.67111139  0.00392254  1
  F  F24  1  0.75000000  0.66566870  0.21708446  1
  F  F25  1  0.03057168  0.12272061  0.85460191  1
  F  F26  1  0.47059649  0.82888861  0.50392254  1
  F  F27  1  0.75000000  0.87917845  0.93630625  1
  F  F28  1  0.02940351  0.32888861  0.99607746  1
  F  F29  1  0.46942832  0.62272061  0.64539809  1
  F  F30  1  0.47059649  0.32888861  0.99607746  1
  F  F31  1  0.96942832  0.87727939  0.14539809  1
  F  F32  1  0.25000000  0.12082155  0.06369375  1
  F  F33  1  0.75000000  0.37917845  0.56369375  1
  F  F34  1  0.53057168  0.87727939  0.14539809  1
  F  F35  1  0.53057168  0.37727939  0.35460191  1
