# generated using pymatgen
data_CuAs4S3Cl
_symmetry_space_group_name_H-M   'P 1'
_cell_length_a   7.51407105
_cell_length_b   11.19217710
_cell_length_c   11.25481202
_cell_angle_alpha   90.00000000
_cell_angle_beta   90.00000000
_cell_angle_gamma   90.00000000
_symmetry_Int_Tables_number   1
_chemical_formula_structural   CuAs4S3Cl
_chemical_formula_sum   'Cu4 As16 S12 Cl4'
_cell_volume   946.51634193
_cell_formula_units_Z   4
loop_
 _symmetry_equiv_pos_site_id
 _symmetry_equiv_pos_as_xyz
  1  'x, y, z'
loop_
 _atom_site_type_symbol
 _atom_site_label
 _atom_site_symmetry_multiplicity
 _atom_site_fract_x
 _atom_site_fract_y
 _atom_site_fract_z
 _atom_site_occupancy
  Cu  Cu0  1  0.00000000  0.69229264  0.75000000  1
  Cu  Cu1  1  0.50000000  0.69229264  0.75000000  1
  Cu  Cu2  1  0.00000000  0.30770736  0.25000000  1
  Cu  Cu3  1  0.50000000  0.30770736  0.25000000  1
  As  As4  1  0.25000000  0.25149681  0.78768477  1
  As  As5  1  0.58316736  0.36193525  0.55285798  1
  As  As6  1  0.08316736  0.36193525  0.94714202  1
  As  As7  1  0.25000000  0.92385378  0.55988730  1
  As  As8  1  0.08316736  0.63806475  0.44714202  1
  As  As9  1  0.41683264  0.36193525  0.94714202  1
  As  As10  1  0.25000000  0.07614622  0.05988730  1
  As  As11  1  0.91683264  0.63806475  0.05285798  1
  As  As12  1  0.41683264  0.63806475  0.44714202  1
  As  As13  1  0.91683264  0.36193525  0.55285798  1
  As  As14  1  0.75000000  0.92385378  0.94011270  1
  As  As15  1  0.75000000  0.74850319  0.21231523  1
  As  As16  1  0.75000000  0.07614622  0.44011270  1
  As  As17  1  0.25000000  0.74850319  0.28768477  1
  As  As18  1  0.75000000  0.25149681  0.71231523  1
  As  As19  1  0.58316736  0.63806475  0.05285798  1
  S  S20  1  0.98213427  0.20973560  0.42542992  1
  S  S21  1  0.25000000  0.06292441  0.85982310  1
  S  S22  1  0.75000000  0.93707559  0.14017690  1
  S  S23  1  0.98213427  0.79026440  0.92542992  1
  S  S24  1  0.01786573  0.20973560  0.07457008  1
  S  S25  1  0.25000000  0.93707559  0.35982310  1
  S  S26  1  0.51786573  0.20973560  0.42542992  1
  S  S27  1  0.01786573  0.79026440  0.57457008  1
  S  S28  1  0.48213427  0.79026440  0.57457008  1
  S  S29  1  0.48213427  0.20973560  0.07457008  1
  S  S30  1  0.75000000  0.06292441  0.64017690  1
  S  S31  1  0.51786573  0.79026440  0.92542992  1
  Cl  Cl32  1  0.25000000  0.56060580  0.77075733  1
  Cl  Cl33  1  0.25000000  0.43939420  0.27075733  1
  Cl  Cl34  1  0.75000000  0.43939420  0.22924267  1
  Cl  Cl35  1  0.75000000  0.56060580  0.72924267  1
