# generated using pymatgen
data_Hg3ClO
_symmetry_space_group_name_H-M   'P 1'
_cell_length_a   9.24996088
_cell_length_b   10.93778716
_cell_length_c   17.33137464
_cell_angle_alpha   72.05587267
_cell_angle_beta   74.52273983
_cell_angle_gamma   64.98571405
_symmetry_Int_Tables_number   1
_chemical_formula_structural   Hg3ClO
_chemical_formula_sum   'Hg36 Cl12 O12'
_cell_volume   1492.62813700
_cell_formula_units_Z   12
loop_
 _symmetry_equiv_pos_site_id
 _symmetry_equiv_pos_as_xyz
  1  'x, y, z'
loop_
 _atom_site_type_symbol
 _atom_site_label
 _atom_site_symmetry_multiplicity
 _atom_site_fract_x
 _atom_site_fract_y
 _atom_site_fract_z
 _atom_site_occupancy
  Hg  Hg0  1  0.81458509  0.01862854  0.65695034  1
  Hg  Hg1  1  0.25012577  0.85303917  0.61115530  1
  Hg  Hg2  1  0.39155032  0.15921918  0.82144327  1
  Hg  Hg3  1  0.04180391  0.65963149  0.20206909  1
  Hg  Hg4  1  0.36110966  0.15594921  0.03546010  1
  Hg  Hg5  1  0.05311571  0.83702373  0.82061924  1
  Hg  Hg6  1  0.20669316  0.46222259  0.86562450  1
  Hg  Hg7  1  0.71075868  0.66297627  0.67938076  1
  Hg  Hg8  1  0.12480045  0.52138795  0.50990246  1
  Hg  Hg9  1  0.63889034  0.84405079  0.96453990  1
  Hg  Hg10  1  0.74987423  0.14696083  0.38884470  1
  Hg  Hg11  1  0.49016397  0.48137146  0.84304966  1
  Hg  Hg12  1  0.28567976  0.35303917  0.11115530  1
  Hg  Hg13  1  0.90350449  0.84036851  0.29793091  1
  Hg  Hg14  1  0.15609086  0.97861205  0.99009754  1
  Hg  Hg15  1  0.87519955  0.47861205  0.49009754  1
  Hg  Hg16  1  0.28924132  0.33702373  0.32061924  1
  Hg  Hg17  1  0.94975511  0.30390457  0.02657479  1
  Hg  Hg18  1  0.95819609  0.34036851  0.79793091  1
  Hg  Hg19  1  0.44748103  0.65594921  0.53546010  1
  Hg  Hg20  1  0.28023447  0.19609543  0.47342521  1
  Hg  Hg21  1  0.55251897  0.34405079  0.46453990  1
  Hg  Hg22  1  0.05024489  0.69609543  0.97342521  1
  Hg  Hg23  1  0.79330684  0.53777741  0.13437550  1
  Hg  Hg24  1  0.09649551  0.15963149  0.70206909  1
  Hg  Hg25  1  0.62778723  0.65921918  0.32144327  1
  Hg  Hg26  1  0.84390914  0.02138795  0.00990246  1
  Hg  Hg27  1  0.37221277  0.34078082  0.67855673  1
  Hg  Hg28  1  0.71432024  0.64696083  0.88884470  1
  Hg  Hg29  1  0.46545975  0.96222259  0.36562450  1
  Hg  Hg30  1  0.18541491  0.98137146  0.34304966  1
  Hg  Hg31  1  0.94688429  0.16297627  0.17938076  1
  Hg  Hg32  1  0.71976553  0.80390457  0.52657479  1
  Hg  Hg33  1  0.53454025  0.03777741  0.63437550  1
  Hg  Hg34  1  0.50983603  0.51862854  0.15695034  1
  Hg  Hg35  1  0.60844968  0.84078082  0.17855673  1
  Cl  Cl36  1  0.95965627  0.18601656  0.51546131  1
  Cl  Cl37  1  0.61843715  0.10617742  0.21808679  1
  Cl  Cl38  1  0.04034373  0.81398344  0.48453869  1
  Cl  Cl39  1  0.64832720  0.42643925  0.65500806  1
  Cl  Cl40  1  0.72977451  0.07356075  0.84499194  1
  Cl  Cl41  1  0.05729865  0.60617742  0.71808679  1
  Cl  Cl42  1  0.35167280  0.57356075  0.34499194  1
  Cl  Cl43  1  0.33886585  0.68601656  0.01546131  1
  Cl  Cl44  1  0.38156285  0.89382258  0.78191321  1
  Cl  Cl45  1  0.66113415  0.31398344  0.98453869  1
  Cl  Cl46  1  0.27022549  0.92643925  0.15500806  1
  Cl  Cl47  1  0.94270135  0.39382258  0.28191321  1
  O  O48  1  0.29393696  0.46437899  0.19585472  1
  O  O49  1  0.64279460  0.53945687  0.44732709  1
  O  O50  1  0.95417067  0.03562101  0.30414528  1
  O  O51  1  0.35720540  0.46054313  0.55267291  1
  O  O52  1  0.37042144  0.03945687  0.94732709  1
  O  O53  1  0.70606304  0.53562101  0.80414528  1
  O  O54  1  0.69290335  0.91893021  0.40260410  1
  O  O55  1  0.01443767  0.58106979  0.09739590  1
  O  O56  1  0.04582933  0.96437899  0.69585472  1
  O  O57  1  0.98556233  0.41893021  0.90260410  1
  O  O58  1  0.30709665  0.08106979  0.59739590  1
  O  O59  1  0.62957856  0.96054313  0.05267291  1
