# generated using pymatgen
data_Rb2MnF6
_symmetry_space_group_name_H-M   'P 1'
_cell_length_a   6.06928937
_cell_length_b   6.06928936
_cell_length_c   9.89217446
_cell_angle_alpha   90.00000000
_cell_angle_beta   90.00000000
_cell_angle_gamma   119.99999999
_symmetry_Int_Tables_number   1
_chemical_formula_structural   Rb2MnF6
_chemical_formula_sum   'Rb4 Mn2 F12'
_cell_volume   315.57172693
_cell_formula_units_Z   2
loop_
 _symmetry_equiv_pos_site_id
 _symmetry_equiv_pos_as_xyz
  1  'x, y, z'
loop_
 _atom_site_type_symbol
 _atom_site_label
 _atom_site_symmetry_multiplicity
 _atom_site_fract_x
 _atom_site_fract_y
 _atom_site_fract_z
 _atom_site_occupancy
  F  F0  1  0.52397136  0.47602864  0.64693936  1
  F  F1  1  0.04794272  0.52397136  0.14693936  1
  F  F2  1  0.47602864  0.95205728  0.14693936  1
  F  F3  1  0.52397136  0.04794272  0.64693936  1
  F  F4  1  0.95205728  0.47602864  0.64693936  1
  F  F5  1  0.47602864  0.52397136  0.14693936  1
  F  F6  1  0.18666363  0.81333637  0.36036547  1
  F  F7  1  0.37332726  0.18666363  0.86036547  1
  F  F8  1  0.81333637  0.62667274  0.86036547  1
  F  F9  1  0.18666363  0.37332726  0.36036547  1
  F  F10  1  0.62667274  0.81333637  0.36036547  1
  F  F11  1  0.81333637  0.18666363  0.86036547  1
  Mn  Mn12  1  0.33333333  0.66666667  0.25651638  1
  Mn  Mn13  1  0.66666667  0.33333333  0.75651638  1
  Rb  Rb14  1  0.66666667  0.33333333  0.37259014  1
  Rb  Rb15  1  0.33333333  0.66666667  0.87259014  1
  Rb  Rb16  1  0.00000000  0.00000000  0.59897901  1
  Rb  Rb17  1  0.00000000  0.00000000  0.09897901  1
