# generated using pymatgen
data_TlF
_symmetry_space_group_name_H-M   'P 1'
_cell_length_a   5.41621095
_cell_length_b   5.47493711
_cell_length_c   6.31615960
_cell_angle_alpha   90.00000000
_cell_angle_beta   90.00000000
_cell_angle_gamma   90.00000000
_symmetry_Int_Tables_number   1
_chemical_formula_structural   TlF
_chemical_formula_sum   'Tl4 F4'
_cell_volume   187.29569757
_cell_formula_units_Z   4
loop_
 _symmetry_equiv_pos_site_id
 _symmetry_equiv_pos_as_xyz
  1  'x, y, z'
loop_
 _atom_site_type_symbol
 _atom_site_label
 _atom_site_symmetry_multiplicity
 _atom_site_fract_x
 _atom_site_fract_y
 _atom_site_fract_z
 _atom_site_occupancy
  Tl  Tl0  1  0.25000000  0.28097699  0.25562061  1
  Tl  Tl1  1  0.25000000  0.77866596  0.74857035  1
  Tl  Tl2  1  0.75000000  0.28097699  0.74437939  1
  Tl  Tl3  1  0.75000000  0.77866596  0.25142965  1
  F  F4  1  0.25000000  0.30328605  0.64980057  1
  F  F5  1  0.75000000  0.80107101  0.64508668  1
  F  F6  1  0.25000000  0.80107101  0.35491332  1
  F  F7  1  0.75000000  0.30328605  0.35019943  1
