# generated using pymatgen
data_PrZn(CuO3)2
_symmetry_space_group_name_H-M   'P 1'
_cell_length_a   5.21694699
_cell_length_b   5.42723780
_cell_length_c   7.60494657
_cell_angle_alpha   90.00084225
_cell_angle_beta   89.95376408
_cell_angle_gamma   90.04964291
_symmetry_Int_Tables_number   1
_chemical_formula_structural   PrZn(CuO3)2
_chemical_formula_sum   'Pr2 Zn2 Cu4 O12'
_cell_volume   215.32335463
_cell_formula_units_Z   2
loop_
 _symmetry_equiv_pos_site_id
 _symmetry_equiv_pos_as_xyz
  1  'x, y, z'
loop_
 _atom_site_type_symbol
 _atom_site_label
 _atom_site_symmetry_multiplicity
 _atom_site_fract_x
 _atom_site_fract_y
 _atom_site_fract_z
 _atom_site_occupancy
  Pr  Pr0  1  0.01160730  0.95583415  0.75049773  1
  Pr  Pr1  1  0.51180377  0.54384939  0.24958358  1
  Zn  Zn2  1  0.47477462  0.44658007  0.74991636  1
  Zn  Zn3  1  0.97466134  0.05347898  0.25000976  1
  Cu  Cu4  1  0.99920255  0.49695765  0.99851821  1
  Cu  Cu5  1  0.99886770  0.49687115  0.50147762  1
  Cu  Cu6  1  0.49877993  0.00300060  0.49855828  1
  Cu  Cu7  1  0.49894221  0.00293136  0.00148296  1
  O  O8  1  0.07199718  0.44768917  0.25071291  1
  O  O9  1  0.23089033  0.23647372  0.94270130  1
  O  O10  1  0.23091232  0.23663337  0.55791171  1
  O  O11  1  0.30867131  0.69775575  0.55775358  1
  O  O12  1  0.30911836  0.69801797  0.94214742  1
  O  O13  1  0.36416193  0.97767308  0.25003817  1
  O  O14  1  0.57189448  0.05224892  0.74981674  1
  O  O15  1  0.73090292  0.26361114  0.05743570  1
  O  O16  1  0.73080954  0.26352118  0.44228192  1
  O  O17  1  0.80890630  0.80232131  0.05790407  1
  O  O18  1  0.80903365  0.80219285  0.44207475  1
  O  O19  1  0.86405924  0.52235719  0.74917822  1
