# generated using pymatgen
data_Nd2Cu(GeO4)2
_symmetry_space_group_name_H-M   'P 1'
_cell_length_a   5.21112332
_cell_length_b   8.53561066
_cell_length_c   9.17785386
_cell_angle_alpha   117.40085393
_cell_angle_beta   106.02027678
_cell_angle_gamma   90.97992687
_symmetry_Int_Tables_number   1
_chemical_formula_structural   Nd2Cu(GeO4)2
_chemical_formula_sum   'Nd4 Cu2 Ge4 O16'
_cell_volume   343.35291697
_cell_formula_units_Z   2
loop_
 _symmetry_equiv_pos_site_id
 _symmetry_equiv_pos_as_xyz
  1  'x, y, z'
loop_
 _atom_site_type_symbol
 _atom_site_label
 _atom_site_symmetry_multiplicity
 _atom_site_fract_x
 _atom_site_fract_y
 _atom_site_fract_z
 _atom_site_occupancy
  Nd  Nd0  1  0.40896242  0.11880830  0.75757657  1
  Nd  Nd1  1  0.66204945  0.86331331  0.24148007  1
  Nd  Nd2  1  0.42024099  0.62189032  0.75849745  1
  Nd  Nd3  1  0.65122498  0.36122642  0.24240641  1
  Cu  Cu4  1  0.81429662  0.82274114  0.58624112  1
  Cu  Cu5  1  0.22805819  0.23655985  0.41376291  1
  Ge  Ge6  1  0.98900808  1.00045002  0.00004651  1
  Ge  Ge7  1  0.22733870  0.69416797  0.42084194  1
  Ge  Ge8  1  0.08469510  0.49565334  0.99997332  1
  Ge  Ge9  1  0.80646334  0.27330449  0.57913808  1
  O  O10  1  0.57928236  0.40689262  0.51784443  1
  O  O11  1  0.28764159  0.66476290  1.00001539  1
  O  O12  1  0.28808177  0.33171384  -0.00001487  1
  O  O13  1  0.78331699  0.83086785  -0.00000030  1
  O  O14  1  0.84922927  0.16223010  0.34710092  1
  O  O15  1  0.77774456  0.40447665  0.81576526  1
  O  O16  1  0.10270903  0.91274248  0.81343360  1
  O  O17  1  0.17470293  0.32195270  0.65513597  1
  O  O18  1  0.77315351  0.16125649  1.00004810  1
  O  O19  1  0.50213661  0.81511008  0.65288204  1
  O  O20  1  0.96198452  0.58870431  0.18420561  1
  O  O21  1  0.08041606  0.53894042  0.46646124  1
  O  O22  1  0.51957384  0.66678550  0.34484477  1
  O  O23  1  0.28939797  0.09937446  0.18662031  1
  O  O24  1  0.61401849  0.07243245  0.53353144  1
  O  O25  1  0.06147261  0.88904201  0.48216172  1
