# generated using pymatgen
data_U3Tl2(IO5)4
_symmetry_space_group_name_H-M   'P 1'
_cell_length_a   7.09117686
_cell_length_b   8.22626372
_cell_length_c   9.27675682
_cell_angle_alpha   90.57414198
_cell_angle_beta   105.32521005
_cell_angle_gamma   91.68868021
_symmetry_Int_Tables_number   1
_chemical_formula_structural   U3Tl2(IO5)4
_chemical_formula_sum   'U3 Tl2 I4 O20'
_cell_volume   521.59102216
_cell_formula_units_Z   1
loop_
 _symmetry_equiv_pos_site_id
 _symmetry_equiv_pos_as_xyz
  1  'x, y, z'
loop_
 _atom_site_type_symbol
 _atom_site_label
 _atom_site_symmetry_multiplicity
 _atom_site_fract_x
 _atom_site_fract_y
 _atom_site_fract_z
 _atom_site_occupancy
  U  U0  1  0.55154097  0.92229646  0.19374159  1
  U  U1  1  0.44845903  0.07770354  0.80625841  1
  U  U2  1  0.00000000  0.00000000  0.00000000  1
  Tl  Tl3  1  0.75132295  0.41043587  0.15551458  1
  Tl  Tl4  1  0.24867705  0.58956413  0.84448542  1
  I  I5  1  0.29625420  0.35131816  0.44194160  1
  I  I6  1  0.87653822  0.20239753  0.62289695  1
  I  I7  1  0.12346178  0.79760247  0.37710305  1
  I  I8  1  0.70374580  0.64868184  0.55805840  1
  O  O9  1  0.90972020  0.39855615  0.71754777  1
  O  O10  1  0.69025805  0.01116525  0.01284128  1
  O  O11  1  0.56950285  0.81100027  0.44149734  1
  O  O12  1  0.30974195  0.98883475  0.98715872  1
  O  O13  1  0.22727669  0.90998184  0.23671319  1
  O  O14  1  0.42488078  0.87007708  0.72686140  1
  O  O15  1  0.89162478  0.89669896  0.29165186  1
  O  O16  1  0.46587476  0.28891957  0.87612353  1
  O  O17  1  0.04371174  0.28787107  0.44222756  1
  O  O18  1  0.35132987  0.52105574  0.57716568  1
  O  O19  1  0.64867013  0.47894426  0.42283432  1
  O  O20  1  0.10837522  0.10330104  0.70834814  1
  O  O21  1  0.57511922  0.12992292  0.27313860  1
  O  O22  1  0.95628826  0.71212893  0.55777244  1
  O  O23  1  0.77272331  0.09001816  0.76328681  1
  O  O24  1  0.53412524  0.71108043  0.12387647  1
  O  O25  1  0.95176179  0.79086237  0.92785647  1
  O  O26  1  0.09027980  0.60144385  0.28245223  1
  O  O27  1  0.04823821  0.20913763  0.07214353  1
  O  O28  1  0.43049715  0.18899973  0.55850266  1
