# generated using pymatgen
data_Cu4Te5(ClO3)4
_symmetry_space_group_name_H-M   'P 1'
_cell_length_a   6.39636775
_cell_length_b   11.56670741
_cell_length_c   11.56670741
_cell_angle_alpha   90.00000000
_cell_angle_beta   90.00000000
_cell_angle_gamma   90.00000000
_symmetry_Int_Tables_number   1
_chemical_formula_structural   Cu4Te5(ClO3)4
_chemical_formula_sum   'Cu8 Te10 Cl8 O24'
_cell_volume   855.76185590
_cell_formula_units_Z   2
loop_
 _symmetry_equiv_pos_site_id
 _symmetry_equiv_pos_as_xyz
  1  'x, y, z'
loop_
 _atom_site_type_symbol
 _atom_site_label
 _atom_site_symmetry_multiplicity
 _atom_site_fract_x
 _atom_site_fract_y
 _atom_site_fract_z
 _atom_site_occupancy
  Cu  Cu0  1  0.35004627  0.75527202  0.40691375  1
  Cu  Cu1  1  0.64995373  0.59308625  0.25527202  1
  Cu  Cu2  1  0.64995373  0.90691375  0.24472798  1
  Cu  Cu3  1  0.35004627  0.09308625  0.75527202  1
  Cu  Cu4  1  0.35004627  0.74472798  0.09308625  1
  Cu  Cu5  1  0.64995373  0.24472798  0.59308625  1
  Cu  Cu6  1  0.64995373  0.25527202  0.90691375  1
  Cu  Cu7  1  0.35004627  0.40691375  0.74472798  1
  Te  Te8  1  0.87103641  0.82316709  0.47924593  1
  Te  Te9  1  0.36705931  0.25000000  0.25000000  1
  Te  Te10  1  0.63294069  0.75000000  0.75000000  1
  Te  Te11  1  0.87103641  0.67683291  0.02075407  1
  Te  Te12  1  0.12896359  0.17683291  0.52075407  1
  Te  Te13  1  0.12896359  0.32316709  0.97924593  1
  Te  Te14  1  0.87103641  0.02075407  0.82316709  1
  Te  Te15  1  0.87103641  0.47924593  0.67683291  1
  Te  Te16  1  0.12896359  0.97924593  0.17683291  1
  Te  Te17  1  0.12896359  0.52075407  0.32316709  1
  Cl  Cl18  1  0.32730064  0.55369404  0.61741883  1
  Cl  Cl19  1  0.32730064  0.94630596  0.88258117  1
  Cl  Cl20  1  0.32730064  0.61741883  0.94630596  1
  Cl  Cl21  1  0.67269936  0.11741883  0.44630596  1
  Cl  Cl22  1  0.67269936  0.38258117  0.05369404  1
  Cl  Cl23  1  0.67269936  0.44630596  0.38258117  1
  Cl  Cl24  1  0.32730064  0.88258117  0.55369404  1
  Cl  Cl25  1  0.67269936  0.05369404  0.11741883  1
  O  O26  1  0.94104386  0.57699951  0.20848119  1
  O  O27  1  0.76877088  0.59608490  0.78765978  1
  O  O28  1  0.64460546  0.78601865  0.37206365  1
  O  O29  1  0.35539454  0.21398135  0.62793635  1
  O  O30  1  0.23122912  0.40391510  0.21234022  1
  O  O31  1  0.94104386  0.29151881  0.57699951  1
  O  O32  1  0.94104386  0.20848119  0.92300049  1
  O  O33  1  0.94104386  0.92300049  0.29151881  1
  O  O34  1  0.35539454  0.62793635  0.28601865  1
  O  O35  1  0.23122912  0.28765978  0.40391510  1
  O  O36  1  0.64460546  0.71398135  0.12793635  1
  O  O37  1  0.76877088  0.71234022  0.59608490  1
  O  O38  1  0.23122912  0.21234022  0.09608490  1
  O  O39  1  0.05895614  0.07699951  0.70848119  1
  O  O40  1  0.05895614  0.42300049  0.79151881  1
  O  O41  1  0.23122912  0.09608490  0.28765978  1
  O  O42  1  0.76877088  0.90391510  0.71234022  1
  O  O43  1  0.76877088  0.78765978  0.90391510  1
  O  O44  1  0.64460546  0.12793635  0.78601865  1
  O  O45  1  0.35539454  0.28601865  0.87206365  1
  O  O46  1  0.05895614  0.79151881  0.07699951  1
  O  O47  1  0.35539454  0.87206365  0.21398135  1
  O  O48  1  0.64460546  0.37206365  0.71398135  1
  O  O49  1  0.05895614  0.70848119  0.42300049  1
