# generated using pymatgen
data_NaLiY2F8
_symmetry_space_group_name_H-M   'P 1'
_cell_length_a   6.75994474
_cell_length_b   6.76507641
_cell_length_c   7.12761466
_cell_angle_alpha   90.00000000
_cell_angle_beta   90.00000000
_cell_angle_gamma   103.20362619
_symmetry_Int_Tables_number   1
_chemical_formula_structural   NaLiY2F8
_chemical_formula_sum   'Na2 Li2 Y4 F16'
_cell_volume   317.33996624
_cell_formula_units_Z   2
loop_
 _symmetry_equiv_pos_site_id
 _symmetry_equiv_pos_as_xyz
  1  'x, y, z'
loop_
 _atom_site_type_symbol
 _atom_site_label
 _atom_site_symmetry_multiplicity
 _atom_site_fract_x
 _atom_site_fract_y
 _atom_site_fract_z
 _atom_site_occupancy
  Na  Na0  1  0.65776792  0.65800140  0.25000000  1
  Na  Na1  1  0.34223208  0.34199860  0.75000000  1
  Li  Li2  1  0.00000000  0.00000000  0.00000000  1
  Li  Li3  1  0.00000000  0.00000000  0.50000000  1
  Y  Y4  1  0.54972086  0.92332836  0.75000000  1
  Y  Y5  1  0.92332463  0.54955468  0.75000000  1
  Y  Y6  1  0.45027914  0.07667164  0.25000000  1
  Y  Y7  1  0.07667537  0.45044532  0.25000000  1
  F  F8  1  0.69109291  0.25419328  0.75000000  1
  F  F9  1  0.74577962  0.30862684  0.25000000  1
  F  F10  1  0.33894417  0.06398473  0.55084008  1
  F  F11  1  0.66105583  0.93601527  0.44915992  1
  F  F12  1  0.30890709  0.74580672  0.25000000  1
  F  F13  1  0.06422250  0.33928685  0.55088425  1
  F  F14  1  0.66105583  0.93601527  0.05084008  1
  F  F15  1  0.25422038  0.69137316  0.75000000  1
  F  F16  1  0.08785668  0.08777376  0.25000000  1
  F  F17  1  0.60866030  0.60868506  0.75000000  1
  F  F18  1  0.06422250  0.33928685  0.94911575  1
  F  F19  1  0.91214332  0.91222624  0.75000000  1
  F  F20  1  0.93577750  0.66071315  0.44911575  1
  F  F21  1  0.39133970  0.39131494  0.25000000  1
  F  F22  1  0.33894417  0.06398473  0.94915992  1
  F  F23  1  0.93577750  0.66071315  0.05088425  1
