# generated using pymatgen
data_Na2MgH8(SO6)2
_symmetry_space_group_name_H-M   'P 1'
_cell_length_a   5.56310634
_cell_length_b   8.36560632
_cell_length_c   11.22432533
_cell_angle_alpha   90.00000000
_cell_angle_beta   100.31269546
_cell_angle_gamma   90.00000000
_symmetry_Int_Tables_number   1
_chemical_formula_structural   Na2MgH8(SO6)2
_chemical_formula_sum   'Na4 Mg2 H16 S4 O24'
_cell_volume   513.92753676
_cell_formula_units_Z   2
loop_
 _symmetry_equiv_pos_site_id
 _symmetry_equiv_pos_as_xyz
  1  'x, y, z'
loop_
 _atom_site_type_symbol
 _atom_site_label
 _atom_site_symmetry_multiplicity
 _atom_site_fract_x
 _atom_site_fract_y
 _atom_site_fract_z
 _atom_site_occupancy
  Na  Na0  1  0.87662043  0.57245027  0.13871102  1
  Na  Na1  1  0.87662043  0.92754973  0.63871102  1
  Na  Na2  1  0.12337957  0.07245027  0.36128898  1
  Na  Na3  1  0.12337957  0.42754973  0.86128898  1
  Mg  Mg4  1  0.00000000  0.00000000  0.00000000  1
  Mg  Mg5  1  0.00000000  0.50000000  0.50000000  1
  H  H6  1  0.76421546  0.55232297  0.68247626  1
  H  H7  1  0.76131088  0.22385717  0.48442295  1
  H  H8  1  0.77248036  0.13653511  0.15520996  1
  H  H9  1  0.76131088  0.27614283  0.98442295  1
  H  H10  1  0.22751964  0.63653511  0.34479004  1
  H  H11  1  0.66952723  0.30180531  0.35942583  1
  H  H12  1  0.23578454  0.44767703  0.31752374  1
  H  H13  1  0.23578454  0.05232297  0.81752374  1
  H  H14  1  0.23868912  0.77614283  0.51557705  1
  H  H15  1  0.76421546  0.94767703  0.18247626  1
  H  H16  1  0.66952723  0.19819469  0.85942583  1
  H  H17  1  0.33047277  0.80180531  0.14057417  1
  H  H18  1  0.33047277  0.69819469  0.64057417  1
  H  H19  1  0.23868912  0.72385717  0.01557705  1
  H  H20  1  0.77248036  0.36346489  0.65520996  1
  H  H21  1  0.22751964  0.86346489  0.84479004  1
  S  S22  1  0.62375633  0.79073089  0.36428385  1
  S  S23  1  0.37624367  0.20926911  0.63571615  1
  S  S24  1  0.62375633  0.70926911  0.86428385  1
  S  S25  1  0.37624367  0.29073089  0.13571615  1
  O  O26  1  0.78117503  0.57813449  0.92120762  1
  O  O27  1  0.36077723  0.82262238  0.37266989  1
  O  O28  1  0.12956025  0.53603209  0.33828662  1
  O  O29  1  0.21882497  0.07813449  0.57879238  1
  O  O30  1  0.87043975  0.03603209  0.16171338  1
  O  O31  1  0.63849263  0.77878384  0.23160062  1
  O  O32  1  0.36150737  0.22121616  0.76839938  1
  O  O33  1  0.63922277  0.32262238  0.12733011  1
  O  O34  1  0.63922277  0.17737762  0.62733011  1
  O  O35  1  0.36150737  0.27878384  0.26839938  1
  O  O36  1  0.12956025  0.96396791  0.83828662  1
  O  O37  1  0.36077723  0.67737762  0.87266989  1
  O  O38  1  0.21882497  0.42186551  0.07879238  1
  O  O39  1  0.78117503  0.92186551  0.42120762  1
  O  O40  1  0.30458811  0.13579030  0.07493468  1
  O  O41  1  0.87043975  0.46396791  0.66171338  1
  O  O42  1  0.81927114  0.28936418  0.42184621  1
  O  O43  1  0.63849263  0.72121616  0.73160062  1
  O  O44  1  0.18072886  0.78936418  0.07815379  1
  O  O45  1  0.18072886  0.71063582  0.57815379  1
  O  O46  1  0.30458811  0.36420970  0.57493468  1
  O  O47  1  0.69541189  0.63579030  0.42506532  1
  O  O48  1  0.69541189  0.86420970  0.92506532  1
  O  O49  1  0.81927114  0.21063582  0.92184621  1
