# generated using pymatgen
data_Pb3SO6
_symmetry_space_group_name_H-M   'P 1'
_cell_length_a   5.89176088
_cell_length_b   7.43618681
_cell_length_c   8.32526950
_cell_angle_alpha   103.75733199
_cell_angle_beta   91.05770731
_cell_angle_gamma   91.58282613
_symmetry_Int_Tables_number   1
_chemical_formula_structural   Pb3SO6
_chemical_formula_sum   'Pb6 S2 O12'
_cell_volume   354.03176015
_cell_formula_units_Z   2
loop_
 _symmetry_equiv_pos_site_id
 _symmetry_equiv_pos_as_xyz
  1  'x, y, z'
loop_
 _atom_site_type_symbol
 _atom_site_label
 _atom_site_symmetry_multiplicity
 _atom_site_fract_x
 _atom_site_fract_y
 _atom_site_fract_z
 _atom_site_occupancy
  Pb  Pb0  1  0.74268969  0.60881471  0.41351327  1
  Pb  Pb1  1  0.25217870  0.92330023  0.62166397  1
  Pb  Pb2  1  0.23293178  0.76502390  0.15751877  1
  Pb  Pb3  1  0.76706822  0.23497610  0.84248123  1
  Pb  Pb4  1  0.25731031  0.39118529  0.58648673  1
  Pb  Pb5  1  0.74782130  0.07669977  0.37833603  1
  S  S6  1  0.26489221  0.30114354  0.14411059  1
  S  S7  1  0.73510779  0.69885646  0.85588941  1
  O  O8  1  0.08018905  0.44185503  0.17261887  1
  O  O9  1  0.51196576  0.59522503  0.84178442  1
  O  O10  1  0.99336111  0.82669779  0.37883364  1
  O  O11  1  0.91981095  0.55814497  0.82738113  1
  O  O12  1  0.25147639  0.19383881  0.27721369  1
  O  O13  1  0.48803424  0.40477497  0.15821558  1
  O  O14  1  0.49368188  0.81960021  0.38024139  1
  O  O15  1  0.23387375  0.17213721  0.97994889  1
  O  O16  1  0.00663889  0.17330221  0.62116636  1
  O  O17  1  0.76612625  0.82786279  0.02005111  1
  O  O18  1  0.74852361  0.80616119  0.72278631  1
  O  O19  1  0.50631812  0.18039979  0.61975861  1
