# generated using pymatgen
data_K3NpO2F5
_symmetry_space_group_name_H-M   'P 1'
_cell_length_a   9.32946167
_cell_length_b   9.33120119
_cell_length_c   11.32432608
_cell_angle_alpha   114.32446107
_cell_angle_beta   114.31949180
_cell_angle_gamma   90.00893240
_symmetry_Int_Tables_number   1
_chemical_formula_structural   K3NpO2F5
_chemical_formula_sum   'K12 Np4 O8 F20'
_cell_volume   801.31482533
_cell_formula_units_Z   4
loop_
 _symmetry_equiv_pos_site_id
 _symmetry_equiv_pos_as_xyz
  1  'x, y, z'
loop_
 _atom_site_type_symbol
 _atom_site_label
 _atom_site_symmetry_multiplicity
 _atom_site_fract_x
 _atom_site_fract_y
 _atom_site_fract_z
 _atom_site_occupancy
  K  K0  1  0.12504242  0.87494189  0.24997442  1
  K  K1  1  0.79175851  0.50003147  0.99999167  1
  K  K2  1  0.20824149  0.49996853  0.00000833  1
  K  K3  1  0.79175682  1.00001088  1.00000313  1
  K  K4  1  0.20824318  -0.00001088  -0.00000313  1
  K  K5  1  0.37487512  0.62513615  0.75000613  1
  K  K6  1  -0.00000745  0.20821041  0.50000041  1
  K  K7  1  0.50002746  0.79178773  0.49998372  1
  K  K8  1  1.00000745  0.79178959  0.49999959  1
  K  K9  1  0.62512488  0.37486385  0.24999387  1
  K  K10  1  0.49997254  0.20821227  0.50001628  1
  K  K11  1  0.87495758  0.12505811  0.75002558  1
  Np  Np12  1  0.14710448  0.39705827  0.29409637  1
  Np  Np13  1  0.85289552  0.60294173  0.70590363  1
  Np  Np14  1  0.60294076  0.85289730  0.20590312  1
  Np  Np15  1  0.39705924  0.14710270  0.79409688  1
  O  O16  1  0.65578174  0.60162283  0.70330462  1
  O  O17  1  0.60165713  0.04748474  0.20330273  1
  O  O18  1  0.39834287  0.95251526  0.79669727  1
  O  O19  1  0.39838405  0.34421704  0.79670490  1
  O  O20  1  0.60161595  0.65578296  0.20329510  1
  O  O21  1  0.34421826  0.39837717  0.29669538  1
  O  O22  1  0.04743998  0.60166065  0.70330963  1
  O  O23  1  0.95256002  0.39833935  0.29669037  1
  F  F24  1  0.24477115  0.34882754  0.48956165  1
  F  F25  1  0.89564863  0.41493403  0.79139958  1
  F  F26  1  0.24482028  0.64074594  0.48956123  1
  F  F27  1  0.10435137  0.58506597  0.20860042  1
  F  F28  1  0.02146029  0.27149338  0.04278068  1
  F  F29  1  0.58507182  0.10434430  0.70859617  1
  F  F30  1  0.65118353  0.75523909  0.01044301  1
  F  F31  1  0.97853971  0.72850662  0.95721932  1
  F  F32  1  0.41492818  0.89565570  0.29140383  1
  F  F33  1  0.87645317  0.89571548  0.29142484  1
  F  F34  1  0.75522885  0.65117246  0.51043835  1
  F  F35  1  0.34881647  0.24476091  0.98955699  1
  F  F36  1  0.72850733  0.97854229  0.45722755  1
  F  F37  1  0.75517972  0.35925406  0.51043877  1
  F  F38  1  0.27149267  0.02145771  0.54277245  1
  F  F39  1  0.89570918  0.87644657  0.79142519  1
  F  F40  1  0.10429082  0.12355343  0.20857481  1
  F  F41  1  0.35925001  0.75519828  0.01044726  1
  F  F42  1  0.64074999  0.24480172  0.98955274  1
  F  F43  1  0.12354683  0.10428452  0.70857516  1
