# generated using pymatgen
data_GdP4H4NO12
_symmetry_space_group_name_H-M   'P 1'
_cell_length_a   9.11267792
_cell_length_b   10.51559910
_cell_length_c   11.00234010
_cell_angle_alpha   106.87556047
_cell_angle_beta   90.00000000
_cell_angle_gamma   90.00000000
_symmetry_Int_Tables_number   1
_chemical_formula_structural   GdP4H4NO12
_chemical_formula_sum   'Gd4 P16 H16 N4 O48'
_cell_volume   1008.90129361
_cell_formula_units_Z   4
loop_
 _symmetry_equiv_pos_site_id
 _symmetry_equiv_pos_as_xyz
  1  'x, y, z'
loop_
 _atom_site_type_symbol
 _atom_site_label
 _atom_site_symmetry_multiplicity
 _atom_site_fract_x
 _atom_site_fract_y
 _atom_site_fract_z
 _atom_site_occupancy
  Gd  Gd0  1  0.27566939  0.00169008  0.18759437  1
  Gd  Gd1  1  0.77566939  0.49830992  0.31240563  1
  Gd  Gd2  1  0.72433061  0.99830992  0.81240563  1
  Gd  Gd3  1  0.22433061  0.50169008  0.68759437  1
  P  P4  1  0.41120487  0.35443009  0.24262199  1
  P  P5  1  0.91120487  0.14556991  0.25737801  1
  P  P6  1  0.17418490  0.54094883  0.36013120  1
  P  P7  1  0.60578845  0.32157161  0.01996148  1
  P  P8  1  0.82581510  0.45905117  0.63986880  1
  P  P9  1  0.08879513  0.85443009  0.74262199  1
  P  P10  1  0.39421155  0.67842839  0.98003852  1
  P  P11  1  0.97242576  0.25008669  0.72822796  1
  P  P12  1  0.89421155  0.82157161  0.51996148  1
  P  P13  1  0.10578845  0.17842839  0.48003852  1
  P  P14  1  0.47242576  0.24991331  0.77177204  1
  P  P15  1  0.32581510  0.04094883  0.86013120  1
  P  P16  1  0.52757424  0.75008669  0.22822796  1
  P  P17  1  0.02757424  0.74991331  0.27177204  1
  P  P18  1  0.58879513  0.64556991  0.75737801  1
  P  P19  1  0.67418490  0.95905117  0.13986880  1
  H  H20  1  0.93075102  0.63582423  0.86344479  1
  H  H21  1  0.46557757  0.22835303  0.48342404  1
  H  H22  1  0.10689848  0.35319246  0.97979262  1
  H  H23  1  0.89310152  0.64680754  0.02020738  1
  H  H24  1  0.43075102  0.86417577  0.63655521  1
  H  H25  1  0.53442243  0.77164697  0.51657596  1
  H  H26  1  0.63588001  0.27884218  0.46375196  1
  H  H27  1  0.36411999  0.72115782  0.53624804  1
  H  H28  1  0.06924898  0.36417577  0.13655521  1
  H  H29  1  0.39310152  0.85319246  0.47979262  1
  H  H30  1  0.96557757  0.27164697  0.01657596  1
  H  H31  1  0.13588001  0.22115782  0.03624804  1
  H  H32  1  0.56924898  0.13582423  0.36344479  1
  H  H33  1  0.03442243  0.72835303  0.98342404  1
  H  H34  1  0.86411999  0.77884218  0.96375196  1
  H  H35  1  0.60689848  0.14680754  0.52020738  1
  N  N36  1  0.92954912  0.69571867  0.95677315  1
  N  N37  1  0.57045088  0.19571867  0.45677315  1
  N  N38  1  0.07045088  0.30428133  0.04322685  1
  N  N39  1  0.42954912  0.80428133  0.54322685  1
  O  O40  1  0.09690375  0.82830735  0.19325678  1
  O  O41  1  0.34209109  0.18419188  0.83458853  1
  O  O42  1  0.84029613  0.68076676  0.48025391  1
  O  O43  1  0.67333211  0.76174821  0.74163254  1
  O  O44  1  0.41759348  0.85591831  0.29137789  1
  O  O45  1  0.76438979  0.43214865  0.50817512  1
  O  O46  1  0.15790891  0.68419188  0.33458853  1
  O  O47  1  0.90309625  0.17169265  0.80674322  1
  O  O48  1  0.79909353  0.02205565  0.24417263  1
  O  O49  1  0.26438979  0.06785135  0.99182488  1
  O  O50  1  0.95207896  0.17090846  0.40471816  1
  O  O51  1  0.70872841  0.42894684  0.09111835  1
  O  O52  1  0.59690375  0.67169265  0.30674322  1
  O  O53  1  0.82666789  0.26174821  0.24163254  1
  O  O54  1  0.15970387  0.31923324  0.51974609  1
  O  O55  1  0.34029613  0.81923324  0.01974609  1
  O  O56  1  0.45207896  0.32909154  0.09528184  1
  O  O57  1  0.65790891  0.81580812  0.16541147  1
  O  O58  1  0.17333211  0.73825179  0.75836746  1
  O  O59  1  0.96304167  0.54005738  0.67990459  1
  O  O60  1  0.70090647  0.52205565  0.74417263  1
  O  O61  1  0.32666789  0.23825179  0.25836746  1
  O  O62  1  0.58240652  0.14408169  0.70862211  1
  O  O63  1  0.20090647  0.97794435  0.75582737  1
  O  O64  1  0.04792104  0.82909154  0.59528184  1
  O  O65  1  0.84209109  0.31580812  0.66541147  1
  O  O66  1  0.04378418  0.09875010  0.17580469  1
  O  O67  1  0.65970387  0.18076676  0.98025391  1
  O  O68  1  0.04437297  0.14369125  0.60467603  1
  O  O69  1  0.54792104  0.67090846  0.90471816  1
  O  O70  1  0.45621582  0.59875010  0.67580469  1
  O  O71  1  0.46304167  0.95994262  0.82009541  1
  O  O72  1  0.29127159  0.57105316  0.90888165  1
  O  O73  1  0.54437297  0.35630875  0.89532397  1
  O  O74  1  0.08240652  0.35591831  0.79137789  1
  O  O75  1  0.29909353  0.47794435  0.25582737  1
  O  O76  1  0.79127159  0.92894684  0.59111835  1
  O  O77  1  0.91759348  0.64408169  0.20862211  1
  O  O78  1  0.53695833  0.04005738  0.17990459  1
  O  O79  1  0.54378418  0.40124990  0.32419531  1
  O  O80  1  0.95621582  0.90124990  0.82419531  1
  O  O81  1  0.20872841  0.07105316  0.40888165  1
  O  O82  1  0.40309625  0.32830735  0.69325678  1
  O  O83  1  0.95562703  0.85630875  0.39532397  1
  O  O84  1  0.73561021  0.93214865  0.00817512  1
  O  O85  1  0.03695833  0.45994262  0.32009541  1
  O  O86  1  0.45562703  0.64369125  0.10467603  1
  O  O87  1  0.23561021  0.56785135  0.49182488  1
