# generated using pymatgen
data_Na6Cu9(PO4)8
_symmetry_space_group_name_H-M   'P 1'
_cell_length_a   8.92467220
_cell_length_b   9.09140152
_cell_length_c   9.44497005
_cell_angle_alpha   112.84467548
_cell_angle_beta   100.26811007
_cell_angle_gamma   102.93504790
_symmetry_Int_Tables_number   1
_chemical_formula_structural   Na6Cu9(PO4)8
_chemical_formula_sum   'Na6 Cu9 P8 O32'
_cell_volume   657.63286603
_cell_formula_units_Z   1
loop_
 _symmetry_equiv_pos_site_id
 _symmetry_equiv_pos_as_xyz
  1  'x, y, z'
loop_
 _atom_site_type_symbol
 _atom_site_label
 _atom_site_symmetry_multiplicity
 _atom_site_fract_x
 _atom_site_fract_y
 _atom_site_fract_z
 _atom_site_occupancy
  Na  Na0  1  0.64789532  0.93224284  0.06373136  1
  Na  Na1  1  0.33115527  0.31025048  0.34954109  1
  Na  Na2  1  0.99317663  0.70279979  0.25803178  1
  Na  Na3  1  0.66884473  0.68974952  0.65045891  1
  Na  Na4  1  0.00682337  0.29720021  0.74196822  1
  Na  Na5  1  0.35210468  0.06775716  0.93626864  1
  Cu  Cu6  1  0.80337721  0.27167681  0.06181296  1
  Cu  Cu7  1  0.71330091  0.88669486  0.43235412  1
  Cu  Cu8  1  0.19662279  0.72832319  0.93818704  1
  Cu  Cu9  1  0.34109546  0.69992842  0.44721924  1
  Cu  Cu10  1  0.00000000  0.00000000  0.00000000  1
  Cu  Cu11  1  0.28669909  0.11330514  0.56764588  1
  Cu  Cu12  1  0.65890454  0.30007158  0.55278076  1
  Cu  Cu13  1  0.00000000  0.50000000  0.50000000  1
  Cu  Cu14  1  0.50000000  0.50000000  0.00000000  1
  P  P15  1  0.03576610  0.87846541  0.64852773  1
  P  P16  1  0.39557760  0.94241959  0.28970455  1
  P  P17  1  0.96423390  0.12153459  0.35147227  1
  P  P18  1  0.60442240  0.05758041  0.71029545  1
  P  P19  1  0.65962386  0.41839526  0.26818921  1
  P  P20  1  0.83252037  0.62452156  0.90752970  1
  P  P21  1  0.16747963  0.37547844  0.09247030  1
  P  P22  1  0.34037614  0.58160474  0.73181079  1
  O  O23  1  0.90326271  0.26145405  0.45910478  1
  O  O24  1  0.80631181  0.79563224  0.92802742  1
  O  O25  1  0.87557657  0.94486613  0.33351051  1
  O  O26  1  0.44222255  0.12668130  0.43435298  1
  O  O27  1  0.15087395  0.53068153  0.70382968  1
  O  O28  1  0.38412796  0.58181641  0.58122163  1
  O  O29  1  0.19368819  0.20436776  0.07197258  1
  O  O30  1  0.92748024  0.11814914  0.18203944  1
  O  O31  1  0.80128268  0.51690684  0.72447168  1
  O  O32  1  0.99025653  0.33880247  1.00017606  1
  O  O33  1  0.72014239  0.17756139  0.66788621  1
  O  O34  1  0.27985761  0.82243861  0.33211379  1
  O  O35  1  0.00974347  0.66119753  -0.00017606  1
  O  O36  1  0.84912605  0.46931847  0.29617032  1
  O  O37  1  0.69488866  0.05546560  0.86425531  1
  O  O38  1  0.30511134  0.94453440  0.13574469  1
  O  O39  1  0.61587204  0.41818359  0.41877837  1
  O  O40  1  0.39824430  0.76145131  0.87630268  1
  O  O41  1  0.44852509  0.09933044  0.72870843  1
  O  O42  1  0.19871732  0.48309316  0.27552832  1
  O  O43  1  0.41243856  0.45978961  0.77519784  1
  O  O44  1  0.85242923  0.83364848  0.57669684  1
  O  O45  1  0.55777745  0.87331870  0.56564702  1
  O  O46  1  0.27493897  0.45819433  0.01367070  1
  O  O47  1  0.72506103  0.54180567  0.98632930  1
  O  O48  1  0.14757077  0.16635152  0.42330316  1
  O  O49  1  0.07251976  0.88185086  0.81796056  1
  O  O50  1  0.55147491  0.90066956  0.27129157  1
  O  O51  1  0.60175570  0.23854869  0.12369732  1
  O  O52  1  0.09673729  0.73854595  0.54089522  1
  O  O53  1  0.58756144  0.54021039  0.22480216  1
  O  O54  1  0.12442343  0.05513387  0.66648949  1
