# generated using pymatgen
data_Sr5B3BrO9
_symmetry_space_group_name_H-M   'P 1'
_cell_length_a   7.61403762
_cell_length_b   8.81192856
_cell_length_c   8.81192916
_cell_angle_alpha   109.79250815
_cell_angle_beta   90.00000000
_cell_angle_gamma   90.00000000
_symmetry_Int_Tables_number   1
_chemical_formula_structural   Sr5B3BrO9
_chemical_formula_sum   'Sr10 B6 Br2 O18'
_cell_volume   556.30378558
_cell_formula_units_Z   2
loop_
 _symmetry_equiv_pos_site_id
 _symmetry_equiv_pos_as_xyz
  1  'x, y, z'
loop_
 _atom_site_type_symbol
 _atom_site_label
 _atom_site_symmetry_multiplicity
 _atom_site_fract_x
 _atom_site_fract_y
 _atom_site_fract_z
 _atom_site_occupancy
  Sr  Sr0  1  0.50000000  0.75709178  0.75709178  1
  Sr  Sr1  1  0.57272929  0.26646677  0.00579598  1
  Sr  Sr2  1  0.75000000  0.36381144  0.63618856  1
  Sr  Sr3  1  0.75000000  0.63662426  0.36337574  1
  Sr  Sr4  1  0.07272929  0.73353323  0.99420402  1
  Sr  Sr5  1  0.00000000  0.24290822  0.24290822  1
  Sr  Sr6  1  0.92727071  0.99420402  0.73353323  1
  Sr  Sr7  1  0.25000000  0.63618856  0.36381144  1
  Sr  Sr8  1  0.25000000  0.36337574  0.63662426  1
  Sr  Sr9  1  0.42727071  0.00579598  0.26646677  1
  B  B10  1  0.50000000  0.37254520  0.37254520  1
  B  B11  1  0.00000000  0.62745480  0.62745480  1
  B  B12  1  0.47247748  0.58995242  0.01386126  1
  B  B13  1  0.52752252  0.01386126  0.58995242  1
  B  B14  1  0.97247748  0.41004758  0.98613874  1
  B  B15  1  0.02752252  0.98613874  0.41004758  1
  Br  Br16  1  0.25000000  0.05869062  0.94130938  1
  Br  Br17  1  0.75000000  0.94130938  0.05869062  1
  O  O18  1  0.00000000  0.48888818  0.48888818  1
  O  O19  1  0.16054697  0.68949676  0.69491785  1
  O  O20  1  0.98681048  0.13920521  0.52164108  1
  O  O21  1  0.48681048  0.86079479  0.47835892  1
  O  O22  1  0.51318952  0.47835892  0.86079479  1
  O  O23  1  0.48684904  0.15289488  0.55581359  1
  O  O24  1  0.51315096  0.55581359  0.15289488  1
  O  O25  1  0.98684904  0.84710512  0.44418641  1
  O  O26  1  0.50000000  0.51111182  0.51111182  1
  O  O27  1  0.11337492  0.97422771  0.26781252  1
  O  O28  1  0.01315096  0.44418641  0.84710512  1
  O  O29  1  0.66054697  0.31050324  0.30508215  1
  O  O30  1  0.88662508  0.26781252  0.97422771  1
  O  O31  1  0.33945303  0.30508215  0.31050324  1
  O  O32  1  0.38662508  0.73218748  0.02577229  1
  O  O33  1  0.01318952  0.52164108  0.13920521  1
  O  O34  1  0.83945303  0.69491785  0.68949676  1
  O  O35  1  0.61337492  0.02577229  0.73218748  1
