# generated using pymatgen
data_TiAs2O7
_symmetry_space_group_name_H-M   'P 1'
_cell_length_a   7.17855186
_cell_length_b   9.19430236
_cell_length_c   9.59153262
_cell_angle_alpha   90.00000000
_cell_angle_beta   105.45063595
_cell_angle_gamma   90.00000000
_symmetry_Int_Tables_number   1
_chemical_formula_structural   TiAs2O7
_chemical_formula_sum   'Ti4 As8 O28'
_cell_volume   610.17968192
_cell_formula_units_Z   4
loop_
 _symmetry_equiv_pos_site_id
 _symmetry_equiv_pos_as_xyz
  1  'x, y, z'
loop_
 _atom_site_type_symbol
 _atom_site_label
 _atom_site_symmetry_multiplicity
 _atom_site_fract_x
 _atom_site_fract_y
 _atom_site_fract_z
 _atom_site_occupancy
  Ti  Ti0  1  0.80963284  0.07573687  0.71729056  1
  Ti  Ti1  1  0.19036716  0.57573687  0.78270944  1
  Ti  Ti2  1  0.19036716  0.92426313  0.28270944  1
  Ti  Ti3  1  0.80963284  0.42426313  0.21729056  1
  As  As4  1  0.41088062  0.25102661  0.75650939  1
  As  As5  1  0.58911938  0.75102661  0.74349061  1
  As  As6  1  0.58911938  0.74897339  0.24349061  1
  As  As7  1  0.41088062  0.24897339  0.25650939  1
  As  As8  1  0.03436020  0.29664168  0.96719004  1
  As  As9  1  0.96563980  0.79664168  0.53280996  1
  As  As10  1  0.96563980  0.70335832  0.03280996  1
  As  As11  1  0.03436020  0.20335832  0.46719004  1
  O  O12  1  0.85508886  0.32403460  0.05132043  1
  O  O13  1  0.14491114  0.82403460  0.44867957  1
  O  O14  1  0.14491114  0.67596540  0.94867957  1
  O  O15  1  0.85508886  0.17596540  0.55132043  1
  O  O16  1  0.36298697  0.43680807  0.74201794  1
  O  O17  1  0.63701303  0.93680807  0.75798206  1
  O  O18  1  0.63701303  0.56319193  0.25798206  1
  O  O19  1  0.36298697  0.06319193  0.24201794  1
  O  O20  1  0.38270997  0.16865611  0.90092541  1
  O  O21  1  0.61729003  0.66865611  0.59907459  1
  O  O22  1  0.61729003  0.83134389  0.09907459  1
  O  O23  1  0.38270997  0.33134389  0.40092541  1
  O  O24  1  0.25149826  0.17007162  0.59599032  1
  O  O25  1  0.74850174  0.67007162  0.90400968  1
  O  O26  1  0.74850174  0.82992838  0.40400968  1
  O  O27  1  0.25149826  0.32992838  0.09599032  1
  O  O28  1  0.03441176  0.08456102  0.33156444  1
  O  O29  1  0.96558824  0.58456102  0.16843556  1
  O  O30  1  0.96558824  0.91543898  0.66843556  1
  O  O31  1  0.03441176  0.41543898  0.83156444  1
  O  O32  1  0.62921091  0.27406274  0.21566891  1
  O  O33  1  0.37078909  0.77406274  0.28433109  1
  O  O34  1  0.37078909  0.72593726  0.78433109  1
  O  O35  1  0.62921091  0.22593726  0.71566891  1
  O  O36  1  0.98812313  0.37457821  0.39064030  1
  O  O37  1  0.01187687  0.87457821  0.10935970  1
  O  O38  1  0.01187687  0.62542179  0.60935970  1
  O  O39  1  0.98812313  0.12542179  0.89064030  1
