# generated using pymatgen
data_TbCl2F
_symmetry_space_group_name_H-M   'P 1'
_cell_length_a   5.34969845
_cell_length_b   5.34969868
_cell_length_c   6.86129989
_cell_angle_alpha   73.66071727
_cell_angle_beta   73.66071656
_cell_angle_gamma   66.39327450
_symmetry_Int_Tables_number   1
_chemical_formula_structural   TbCl2F
_chemical_formula_sum   'Tb2 Cl4 F2'
_cell_volume   169.45943609
_cell_formula_units_Z   2
loop_
 _symmetry_equiv_pos_site_id
 _symmetry_equiv_pos_as_xyz
  1  'x, y, z'
loop_
 _atom_site_type_symbol
 _atom_site_label
 _atom_site_symmetry_multiplicity
 _atom_site_fract_x
 _atom_site_fract_y
 _atom_site_fract_z
 _atom_site_occupancy
  Tb  Tb0  1  0.23296600  0.76703400  0.75000000  1
  Tb  Tb1  1  0.76703400  0.23296600  0.25000000  1
  Cl  Cl2  1  0.33896318  0.28344035  0.60601050  1
  Cl  Cl3  1  0.66103682  0.71655965  0.39398950  1
  Cl  Cl4  1  0.28344035  0.33896318  0.10601050  1
  Cl  Cl5  1  0.71655965  0.66103682  0.89398950  1
  F  F6  1  0.00000000  0.00000000  0.00000000  1
  F  F7  1  0.00000000  0.00000000  0.50000000  1
