# generated using pymatgen
data_KCr2AgO7
_symmetry_space_group_name_H-M   'P 1'
_cell_length_a   5.92934751
_cell_length_b   7.80749370
_cell_length_c   15.48658667
_cell_angle_alpha   90.00000000
_cell_angle_beta   90.00000000
_cell_angle_gamma   90.00000000
_symmetry_Int_Tables_number   1
_chemical_formula_structural   KCr2AgO7
_chemical_formula_sum   'K4 Cr8 Ag4 O28'
_cell_volume   716.92587372
_cell_formula_units_Z   4
loop_
 _symmetry_equiv_pos_site_id
 _symmetry_equiv_pos_as_xyz
  1  'x, y, z'
loop_
 _atom_site_type_symbol
 _atom_site_label
 _atom_site_symmetry_multiplicity
 _atom_site_fract_x
 _atom_site_fract_y
 _atom_site_fract_z
 _atom_site_occupancy
  K  K0  1  0.75000000  0.64318983  0.78867041  1
  K  K1  1  0.75000000  0.85681017  0.28867041  1
  K  K2  1  0.25000000  0.35681017  0.21132959  1
  K  K3  1  0.25000000  0.14318983  0.71132959  1
  Cr  Cr4  1  0.25000000  0.80356134  0.94277392  1
  Cr  Cr5  1  0.75000000  0.17643889  0.85522889  1
  Cr  Cr6  1  0.75000000  0.32356111  0.35522889  1
  Cr  Cr7  1  0.25000000  0.69643866  0.44277392  1
  Cr  Cr8  1  0.25000000  0.82356111  0.14477111  1
  Cr  Cr9  1  0.75000000  0.30356134  0.55722608  1
  Cr  Cr10  1  0.25000000  0.67643889  0.64477111  1
  Cr  Cr11  1  0.75000000  0.19643866  0.05722608  1
  Ag  Ag12  1  0.25000000  0.15735619  0.45124752  1
  Ag  Ag13  1  0.75000000  0.65735619  0.04875248  1
  Ag  Ag14  1  0.25000000  0.34264381  0.95124752  1
  Ag  Ag15  1  0.75000000  0.84264381  0.54875248  1
  O  O16  1  0.02216209  0.70134746  0.15069805  1
  O  O17  1  0.75000000  0.43416975  0.63845504  1
  O  O18  1  0.52085307  0.31896180  0.05674477  1
  O  O19  1  0.47783791  0.70134746  0.15069805  1
  O  O20  1  0.25000000  0.96708173  0.22050412  1
  O  O21  1  0.97783791  0.20134746  0.34930195  1
  O  O22  1  0.97914693  0.18103820  0.55674477  1
  O  O23  1  0.47914693  0.68103820  0.94325523  1
  O  O24  1  0.25000000  0.57766739  0.54088891  1
  O  O25  1  0.25000000  0.93416975  0.86154496  1
  O  O26  1  0.52216209  0.20134746  0.34930195  1
  O  O27  1  0.47783791  0.79865254  0.65069805  1
  O  O28  1  0.75000000  0.03291827  0.77949588  1
  O  O29  1  0.97783791  0.29865254  0.84930195  1
  O  O30  1  0.52216209  0.29865254  0.84930195  1
  O  O31  1  0.47914693  0.81896180  0.44325523  1
  O  O32  1  0.25000000  0.53291827  0.72050412  1
  O  O33  1  0.75000000  0.42233261  0.45911109  1
  O  O34  1  0.75000000  0.07766739  0.95911109  1
  O  O35  1  0.02085307  0.81896180  0.44325523  1
  O  O36  1  0.75000000  0.06583025  0.13845504  1
  O  O37  1  0.75000000  0.46708173  0.27949588  1
  O  O38  1  0.25000000  0.92233261  0.04088891  1
  O  O39  1  0.02216209  0.79865254  0.65069805  1
  O  O40  1  0.97914693  0.31896180  0.05674477  1
  O  O41  1  0.02085307  0.68103820  0.94325523  1
  O  O42  1  0.52085307  0.18103820  0.55674477  1
  O  O43  1  0.25000000  0.56583025  0.36154496  1
