# generated using pymatgen
data_Mg2Fe3O8
_symmetry_space_group_name_H-M   'P 1'
_cell_length_a   5.94604983
_cell_length_b   5.94604920
_cell_length_c   9.40449063
_cell_angle_alpha   90.00000000
_cell_angle_beta   90.00000000
_cell_angle_gamma   120.00000353
_symmetry_Int_Tables_number   1
_chemical_formula_structural   Mg2Fe3O8
_chemical_formula_sum   'Mg4 Fe6 O16'
_cell_volume   287.95388181
_cell_formula_units_Z   2
loop_
 _symmetry_equiv_pos_site_id
 _symmetry_equiv_pos_as_xyz
  1  'x, y, z'
loop_
 _atom_site_type_symbol
 _atom_site_label
 _atom_site_symmetry_multiplicity
 _atom_site_fract_x
 _atom_site_fract_y
 _atom_site_fract_z
 _atom_site_occupancy
  Mg  Mg0  1  0.66666700  0.33333400  0.02457382  1
  Mg  Mg1  1  0.33333300  0.66666600  0.52457482  1
  Mg  Mg2  1  0.66666700  0.33333400  0.41782339  1
  Mg  Mg3  1  0.33333300  0.66666600  0.91782439  1
  Fe  Fe4  1  0.67173907  0.83587003  0.24523299  1
  Fe  Fe5  1  0.83587103  0.16413097  0.74523299  1
  Fe  Fe6  1  0.16413097  0.32826193  0.24523299  1
  Fe  Fe7  1  0.83586903  0.67173907  0.74523299  1
  Fe  Fe8  1  0.32826193  0.16413097  0.74523299  1
  Fe  Fe9  1  0.16413097  0.83587003  0.24523299  1
  O  O10  1  0.83803598  0.16196502  0.14346776  1
  O  O11  1  0.67607096  0.83803598  0.64346676  1
  O  O12  1  0.16196502  0.32393004  0.64346676  1
  O  O13  1  0.83803498  0.67607096  0.14346776  1
  O  O14  1  0.32392904  0.16196502  0.14346776  1
  O  O15  1  0.16196502  0.83803598  0.64346676  1
  O  O16  1  0.51890334  0.48109566  0.86586169  1
  O  O17  1  0.03780868  0.51890334  0.36586069  1
  O  O18  1  0.48109666  0.96219232  0.36586069  1
  O  O19  1  0.51890334  0.03780868  0.86586169  1
  O  O20  1  -0.00000000  0.00000000  0.35688686  1
  O  O21  1  -0.00000000  0.00000000  0.85688686  1
  O  O22  1  0.33333300  0.66666600  0.13052959  1
  O  O23  1  0.96219032  0.48109566  0.86586169  1
  O  O24  1  0.48109566  0.51890334  0.36586069  1
  O  O25  1  0.66666700  0.33333400  0.63052959  1
