# generated using pymatgen
data_BaPb2C2(O3F)2
_symmetry_space_group_name_H-M   'P 1'
_cell_length_a   8.57074979
_cell_length_b   8.57074932
_cell_length_c   8.57074889
_cell_angle_alpha   35.66097287
_cell_angle_beta   35.66097724
_cell_angle_gamma   35.66097701
_symmetry_Int_Tables_number   1
_chemical_formula_structural   BaPb2C2(O3F)2
_chemical_formula_sum   'Ba1 Pb2 C2 O6 F2'
_cell_volume   191.27738294
_cell_formula_units_Z   1
loop_
 _symmetry_equiv_pos_site_id
 _symmetry_equiv_pos_as_xyz
  1  'x, y, z'
loop_
 _atom_site_type_symbol
 _atom_site_label
 _atom_site_symmetry_multiplicity
 _atom_site_fract_x
 _atom_site_fract_y
 _atom_site_fract_z
 _atom_site_occupancy
  Ba  Ba0  1  0.00000000  0.00000000  0.00000000  1
  Pb  Pb1  1  0.21656068  0.21656068  0.21656068  1
  Pb  Pb2  1  0.78343932  0.78343932  0.78343932  1
  C  C3  1  0.42981404  0.42981404  0.42981404  1
  C  C4  1  0.57018596  0.57018596  0.57018596  1
  O  O5  1  0.71650818  0.28767980  0.28767980  1
  O  O6  1  0.28349182  0.71232020  0.71232020  1
  O  O7  1  0.28767980  0.28767980  0.71650818  1
  O  O8  1  0.71232020  0.71232020  0.28349182  1
  O  O9  1  0.71232020  0.28349182  0.71232020  1
  O  O10  1  0.28767980  0.71650818  0.28767980  1
  F  F11  1  0.30981709  0.30981709  0.30981709  1
  F  F12  1  0.69018291  0.69018291  0.69018291  1
