# generated using pymatgen
data_Na2TbMoPO8
_symmetry_space_group_name_H-M   'P 1'
_cell_length_a   7.01251403
_cell_length_b   11.48613993
_cell_length_c   11.48613992
_cell_angle_alpha   64.54851066
_cell_angle_beta   72.22620575
_cell_angle_gamma   72.22620205
_symmetry_Int_Tables_number   1
_chemical_formula_structural   Na2TbMoPO8
_chemical_formula_sum   'Na8 Tb4 Mo4 P4 O32'
_cell_volume   779.03632339
_cell_formula_units_Z   4
loop_
 _symmetry_equiv_pos_site_id
 _symmetry_equiv_pos_as_xyz
  1  'x, y, z'
loop_
 _atom_site_type_symbol
 _atom_site_label
 _atom_site_symmetry_multiplicity
 _atom_site_fract_x
 _atom_site_fract_y
 _atom_site_fract_z
 _atom_site_occupancy
  Tb  Tb0  1  0.75000000  0.32173215  0.17826785  1
  Tb  Tb1  1  0.25000000  0.67826785  0.82173215  1
  Tb  Tb2  1  0.25000000  0.17826785  0.32173215  1
  Tb  Tb3  1  0.75000000  0.82173215  0.67826785  1
  Na  Na4  1  0.64433030  0.30211387  0.88828962  1
  Na  Na5  1  0.66526620  0.88828962  0.30211387  1
  Na  Na6  1  0.35566970  0.69788613  0.11171038  1
  Na  Na7  1  0.83473380  0.19788613  0.61171038  1
  Na  Na8  1  0.33473380  0.11171038  0.69788613  1
  Na  Na9  1  0.14433030  0.38828962  0.80211387  1
  Na  Na10  1  0.85566970  0.61171038  0.19788613  1
  Na  Na11  1  0.16526620  0.80211387  0.38828962  1
  Mo  Mo12  1  0.82013112  0.92986888  0.92986888  1
  Mo  Mo13  1  0.32013112  0.42986888  0.42986888  1
  Mo  Mo14  1  0.17986888  0.07013112  0.07013112  1
  Mo  Mo15  1  0.67986888  0.57013112  0.57013112  1
  P  P16  1  0.25000000  0.43071903  0.06928097  1
  P  P17  1  0.75000000  0.56928097  0.93071903  1
  P  P18  1  0.75000000  0.06928097  0.43071903  1
  P  P19  1  0.25000000  0.93071903  0.56928097  1
  O  O20  1  0.72944100  0.86261640  0.10405268  1
  O  O21  1  0.91619129  0.15531515  0.35976757  1
  O  O22  1  0.82857987  0.65113303  0.60468165  1
  O  O23  1  0.56872598  0.65531515  0.85976757  1
  O  O24  1  0.43127402  0.34468485  0.14023243  1
  O  O25  1  0.93127402  0.64023243  0.84468485  1
  O  O26  1  0.77055900  0.39594732  0.63738360  1
  O  O27  1  0.41560546  0.60468165  0.65113303  1
  O  O28  1  0.22944100  0.60405268  0.36261640  1
  O  O29  1  0.69611007  0.63738360  0.39594732  1
  O  O30  1  0.06872598  0.35976757  0.15531515  1
  O  O31  1  0.27055900  0.13738360  0.89594732  1
  O  O32  1  0.19373298  0.57491867  0.06184013  1
  O  O33  1  0.58380871  0.14023243  0.34468485  1
  O  O34  1  0.80388993  0.10405268  0.86261640  1
  O  O35  1  0.17142013  0.34886697  0.39531835  1
  O  O36  1  0.66950822  0.06184013  0.57491867  1
  O  O37  1  0.83049178  0.92508133  0.43815987  1
  O  O38  1  0.80626702  0.42508133  0.93815987  1
  O  O39  1  0.69373298  0.56184013  0.07491867  1
  O  O40  1  0.33049178  0.93815987  0.42508133  1
  O  O41  1  0.91560546  0.15113303  0.10468165  1
  O  O42  1  0.08380871  0.84468485  0.64023243  1
  O  O43  1  0.41619129  0.85976757  0.65531515  1
  O  O44  1  0.30626702  0.43815987  0.92508133  1
  O  O45  1  0.67142013  0.89531835  0.84886697  1
  O  O46  1  0.16950822  0.07491867  0.56184013  1
  O  O47  1  0.32857987  0.10468165  0.15113303  1
  O  O48  1  0.08439454  0.84886697  0.89531835  1
  O  O49  1  0.19611007  0.89594732  0.13738360  1
  O  O50  1  0.30388993  0.36261640  0.60405268  1
  O  O51  1  0.58439454  0.39531835  0.34886697  1
