# generated using pymatgen
data_K2NaS2ClO6
_symmetry_space_group_name_H-M   'P 1'
_cell_length_a   5.67074689
_cell_length_b   12.32220551
_cell_length_c   12.32220551
_cell_angle_alpha   90.00000000
_cell_angle_beta   90.00000000
_cell_angle_gamma   90.00000000
_symmetry_Int_Tables_number   1
_chemical_formula_structural   K2NaS2ClO6
_chemical_formula_sum   'K8 Na4 S8 Cl4 O24'
_cell_volume   861.02777009
_cell_formula_units_Z   4
loop_
 _symmetry_equiv_pos_site_id
 _symmetry_equiv_pos_as_xyz
  1  'x, y, z'
loop_
 _atom_site_type_symbol
 _atom_site_label
 _atom_site_symmetry_multiplicity
 _atom_site_fract_x
 _atom_site_fract_y
 _atom_site_fract_z
 _atom_site_occupancy
  K  K0  1  0.48260662  1.00015140  0.30537379  1
  K  K1  1  0.48260662  0.19462621  1.00015140  1
  K  K2  1  0.51739338  -0.00015140  0.69462621  1
  K  K3  1  0.48260662  0.49984860  0.19462621  1
  K  K4  1  0.48260662  0.30537379  0.49984860  1
  K  K5  1  0.51739338  0.69462621  0.50015140  1
  K  K6  1  0.51739338  0.50015140  0.80537379  1
  K  K7  1  0.51739338  0.80537379  -0.00015140  1
  Na  Na8  1  0.94722353  0.75000000  0.75000000  1
  Na  Na9  1  0.00000000  0.75000000  0.25000000  1
  Na  Na10  1  0.05277647  0.25000000  0.25000000  1
  Na  Na11  1  0.00000000  0.25000000  0.75000000  1
  S  S12  1  0.02449028  0.58771683  0.00912213  1
  S  S13  1  0.02449028  0.00912213  0.91228317  1
  S  S14  1  0.97550972  0.99087787  0.08771683  1
  S  S15  1  0.97550972  0.08771683  0.50912213  1
  S  S16  1  0.97550972  0.41228317  0.99087787  1
  S  S17  1  0.02449028  0.91228317  0.49087787  1
  S  S18  1  0.02449028  0.49087787  0.58771683  1
  S  S19  1  0.97550972  0.50912213  0.41228317  1
  Cl  Cl20  1  0.43848202  0.75000000  0.75000000  1
  Cl  Cl21  1  0.50000000  0.75000000  0.25000000  1
  Cl  Cl22  1  0.56151798  0.25000000  0.25000000  1
  Cl  Cl23  1  0.50000000  0.25000000  0.75000000  1
  O  O24  1  0.92818781  0.61044653  0.11751212  1
  O  O25  1  0.07181219  0.61751212  0.38955347  1
  O  O26  1  0.88856423  0.58001466  0.63704636  1
  O  O27  1  0.71892969  0.39719570  0.99945850  1
  O  O28  1  0.11143577  0.13704636  0.41998534  1
  O  O29  1  0.11143577  0.41998534  0.36295364  1
  O  O30  1  0.92818781  0.11751212  0.88955347  1
  O  O31  1  0.28107031  0.00054150  0.89719570  1
  O  O32  1  0.71892969  0.50054150  0.39719570  1
  O  O33  1  0.28107031  0.89719570  0.49945850  1
  O  O34  1  0.07181219  0.11044653  0.61751212  1
  O  O35  1  0.88856423  0.86295364  0.58001466  1
  O  O36  1  0.07181219  0.38955347  0.88248788  1
  O  O37  1  0.92818781  0.88955347  0.38248788  1
  O  O38  1  0.28107031  0.49945850  0.60280430  1
  O  O39  1  0.92818781  0.38248788  0.61044653  1
  O  O40  1  0.07181219  0.88248788  0.11044653  1
  O  O41  1  0.28107031  0.60280430  0.00054150  1
  O  O42  1  0.71892969  0.99945850  0.10280430  1
  O  O43  1  0.88856423  0.91998534  0.86295364  1
  O  O44  1  0.11143577  0.08001466  0.13704636  1
  O  O45  1  0.71892969  0.10280430  0.50054150  1
  O  O46  1  0.88856423  0.63704636  0.91998534  1
  O  O47  1  0.11143577  0.36295364  0.08001466  1
