# generated using pymatgen
data_GdAl3(BO3)4
_symmetry_space_group_name_H-M   'P 1'
_cell_length_a   5.94564964
_cell_length_b   5.94564947
_cell_length_c   16.34000306
_cell_angle_alpha   90.43234447
_cell_angle_beta   90.43234449
_cell_angle_gamma   104.35299914
_symmetry_Int_Tables_number   1
_chemical_formula_structural   GdAl3(BO3)4
_chemical_formula_sum   'Gd3 Al9 B12 O36'
_cell_volume   559.55927501
_cell_formula_units_Z   3
loop_
 _symmetry_equiv_pos_site_id
 _symmetry_equiv_pos_as_xyz
  1  'x, y, z'
loop_
 _atom_site_type_symbol
 _atom_site_label
 _atom_site_symmetry_multiplicity
 _atom_site_fract_x
 _atom_site_fract_y
 _atom_site_fract_z
 _atom_site_occupancy
  Gd  Gd0  1  0.17169496  0.16834809  0.16811323  1
  Gd  Gd1  1  0.83165191  0.82830504  0.83188677  1
  Gd  Gd2  1  0.93093490  0.06906510  0.50000000  1
  Al  Al3  1  0.42766527  0.97993375  0.98149188  1
  Al  Al4  1  0.08631676  0.65535870  0.64776243  1
  Al  Al5  1  0.37821991  0.62178009  0.50000000  1
  Al  Al6  1  0.34464130  0.91368324  0.35223757  1
  Al  Al7  1  0.02006625  0.57233473  0.01850812  1
  Al  Al8  1  0.67963968  0.24504583  0.68543824  1
  Al  Al9  1  0.75495417  0.32036032  0.31456176  1
  Al  Al10  1  0.72294595  0.61127545  0.16566954  1
  Al  Al11  1  0.38872455  0.27705405  0.83433046  1
  B  B12  1  0.90957365  0.35026944  0.85224831  1
  B  B13  1  0.45044965  0.14321987  0.51847302  1
  B  B14  1  0.60509996  0.72891211  0.66326627  1
  B  B15  1  0.50081238  0.49918762  0.00000000  1
  B  B16  1  0.24419316  0.68509599  0.18543475  1
  B  B17  1  0.64973056  0.09042635  0.14775169  1
  B  B18  1  0.16123985  0.17115023  0.66975970  1
  B  B19  1  0.31490401  0.75580684  0.81456525  1
  B  B20  1  0.94458906  0.05541094  0.00000000  1
  B  B21  1  0.82884977  0.83876015  0.33024030  1
  B  B22  1  0.85678013  0.54955035  0.48152698  1
  B  B23  1  0.27108789  0.39490004  0.33673373  1
  O  O24  1  0.36429527  0.22355857  0.71585363  1
  O  O25  1  0.01528734  0.26250395  0.04222910  1
  O  O26  1  0.32484579  0.59868493  0.38232633  1
  O  O27  1  0.04514733  0.63546421  0.13644035  1
  O  O28  1  0.44802634  0.59960395  0.82561719  1
  O  O29  1  0.93704549  0.52997706  0.90769849  1
  O  O30  1  0.09454836  0.96935933  0.62334278  1
  O  O31  1  0.70180117  0.68346392  0.49387316  1
  O  O32  1  0.69973346  0.54932321  0.04926705  1
  O  O33  1  0.45067679  0.30026654  0.95073295  1
  O  O34  1  0.06408983  0.21466897  0.84137920  1
  O  O35  1  0.40039605  0.55197366  0.17438281  1
  O  O36  1  0.69564030  0.28897921  0.19713991  1
  O  O37  1  0.47002294  0.06295451  0.09230151  1
  O  O38  1  0.42170783  0.24914119  0.33222118  1
  O  O39  1  0.31653608  0.29819883  0.50612684  1
  O  O40  1  0.13532446  0.72831295  0.75906532  1
  O  O41  1  0.78533103  0.93591017  0.15862080  1
  O  O42  1  0.82711156  0.37045222  0.42579393  1
  O  O43  1  0.35254908  0.64745092  1.00000000  1
  O  O44  1  0.40467330  0.94353826  0.46975898  1
  O  O45  1  0.06867333  0.32777569  0.29087395  1
  O  O46  1  0.73749605  0.98471266  0.95777090  1
  O  O47  1  0.05646174  0.59532670  0.53024102  1
  O  O48  1  0.77644143  0.63570473  0.28414637  1
  O  O49  1  0.67802815  0.98452516  0.33436041  1
  O  O50  1  0.01547484  0.32197185  0.66563959  1
  O  O51  1  0.03064067  0.90545164  0.37665722  1
  O  O52  1  0.62954778  0.17288844  0.57420607  1
  O  O53  1  0.71102079  0.30435970  0.80286009  1
  O  O54  1  0.75085881  0.57829217  0.66777882  1
  O  O55  1  0.67222431  0.93132667  0.70912605  1
  O  O56  1  0.09284871  0.90715129  1.00000000  1
  O  O57  1  0.40131507  0.67515421  0.61767367  1
  O  O58  1  0.27168705  0.86467554  0.24093468  1
  O  O59  1  0.36453579  0.95485267  0.86355965  1
