# generated using pymatgen
data_BiAsO4
_symmetry_space_group_name_H-M   'P 1'
_cell_length_a   5.15149702
_cell_length_b   5.15149670
_cell_length_c   6.96150758
_cell_angle_alpha   111.71553275
_cell_angle_beta   111.71553137
_cell_angle_gamma   90.00000630
_symmetry_Int_Tables_number   1
_chemical_formula_structural   BiAsO4
_chemical_formula_sum   'Bi2 As2 O8'
_cell_volume   157.43413561
_cell_formula_units_Z   2
loop_
 _symmetry_equiv_pos_site_id
 _symmetry_equiv_pos_as_xyz
  1  'x, y, z'
loop_
 _atom_site_type_symbol
 _atom_site_label
 _atom_site_symmetry_multiplicity
 _atom_site_fract_x
 _atom_site_fract_y
 _atom_site_fract_z
 _atom_site_occupancy
  Bi  Bi0  1  0.62500000  0.87500000  0.25000000  1
  Bi  Bi1  1  0.37500000  0.12500000  0.75000000  1
  As  As2  1  0.12500000  0.37500000  0.25000000  1
  As  As3  1  0.87500000  0.62500000  0.75000000  1
  O  O4  1  0.05832298  0.69943928  0.40472376  1
  O  O5  1  0.94167702  0.30056072  0.59527624  1
  O  O6  1  0.80056072  0.15359921  0.09527624  1
  O  O7  1  0.34640079  0.20528449  0.40472376  1
  O  O8  1  0.70528449  0.55832298  0.90472376  1
  O  O9  1  0.29471551  0.44167702  0.09527624  1
  O  O10  1  0.65359921  0.79471551  0.59527624  1
  O  O11  1  0.19943928  0.84640079  0.90472376  1
