# generated using pymatgen
data_Dy3Si2Cl5O6
_symmetry_space_group_name_H-M   'P 1'
_cell_length_a   7.45469026
_cell_length_b   7.45469059
_cell_length_c   11.70447640
_cell_angle_alpha   80.56145207
_cell_angle_beta   80.56145162
_cell_angle_gamma   88.58584906
_symmetry_Int_Tables_number   1
_chemical_formula_structural   Dy3Si2Cl5O6
_chemical_formula_sum   'Dy6 Si4 Cl10 O12'
_cell_volume   632.95212257
_cell_formula_units_Z   2
loop_
 _symmetry_equiv_pos_site_id
 _symmetry_equiv_pos_as_xyz
  1  'x, y, z'
loop_
 _atom_site_type_symbol
 _atom_site_label
 _atom_site_symmetry_multiplicity
 _atom_site_fract_x
 _atom_site_fract_y
 _atom_site_fract_z
 _atom_site_occupancy
  Dy  Dy0  1  0.41599989  0.91852435  0.33040402  1
  Dy  Dy1  1  0.08147565  0.58400011  0.66959598  1
  Dy  Dy2  1  0.58400011  0.08147565  0.66959598  1
  Dy  Dy3  1  0.91852435  0.41599989  0.33040402  1
  Dy  Dy4  1  0.50000000  0.00000000  0.00000000  1
  Dy  Dy5  1  0.00000000  0.50000000  0.00000000  1
  Si  Si6  1  0.18278477  0.88981118  0.85531237  1
  Si  Si7  1  0.11018882  0.81721523  0.14468763  1
  Si  Si8  1  0.81721523  0.11018882  0.14468763  1
  Si  Si9  1  0.88981118  0.18278477  0.85531237  1
  Cl  Cl10  1  0.68385826  0.68385826  0.00305017  1
  Cl  Cl11  1  0.22086525  0.22086525  0.33674505  1
  Cl  Cl12  1  0.31614174  0.31614174  0.99694983  1
  Cl  Cl13  1  0.37814017  0.37814017  0.64303874  1
  Cl  Cl14  1  0.62185983  0.62185983  0.35696126  1
  Cl  Cl15  1  0.11539437  0.67361327  0.42094649  1
  Cl  Cl16  1  0.88460563  0.32638673  0.57905351  1
  Cl  Cl17  1  0.67361327  0.11539437  0.42094649  1
  Cl  Cl18  1  0.32638673  0.88460563  0.57905351  1
  Cl  Cl19  1  0.77913475  0.77913475  0.66325495  1
  O  O20  1  0.69169130  0.13238060  0.82794748  1
  O  O21  1  0.60581642  0.04494388  0.17205418  1
  O  O22  1  0.04494388  0.60581642  0.17205418  1
  O  O23  1  0.39418358  0.95505612  0.82794582  1
  O  O24  1  0.95173997  0.95173997  0.19516631  1
  O  O25  1  0.95505612  0.39418358  0.82794582  1
  O  O26  1  0.13238060  0.69169130  0.82794748  1
  O  O27  1  0.86761940  0.30830870  0.17205252  1
  O  O28  1  0.14228208  0.85771792  1.00000000  1
  O  O29  1  0.85771792  0.14228208  0.00000000  1
  O  O30  1  0.30830870  0.86761940  0.17205252  1
  O  O31  1  0.04826003  0.04826003  0.80483369  1
