# generated using pymatgen
data_BaTbO3
_symmetry_space_group_name_H-M   'P 1'
_cell_length_a   10.61390099
_cell_length_b   8.70059403
_cell_length_c   6.17827141
_cell_angle_alpha   133.58695687
_cell_angle_beta   148.20878431
_cell_angle_gamma   35.92366439
_symmetry_Int_Tables_number   1
_chemical_formula_structural   BaTbO3
_chemical_formula_sum   'Ba2 Tb2 O6'
_cell_volume   176.35017029
_cell_formula_units_Z   2
loop_
 _symmetry_equiv_pos_site_id
 _symmetry_equiv_pos_as_xyz
  1  'x, y, z'
loop_
 _atom_site_type_symbol
 _atom_site_label
 _atom_site_symmetry_multiplicity
 _atom_site_fract_x
 _atom_site_fract_y
 _atom_site_fract_z
 _atom_site_occupancy
  Ba  Ba0  1  0.50394543  0.23880721  0.00434014  1
  Ba  Ba1  1  0.49779044  0.75985039  0.99589688  1
  Tb  Tb2  1  0.00015728  0.49974682  0.99965292  1
  Tb  Tb3  1  0.00048799  0.99967500  0.00035608  1
  O  O4  1  0.50177758  0.20004380  0.43816970  1
  O  O5  1  0.98427425  0.19034147  0.84811088  1
  O  O6  1  0.95382991  0.33900786  0.45540329  1
  O  O7  1  0.49831743  0.80124114  0.56408795  1
  O  O8  1  0.01437083  0.81045418  0.15077854  1
  O  O9  1  0.04504885  0.66083213  0.54320362  1
