# generated using pymatgen
data_K2Cr2HgCl2O7
_symmetry_space_group_name_H-M   'P 1'
_cell_length_a   8.36077452
_cell_length_b   10.65299936
_cell_length_c   12.77021319
_cell_angle_alpha   90.00000000
_cell_angle_beta   92.62101574
_cell_angle_gamma   90.00000000
_symmetry_Int_Tables_number   1
_chemical_formula_structural   K2Cr2HgCl2O7
_chemical_formula_sum   'K8 Cr8 Hg4 Cl8 O28'
_cell_volume   1136.21885091
_cell_formula_units_Z   4
loop_
 _symmetry_equiv_pos_site_id
 _symmetry_equiv_pos_as_xyz
  1  'x, y, z'
loop_
 _atom_site_type_symbol
 _atom_site_label
 _atom_site_symmetry_multiplicity
 _atom_site_fract_x
 _atom_site_fract_y
 _atom_site_fract_z
 _atom_site_occupancy
  K  K0  1  0.75157096  0.15518301  0.63090183  1
  K  K1  1  0.75118698  0.82815143  0.33903803  1
  K  K2  1  0.24881302  0.17184857  0.66096197  1
  K  K3  1  0.24842904  0.84481699  0.36909817  1
  K  K4  1  0.74881302  0.32815143  0.16096197  1
  K  K5  1  0.74842904  0.65518301  0.86909817  1
  K  K6  1  0.25118698  0.67184857  0.83903803  1
  K  K7  1  0.25157096  0.34481699  0.13090183  1
  Cr  Cr8  1  0.04467617  0.16570277  0.38565126  1
  Cr  Cr9  1  0.54737694  0.83747633  0.61081630  1
  Cr  Cr10  1  0.95532383  0.83429723  0.61434874  1
  Cr  Cr11  1  0.54467617  0.33429723  0.88565126  1
  Cr  Cr12  1  0.45262306  0.16252367  0.38918370  1
  Cr  Cr13  1  0.04737694  0.66252367  0.11081630  1
  Cr  Cr14  1  0.95262306  0.33747633  0.88918370  1
  Cr  Cr15  1  0.45532383  0.66570277  0.11434874  1
  Hg  Hg16  1  0.50000000  0.50000000  0.50000000  1
  Hg  Hg17  1  0.00000000  0.00000000  0.00000000  1
  Hg  Hg18  1  0.50000000  0.00000000  0.00000000  1
  Hg  Hg19  1  0.00000000  0.50000000  0.50000000  1
  Cl  Cl20  1  0.29692577  0.52165292  0.36402383  1
  Cl  Cl21  1  0.70240700  0.02060824  0.13573957  1
  Cl  Cl22  1  0.20307423  0.02165292  0.13597617  1
  Cl  Cl23  1  0.79759300  0.52060824  0.36426043  1
  Cl  Cl24  1  0.70307423  0.47834708  0.63597617  1
  Cl  Cl25  1  0.20240700  0.47939176  0.63573957  1
  Cl  Cl26  1  0.79692577  0.97834708  0.86402383  1
  Cl  Cl27  1  0.29759300  0.97939176  0.86426043  1
  O  O28  1  0.52497210  0.75626327  0.71743128  1
  O  O29  1  0.49301382  0.75338752  0.50646999  1
  O  O30  1  0.50398979  0.74051108  0.00695379  1
  O  O31  1  0.99601021  0.24051108  0.49304621  1
  O  O32  1  0.75140304  0.88446669  0.59934053  1
  O  O33  1  0.00398979  0.75948892  0.50695379  1
  O  O34  1  0.47502790  0.24373673  0.28256872  1
  O  O35  1  0.02497210  0.74373673  0.21743128  1
  O  O36  1  0.50698618  0.24661248  0.49353001  1
  O  O37  1  0.55652087  0.03373543  0.38659713  1
  O  O38  1  0.44347913  0.96626457  0.61340287  1
  O  O39  1  0.56138435  0.53849010  0.12904048  1
  O  O40  1  0.51916856  0.24246671  0.78410143  1
  O  O41  1  0.49601021  0.25948892  0.99304621  1
  O  O42  1  0.01916856  0.25753329  0.28410143  1
  O  O43  1  0.99301382  0.74661248  0.00646999  1
  O  O44  1  0.00698618  0.25338752  0.99353001  1
  O  O45  1  0.05652087  0.46626457  0.88659713  1
  O  O46  1  0.25140304  0.61553331  0.09934053  1
  O  O47  1  0.94347913  0.53373543  0.11340287  1
  O  O48  1  0.74859696  0.38446669  0.90065947  1
  O  O49  1  0.43861565  0.46150990  0.87095952  1
  O  O50  1  0.93861565  0.03849010  0.37095952  1
  O  O51  1  0.48083144  0.75753329  0.21589857  1
  O  O52  1  0.98083144  0.74246671  0.71589857  1
  O  O53  1  0.06138435  0.96150990  0.62904048  1
  O  O54  1  0.24859696  0.11553331  0.40065947  1
  O  O55  1  0.97502790  0.25626327  0.78256872  1
