# generated using pymatgen
data_KVSO6
_symmetry_space_group_name_H-M   'P 1'
_cell_length_a   5.55844953
_cell_length_b   8.64061821
_cell_length_c   11.26552085
_cell_angle_alpha   90.00000000
_cell_angle_beta   90.00000000
_cell_angle_gamma   90.00000000
_symmetry_Int_Tables_number   1
_chemical_formula_structural   KVSO6
_chemical_formula_sum   'K4 V4 S4 O24'
_cell_volume   541.06539478
_cell_formula_units_Z   4
loop_
 _symmetry_equiv_pos_site_id
 _symmetry_equiv_pos_as_xyz
  1  'x, y, z'
loop_
 _atom_site_type_symbol
 _atom_site_label
 _atom_site_symmetry_multiplicity
 _atom_site_fract_x
 _atom_site_fract_y
 _atom_site_fract_z
 _atom_site_occupancy
  K  K0  1  0.27710045  0.43952441  0.89025431  1
  K  K1  1  0.77710045  0.56047559  0.60974569  1
  K  K2  1  0.72289955  0.06047559  0.39025431  1
  K  K3  1  0.22289955  0.93952441  0.10974569  1
  V  V4  1  0.28220082  0.90431328  0.68742235  1
  V  V5  1  0.78220082  0.09568672  0.81257765  1
  V  V6  1  0.21779918  0.40431328  0.31257765  1
  V  V7  1  0.71779918  0.59568672  0.18742235  1
  S  S8  1  0.78329837  0.69597908  0.96086086  1
  S  S9  1  0.71670163  0.19597908  0.03913914  1
  S  S10  1  0.21670163  0.80402092  0.46086086  1
  S  S11  1  0.28329837  0.30402092  0.53913914  1
  O  O12  1  0.95857331  0.62030508  0.05000584  1
  O  O13  1  0.92432742  0.46654967  0.25887035  1
  O  O14  1  0.04142669  0.87969492  0.55000584  1
  O  O15  1  0.73896173  0.10350009  0.14638318  1
  O  O16  1  0.42432742  0.53345033  0.24112965  1
  O  O17  1  0.44769378  0.81419434  0.53582943  1
  O  O18  1  0.75718933  0.75929146  0.25604671  1
  O  O19  1  0.55230622  0.68580566  0.03582943  1
  O  O20  1  0.94769378  0.18580566  0.96417057  1
  O  O21  1  0.26103827  0.39649991  0.64638318  1
  O  O22  1  0.23896173  0.89649991  0.35361682  1
  O  O23  1  0.05230622  0.31419434  0.46417057  1
  O  O24  1  0.25718933  0.24070854  0.24395329  1
  O  O25  1  0.24281067  0.74070854  0.75604671  1
  O  O26  1  0.57567258  0.96654967  0.74112965  1
  O  O27  1  0.07567258  0.03345033  0.75887035  1
  O  O28  1  0.14198886  0.64411512  0.44211742  1
  O  O29  1  0.76103827  0.60350009  0.85361682  1
  O  O30  1  0.35801114  0.14411512  0.55788258  1
  O  O31  1  0.74281067  0.25929146  0.74395329  1
  O  O32  1  0.85801114  0.85588488  0.94211742  1
  O  O33  1  0.54142669  0.12030508  0.94999416  1
  O  O34  1  0.64198886  0.35588488  0.05788258  1
  O  O35  1  0.45857331  0.37969492  0.44999416  1
