# generated using pymatgen
data_Na3WO4F
_symmetry_space_group_name_H-M   'P 1'
_cell_length_a   5.71498028
_cell_length_b   7.65141537
_cell_length_c   13.08383612
_cell_angle_alpha   90.00000000
_cell_angle_beta   90.00000000
_cell_angle_gamma   90.00000000
_symmetry_Int_Tables_number   1
_chemical_formula_structural   Na3WO4F
_chemical_formula_sum   'Na12 W4 O16 F4'
_cell_volume   572.12590309
_cell_formula_units_Z   4
loop_
 _symmetry_equiv_pos_site_id
 _symmetry_equiv_pos_as_xyz
  1  'x, y, z'
loop_
 _atom_site_type_symbol
 _atom_site_label
 _atom_site_symmetry_multiplicity
 _atom_site_fract_x
 _atom_site_fract_y
 _atom_site_fract_z
 _atom_site_occupancy
  Na  Na0  1  0.77472353  0.45833987  0.81978279  1
  Na  Na1  1  0.22527647  0.95833987  0.18021721  1
  Na  Na2  1  0.27640391  0.75000000  0.39230583  1
  Na  Na3  1  0.72527647  0.54166013  0.31978279  1
  Na  Na4  1  0.77472353  0.04166013  0.81978279  1
  Na  Na5  1  0.77640391  0.75000000  0.10769417  1
  Na  Na6  1  0.72359609  0.25000000  0.60769417  1
  Na  Na7  1  0.27472353  0.45833987  0.68021721  1
  Na  Na8  1  0.22359609  0.25000000  0.89230583  1
  Na  Na9  1  0.72527647  0.95833987  0.31978279  1
  Na  Na10  1  0.27472353  0.04166013  0.68021721  1
  Na  Na11  1  0.22527647  0.54166013  0.18021721  1
  W  W12  1  0.28839944  0.75000000  0.91570797  1
  W  W13  1  0.78839944  0.75000000  0.58429203  1
  W  W14  1  0.21160056  0.25000000  0.41570797  1
  W  W15  1  0.71160056  0.25000000  0.08429203  1
  O  O16  1  0.31367743  0.44354675  0.34876650  1
  O  O17  1  0.67358607  0.75000000  0.45496460  1
  O  O18  1  0.18632257  0.55645325  0.84876650  1
  O  O19  1  0.18632257  0.94354675  0.84876650  1
  O  O20  1  0.89245689  0.25000000  0.42062657  1
  O  O21  1  0.81367743  0.05645325  0.15123350  1
  O  O22  1  0.10754311  0.75000000  0.57937343  1
  O  O23  1  0.39245689  0.25000000  0.07937343  1
  O  O24  1  0.81367743  0.44354675  0.15123350  1
  O  O25  1  0.68632257  0.94354675  0.65123350  1
  O  O26  1  0.82641393  0.25000000  0.95496460  1
  O  O27  1  0.60754311  0.75000000  0.92062657  1
  O  O28  1  0.32641393  0.25000000  0.54503540  1
  O  O29  1  0.68632257  0.55645325  0.65123350  1
  O  O30  1  0.17358607  0.75000000  0.04503540  1
  O  O31  1  0.31367743  0.05645325  0.34876650  1
  F  F32  1  0.00254024  0.25000000  0.73041031  1
  F  F33  1  0.99745976  0.75000000  0.26958969  1
  F  F34  1  0.49745976  0.75000000  0.23041031  1
  F  F35  1  0.50254024  0.25000000  0.76958969  1
