# generated using pymatgen
data_CsMn2V2ClO7
_symmetry_space_group_name_H-M   'P 1'
_cell_length_a   5.40999114
_cell_length_b   5.65171796
_cell_length_c   15.19317358
_cell_angle_alpha   90.00000000
_cell_angle_beta   90.00000000
_cell_angle_gamma   90.00000000
_symmetry_Int_Tables_number   1
_chemical_formula_structural   CsMn2V2ClO7
_chemical_formula_sum   'Cs2 Mn4 V4 Cl2 O14'
_cell_volume   464.54258729
_cell_formula_units_Z   2
loop_
 _symmetry_equiv_pos_site_id
 _symmetry_equiv_pos_as_xyz
  1  'x, y, z'
loop_
 _atom_site_type_symbol
 _atom_site_label
 _atom_site_symmetry_multiplicity
 _atom_site_fract_x
 _atom_site_fract_y
 _atom_site_fract_z
 _atom_site_occupancy
  Cs  Cs0  1  0.89557653  0.96379544  0.25000000  1
  Cs  Cs1  1  0.89557653  0.03620456  0.75000000  1
  Mn  Mn2  1  0.92689421  0.50000000  0.00000000  1
  Mn  Mn3  1  0.30753251  0.00000000  0.50000000  1
  Mn  Mn4  1  0.92689421  0.50000000  0.50000000  1
  Mn  Mn5  1  0.30753251  0.00000000  0.00000000  1
  V  V6  1  0.39997048  0.51706052  0.86374392  1
  V  V7  1  0.39997048  0.48293948  0.13625608  1
  V  V8  1  0.39997048  0.48293948  0.36374392  1
  V  V9  1  0.39997048  0.51706052  0.63625608  1
  Cl  Cl10  1  0.78781435  0.00000000  0.50000000  1
  Cl  Cl11  1  0.78781435  0.00000000  0.00000000  1
  O  O12  1  0.70818237  0.50186256  0.61258111  1
  O  O13  1  0.29724083  0.79991658  0.88038598  1
  O  O14  1  0.23039378  0.32477703  0.93127048  1
  O  O15  1  0.70818237  0.49813744  0.38741889  1
  O  O16  1  0.29724083  0.20008342  0.38038598  1
  O  O17  1  0.35118545  0.42554181  0.75000000  1
  O  O18  1  0.23039378  0.32477703  0.56872952  1
  O  O19  1  0.35118545  0.57445819  0.25000000  1
  O  O20  1  0.23039378  0.67522297  0.06872952  1
  O  O21  1  0.29724083  0.79991658  0.61961402  1
  O  O22  1  0.70818237  0.49813744  0.11258111  1
  O  O23  1  0.29724083  0.20008342  0.11961402  1
  O  O24  1  0.70818237  0.50186256  0.88741889  1
  O  O25  1  0.23039378  0.67522297  0.43127048  1
