# generated using pymatgen
data_Zn2Ni3O8
_symmetry_space_group_name_H-M   'P 1'
_cell_length_a   5.75358124
_cell_length_b   5.75358048
_cell_length_c   9.18848899
_cell_angle_alpha   90.00000000
_cell_angle_beta   90.00000000
_cell_angle_gamma   120.00000436
_symmetry_Int_Tables_number   1
_chemical_formula_structural   Zn2Ni3O8
_chemical_formula_sum   'Zn4 Ni6 O16'
_cell_volume   263.42146087
_cell_formula_units_Z   2
loop_
 _symmetry_equiv_pos_site_id
 _symmetry_equiv_pos_as_xyz
  1  'x, y, z'
loop_
 _atom_site_type_symbol
 _atom_site_label
 _atom_site_symmetry_multiplicity
 _atom_site_fract_x
 _atom_site_fract_y
 _atom_site_fract_z
 _atom_site_occupancy
  Zn  Zn0  1  0.66666700  0.33333400  0.03478052  1
  Zn  Zn1  1  0.33333300  0.66666600  0.53478152  1
  Zn  Zn2  1  0.66666700  0.33333400  0.41426348  1
  Zn  Zn3  1  0.33333300  0.66666600  0.91426448  1
  Ni  Ni4  1  0.66776306  0.83388153  0.24662820  1
  Ni  Ni5  1  0.83388253  0.16611947  0.74662820  1
  Ni  Ni6  1  0.16611947  0.33223794  0.24662820  1
  Ni  Ni7  1  0.83388053  0.66776306  0.74662820  1
  Ni  Ni8  1  0.33223794  0.16611947  0.74662820  1
  Ni  Ni9  1  0.16611947  0.83388153  0.24662820  1
  O  O10  1  0.84386830  0.15613270  0.14178377  1
  O  O11  1  0.68773560  0.84386830  0.64178277  1
  O  O12  1  0.15613270  0.31226540  0.64178277  1
  O  O13  1  0.84386730  0.68773560  0.14178377  1
  O  O14  1  0.31226440  0.15613270  0.14178377  1
  O  O15  1  0.15613270  0.84386830  0.64178277  1
  O  O16  1  0.51960784  0.48039116  0.86391523  1
  O  O17  1  0.03921668  0.51960784  0.36391423  1
  O  O18  1  0.48039216  0.96078432  0.36391423  1
  O  O19  1  0.51960784  0.03921668  0.86391523  1
  O  O20  1  -0.00000000  -0.00000000  0.34830470  1
  O  O21  1  -0.00000000  -0.00000000  0.84830470  1
  O  O22  1  0.33333300  0.66666600  0.13917068  1
  O  O23  1  0.96078232  0.48039116  0.86391523  1
  O  O24  1  0.48039116  0.51960784  0.36391423  1
  O  O25  1  0.66666700  0.33333400  0.63917068  1
