# generated using pymatgen
data_KMoIO6
_symmetry_space_group_name_H-M   'P 1'
_cell_length_a   7.49523784
_cell_length_b   8.00926727
_cell_length_c   19.77962654
_cell_angle_alpha   90.00000000
_cell_angle_beta   90.00000000
_cell_angle_gamma   90.00000000
_symmetry_Int_Tables_number   1
_chemical_formula_structural   KMoIO6
_chemical_formula_sum   'K8 Mo8 I8 O48'
_cell_volume   1187.39794306
_cell_formula_units_Z   8
loop_
 _symmetry_equiv_pos_site_id
 _symmetry_equiv_pos_as_xyz
  1  'x, y, z'
loop_
 _atom_site_type_symbol
 _atom_site_label
 _atom_site_symmetry_multiplicity
 _atom_site_fract_x
 _atom_site_fract_y
 _atom_site_fract_z
 _atom_site_occupancy
  K  K0  1  0.16516495  0.19012786  0.57093216  1
  K  K1  1  0.33483505  0.69012786  0.42906784  1
  K  K2  1  0.66516495  0.30987214  0.57093216  1
  K  K3  1  0.83483505  0.30987214  0.07093216  1
  K  K4  1  0.83483505  0.80987214  0.42906784  1
  K  K5  1  0.66516495  0.80987214  0.92906784  1
  K  K6  1  0.16516495  0.69012786  0.92906784  1
  K  K7  1  0.33483505  0.19012786  0.07093216  1
  Mo  Mo8  1  0.42082182  0.22017170  0.39299634  1
  Mo  Mo9  1  0.92082182  0.27982830  0.39299634  1
  Mo  Mo10  1  0.57917818  0.27982830  0.89299634  1
  Mo  Mo11  1  0.07917818  0.22017170  0.89299634  1
  Mo  Mo12  1  0.07917818  0.72017170  0.60700366  1
  Mo  Mo13  1  0.92082182  0.77982830  0.10700366  1
  Mo  Mo14  1  0.57917818  0.77982830  0.60700366  1
  Mo  Mo15  1  0.42082182  0.72017170  0.10700366  1
  I  I16  1  0.07692483  0.99482611  0.27627619  1
  I  I17  1  0.42307517  0.99482611  0.77627619  1
  I  I18  1  0.57692483  0.50517389  0.27627619  1
  I  I19  1  0.42307517  0.49482611  0.72372381  1
  I  I20  1  0.57692483  0.00517389  0.22372381  1
  I  I21  1  0.92307517  0.00517389  0.72372381  1
  I  I22  1  0.92307517  0.50517389  0.77627619  1
  I  I23  1  0.07692483  0.49482611  0.22372381  1
  O  O24  1  0.37273736  0.44178273  0.32487148  1
  O  O25  1  0.62726264  0.55821727  0.67512852  1
  O  O26  1  0.85856022  0.68353350  0.82623420  1
  O  O27  1  0.94319434  0.88114331  0.21256595  1
  O  O28  1  0.01323330  0.52426176  0.57789235  1
  O  O29  1  0.12726264  0.44178273  0.82487148  1
  O  O30  1  0.16974877  0.68611317  0.12590791  1
  O  O31  1  0.51323330  0.47573824  0.92210765  1
  O  O32  1  0.85856022  0.18353350  0.67376580  1
  O  O33  1  0.44319434  0.11885669  0.28743405  1
  O  O34  1  0.98676670  0.97573824  0.07789235  1
  O  O35  1  0.35856022  0.81646650  0.82623420  1
  O  O36  1  0.66974877  0.81388683  0.12590791  1
  O  O37  1  0.89276728  0.16521451  0.46818876  1
  O  O38  1  0.44319434  0.61885669  0.21256595  1
  O  O39  1  0.55680566  0.38114331  0.78743405  1
  O  O40  1  0.14143978  0.31646650  0.17376580  1
  O  O41  1  0.39276728  0.83478549  0.03181124  1
  O  O42  1  0.48676670  0.02426176  0.42210765  1
  O  O43  1  0.89276728  0.66521451  0.03181124  1
  O  O44  1  0.60723272  0.66521451  0.53181124  1
  O  O45  1  0.14143978  0.81646650  0.32623420  1
  O  O46  1  0.33025123  0.18611317  0.87409209  1
  O  O47  1  0.39276728  0.33478549  0.46818876  1
  O  O48  1  0.55680566  0.88114331  0.71256595  1
  O  O49  1  0.05680566  0.61885669  0.71256595  1
  O  O50  1  0.64143978  0.18353350  0.17376580  1
  O  O51  1  0.35856022  0.31646650  0.67376580  1
  O  O52  1  0.48676670  0.52426176  0.07789235  1
  O  O53  1  0.66974877  0.31388683  0.37409209  1
  O  O54  1  0.01323330  0.02426176  0.92210765  1
  O  O55  1  0.37273736  0.94178273  0.17512852  1
  O  O56  1  0.87273736  0.55821727  0.17512852  1
  O  O57  1  0.64143978  0.68353350  0.32623420  1
  O  O58  1  0.51323330  0.97573824  0.57789235  1
  O  O59  1  0.83025123  0.81388683  0.62590791  1
  O  O60  1  0.10723272  0.83478549  0.53181124  1
  O  O61  1  0.60723272  0.16521451  0.96818876  1
  O  O62  1  0.33025123  0.68611317  0.62590791  1
  O  O63  1  0.05680566  0.11885669  0.78743405  1
  O  O64  1  0.10723272  0.33478549  0.96818876  1
  O  O65  1  0.12726264  0.94178273  0.67512852  1
  O  O66  1  0.83025123  0.31388683  0.87409209  1
  O  O67  1  0.62726264  0.05821727  0.82487148  1
  O  O68  1  0.94319434  0.38114331  0.28743405  1
  O  O69  1  0.98676670  0.47573824  0.42210765  1
  O  O70  1  0.16974877  0.18611317  0.37409209  1
  O  O71  1  0.87273736  0.05821727  0.32487148  1
