# generated using pymatgen
data_Mn3(PO4)2
_symmetry_space_group_name_H-M   'P 1'
_cell_length_a   5.31620535
_cell_length_b   6.77737430
_cell_length_c   9.09651212
_cell_angle_alpha   90.00000000
_cell_angle_beta   95.08288352
_cell_angle_gamma   90.00000000
_symmetry_Int_Tables_number   1
_chemical_formula_structural   Mn3(PO4)2
_chemical_formula_sum   'Mn6 P4 O16'
_cell_volume   326.45770678
_cell_formula_units_Z   2
loop_
 _symmetry_equiv_pos_site_id
 _symmetry_equiv_pos_as_xyz
  1  'x, y, z'
loop_
 _atom_site_type_symbol
 _atom_site_label
 _atom_site_symmetry_multiplicity
 _atom_site_fract_x
 _atom_site_fract_y
 _atom_site_fract_z
 _atom_site_occupancy
  Mn  Mn0  1  0.08753664  0.65640022  0.87234349  1
  Mn  Mn1  1  0.91246336  0.34359978  0.12765651  1
  Mn  Mn2  1  0.58753664  0.84359978  0.37234349  1
  Mn  Mn3  1  0.00000000  0.50000000  0.50000000  1
  Mn  Mn4  1  0.41246336  0.15640022  0.62765651  1
  Mn  Mn5  1  0.50000000  0.00000000  0.00000000  1
  P  P6  1  0.03613135  0.83344640  0.19253321  1
  P  P7  1  0.53613135  0.66655360  0.69253321  1
  P  P8  1  0.96386865  0.16655360  0.80746679  1
  P  P9  1  0.46386865  0.33344640  0.30746679  1
  O  O10  1  0.32376179  0.87269733  0.18293200  1
  O  O11  1  0.82376179  0.62730267  0.68293200  1
  O  O12  1  0.37291617  0.48646117  0.63701126  1
  O  O13  1  0.51364535  0.29093338  0.14485582  1
  O  O14  1  0.48635465  0.70906662  0.85514418  1
  O  O15  1  0.04119239  0.34336653  0.91128026  1
  O  O16  1  0.67623821  0.12730267  0.81706800  1
  O  O17  1  0.17623821  0.37269733  0.31706800  1
  O  O18  1  0.95880761  0.65663347  0.08871974  1
  O  O19  1  0.01364535  0.20906662  0.64485582  1
  O  O20  1  0.98635465  0.79093338  0.35514418  1
  O  O21  1  0.62708383  0.51353883  0.36298874  1
  O  O22  1  0.87291617  0.01353883  0.13701126  1
  O  O23  1  0.12708383  0.98646117  0.86298874  1
  O  O24  1  0.45880761  0.84336653  0.58871974  1
  O  O25  1  0.54119239  0.15663347  0.41128026  1
