# generated using pymatgen
data_Ba3V2(PO5)3
_symmetry_space_group_name_H-M   'P 1'
_cell_length_a   5.19695846
_cell_length_b   12.64910980
_cell_length_c   21.18741883
_cell_angle_alpha   90.00000000
_cell_angle_beta   90.00000000
_cell_angle_gamma   90.00000000
_symmetry_Int_Tables_number   1
_chemical_formula_structural   Ba3V2(PO5)3
_chemical_formula_sum   'Ba12 V8 P12 O60'
_cell_volume   1392.79519446
_cell_formula_units_Z   4
loop_
 _symmetry_equiv_pos_site_id
 _symmetry_equiv_pos_as_xyz
  1  'x, y, z'
loop_
 _atom_site_type_symbol
 _atom_site_label
 _atom_site_symmetry_multiplicity
 _atom_site_fract_x
 _atom_site_fract_y
 _atom_site_fract_z
 _atom_site_occupancy
  Ba  Ba0  1  0.19187933  0.62361936  0.43682217  1
  Ba  Ba1  1  0.30812067  0.37638064  0.93682217  1
  Ba  Ba2  1  0.72365359  0.13903028  0.42041877  1
  Ba  Ba3  1  0.20291855  0.78191608  0.75684081  1
  Ba  Ba4  1  0.69187933  0.87638064  0.56317783  1
  Ba  Ba5  1  0.29708145  0.21808392  0.25684081  1
  Ba  Ba6  1  0.80812067  0.12361936  0.06317783  1
  Ba  Ba7  1  0.22365359  0.36096972  0.57958123  1
  Ba  Ba8  1  0.27634641  0.63903028  0.07958123  1
  Ba  Ba9  1  0.79708145  0.28191608  0.74315919  1
  Ba  Ba10  1  0.70291855  0.71808392  0.24315919  1
  Ba  Ba11  1  0.77634641  0.86096972  0.92041877  1
  V  V12  1  0.67305232  0.60793972  0.68032362  1
  V  V13  1  0.71419927  0.44209177  0.34678518  1
  V  V14  1  0.78580073  0.55790823  0.84678518  1
  V  V15  1  0.32694768  0.10793972  0.81967638  1
  V  V16  1  0.28580073  0.94209177  0.15321482  1
  V  V17  1  0.82694768  0.39206028  0.18032362  1
  V  V18  1  0.21419927  0.05790823  0.65321482  1
  V  V19  1  0.17305232  0.89206028  0.31967638  1
  P  P20  1  0.21879804  0.32473430  0.41099599  1
  P  P21  1  0.18699494  0.68050052  0.59419844  1
  P  P22  1  0.69853491  0.96411953  0.73873122  1
  P  P23  1  0.19853491  0.53588047  0.26126878  1
  P  P24  1  0.30146509  0.46411953  0.76126878  1
  P  P25  1  0.78120196  0.82473430  0.08900401  1
  P  P26  1  0.68699494  0.81949948  0.40580156  1
  P  P27  1  0.80146509  0.03588047  0.23873122  1
  P  P28  1  0.81300506  0.18050052  0.90580156  1
  P  P29  1  0.28120196  0.67526570  0.91099599  1
  P  P30  1  0.71879804  0.17526570  0.58900401  1
  P  P31  1  0.31300506  0.31949948  0.09419844  1
  O  O32  1  0.01344910  0.83107190  0.13642924  1
  O  O33  1  0.29311960  0.42989581  0.06633857  1
  O  O34  1  0.78883788  0.71635863  0.05578832  1
  O  O35  1  0.96721211  0.17698274  0.63247887  1
  O  O36  1  0.94178664  0.69419855  0.63818736  1
  O  O37  1  0.21031271  0.13501469  0.74677133  1
  O  O38  1  0.66705855  0.06843911  0.77781523  1
  O  O39  1  0.75098833  0.51368529  0.15806355  1
  O  O40  1  0.44178664  0.80580145  0.36181264  1
  O  O41  1  0.28883788  0.78364137  0.94421168  1
  O  O42  1  0.71116212  0.28364137  0.55578832  1
  O  O43  1  0.71031271  0.36498531  0.25322867  1
  O  O44  1  0.03778280  0.04941311  0.19399559  1
  O  O45  1  0.48655090  0.16892810  0.63642924  1
  O  O46  1  0.71199118  0.50668215  0.41471623  1
  O  O47  1  0.33294145  0.56843911  0.72218477  1
  O  O48  1  0.28682907  0.36792316  0.71703128  1
  O  O49  1  0.79311960  0.07010419  0.93366143  1
  O  O50  1  0.93163970  0.79412504  0.36237678  1
  O  O51  1  0.03278789  0.67698274  0.86752113  1
  O  O52  1  0.51344910  0.66892810  0.86357076  1
  O  O53  1  0.78682907  0.13207684  0.28296872  1
  O  O54  1  0.28800882  0.00668215  0.08528377  1
  O  O55  1  0.21116212  0.21635863  0.44421168  1
  O  O56  1  0.53278789  0.82301726  0.13247887  1
  O  O57  1  0.22115374  0.41707642  0.45708651  1
  O  O58  1  0.53778280  0.45058689  0.80600441  1
  O  O59  1  0.43163970  0.70587496  0.63762322  1
  O  O60  1  0.24901167  0.01368529  0.34193645  1
  O  O61  1  0.82351070  0.26707715  0.95609420  1
  O  O62  1  0.67648930  0.73292285  0.45609420  1
  O  O63  1  0.32351070  0.23292285  0.04390580  1
  O  O64  1  0.77884626  0.91707642  0.04291349  1
  O  O65  1  0.78968729  0.63501469  0.75322867  1
  O  O66  1  0.83294145  0.93156089  0.27781523  1
  O  O67  1  0.70688040  0.92989581  0.43366143  1
  O  O68  1  0.25098833  0.98631471  0.84193645  1
  O  O69  1  0.78800882  0.49331785  0.91471623  1
  O  O70  1  0.20688040  0.57010419  0.56633857  1
  O  O71  1  0.28968729  0.86498531  0.24677133  1
  O  O72  1  0.46221720  0.95058689  0.69399559  1
  O  O73  1  0.98655090  0.33107190  0.36357076  1
  O  O74  1  0.05821336  0.19419855  0.86181264  1
  O  O75  1  0.56836030  0.20587496  0.86237678  1
  O  O76  1  0.21317093  0.63207684  0.21703128  1
  O  O77  1  0.44289247  0.53414849  0.30311354  1
  O  O78  1  0.94289247  0.96585151  0.69688646  1
  O  O79  1  0.21199118  0.99331785  0.58528377  1
  O  O80  1  0.17648930  0.76707715  0.54390580  1
  O  O81  1  0.71317093  0.86792316  0.78296872  1
  O  O82  1  0.16705855  0.43156089  0.22218477  1
  O  O83  1  0.55710753  0.03414849  0.19688646  1
  O  O84  1  0.55821336  0.30580145  0.13818736  1
  O  O85  1  0.96221720  0.54941311  0.30600441  1
  O  O86  1  0.05710753  0.46585151  0.80311354  1
  O  O87  1  0.27884626  0.58292358  0.95708651  1
  O  O88  1  0.72115374  0.08292358  0.54291349  1
  O  O89  1  0.74901167  0.48631471  0.65806355  1
  O  O90  1  0.46721211  0.32301726  0.36752113  1
  O  O91  1  0.06836030  0.29412504  0.13762322  1
