# generated using pymatgen
data_NaZnFe2(PO4)3
_symmetry_space_group_name_H-M   'P 1'
_cell_length_a   5.17858456
_cell_length_b   12.36567038
_cell_length_c   15.21574717
_cell_angle_alpha   90.00000000
_cell_angle_beta   90.00000000
_cell_angle_gamma   90.00000000
_symmetry_Int_Tables_number   1
_chemical_formula_structural   NaZnFe2(PO4)3
_chemical_formula_sum   'Na4 Zn4 Fe8 P12 O48'
_cell_volume   974.36577582
_cell_formula_units_Z   4
loop_
 _symmetry_equiv_pos_site_id
 _symmetry_equiv_pos_as_xyz
  1  'x, y, z'
loop_
 _atom_site_type_symbol
 _atom_site_label
 _atom_site_symmetry_multiplicity
 _atom_site_fract_x
 _atom_site_fract_y
 _atom_site_fract_z
 _atom_site_occupancy
  Na  Na0  1  0.04178840  0.02096588  0.21108914  1
  Na  Na1  1  0.54178840  0.47903412  0.78891086  1
  Na  Na2  1  0.95821160  0.52096588  0.28891086  1
  Na  Na3  1  0.45821160  0.97903412  0.71108914  1
  Zn  Zn4  1  0.93113433  0.79440699  0.75838906  1
  Zn  Zn5  1  0.56886567  0.20559301  0.25838906  1
  Zn  Zn6  1  0.06886567  0.29440699  0.74161094  1
  Zn  Zn7  1  0.43113433  0.70559301  0.24161094  1
  Fe  Fe8  1  0.74232645  0.58028529  0.99209861  1
  Fe  Fe9  1  0.99526322  0.78727061  0.36245523  1
  Fe  Fe10  1  0.75767355  0.41971471  0.49209861  1
  Fe  Fe11  1  0.00473678  0.28727061  0.13754477  1
  Fe  Fe12  1  0.50473678  0.21272939  0.86245523  1
  Fe  Fe13  1  0.25767355  0.08028529  0.50790139  1
  Fe  Fe14  1  0.24232545  0.91971471  0.00790139  1
  Fe  Fe15  1  0.49526322  0.71272939  0.63754477  1
  P  P16  1  0.48331240  0.63691816  0.42305781  1
  P  P17  1  0.09403589  0.26086614  0.36614501  1
  P  P18  1  0.01316662  0.54358728  0.65857617  1
  P  P19  1  0.51316662  0.95641272  0.34142383  1
  P  P20  1  0.48683338  0.45641272  0.15857617  1
  P  P21  1  0.90596411  0.76086614  0.13385499  1
  P  P22  1  0.98331240  0.86308184  0.57694219  1
  P  P23  1  0.01668760  0.36308184  0.92305781  1
  P  P24  1  0.98683338  0.04358728  0.84142383  1
  P  P25  1  0.51668760  0.13691816  0.07694219  1
  P  P26  1  0.40596411  0.73913386  0.86614501  1
  P  P27  1  0.59403589  0.23913386  0.63385499  1
  O  O28  1  0.54208325  0.77906278  0.77984221  1
  O  O29  1  0.12005088  0.71731980  0.84916756  1
  O  O30  1  0.79529140  0.91688098  0.32738040  1
  O  O31  1  0.95791675  0.22093722  0.27984221  1
  O  O32  1  0.17831278  0.13816491  0.82138528  1
  O  O33  1  0.71817222  0.85035414  0.62396710  1
  O  O34  1  0.47676312  0.99333365  0.43856182  1
  O  O35  1  0.44590459  0.82548015  0.93939364  1
  O  O36  1  0.03873976  0.86752166  0.10323416  1
  O  O37  1  0.95722360  0.44981733  0.72168702  1
  O  O38  1  0.67831278  0.36183509  0.17861472  1
  O  O39  1  0.37994912  0.28268020  0.34916756  1
  O  O40  1  0.05409541  0.17451985  0.43939364  1
  O  O41  1  0.70470860  0.08311902  0.82738040  1
  O  O42  1  0.96126024  0.36752166  0.39676584  1
  O  O43  1  0.31709695  0.19072351  0.14156913  1
  O  O44  1  0.04208325  0.72093722  0.22015779  1
  O  O45  1  0.94590459  0.67451985  0.06060636  1
  O  O46  1  0.50767239  0.19014533  0.98689065  1
  O  O47  1  0.45791675  0.27906278  0.72015779  1
  O  O48  1  0.46126024  0.13247834  0.60323416  1
  O  O49  1  0.95621611  0.48509478  0.92859728  1
  O  O50  1  0.54277640  0.55018267  0.22168702  1
  O  O51  1  0.62005088  0.78268020  0.15083144  1
  O  O52  1  0.20470860  0.41688098  0.17261960  1
  O  O53  1  0.45621611  0.01490522  0.07140272  1
  O  O54  1  0.54378389  0.51490522  0.42859728  1
  O  O55  1  0.18290305  0.80927649  0.64156913  1
  O  O56  1  0.00767239  0.30985467  0.01310935  1
  O  O57  1  0.45722360  0.05018267  0.27831298  1
  O  O58  1  0.21817222  0.64964586  0.37603290  1
  O  O59  1  0.53873976  0.63247834  0.89676584  1
  O  O60  1  0.87994912  0.21731980  0.65083244  1
  O  O61  1  0.99232761  0.80985467  0.48689065  1
  O  O62  1  0.97676312  0.50666635  0.56143818  1
  O  O63  1  0.78182778  0.14964586  0.12396710  1
  O  O64  1  0.52323688  0.49333365  0.06143818  1
  O  O65  1  0.02323688  0.00666635  0.93856182  1
  O  O66  1  0.81709695  0.30927649  0.85843087  1
  O  O67  1  0.49232761  0.69014533  0.51310935  1
  O  O68  1  0.68290305  0.69072351  0.35843087  1
  O  O69  1  0.55409541  0.32548015  0.56060636  1
  O  O70  1  0.28182778  0.35035414  0.87603290  1
  O  O71  1  0.29529140  0.58311902  0.67261960  1
  O  O72  1  0.04378389  0.98509478  0.57140272  1
  O  O73  1  0.32168722  0.86183509  0.32138528  1
  O  O74  1  0.82168722  0.63816491  0.67861472  1
  O  O75  1  0.04277640  0.94981733  0.77831298  1
