# generated using pymatgen
data_KSbMoO5
_symmetry_space_group_name_H-M   'P 1'
_cell_length_a   5.82924413
_cell_length_b   9.30583063
_cell_length_c   11.72167849
_cell_angle_alpha   90.00000000
_cell_angle_beta   90.00000000
_cell_angle_gamma   107.90717829
_symmetry_Int_Tables_number   1
_chemical_formula_structural   KSbMoO5
_chemical_formula_sum   'K4 Sb4 Mo4 O20'
_cell_volume   605.05031896
_cell_formula_units_Z   4
loop_
 _symmetry_equiv_pos_site_id
 _symmetry_equiv_pos_as_xyz
  1  'x, y, z'
loop_
 _atom_site_type_symbol
 _atom_site_label
 _atom_site_symmetry_multiplicity
 _atom_site_fract_x
 _atom_site_fract_y
 _atom_site_fract_z
 _atom_site_occupancy
  K  K0  1  0.54300917  0.10742162  0.85603003  1
  K  K1  1  0.04300917  0.10742162  0.64396997  1
  K  K2  1  0.45699083  0.89257838  0.14396997  1
  K  K3  1  0.95699083  0.89257838  0.35603003  1
  Sb  Sb4  1  0.21502276  0.53695865  0.33126439  1
  Sb  Sb5  1  0.28497724  0.46304135  0.83126439  1
  Sb  Sb6  1  0.71502276  0.53695865  0.16873561  1
  Sb  Sb7  1  0.78497724  0.46304135  0.66873561  1
  Mo  Mo8  1  0.07221375  0.21672002  0.08702102  1
  Mo  Mo9  1  0.57221375  0.21672002  0.41297898  1
  Mo  Mo10  1  0.42778625  0.78327998  0.58702102  1
  Mo  Mo11  1  0.92778625  0.78327998  0.91297898  1
  O  O12  1  0.03594587  0.64826443  0.23816131  1
  O  O13  1  0.77575957  0.73265857  0.05205111  1
  O  O14  1  0.17314353  0.38308416  0.17913203  1
  O  O15  1  0.27575957  0.73265857  0.44794889  1
  O  O16  1  0.24257186  0.83130590  0.93321174  1
  O  O17  1  0.22424043  0.26734143  0.94794889  1
  O  O18  1  0.96405413  0.35173557  0.76183869  1
  O  O19  1  0.74257186  0.83130590  0.56678826  1
  O  O20  1  0.13874281  0.06061087  0.14822738  1
  O  O21  1  0.72424043  0.26734143  0.55205111  1
  O  O22  1  0.36125719  0.93938913  0.64822738  1
  O  O23  1  0.32685647  0.61691584  0.67913203  1
  O  O24  1  0.75742814  0.16869410  0.06678826  1
  O  O25  1  0.67314353  0.38308416  0.32086797  1
  O  O26  1  0.53594587  0.64826443  0.26183869  1
  O  O27  1  0.25742814  0.16869410  0.43321174  1
  O  O28  1  0.63874281  0.06061087  0.35177262  1
  O  O29  1  0.46405413  0.35173557  0.73816131  1
  O  O30  1  0.86125719  0.93938913  0.85177262  1
  O  O31  1  0.82685647  0.61691584  0.82086797  1
