# generated using pymatgen
data_P
_symmetry_space_group_name_H-M   'P 1'
_cell_length_a   9.26050591
_cell_length_b   9.29048433
_cell_length_c   23.60402364
_cell_angle_alpha   98.13418361
_cell_angle_beta   90.00000000
_cell_angle_gamma   90.00000000
_symmetry_Int_Tables_number   1
_chemical_formula_structural   P
_chemical_formula_sum   P84
_cell_volume   2010.33172591
_cell_formula_units_Z   84
loop_
 _symmetry_equiv_pos_site_id
 _symmetry_equiv_pos_as_xyz
  1  'x, y, z'
loop_
 _atom_site_type_symbol
 _atom_site_label
 _atom_site_symmetry_multiplicity
 _atom_site_fract_x
 _atom_site_fract_y
 _atom_site_fract_z
 _atom_site_occupancy
  P  P0  1  0.60756513  0.96454254  0.91990162  1
  P  P1  1  0.59371209  0.20060468  0.94949224  1
  P  P2  1  0.20141258  0.61911682  0.32148712  1
  P  P3  1  0.83680446  0.55104935  0.55302573  1
  P  P4  1  0.35752644  0.01954568  0.53671640  1
  P  P5  1  0.85968760  0.71074029  0.91891047  1
  P  P6  1  0.21489716  0.69333487  0.61770493  1
  P  P7  1  0.67745087  0.11956084  0.33115707  1
  P  P8  1  0.61410316  0.52921629  0.67361380  1
  P  P9  1  0.90006123  0.81545045  0.67479890  1
  P  P10  1  0.36446217  0.25609495  0.56813573  1
  P  P11  1  0.03534278  0.94651926  0.11880916  1
  P  P12  1  0.05171345  0.86683920  0.82152199  1
  P  P13  1  0.20141258  0.88088318  0.17851288  1
  P  P14  1  0.54925078  0.39421747  0.83212301  1
  P  P15  1  0.68263640  0.75601440  0.70364308  1
  P  P16  1  0.85968760  0.78925971  0.58108953  1
  P  P17  1  0.09993877  0.18454955  0.32520110  1
  P  P18  1  0.35752644  0.48045432  0.96328360  1
  P  P19  1  0.64247356  0.51954568  0.03671640  1
  P  P20  1  0.96465722  0.05348074  0.88119084  1
  P  P21  1  0.13317104  0.46943324  0.92993537  1
  P  P22  1  0.03534278  0.55348074  0.38119084  1
  P  P23  1  0.48670445  0.91743757  0.60424397  1
  P  P24  1  0.94828655  0.36683920  0.32152199  1
  P  P25  1  0.28039960  0.80503470  0.38258411  1
  P  P26  1  0.94828655  0.13316080  0.17847801  1
  P  P27  1  0.45074922  0.89421747  0.33212301  1
  P  P28  1  0.39243487  0.03545746  0.08009838  1
  P  P29  1  0.38589684  0.02921629  0.17361380  1
  P  P30  1  0.59371209  0.29939532  0.55050776  1
  P  P31  1  0.86682896  0.96943324  0.42993537  1
  P  P32  1  0.45074922  0.60578253  0.16787699  1
  P  P33  1  0.71960040  0.30503470  0.88258411  1
  P  P34  1  0.96465722  0.44651926  0.61880916  1
  P  P35  1  0.35523740  0.24736712  0.66258144  1
  P  P36  1  0.64476260  0.75263288  0.33741856  1
  P  P37  1  0.13317104  0.03056676  0.57006463  1
  P  P38  1  0.86682896  0.53056676  0.07006463  1
  P  P39  1  0.17929622  0.42663424  0.83604322  1
  P  P40  1  0.39243487  0.46454254  0.41990162  1
  P  P41  1  0.83680446  0.94895065  0.94697427  1
  P  P42  1  0.31736360  0.24398560  0.29635692  1
  P  P43  1  0.82070378  0.92663424  0.33604322  1
  P  P44  1  0.16319554  0.05104935  0.05302573  1
  P  P45  1  0.64476260  0.74736712  0.16258144  1
  P  P46  1  0.36446217  0.24390505  0.93186427  1
  P  P47  1  0.40628791  0.70060468  0.44949224  1
  P  P48  1  0.67745087  0.38043916  0.16884293  1
  P  P49  1  0.40628791  0.79939532  0.05050776  1
  P  P50  1  0.21489716  0.80666513  0.88229507  1
  P  P51  1  0.78510284  0.30666513  0.38229507  1
  P  P52  1  0.79858742  0.11911682  0.82148712  1
  P  P53  1  0.32254913  0.88043916  0.66884293  1
  P  P54  1  0.64247356  0.98045432  0.46328360  1
  P  P55  1  0.68263640  0.74398560  0.79635692  1
  P  P56  1  0.48670445  0.58256243  0.89575603  1
  P  P57  1  0.78510284  0.19333487  0.11770493  1
  P  P58  1  0.35523740  0.25263288  0.83741856  1
  P  P59  1  0.28039960  0.69496530  0.11741589  1
  P  P60  1  0.09993877  0.31545045  0.17479890  1
  P  P61  1  0.71960040  0.19496530  0.61741589  1
  P  P62  1  0.54925078  0.10578253  0.66787699  1
  P  P63  1  0.91488258  0.20408920  0.44870542  1
  P  P64  1  0.63553783  0.75609495  0.06813573  1
  P  P65  1  0.31736360  0.25601440  0.20364308  1
  P  P66  1  0.32254913  0.61956084  0.83115707  1
  P  P67  1  0.61410316  0.97078371  0.82638620  1
  P  P68  1  0.08511742  0.70408920  0.94870542  1
  P  P69  1  0.63553783  0.74390505  0.43186427  1
  P  P70  1  0.90006123  0.68454955  0.82520110  1
  P  P71  1  0.17929622  0.07336576  0.66395678  1
  P  P72  1  0.14031240  0.28925971  0.08108953  1
  P  P73  1  0.51329555  0.41743757  0.10424397  1
  P  P74  1  0.51329555  0.08256243  0.39575603  1
  P  P75  1  0.08511742  0.79591080  0.55129458  1
  P  P76  1  0.14031240  0.21074029  0.41891047  1
  P  P77  1  0.82070378  0.57336576  0.16395678  1
  P  P78  1  0.16319554  0.44895065  0.44697427  1
  P  P79  1  0.91488258  0.29591080  0.05129458  1
  P  P80  1  0.38589684  0.47078371  0.32638620  1
  P  P81  1  0.05171345  0.63316080  0.67847801  1
  P  P82  1  0.79858742  0.38088318  0.67851288  1
  P  P83  1  0.60756513  0.53545746  0.58009838  1
