# generated using pymatgen
data_U3Ni3Sn4
_symmetry_space_group_name_H-M   'P 1'
_cell_length_a   8.08991317
_cell_length_b   8.08991233
_cell_length_c   8.08991290
_cell_angle_alpha   109.47122458
_cell_angle_beta   109.47122248
_cell_angle_gamma   109.47121736
_symmetry_Int_Tables_number   1
_chemical_formula_structural   U3Ni3Sn4
_chemical_formula_sum   'U6 Ni6 Sn8'
_cell_volume   407.57695230
_cell_formula_units_Z   2
loop_
 _symmetry_equiv_pos_site_id
 _symmetry_equiv_pos_as_xyz
  1  'x, y, z'
loop_
 _atom_site_type_symbol
 _atom_site_label
 _atom_site_symmetry_multiplicity
 _atom_site_fract_x
 _atom_site_fract_y
 _atom_site_fract_z
 _atom_site_occupancy
  U  U0  1  0.75000000  0.87500000  0.12500000  1
  U  U1  1  0.87500000  0.12500000  0.75000000  1
  U  U2  1  0.62500000  0.37500000  0.25000000  1
  U  U3  1  0.25000000  0.62500000  0.37500000  1
  U  U4  1  0.37500000  0.25000000  0.62500000  1
  U  U5  1  0.12500000  0.75000000  0.87500000  1
  Ni  Ni6  1  0.12500000  0.87500000  0.25000000  1
  Ni  Ni7  1  0.62500000  0.75000000  0.37500000  1
  Ni  Ni8  1  0.87500000  0.25000000  0.12500000  1
  Ni  Ni9  1  0.37500000  0.62500000  0.75000000  1
  Ni  Ni10  1  0.25000000  0.12500000  0.87500000  1
  Ni  Ni11  1  0.75000000  0.37500000  0.62500000  1
  Sn  Sn12  1  0.83128583  0.50000000  1.00000000  1
  Sn  Sn13  1  0.16871417  0.16871417  0.16871417  1
  Sn  Sn14  1  0.33128583  0.50000000  1.00000000  1
  Sn  Sn15  1  0.00000000  0.83128583  0.50000000  1
  Sn  Sn16  1  0.50000000  0.00000000  0.33128583  1
  Sn  Sn17  1  0.00000000  0.33128583  0.50000000  1
  Sn  Sn18  1  0.50000000  0.00000000  0.83128583  1
  Sn  Sn19  1  0.66871417  0.66871417  0.66871417  1
