# generated using pymatgen
data_CuP4I
_symmetry_space_group_name_H-M   'P 1'
_cell_length_a   9.84123610
_cell_length_b   13.16877897
_cell_length_c   13.95739268
_cell_angle_alpha   90.00000000
_cell_angle_beta   90.00000000
_cell_angle_gamma   109.10332543
_symmetry_Int_Tables_number   1
_chemical_formula_structural   CuP4I
_chemical_formula_sum   'Cu12 P48 I12'
_cell_volume   1709.22429166
_cell_formula_units_Z   12
loop_
 _symmetry_equiv_pos_site_id
 _symmetry_equiv_pos_as_xyz
  1  'x, y, z'
loop_
 _atom_site_type_symbol
 _atom_site_label
 _atom_site_symmetry_multiplicity
 _atom_site_fract_x
 _atom_site_fract_y
 _atom_site_fract_z
 _atom_site_occupancy
  Cu  Cu0  1  0.20920877  0.84808553  0.04043194  1
  Cu  Cu1  1  -0.00574359  0.07643934  0.10763041  1
  Cu  Cu2  1  0.09559937  0.93873808  0.31740328  1
  Cu  Cu3  1  0.20491666  0.70993802  0.76368446  1
  Cu  Cu4  1  0.79079123  0.15191447  0.54043194  1
  Cu  Cu5  1  0.90440063  0.06126192  0.81740328  1
  Cu  Cu6  1  0.21097811  0.51231178  0.21371607  1
  Cu  Cu7  1  0.20641668  0.64226565  0.48972105  1
  Cu  Cu8  1  0.79358332  0.35773435  0.98972105  1
  Cu  Cu9  1  1.00574359  0.92356066  0.60763041  1
  Cu  Cu10  1  0.79508334  0.29006198  0.26368446  1
  Cu  Cu11  1  0.78902189  0.48768822  0.71371607  1
  P  P12  1  0.41067651  0.55823716  0.11899120  1
  P  P13  1  0.69162565  0.51192844  0.39356204  1
  P  P14  1  0.61414185  0.90254240  0.06017404  1
  P  P15  1  0.61456314  0.65218117  0.19716433  1
  P  P16  1  0.54953149  0.66251619  0.73004526  1
  P  P17  1  0.32411564  0.03142060  0.79823450  1
  P  P18  1  0.53295277  0.59030463  0.34469673  1
  P  P19  1  0.40927414  0.89838384  0.13508456  1
  P  P20  1  0.69225925  0.17476447  0.99450031  1
  P  P21  1  0.54369703  0.85997946  0.52285626  1
  P  P22  1  0.53327134  0.92351770  0.91237590  1
  P  P23  1  0.43605648  0.06836728  0.17143108  1
  P  P24  1  0.30774075  0.82523553  0.49450031  1
  P  P25  1  0.45359784  0.85067673  0.28137791  1
  P  P26  1  0.30472285  0.92225067  0.36323653  1
  P  P27  1  0.33299201  0.88161551  0.71935279  1
  P  P28  1  0.54136738  0.36996143  0.47342839  1
  P  P29  1  0.65038112  0.55375677  0.80769752  1
  P  P30  1  0.66700799  0.11838449  0.21935279  1
  P  P31  1  0.45046851  0.33748381  0.23004526  1
  P  P32  1  0.76653581  0.07046482  0.09191661  1
  P  P33  1  0.69527715  0.07774933  0.86323653  1
  P  P34  1  0.66996181  0.46766280  0.03770917  1
  P  P35  1  0.38585815  0.09745760  0.56017404  1
  P  P36  1  0.46704723  0.40969537  0.84469673  1
  P  P37  1  0.23346419  0.92953518  0.59191661  1
  P  P38  1  0.46672866  0.07648230  0.41237590  1
  P  P39  1  0.76859695  0.56000309  0.16707323  1
  P  P40  1  0.45863262  0.63003857  0.97342839  1
  P  P41  1  0.31897376  0.37957796  0.45582899  1
  P  P42  1  0.56408045  0.59810228  0.58167160  1
  P  P43  1  0.34961888  0.44624323  0.30769752  1
  P  P44  1  0.35125499  0.98107155  0.94714208  1
  P  P45  1  0.45630297  0.14002054  0.02285626  1
  P  P46  1  0.58932349  0.44176284  0.61899120  1
  P  P47  1  0.68102624  0.62042204  0.95582899  1
  P  P48  1  0.56394352  0.93163272  0.67143108  1
  P  P49  1  0.59072586  0.10161616  0.63508456  1
  P  P50  1  0.33003819  0.53233720  0.53770917  1
  P  P51  1  0.64874501  0.01892845  0.44714208  1
  P  P52  1  0.68565183  0.41770229  0.26032932  1
  P  P53  1  0.67588436  0.96857940  0.29823450  1
  P  P54  1  0.31434817  0.58229771  0.76032932  1
  P  P55  1  0.43591955  0.40189772  0.08167160  1
  P  P56  1  0.54640216  0.14932327  0.78137791  1
  P  P57  1  0.23140305  0.43999691  0.66707323  1
  P  P58  1  0.30837435  0.48807156  0.89356204  1
  P  P59  1  0.38543686  0.34781883  0.69716433  1
  I  I60  1  0.10321741  0.67509877  0.94128560  1
  I  I61  1  0.89610414  0.36972112  0.81471490  1
  I  I62  1  0.09823212  0.13773292  0.28195396  1
  I  I63  1  0.99698621  0.87191547  0.13872703  1
  I  I64  1  0.89678259  0.32490123  0.44128560  1
  I  I65  1  0.00301379  0.12808453  0.63872703  1
  I  I66  1  0.88935344  0.84690913  0.44132142  1
  I  I67  1  0.11064656  0.15309087  0.94132142  1
  I  I68  1  0.10389586  0.63027888  0.31471490  1
  I  I69  1  1.00260918  0.63309486  0.62652951  1
  I  I70  1  0.90176788  0.86226708  0.78195396  1
  I  I71  1  -0.00260918  0.36690514  0.12652951  1
