# generated using pymatgen
data_La8C8Cl5
_symmetry_space_group_name_H-M   'P 1'
_cell_length_a   6.92159008
_cell_length_b   7.82375582
_cell_length_c   17.17868301
_cell_angle_alpha   90.00000000
_cell_angle_beta   90.00000000
_cell_angle_gamma   104.31555104
_symmetry_Int_Tables_number   1
_chemical_formula_structural   La8C8Cl5
_chemical_formula_sum   'La16 C16 Cl10'
_cell_volume   901.38804465
_cell_formula_units_Z   2
loop_
 _symmetry_equiv_pos_site_id
 _symmetry_equiv_pos_as_xyz
  1  'x, y, z'
loop_
 _atom_site_type_symbol
 _atom_site_label
 _atom_site_symmetry_multiplicity
 _atom_site_fract_x
 _atom_site_fract_y
 _atom_site_fract_z
 _atom_site_occupancy
  La  La0  1  0.39226256  0.70574929  0.82563442  1
  La  La1  1  0.37599882  0.84343367  0.06904565  1
  La  La2  1  0.12535921  0.08615458  0.80568729  1
  La  La3  1  0.11811854  0.22488638  0.05046660  1
  La  La4  1  0.60773744  0.29425071  0.17436558  1
  La  La5  1  0.37464079  0.91384542  0.30568729  1
  La  La6  1  0.62400118  0.15656633  0.93095435  1
  La  La7  1  0.87464079  0.91384542  0.19431271  1
  La  La8  1  0.62535921  0.08615458  0.69431271  1
  La  La9  1  0.88188146  0.77511362  0.94953340  1
  La  La10  1  0.61811854  0.22488638  0.44953340  1
  La  La11  1  0.87599882  0.84343367  0.43095435  1
  La  La12  1  0.89226256  0.70574929  0.67436558  1
  La  La13  1  0.38188146  0.77511362  0.55046660  1
  La  La14  1  0.12400118  0.15656633  0.56904565  1
  La  La15  1  0.10773744  0.29425071  0.32563442  1
  C  C16  1  0.23278768  0.95882418  0.65988110  1
  C  C17  1  0.27810428  0.90718552  0.91380878  1
  C  C18  1  0.72189572  0.09281448  0.08619122  1
  C  C19  1  0.76721232  0.04117582  0.34011890  1
  C  C20  1  0.73278768  0.95882418  0.84011890  1
  C  C21  1  0.77810428  0.90718552  0.58619122  1
  C  C22  1  0.22189572  0.09281448  0.41380878  1
  C  C23  1  0.22156442  0.02240121  0.96221444  1
  C  C24  1  0.27843558  0.97759879  0.46221444  1
  C  C25  1  0.26721232  0.04117582  0.15988110  1
  C  C26  1  0.28160488  0.85442641  0.71563423  1
  C  C27  1  0.71839512  0.14557359  0.28436577  1
  C  C28  1  0.78160488  0.85442641  0.78436577  1
  C  C29  1  0.77843558  0.97759879  0.03778556  1
  C  C30  1  0.21839512  0.14557359  0.21563423  1
  C  C31  1  0.72156442  0.02240121  0.53778556  1
  Cl  Cl32  1  0.47617150  0.58420414  0.40327597  1
  Cl  Cl33  1  0.02382850  0.41579586  0.90327597  1
  Cl  Cl34  1  0.52552156  0.36062190  0.79747997  1
  Cl  Cl35  1  0.52382850  0.41579586  0.59672403  1
  Cl  Cl36  1  0.97617150  0.58420414  0.09672403  1
  Cl  Cl37  1  0.47447844  0.63937810  0.20252003  1
  Cl  Cl38  1  0.00000000  0.50000000  0.50000000  1
  Cl  Cl39  1  0.97447844  0.63937810  0.29747997  1
  Cl  Cl40  1  0.02552156  0.36062190  0.70252003  1
  Cl  Cl41  1  0.50000000  0.50000000  0.00000000  1
