# generated using pymatgen
data_In3Au7
_symmetry_space_group_name_H-M   'P 1'
_cell_length_a   12.50937976
_cell_length_b   12.50937948
_cell_length_c   8.74973271
_cell_angle_alpha   90.00000000
_cell_angle_beta   90.00000000
_cell_angle_gamma   120.00000074
_symmetry_Int_Tables_number   1
_chemical_formula_structural   In3Au7
_chemical_formula_sum   'In18 Au42'
_cell_volume   1185.76044547
_cell_formula_units_Z   6
loop_
 _symmetry_equiv_pos_site_id
 _symmetry_equiv_pos_as_xyz
  1  'x, y, z'
loop_
 _atom_site_type_symbol
 _atom_site_label
 _atom_site_symmetry_multiplicity
 _atom_site_fract_x
 _atom_site_fract_y
 _atom_site_fract_z
 _atom_site_occupancy
  In  In0  1  0.69074989  0.16580974  0.46089814  1
  In  In1  1  0.52494015  0.69074989  0.53910186  1
  In  In2  1  0.14104105  0.64310140  0.04123612  1
  In  In3  1  0.49793965  0.14104105  0.95876388  1
  In  In4  1  0.83419026  0.52494015  0.46089814  1
  In  In5  1  0.83355182  0.81294891  0.75134011  1
  In  In6  1  0.02060291  0.83355182  0.24865989  1
  In  In7  1  0.35689860  0.49793965  0.04123612  1
  In  In8  1  0.81294891  0.97939709  0.24865989  1
  In  In9  1  0.64310140  0.50206035  0.95876388  1
  In  In10  1  0.16644818  0.18705109  0.24865989  1
  In  In11  1  0.18705109  0.02060291  0.75134011  1
  In  In12  1  0.16580974  0.47505985  0.53910186  1
  In  In13  1  0.30925011  0.83419026  0.53910186  1
  In  In14  1  0.85895895  0.35689860  0.95876388  1
  In  In15  1  0.97939709  0.16644818  0.75134011  1
  In  In16  1  0.50206035  0.85895895  0.04123612  1
  In  In17  1  0.47505985  0.30925011  0.46089814  1
  Au  Au18  1  0.22299991  0.22983912  0.57397179  1
  Au  Au19  1  0.99316079  0.22299991  0.42602821  1
  Au  Au20  1  0.35528611  0.44162778  0.36578327  1
  Au  Au21  1  0.22983912  0.00683921  0.42602821  1
  Au  Au22  1  0.52948289  0.88775501  0.70449970  1
  Au  Au23  1  0.79405118  0.75713083  0.08455794  1
  Au  Au24  1  0.89316535  0.57833693  0.12575614  1
  Au  Au25  1  0.33333300  0.66666700  0.32484736  1
  Au  Au26  1  0.33333300  0.66666700  0.83388086  1
  Au  Au27  1  0.91365833  0.35528611  0.63421673  1
  Au  Au28  1  0.86264899  0.56077508  0.79108132  1
  Au  Au29  1  0.44162778  0.08634167  0.63421673  1
  Au  Au30  1  0.30187391  0.86264899  0.20891868  1
  Au  Au31  1  0.42166307  0.31482843  0.12575614  1
  Au  Au32  1  0.10683465  0.42166307  0.87424386  1
  Au  Au33  1  0.77700009  0.77016088  0.42602821  1
  Au  Au34  1  0.68517157  0.10683465  0.12575614  1
  Au  Au35  1  0.96307966  0.20594882  0.08455794  1
  Au  Au36  1  0.13735101  0.43922492  0.20891868  1
  Au  Au37  1  0.08634167  0.64471389  0.36578327  1
  Au  Au38  1  0.55837222  0.91365833  0.36578327  1
  Au  Au39  1  0.64172787  0.52948289  0.29550030  1
  Au  Au40  1  0.69812609  0.13735101  0.79108132  1
  Au  Au41  1  0.11224499  0.64172787  0.70449970  1
  Au  Au42  1  0.03692034  0.79405118  0.91544206  1
  Au  Au43  1  0.66666700  0.33333300  0.16611914  1
  Au  Au44  1  0.75713083  0.96307966  0.91544206  1
  Au  Au45  1  0.00683921  0.77700009  0.57397179  1
  Au  Au46  1  0.77016088  0.99316079  0.57397179  1
  Au  Au47  1  0.66666700  0.33333300  0.67515264  1
  Au  Au48  1  0.47051711  0.11224499  0.29550030  1
  Au  Au49  1  0.00000000  0.00000000  0.00000000  1
  Au  Au50  1  0.31482843  0.89316535  0.87424386  1
  Au  Au51  1  0.57833693  0.68517157  0.87424386  1
  Au  Au52  1  0.88775501  0.35827213  0.29550030  1
  Au  Au53  1  0.64471389  0.55837222  0.63421673  1
  Au  Au54  1  0.35827213  0.47051711  0.70449970  1
  Au  Au55  1  0.43922492  0.30187391  0.79108132  1
  Au  Au56  1  0.56077508  0.69812609  0.20891868  1
  Au  Au57  1  0.20594882  0.24286917  0.91544206  1
  Au  Au58  1  0.24286917  0.03692034  0.08455794  1
  Au  Au59  1  0.00000000  0.00000000  0.50000000  1
