# generated using pymatgen
data_MnCdF5
_symmetry_space_group_name_H-M   'P 1'
_cell_length_a   6.41324963
_cell_length_b   8.03721943
_cell_length_c   9.05999565
_cell_angle_alpha   115.88801399
_cell_angle_beta   90.00000000
_cell_angle_gamma   90.00000000
_symmetry_Int_Tables_number   1
_chemical_formula_structural   MnCdF5
_chemical_formula_sum   'Mn4 Cd4 F20'
_cell_volume   420.13138607
_cell_formula_units_Z   4
loop_
 _symmetry_equiv_pos_site_id
 _symmetry_equiv_pos_as_xyz
  1  'x, y, z'
loop_
 _atom_site_type_symbol
 _atom_site_label
 _atom_site_symmetry_multiplicity
 _atom_site_fract_x
 _atom_site_fract_y
 _atom_site_fract_z
 _atom_site_occupancy
  Mn  Mn0  1  0.50000000  0.00000000  0.50000000  1
  Mn  Mn1  1  0.00000000  0.50000000  0.00000000  1
  Mn  Mn2  1  0.50000000  0.50000000  0.50000000  1
  Mn  Mn3  1  0.00000000  0.00000000  0.00000000  1
  Cd  Cd4  1  0.54236946  0.24937182  0.99989493  1
  Cd  Cd5  1  0.04236946  0.75062818  0.50010507  1
  Cd  Cd6  1  0.95763054  0.24937182  0.49989493  1
  Cd  Cd7  1  0.45763054  0.75062818  0.00010507  1
  F  F8  1  0.70429849  0.94899699  0.98079725  1
  F  F9  1  0.79570151  0.94899699  0.48079725  1
  F  F10  1  0.60366216  0.25223152  0.50411890  1
  F  F11  1  0.89633784  0.25223152  0.00411890  1
  F  F12  1  0.70314393  0.54731947  0.00929039  1
  F  F13  1  0.29570151  0.05100301  0.01920275  1
  F  F14  1  0.79685607  0.54731947  0.50929039  1
  F  F15  1  0.02727139  0.89724592  0.77207639  1
  F  F16  1  0.51430795  0.38756865  0.27166300  1
  F  F17  1  0.97272861  0.10275408  0.22792361  1
  F  F18  1  0.20314393  0.45268053  0.49070961  1
  F  F19  1  0.39633784  0.74776848  0.49588110  1
  F  F20  1  0.47272861  0.89724592  0.27207639  1
  F  F21  1  0.52727139  0.10275408  0.72792361  1
  F  F22  1  0.48569205  0.61243135  0.72833700  1
  F  F23  1  0.20429849  0.05100301  0.51920275  1
  F  F24  1  0.10366216  0.74776848  0.99588110  1
  F  F25  1  0.98569205  0.38756865  0.77166300  1
  F  F26  1  0.29685607  0.45268053  0.99070961  1
  F  F27  1  0.01430795  0.61243135  0.22833700  1
