# generated using pymatgen
data_Zn5(BRh2)4
_symmetry_space_group_name_H-M   'P 1'
_cell_length_a   2.86837266
_cell_length_b   8.51881680
_cell_length_c   9.57790105
_cell_angle_alpha   116.40491784
_cell_angle_beta   90.00000000
_cell_angle_gamma   90.00000000
_symmetry_Int_Tables_number   1
_chemical_formula_structural   Zn5(BRh2)4
_chemical_formula_sum   'Zn5 B4 Rh8'
_cell_volume   209.62108727
_cell_formula_units_Z   1
loop_
 _symmetry_equiv_pos_site_id
 _symmetry_equiv_pos_as_xyz
  1  'x, y, z'
loop_
 _atom_site_type_symbol
 _atom_site_label
 _atom_site_symmetry_multiplicity
 _atom_site_fract_x
 _atom_site_fract_y
 _atom_site_fract_z
 _atom_site_occupancy
  Zn  Zn0  1  0.50000000  0.80156903  0.60313806  1
  Zn  Zn1  1  0.50000000  0.19843097  0.39686194  1
  Zn  Zn2  1  0.50000000  0.35358515  0.00000000  1
  Zn  Zn3  1  0.50000000  0.00000000  0.00000000  1
  Zn  Zn4  1  0.50000000  0.64641485  1.00000000  1
  B  B5  1  0.50000000  0.15608309  0.68973850  1
  B  B6  1  0.50000000  0.46634459  0.31026150  1
  B  B7  1  0.50000000  0.84391691  0.31026150  1
  B  B8  1  0.50000000  0.53365541  0.68973850  1
  Rh  Rh9  1  0.00000000  0.37638962  0.75277924  1
  Rh  Rh10  1  0.00000000  0.62361038  0.24722076  1
  Rh  Rh11  1  0.00000000  0.73281611  0.81348980  1
  Rh  Rh12  1  0.00000000  0.26718389  0.18651020  1
  Rh  Rh13  1  0.00000000  0.00000000  0.50000000  1
  Rh  Rh14  1  0.00000000  0.08067369  0.81348980  1
  Rh  Rh15  1  0.00000000  0.91932631  0.18651020  1
  Rh  Rh16  1  0.00000000  0.50000000  0.50000000  1
