# generated using pymatgen
data_Yb2Au
_symmetry_space_group_name_H-M   'P 1'
_cell_length_a   4.56493090
_cell_length_b   7.80111600
_cell_length_c   9.41600920
_cell_angle_alpha   90.00000000
_cell_angle_beta   90.00000000
_cell_angle_gamma   90.00000000
_symmetry_Int_Tables_number   1
_chemical_formula_structural   Yb2Au
_chemical_formula_sum   'Yb8 Au4'
_cell_volume   335.31873405
_cell_formula_units_Z   4
loop_
 _symmetry_equiv_pos_site_id
 _symmetry_equiv_pos_as_xyz
  1  'x, y, z'
loop_
 _atom_site_type_symbol
 _atom_site_label
 _atom_site_symmetry_multiplicity
 _atom_site_fract_x
 _atom_site_fract_y
 _atom_site_fract_z
 _atom_site_occupancy
  Yb  Yb0  1  0.75000000  0.64565163  0.56993673  1
  Yb  Yb1  1  0.75000000  0.52159545  0.16775528  1
  Yb  Yb2  1  0.25000000  0.85434837  0.06993673  1
  Yb  Yb3  1  0.25000000  0.97840455  0.66775528  1
  Yb  Yb4  1  0.25000000  0.47840455  0.83224472  1
  Yb  Yb5  1  0.75000000  0.14565163  0.93006327  1
  Yb  Yb6  1  0.25000000  0.35434837  0.43006327  1
  Yb  Yb7  1  0.75000000  0.02159545  0.33224472  1
  Au  Au8  1  0.75000000  0.75153736  0.88346202  1
  Au  Au9  1  0.75000000  0.25153736  0.61653798  1
  Au  Au10  1  0.25000000  0.24846264  0.11653798  1
  Au  Au11  1  0.25000000  0.74846264  0.38346202  1
