# generated using pymatgen
data_K3Cu11Te16
_symmetry_space_group_name_H-M   'P 1'
_cell_length_a   6.97973739
_cell_length_b   15.87074282
_cell_length_c   15.87074289
_cell_angle_alpha   76.82065545
_cell_angle_beta   77.29723992
_cell_angle_gamma   77.29723875
_symmetry_Int_Tables_number   1
_chemical_formula_structural   K3Cu11Te16
_chemical_formula_sum   'K6 Cu22 Te32'
_cell_volume   1642.97133868
_cell_formula_units_Z   2
loop_
 _symmetry_equiv_pos_site_id
 _symmetry_equiv_pos_as_xyz
  1  'x, y, z'
loop_
 _atom_site_type_symbol
 _atom_site_label
 _atom_site_symmetry_multiplicity
 _atom_site_fract_x
 _atom_site_fract_y
 _atom_site_fract_z
 _atom_site_occupancy
  K  K0  1  0.82294485  0.09775926  0.90224074  1
  K  K1  1  0.82294485  0.40224074  0.59775926  1
  K  K2  1  0.50000000  0.50000000  0.00000000  1
  K  K3  1  0.17705515  0.90224074  0.09775926  1
  K  K4  1  0.00000000  0.00000000  0.50000000  1
  K  K5  1  0.17705515  0.59775926  0.40224074  1
  Cu  Cu6  1  0.38598415  0.02361989  0.29793361  1
  Cu  Cu7  1  0.70753766  0.70206639  0.97638011  1
  Cu  Cu8  1  0.90447738  0.51256633  0.80172470  1
  Cu  Cu9  1  0.38598415  0.79793361  0.52361989  1
  Cu  Cu10  1  0.89881802  0.75000000  0.25000000  1
  Cu  Cu11  1  0.09552262  0.69827530  0.98743367  1
  Cu  Cu12  1  0.09552262  0.48743367  0.19827530  1
  Cu  Cu13  1  0.21876841  0.98743367  0.69827530  1
  Cu  Cu14  1  0.61401585  0.20206639  0.47638011  1
  Cu  Cu15  1  0.78123159  0.80172470  0.51256633  1
  Cu  Cu16  1  0.29246234  0.52361989  0.79793361  1
  Cu  Cu17  1  0.29246234  0.29793361  0.02361989  1
  Cu  Cu18  1  0.10118198  0.25000000  0.75000000  1
  Cu  Cu19  1  0.21876841  0.19827530  0.48743367  1
  Cu  Cu20  1  0.35629351  0.64370649  0.64370649  1
  Cu  Cu21  1  0.78123159  0.01256633  0.30172470  1
  Cu  Cu22  1  0.61401585  0.97638011  0.70206639  1
  Cu  Cu23  1  0.64370649  0.85629351  0.85629351  1
  Cu  Cu24  1  0.90447738  0.30172470  0.01256633  1
  Cu  Cu25  1  0.70753766  0.47638011  0.20206639  1
  Cu  Cu26  1  0.35629351  0.14370649  0.14370649  1
  Cu  Cu27  1  0.64370649  0.35629351  0.35629351  1
  Te  Te28  1  0.04526289  0.76434006  0.61634354  1
  Te  Te29  1  0.57405351  0.61634354  0.76434006  1
  Te  Te30  1  0.32118676  0.34832937  0.47367378  1
  Te  Te31  1  0.34980333  0.85830706  0.35830706  1
  Te  Te32  1  0.67881324  0.02632622  0.15167063  1
  Te  Te33  1  0.35345815  0.15235522  0.84764478  1
  Te  Te34  1  0.56641745  0.64169294  0.14169294  1
  Te  Te35  1  0.67881324  0.65167063  0.52632622  1
  Te  Te36  1  0.65019667  0.14169294  0.64169294  1
  Te  Te37  1  0.42594649  0.73565994  0.88365646  1
  Te  Te38  1  0.43358255  0.35830706  0.85830706  1
  Te  Te39  1  0.04526289  0.11634354  0.26434006  1
  Te  Te40  1  0.05426097  0.14970735  0.64970735  1
  Te  Te41  1  0.85681008  0.84832937  0.97367378  1
  Te  Te42  1  0.64654185  0.65235522  0.34764478  1
  Te  Te43  1  0.50000000  0.07431791  0.42568209  1
  Te  Te44  1  0.94573903  0.85029265  0.35029265  1
  Te  Te45  1  0.50000000  0.92568209  0.57431791  1
  Te  Te46  1  0.42594649  0.38365646  0.23565994  1
  Te  Te47  1  0.14318992  0.15167063  0.02632622  1
  Te  Te48  1  0.35345815  0.34764478  0.65235522  1
  Te  Te49  1  0.64654185  0.84764478  0.15235522  1
  Te  Te50  1  0.14632432  0.64970735  0.14970735  1
  Te  Te51  1  0.00000000  0.57431791  0.92568209  1
  Te  Te52  1  0.32118676  0.97367378  0.84832937  1
  Te  Te53  1  0.85367568  0.35029265  0.85029265  1
  Te  Te54  1  0.85681008  0.47367378  0.34832937  1
  Te  Te55  1  0.14318992  0.52632622  0.65167063  1
  Te  Te56  1  0.95473711  0.88365646  0.73565994  1
  Te  Te57  1  0.95473711  0.23565994  0.38365646  1
  Te  Te58  1  1.00000000  0.42568209  0.07431791  1
  Te  Te59  1  0.57405351  0.26434006  0.11634354  1
