# generated using pymatgen
data_Hg2TeBr3
_symmetry_space_group_name_H-M   'P 1'
_cell_length_a   7.85781669
_cell_length_b   10.32884709
_cell_length_c   10.28220435
_cell_angle_alpha   90.00000000
_cell_angle_beta   90.00000000
_cell_angle_gamma   95.88102072
_symmetry_Int_Tables_number   1
_chemical_formula_structural   Hg2TeBr3
_chemical_formula_sum   'Hg8 Te4 Br12'
_cell_volume   830.13392506
_cell_formula_units_Z   4
loop_
 _symmetry_equiv_pos_site_id
 _symmetry_equiv_pos_as_xyz
  1  'x, y, z'
loop_
 _atom_site_type_symbol
 _atom_site_label
 _atom_site_symmetry_multiplicity
 _atom_site_fract_x
 _atom_site_fract_y
 _atom_site_fract_z
 _atom_site_occupancy
  Hg  Hg0  1  0.31766173  0.84093069  0.45134037  1
  Hg  Hg1  1  1.00013840  0.99838150  0.18923350  1
  Hg  Hg2  1  0.50013840  0.49838150  0.31076650  1
  Hg  Hg3  1  0.18233827  0.65906931  0.95134037  1
  Hg  Hg4  1  -0.00013840  0.00161850  0.81076650  1
  Hg  Hg5  1  0.49986160  0.50161850  0.68923350  1
  Hg  Hg6  1  0.68233827  0.15906931  0.54865963  1
  Hg  Hg7  1  0.81766173  0.34093069  0.04865963  1
  Te  Te8  1  0.47727820  0.38094113  0.07026328  1
  Te  Te9  1  0.97727820  0.88094113  0.42973672  1
  Te  Te10  1  0.52272180  0.61905887  0.92973672  1
  Te  Te11  1  0.02272180  0.11905887  0.57026328  1
  Br  Br12  1  0.74482210  0.48789763  0.49866660  1
  Br  Br13  1  0.97701209  0.63635675  0.15444927  1
  Br  Br14  1  0.02450548  0.26856641  0.23859908  1
  Br  Br15  1  0.24482210  0.98789763  0.00133340  1
  Br  Br16  1  0.52298791  0.86364325  0.65444927  1
  Br  Br17  1  0.52450548  0.76856641  0.26140092  1
  Br  Br18  1  0.47701209  0.13635675  0.34555073  1
  Br  Br19  1  0.02298791  0.36364325  0.84555073  1
  Br  Br20  1  0.97549452  0.73143359  0.76140092  1
  Br  Br21  1  0.75517790  0.01210237  0.99866660  1
  Br  Br22  1  0.25517790  0.51210237  0.50133340  1
  Br  Br23  1  0.47549452  0.23143359  0.73859908  1
