# generated using pymatgen
data_La3B(CBr)2
_symmetry_space_group_name_H-M   'P 1'
_cell_length_a   3.99713609
_cell_length_b   11.53863681
_cell_length_c   15.48124077
_cell_angle_alpha   90.00000000
_cell_angle_beta   90.00000000
_cell_angle_gamma   90.00000000
_symmetry_Int_Tables_number   1
_chemical_formula_structural   La3B(CBr)2
_chemical_formula_sum   'La12 B4 C8 Br8'
_cell_volume   714.01807129
_cell_formula_units_Z   4
loop_
 _symmetry_equiv_pos_site_id
 _symmetry_equiv_pos_as_xyz
  1  'x, y, z'
loop_
 _atom_site_type_symbol
 _atom_site_label
 _atom_site_symmetry_multiplicity
 _atom_site_fract_x
 _atom_site_fract_y
 _atom_site_fract_z
 _atom_site_occupancy
  La  La0  1  0.75000000  0.30071085  0.66961015  1
  La  La1  1  0.25000000  0.80071085  0.83038985  1
  La  La2  1  0.75000000  0.94669915  0.66036608  1
  La  La3  1  0.25000000  0.44669915  0.83963392  1
  La  La4  1  0.25000000  0.05330085  0.33963392  1
  La  La5  1  0.25000000  0.87762248  0.13810485  1
  La  La6  1  0.25000000  0.62237752  0.63810485  1
  La  La7  1  0.75000000  0.12237752  0.86189515  1
  La  La8  1  0.25000000  0.69928915  0.33038985  1
  La  La9  1  0.75000000  0.37762248  0.36189515  1
  La  La10  1  0.75000000  0.55330085  0.16036608  1
  La  La11  1  0.75000000  0.19928915  0.16961015  1
  B  B12  1  0.75000000  0.62464809  0.75434983  1
  B  B13  1  0.25000000  0.12464809  0.74565017  1
  B  B14  1  0.25000000  0.37535191  0.24565017  1
  B  B15  1  0.75000000  0.87535191  0.25434983  1
  C  C16  1  0.75000000  0.75218138  0.22426515  1
  C  C17  1  0.75000000  0.00087142  0.23167721  1
  C  C18  1  0.75000000  0.49912858  0.73167721  1
  C  C19  1  0.25000000  0.25218138  0.27573485  1
  C  C20  1  0.75000000  0.74781862  0.72426515  1
  C  C21  1  0.25000000  0.99912858  0.76832279  1
  C  C22  1  0.25000000  0.24781862  0.77573485  1
  C  C23  1  0.25000000  0.50087142  0.26832279  1
  Br  Br24  1  0.25000000  0.38499189  0.52821149  1
  Br  Br25  1  0.75000000  0.13463164  0.48872666  1
  Br  Br26  1  0.25000000  0.86536836  0.51127334  1
  Br  Br27  1  0.75000000  0.61500811  0.47178851  1
  Br  Br28  1  0.75000000  0.88499189  0.97178851  1
  Br  Br29  1  0.25000000  0.63463164  0.01127334  1
  Br  Br30  1  0.25000000  0.11500811  0.02821149  1
  Br  Br31  1  0.75000000  0.36536836  0.98872666  1
