# generated using pymatgen
data_CaCu9Sn4
_symmetry_space_group_name_H-M   'P 1'
_cell_length_a   8.67040982
_cell_length_b   8.67041038
_cell_length_c   8.74065938
_cell_angle_alpha   119.73449181
_cell_angle_beta   119.73449392
_cell_angle_gamma   89.99999346
_symmetry_Int_Tables_number   1
_chemical_formula_structural   CaCu9Sn4
_chemical_formula_sum   'Ca2 Cu18 Sn8'
_cell_volume   468.33580356
_cell_formula_units_Z   2
loop_
 _symmetry_equiv_pos_site_id
 _symmetry_equiv_pos_as_xyz
  1  'x, y, z'
loop_
 _atom_site_type_symbol
 _atom_site_label
 _atom_site_symmetry_multiplicity
 _atom_site_fract_x
 _atom_site_fract_y
 _atom_site_fract_z
 _atom_site_occupancy
  Ca  Ca0  1  0.25000000  0.25000000  0.50000000  1
  Ca  Ca1  1  0.75000000  0.75000000  0.50000000  1
  Cu  Cu2  1  0.70133667  0.55516167  1.00000000  1
  Cu  Cu3  1  0.94483833  0.79866333  1.00000000  1
  Cu  Cu4  1  0.20133667  0.94483833  0.00000000  1
  Cu  Cu5  1  0.05516167  0.20133667  0.00000000  1
  Cu  Cu6  1  0.28204625  0.56621239  0.34825863  1
  Cu  Cu7  1  0.21795375  0.71795375  0.65174137  1
  Cu  Cu8  1  0.93378761  0.21795375  0.65174137  1
  Cu  Cu9  1  0.06621239  0.78204625  0.34825863  1
  Cu  Cu10  1  0.43378761  0.93378761  0.65174137  1
  Cu  Cu11  1  0.56621239  0.06621239  0.34825863  1
  Cu  Cu12  1  0.29866333  0.44483833  0.00000000  1
  Cu  Cu13  1  0.79866333  0.05516167  1.00000000  1
  Cu  Cu14  1  0.71795375  0.43378761  0.65174137  1
  Cu  Cu15  1  0.44483833  0.70133667  1.00000000  1
  Cu  Cu16  1  0.00000000  0.50000000  0.00000000  1
  Cu  Cu17  1  0.78204625  0.28204625  0.34825863  1
  Cu  Cu18  1  0.55516167  0.29866333  0.00000000  1
  Cu  Cu19  1  0.50000000  0.00000000  0.00000000  1
  Sn  Sn20  1  0.05932926  0.55932926  0.74688081  1
  Sn  Sn21  1  0.31244845  0.81244845  0.25311919  1
  Sn  Sn22  1  0.81244845  0.94067074  0.25311919  1
  Sn  Sn23  1  0.55932926  0.68755155  0.74688081  1
  Sn  Sn24  1  0.68755155  0.18755155  0.74688081  1
  Sn  Sn25  1  0.44067074  0.31244845  0.25311919  1
  Sn  Sn26  1  0.18755155  0.05932926  0.74688081  1
  Sn  Sn27  1  0.94067074  0.44067074  0.25311919  1
