# generated using pymatgen
data_Mn4ZnO6
_symmetry_space_group_name_H-M   'P 1'
_cell_length_a   3.04847259
_cell_length_b   5.33183934
_cell_length_c   15.58112132
_cell_angle_alpha   90.00000000
_cell_angle_beta   90.00000000
_cell_angle_gamma   106.61112733
_symmetry_Int_Tables_number   1
_chemical_formula_structural   Mn4ZnO6
_chemical_formula_sum   'Mn8 Zn2 O12'
_cell_volume   242.68594440
_cell_formula_units_Z   2
loop_
 _symmetry_equiv_pos_site_id
 _symmetry_equiv_pos_as_xyz
  1  'x, y, z'
loop_
 _atom_site_type_symbol
 _atom_site_label
 _atom_site_symmetry_multiplicity
 _atom_site_fract_x
 _atom_site_fract_y
 _atom_site_fract_z
 _atom_site_occupancy
  Mn  Mn0  1  0.86432653  0.72865607  0.04531075  1
  Mn  Mn1  1  0.40314688  0.80629376  0.64049625  1
  Mn  Mn2  1  0.13567147  0.27134293  0.95468925  1
  Mn  Mn3  1  0.59685312  0.19370624  0.35950475  1
  Mn  Mn4  1  0.86432653  0.72865607  0.45468925  1
  Mn  Mn5  1  0.13567147  0.27134293  0.54531075  1
  Mn  Mn6  1  0.59685312  0.19370624  0.14049525  1
  Mn  Mn7  1  0.40314688  0.80629376  0.85950375  1
  Zn  Zn8  1  0.65937773  0.31875745  0.75000000  1
  Zn  Zn9  1  0.34062227  0.68124255  0.25000000  1
  O  O10  1  0.49999900  -0.00000000  0.50000000  1
  O  O11  1  0.49999900  -0.00000000  0.00000000  1
  O  O12  1  0.05025112  0.10050124  0.84261667  1
  O  O13  1  0.94974888  0.89949876  0.15738433  1
  O  O14  1  0.94974888  0.89949876  0.34261567  1
  O  O15  1  0.05025112  0.10050124  0.65738433  1
  O  O16  1  0.78030995  0.56062191  0.92842310  1
  O  O17  1  0.21968905  0.43937909  0.07157690  1
  O  O18  1  0.21968905  0.43937909  0.42842310  1
  O  O19  1  0.78030995  0.56062191  0.57157690  1
  O  O20  1  0.29141680  0.58283460  0.75000000  1
  O  O21  1  0.70858120  0.41716440  0.25000000  1
