# generated using pymatgen
data_Ca2Si5N8
_symmetry_space_group_name_H-M   'P 1'
_cell_length_a   9.71053995
_cell_length_b   10.66060485
_cell_length_c   13.69600368
_cell_angle_alpha   90.00000000
_cell_angle_beta   90.00000000
_cell_angle_gamma   90.00000000
_symmetry_Int_Tables_number   1
_chemical_formula_structural   Ca2Si5N8
_chemical_formula_sum   'Ca16 Si40 N64'
_cell_volume   1417.81344127
_cell_formula_units_Z   8
loop_
 _symmetry_equiv_pos_site_id
 _symmetry_equiv_pos_as_xyz
  1  'x, y, z'
loop_
 _atom_site_type_symbol
 _atom_site_label
 _atom_site_symmetry_multiplicity
 _atom_site_fract_x
 _atom_site_fract_y
 _atom_site_fract_z
 _atom_site_occupancy
  Ca  Ca0  1  0.34451506  0.11355407  0.48502296  1
  Ca  Ca1  1  0.55937153  0.11424349  0.09727626  1
  Ca  Ca2  1  0.05937153  0.88575651  0.40272374  1
  Ca  Ca3  1  0.65548494  0.38644593  0.98502296  1
  Ca  Ca4  1  0.94062847  0.61424349  0.90272374  1
  Ca  Ca5  1  0.55937153  0.61424349  0.40272374  1
  Ca  Ca6  1  0.15548494  0.61355407  0.51497704  1
  Ca  Ca7  1  0.84451506  0.38644593  0.48502296  1
  Ca  Ca8  1  0.15548494  0.11355407  0.98502296  1
  Ca  Ca9  1  0.94062847  0.11424349  0.59727626  1
  Ca  Ca10  1  0.34451506  0.61355407  0.01497704  1
  Ca  Ca11  1  0.84451506  0.88644593  0.01497704  1
  Ca  Ca12  1  0.65548494  0.88644593  0.51497704  1
  Ca  Ca13  1  0.44062847  0.88575651  0.90272374  1
  Ca  Ca14  1  0.05937153  0.38575651  0.09727626  1
  Ca  Ca15  1  0.44062847  0.38575651  0.59727626  1
  Si  Si16  1  0.00394945  0.02076766  0.20875198  1
  Si  Si17  1  0.50394945  0.47923234  0.20875198  1
  Si  Si18  1  0.65150871  0.67000616  0.95931219  1
  Si  Si19  1  0.46520939  0.74381293  0.65560643  1
  Si  Si20  1  0.34849129  0.32999384  0.04068781  1
  Si  Si21  1  0.27526800  0.39896636  0.34940469  1
  Si  Si22  1  0.72825314  0.33548210  0.72566703  1
  Si  Si23  1  0.99605055  0.47923234  0.70875198  1
  Si  Si24  1  0.00394945  0.52076766  0.29124802  1
  Si  Si25  1  0.96520939  0.25618707  0.84439357  1
  Si  Si26  1  0.50394945  0.97923234  0.29124802  1
  Si  Si27  1  0.96520939  0.75618707  0.65560643  1
  Si  Si28  1  0.49605055  0.02076766  0.70875198  1
  Si  Si29  1  0.72473200  0.60103364  0.65059531  1
  Si  Si30  1  0.34849129  0.82999384  0.45931219  1
  Si  Si31  1  0.65150871  0.17000616  0.54068781  1
  Si  Si32  1  0.27174686  0.16451790  0.22566703  1
  Si  Si33  1  0.77526800  0.60103364  0.15059531  1
  Si  Si34  1  0.72825314  0.83548210  0.77433297  1
  Si  Si35  1  0.22473200  0.39896636  0.84940469  1
  Si  Si36  1  0.15150871  0.32999384  0.54068781  1
  Si  Si37  1  0.77174686  0.33548210  0.22566703  1
  Si  Si38  1  0.22473200  0.89896636  0.65059531  1
  Si  Si39  1  0.27174686  0.66451790  0.27433297  1
  Si  Si40  1  0.46520939  0.24381293  0.84439357  1
  Si  Si41  1  0.77174686  0.83548210  0.27433297  1
  Si  Si42  1  0.84849129  0.17000616  0.04068781  1
  Si  Si43  1  0.84849129  0.67000616  0.45931219  1
  Si  Si44  1  0.03479061  0.74381293  0.15560643  1
  Si  Si45  1  0.27526800  0.89896636  0.15059531  1
  Si  Si46  1  0.15150871  0.82999384  0.95931219  1
  Si  Si47  1  0.22825314  0.66451790  0.77433297  1
  Si  Si48  1  0.53479061  0.25618707  0.34439357  1
  Si  Si49  1  0.77526800  0.10103364  0.34940469  1
  Si  Si50  1  0.22825314  0.16451790  0.72566703  1
  Si  Si51  1  0.72473200  0.10103364  0.84940469  1
  Si  Si52  1  0.49605055  0.52076766  0.79124802  1
  Si  Si53  1  0.53479061  0.75618707  0.15560643  1
  Si  Si54  1  0.99605055  0.97923234  0.79124802  1
  Si  Si55  1  0.03479061  0.24381293  0.34439357  1
  N  N56  1  0.04221563  0.93244137  0.90255044  1
  N  N57  1  0.24898582  0.73924779  0.38190460  1
  N  N58  1  0.05639044  0.22967773  0.46682371  1
  N  N59  1  0.60734538  0.11618177  0.29791807  1
  N  N60  1  0.77006314  0.57936809  0.02732320  1
  N  N61  1  0.39265462  0.38381823  0.79791807  1
  N  N62  1  0.85667488  0.74597704  0.18288492  1
  N  N63  1  0.38879777  0.62124215  0.72221973  1
  N  N64  1  0.72993686  0.07936809  0.97267680  1
  N  N65  1  0.75101418  0.26075221  0.61809540  1
  N  N66  1  0.04221563  0.43244137  0.59744956  1
  N  N67  1  0.38879777  0.12124215  0.77778027  1
  N  N68  1  0.95778437  0.06755863  0.09744956  1
  N  N69  1  0.14332512  0.75402296  0.68288492  1
  N  N70  1  0.10734538  0.38381823  0.29791807  1
  N  N71  1  0.88879777  0.87875785  0.72221973  1
  N  N72  1  0.54221563  0.06755863  0.59744956  1
  N  N73  1  0.75101418  0.76075221  0.88190460  1
  N  N74  1  0.54221563  0.56755863  0.90255044  1
  N  N75  1  0.14332512  0.25402296  0.81711508  1
  N  N76  1  0.22993686  0.92063191  0.52732320  1
  N  N77  1  0.55639044  0.77032227  0.03317629  1
  N  N78  1  0.39265462  0.88381823  0.70208193  1
  N  N79  1  0.36781496  0.02209522  0.20951029  1
  N  N80  1  0.89265462  0.61618177  0.70208193  1
  N  N81  1  0.94360956  0.27032227  0.96682371  1
  N  N82  1  0.94360956  0.77032227  0.53317629  1
  N  N83  1  0.44360956  0.22967773  0.96682371  1
  N  N84  1  0.45778437  0.43244137  0.09744956  1
  N  N85  1  0.22993686  0.42063191  0.97267680  1
  N  N86  1  0.05639044  0.72967773  0.03317629  1
  N  N87  1  0.27006314  0.92063191  0.02732320  1
  N  N88  1  0.85667488  0.24597704  0.31711508  1
  N  N89  1  0.44360956  0.72967773  0.53317629  1
  N  N90  1  0.55639044  0.27032227  0.46682371  1
  N  N91  1  0.61120223  0.37875785  0.27778027  1
  N  N92  1  0.36781496  0.52209522  0.29048971  1
  N  N93  1  0.77006314  0.07936809  0.47267680  1
  N  N94  1  0.13218504  0.02209522  0.70951029  1
  N  N95  1  0.88879777  0.37875785  0.77778027  1
  N  N96  1  0.35667488  0.75402296  0.18288492  1
  N  N97  1  0.61120223  0.87875785  0.22221973  1
  N  N98  1  0.64332512  0.24597704  0.81711508  1
  N  N99  1  0.63218504  0.97790478  0.79048971  1
  N  N100  1  0.74898582  0.26075221  0.11809540  1
  N  N101  1  0.72993686  0.57936809  0.52732320  1
  N  N102  1  0.86781496  0.97790478  0.29048971  1
  N  N103  1  0.25101418  0.23924779  0.61809540  1
  N  N104  1  0.45778437  0.93244137  0.40255044  1
  N  N105  1  0.11120223  0.12124215  0.27778027  1
  N  N106  1  0.27006314  0.42063191  0.47267680  1
  N  N107  1  0.35667488  0.25402296  0.31711508  1
  N  N108  1  0.63218504  0.47790478  0.70951029  1
  N  N109  1  0.24898582  0.23924779  0.11809540  1
  N  N110  1  0.60734538  0.61618177  0.20208193  1
  N  N111  1  0.86781496  0.47790478  0.20951029  1
  N  N112  1  0.13218504  0.52209522  0.79048971  1
  N  N113  1  0.25101418  0.73924779  0.88190460  1
  N  N114  1  0.64332512  0.74597704  0.68288492  1
  N  N115  1  0.11120223  0.62124215  0.22221973  1
  N  N116  1  0.10734538  0.88381823  0.20208193  1
  N  N117  1  0.89265462  0.11618177  0.79791807  1
  N  N118  1  0.95778437  0.56755863  0.40255044  1
  N  N119  1  0.74898582  0.76075221  0.38190460  1
