# generated using pymatgen
data_Sm3Ge5
_symmetry_space_group_name_H-M   'P 1'
_cell_length_a   5.89745472
_cell_length_b   7.61663966
_cell_length_c   9.32030584
_cell_angle_alpha   82.96553368
_cell_angle_beta   71.55699843
_cell_angle_gamma   67.22305303
_symmetry_Int_Tables_number   1
_chemical_formula_structural   Sm3Ge5
_chemical_formula_sum   'Sm6 Ge10'
_cell_volume   366.18365892
_cell_formula_units_Z   2
loop_
 _symmetry_equiv_pos_site_id
 _symmetry_equiv_pos_as_xyz
  1  'x, y, z'
loop_
 _atom_site_type_symbol
 _atom_site_label
 _atom_site_symmetry_multiplicity
 _atom_site_fract_x
 _atom_site_fract_y
 _atom_site_fract_z
 _atom_site_occupancy
  Sm  Sm0  1  0.24950846  0.50097998  0.50000174  1
  Sm  Sm1  1  0.66759248  0.98699246  0.66280279  1
  Sm  Sm2  1  0.99950839  0.00098051  0.00000635  1
  Sm  Sm3  1  0.58038997  0.48698556  0.83720079  1
  Sm  Sm4  1  0.34542961  0.98698736  0.33719393  1
  Sm  Sm5  1  0.93261985  0.48698490  0.16280018  1
  Ge  Ge6  1  0.38391199  0.68644465  0.13834445  1
  Ge  Ge7  1  0.92962791  0.68646073  0.86166252  1
  Ge  Ge8  1  0.91498367  0.82608317  0.32594967  1
  Ge  Ge9  1  0.04128287  0.18646328  0.63832272  1
  Ge  Ge10  1  0.49092512  0.32609449  0.17404879  1
  Ge  Ge11  1  0.44737978  0.10524750  0.99999178  1
  Ge  Ge12  1  0.25891925  0.82611540  0.67405347  1
  Ge  Ge13  1  0.77228341  0.18643885  0.36166304  1
  Ge  Ge14  1  0.18296704  0.32609984  0.82595418  1
  Ge  Ge15  1  0.69737021  0.60524131  0.50000360  1
