# generated using pymatgen
data_Cs3Bi2
_symmetry_space_group_name_H-M   'P 1'
_cell_length_a   7.37472667
_cell_length_b   7.37472674
_cell_length_c   10.31727150
_cell_angle_alpha   99.95222723
_cell_angle_beta   99.95222728
_cell_angle_gamma   91.87551241
_symmetry_Int_Tables_number   1
_chemical_formula_structural   Cs3Bi2
_chemical_formula_sum   'Cs6 Bi4'
_cell_volume   543.22664924
_cell_formula_units_Z   2
loop_
 _symmetry_equiv_pos_site_id
 _symmetry_equiv_pos_as_xyz
  1  'x, y, z'
loop_
 _atom_site_type_symbol
 _atom_site_label
 _atom_site_symmetry_multiplicity
 _atom_site_fract_x
 _atom_site_fract_y
 _atom_site_fract_z
 _atom_site_occupancy
  Cs  Cs0  1  0.83979707  0.16020293  0.75000000  1
  Cs  Cs1  1  0.33651921  0.24090896  0.01538920  1
  Cs  Cs2  1  0.16020293  0.83979707  0.25000000  1
  Cs  Cs3  1  0.24090896  0.33651921  0.51538920  1
  Cs  Cs4  1  0.75909104  0.66348079  0.48461080  1
  Cs  Cs5  1  0.66348079  0.75909104  0.98461080  1
  Bi  Bi6  1  0.31207997  0.87761218  0.66084802  1
  Bi  Bi7  1  0.68792003  0.12238782  0.33915198  1
  Bi  Bi8  1  0.87761218  0.31207997  0.16084802  1
  Bi  Bi9  1  0.12238782  0.68792003  0.83915198  1
