# generated using pymatgen
data_Te2Au
_symmetry_space_group_name_H-M   'P 1'
_cell_length_a   4.43184202
_cell_length_b   8.97744484
_cell_length_c   8.96597498
_cell_angle_alpha   109.95935828
_cell_angle_beta   90.00000000
_cell_angle_gamma   90.00000000
_symmetry_Int_Tables_number   1
_chemical_formula_structural   Te2Au
_chemical_formula_sum   'Te8 Au4'
_cell_volume   335.29907523
_cell_formula_units_Z   4
loop_
 _symmetry_equiv_pos_site_id
 _symmetry_equiv_pos_as_xyz
  1  'x, y, z'
loop_
 _atom_site_type_symbol
 _atom_site_label
 _atom_site_symmetry_multiplicity
 _atom_site_fract_x
 _atom_site_fract_y
 _atom_site_fract_z
 _atom_site_occupancy
  Te  Te0  1  0.44342045  0.36382590  0.42184123  1
  Te  Te1  1  0.01408970  0.13769919  0.07335202  1
  Te  Te2  1  0.98591030  0.63769919  0.57335202  1
  Te  Te3  1  0.43547300  0.38759218  0.82361879  1
  Te  Te4  1  0.56452700  0.88759218  0.32361879  1
  Te  Te5  1  0.55657955  0.86382590  0.92184123  1
  Te  Te6  1  0.05092026  0.11674184  0.67413511  1
  Te  Te7  1  0.94907974  0.61674184  0.17413511  1
  Au  Au8  1  0.48902724  0.37537899  0.12283911  1
  Au  Au9  1  0.99586971  0.62636190  0.87351374  1
  Au  Au10  1  0.00413029  0.12636190  0.37351374  1
  Au  Au11  1  0.51097276  0.87537899  0.62283911  1
