# generated using pymatgen
data_Ba2In2Se5
_symmetry_space_group_name_H-M   'P 1'
_cell_length_a   12.48758382
_cell_length_b   13.43873994
_cell_length_c   13.93091619
_cell_angle_alpha   90.00000000
_cell_angle_beta   90.00000000
_cell_angle_gamma   90.00000000
_symmetry_Int_Tables_number   1
_chemical_formula_structural   Ba2In2Se5
_chemical_formula_sum   'Ba16 In16 Se40'
_cell_volume   2337.85001532
_cell_formula_units_Z   8
loop_
 _symmetry_equiv_pos_site_id
 _symmetry_equiv_pos_as_xyz
  1  'x, y, z'
loop_
 _atom_site_type_symbol
 _atom_site_label
 _atom_site_symmetry_multiplicity
 _atom_site_fract_x
 _atom_site_fract_y
 _atom_site_fract_z
 _atom_site_occupancy
  Ba  Ba0  1  0.25069136  0.74583648  0.18902916  1
  Ba  Ba1  1  0.49630253  0.02868079  0.69279385  1
  Ba  Ba2  1  0.74930864  0.25416352  0.81097084  1
  Ba  Ba3  1  0.49630253  0.52868079  0.80720615  1
  Ba  Ba4  1  0.99630253  0.47131921  0.69279385  1
  Ba  Ba5  1  0.00369747  0.02868079  0.19279385  1
  Ba  Ba6  1  0.24930864  0.24583648  0.81097084  1
  Ba  Ba7  1  0.25069136  0.24583648  0.31097084  1
  Ba  Ba8  1  0.75069136  0.25416352  0.31097084  1
  Ba  Ba9  1  0.75069136  0.75416352  0.18902916  1
  Ba  Ba10  1  0.50369747  0.97131921  0.30720615  1
  Ba  Ba11  1  0.00369747  0.52868079  0.30720615  1
  Ba  Ba12  1  0.99630253  0.97131921  0.80720615  1
  Ba  Ba13  1  0.74930864  0.75416352  0.68902916  1
  Ba  Ba14  1  0.24930864  0.74583648  0.68902916  1
  Ba  Ba15  1  0.50369747  0.47131921  0.19279385  1
  In  In16  1  0.55961847  0.80386051  0.94866827  1
  In  In17  1  0.44038153  0.19613949  0.05133173  1
  In  In18  1  0.22802526  0.96500253  0.47220320  1
  In  In19  1  0.22802526  0.46500253  0.02779680  1
  In  In20  1  0.05961847  0.69613949  0.94866827  1
  In  In21  1  0.27197474  0.46500253  0.52779680  1
  In  In22  1  0.94038153  0.80386051  0.44866827  1
  In  In23  1  0.72802526  0.53499747  0.47220320  1
  In  In24  1  0.55961847  0.30386051  0.55133173  1
  In  In25  1  0.77197474  0.03499747  0.52779680  1
  In  In26  1  0.05961847  0.19613949  0.55133173  1
  In  In27  1  0.44038153  0.69613949  0.44866827  1
  In  In28  1  0.77197474  0.53499747  0.97220320  1
  In  In29  1  0.94038153  0.30386051  0.05133173  1
  In  In30  1  0.72802526  0.03499747  0.02779680  1
  In  In31  1  0.27197474  0.96500253  0.97220320  1
  Se  Se32  1  0.49692749  0.21909469  0.22684016  1
  Se  Se33  1  0.06908255  0.39094770  0.92747663  1
  Se  Se34  1  0.40982105  0.37693819  0.97401232  1
  Se  Se35  1  0.93091745  0.10905230  0.42747663  1
  Se  Se36  1  0.50307251  0.28090531  0.72684016  1
  Se  Se37  1  0.24114575  0.98834022  0.28834325  1
  Se  Se38  1  0.73634696  0.85499786  0.45855247  1
  Se  Se39  1  0.06908255  0.89094770  0.57252337  1
  Se  Se40  1  0.49692749  0.71909469  0.27315984  1
  Se  Se41  1  0.99692749  0.78090531  0.27315984  1
  Se  Se42  1  0.09017895  0.37693819  0.47401232  1
  Se  Se43  1  0.40982105  0.87693819  0.52598768  1
  Se  Se44  1  0.93091745  0.60905230  0.07252337  1
  Se  Se45  1  0.09017895  0.87693819  0.02598768  1
  Se  Se46  1  0.56908255  0.10905230  0.92747663  1
  Se  Se47  1  0.73634696  0.35499786  0.04144753  1
  Se  Se48  1  0.23634696  0.14500214  0.04144753  1
  Se  Se49  1  0.43091745  0.89094770  0.07252337  1
  Se  Se50  1  0.23634696  0.64500214  0.45855247  1
  Se  Se51  1  0.75885425  0.51165978  0.78834325  1
  Se  Se52  1  0.74114575  0.51165978  0.28834325  1
  Se  Se53  1  0.76365304  0.85499786  0.95855247  1
  Se  Se54  1  0.25885425  0.48834022  0.71165675  1
  Se  Se55  1  0.26365304  0.64500214  0.95855247  1
  Se  Se56  1  0.00307251  0.71909469  0.77315984  1
  Se  Se57  1  0.26365304  0.14500214  0.54144753  1
  Se  Se58  1  0.90982105  0.12306181  0.97401232  1
  Se  Se59  1  0.50307251  0.78090531  0.77315984  1
  Se  Se60  1  0.43091745  0.39094770  0.42747663  1
  Se  Se61  1  0.59017895  0.12306181  0.47401232  1
  Se  Se62  1  0.75885425  0.01165978  0.71165675  1
  Se  Se63  1  0.76365304  0.35499786  0.54144753  1
  Se  Se64  1  0.24114575  0.48834022  0.21165675  1
  Se  Se65  1  0.59017895  0.62306181  0.02598768  1
  Se  Se66  1  0.99692749  0.28090531  0.22684016  1
  Se  Se67  1  0.00307251  0.21909469  0.72684016  1
  Se  Se68  1  0.74114575  0.01165978  0.21165675  1
  Se  Se69  1  0.56908255  0.60905230  0.57252337  1
  Se  Se70  1  0.90982105  0.62306181  0.52598768  1
  Se  Se71  1  0.25885425  0.98834022  0.78834325  1
