# generated using pymatgen
data_V3SiP5O19
_symmetry_space_group_name_H-M   'P 1'
_cell_length_a   14.58948470
_cell_length_b   14.58948460
_cell_length_c   7.72138362
_cell_angle_alpha   90.00000000
_cell_angle_beta   90.00000000
_cell_angle_gamma   120.00000024
_symmetry_Int_Tables_number   1
_chemical_formula_structural   V3SiP5O19
_chemical_formula_sum   'V12 Si4 P20 O76'
_cell_volume   1423.33019719
_cell_formula_units_Z   4
loop_
 _symmetry_equiv_pos_site_id
 _symmetry_equiv_pos_as_xyz
  1  'x, y, z'
loop_
 _atom_site_type_symbol
 _atom_site_label
 _atom_site_symmetry_multiplicity
 _atom_site_fract_x
 _atom_site_fract_y
 _atom_site_fract_z
 _atom_site_occupancy
  V  V0  1  0.31997431  0.97720655  0.55549361  1
  V  V1  1  0.68002569  0.02279345  0.05549361  1
  V  V2  1  0.67564336  0.01435293  0.44682351  1
  V  V3  1  0.66129043  0.67564336  0.94682351  1
  V  V4  1  0.32435664  0.98564707  0.94682351  1
  V  V5  1  0.01435293  0.33870957  0.94682351  1
  V  V6  1  0.34276776  0.31997431  0.05549361  1
  V  V7  1  0.33870957  0.32435664  0.44682351  1
  V  V8  1  0.98564707  0.66129043  0.44682351  1
  V  V9  1  0.02279345  0.34276776  0.55549361  1
  V  V10  1  0.65723224  0.68002569  0.55549361  1
  V  V11  1  0.97720655  0.65723224  0.05549361  1
  Si  Si12  1  0.33333300  0.66666700  0.30153917  1
  Si  Si13  1  0.33333300  0.66666700  0.71518900  1
  Si  Si14  1  0.66666700  0.33333300  0.80153917  1
  Si  Si15  1  0.66666700  0.33333300  0.21518900  1
  P  P16  1  0.85233900  0.76883349  0.24731395  1
  P  P17  1  0.76883349  0.91649450  0.74731395  1
  P  P18  1  0.43232643  0.22173059  0.74828880  1
  P  P19  1  0.21059585  0.43232643  0.24828880  1
  P  P20  1  0.57903891  0.48379767  0.25967455  1
  P  P21  1  0.51620233  0.09524123  0.25967455  1
  P  P22  1  0.08350550  0.85233900  0.74731395  1
  P  P23  1  0.90475877  0.42096109  0.25967455  1
  P  P24  1  0.56767357  0.77826941  0.24828880  1
  P  P25  1  0.22173059  0.78940415  0.24828880  1
  P  P26  1  0.09524123  0.57903891  0.75967455  1
  P  P27  1  0.42096109  0.51620233  0.75967455  1
  P  P28  1  0.48379767  0.90475877  0.75967455  1
  P  P29  1  0.14766100  0.23116651  0.74731395  1
  P  P30  1  0.77826941  0.21059585  0.74828880  1
  P  P31  1  0.23116651  0.08350550  0.24731395  1
  P  P32  1  0.00000000  0.00000000  0.31492638  1
  P  P33  1  0.00000000  0.00000000  0.81492638  1
  P  P34  1  0.78940415  0.56767357  0.74828880  1
  P  P35  1  0.91649450  0.14766100  0.24731395  1
  O  O36  1  0.78054705  0.35778625  0.29074118  1
  O  O37  1  0.20652216  0.90302599  0.74938424  1
  O  O38  1  0.44912171  0.75458224  0.22766893  1
  O  O39  1  0.92806000  0.38564364  0.08904178  1
  O  O40  1  0.09697401  0.30349617  0.74938424  1
  O  O41  1  0.75458224  0.30546053  0.72766893  1
  O  O42  1  0.30349617  0.20652216  0.24938424  1
  O  O43  1  0.60220679  0.55078662  0.42230543  1
  O  O44  1  0.42410314  0.26691397  0.92175129  1
  O  O45  1  0.00000000  0.00000000  0.00190507  1
  O  O46  1  0.04388248  0.11665679  0.74489752  1
  O  O47  1  0.03929620  0.79561268  0.57566049  1
  O  O48  1  0.58917283  0.73186328  0.08799902  1
  O  O49  1  0.90145732  0.26549084  0.74751008  1
  O  O50  1  0.54102786  0.60181165  0.75707848  1
  O  O51  1  0.85730955  0.58917283  0.58799902  1
  O  O52  1  0.41082717  0.26813672  0.58799902  1
  O  O53  1  0.55087829  0.24541776  0.72766893  1
  O  O54  1  0.24541776  0.69453947  0.22766893  1
  O  O55  1  0.78916988  0.75826337  0.40878393  1
  O  O56  1  0.55078662  0.94857983  0.92230543  1
  O  O57  1  0.90302599  0.69650383  0.24938424  1
  O  O58  1  0.39818835  0.93921621  0.75707848  1
  O  O59  1  0.15718917  0.42410314  0.42175129  1
  O  O60  1  0.07194000  0.61435636  0.58904178  1
  O  O61  1  0.61435636  0.54241636  0.08904178  1
  O  O62  1  0.03090652  0.78916988  0.90878393  1
  O  O63  1  0.11665679  0.07277431  0.24489752  1
  O  O64  1  0.21945295  0.64221375  0.79074118  1
  O  O65  1  0.24173663  0.03090652  0.40878393  1
  O  O66  1  0.69650383  0.79347784  0.74938424  1
  O  O67  1  0.54241636  0.92806000  0.58904178  1
  O  O68  1  0.93921621  0.54102786  0.25707848  1
  O  O69  1  0.33333300  0.66666700  0.50830999  1
  O  O70  1  0.38564364  0.45758364  0.58904178  1
  O  O71  1  0.84281083  0.57589686  0.92175129  1
  O  O72  1  0.96909348  0.21083012  0.40878393  1
  O  O73  1  0.95611752  0.88334321  0.24489752  1
  O  O74  1  0.30546053  0.55087829  0.22766893  1
  O  O75  1  0.09854268  0.73450916  0.24751008  1
  O  O76  1  0.45758364  0.07194000  0.08904178  1
  O  O77  1  0.73186328  0.14269045  0.58799902  1
  O  O78  1  0.75631648  0.96070380  0.57566049  1
  O  O79  1  0.75826337  0.96909348  0.90878393  1
  O  O80  1  0.44921338  0.05142017  0.42230543  1
  O  O81  1  0.00000000  0.00000000  0.50190507  1
  O  O82  1  0.24368352  0.03929620  0.07566049  1
  O  O83  1  0.14269045  0.41082717  0.08799902  1
  O  O84  1  0.88334321  0.92722569  0.74489752  1
  O  O85  1  0.05142017  0.60220679  0.92230543  1
  O  O86  1  0.73308603  0.15718917  0.92175129  1
  O  O87  1  0.20438732  0.24368352  0.57566049  1
  O  O88  1  0.73450916  0.63596648  0.74751008  1
  O  O89  1  0.60181165  0.06078379  0.25707848  1
  O  O90  1  0.26813672  0.85730955  0.08799902  1
  O  O91  1  0.26691397  0.84281083  0.42175129  1
  O  O92  1  0.64221375  0.42276080  0.29074118  1
  O  O93  1  0.66666700  0.33333300  0.00830999  1
  O  O94  1  0.26549084  0.36403352  0.24751008  1
  O  O95  1  0.45897214  0.39818835  0.25707848  1
  O  O96  1  0.57589686  0.73308603  0.42175129  1
  O  O97  1  0.79347784  0.09697401  0.24938424  1
  O  O98  1  0.79561268  0.75631648  0.07566049  1
  O  O99  1  0.06078379  0.45897214  0.75707848  1
  O  O100  1  0.96070380  0.20438732  0.07566049  1
  O  O101  1  0.63596648  0.90145732  0.24751008  1
  O  O102  1  0.39779321  0.44921338  0.92230543  1
  O  O103  1  0.57723920  0.21945295  0.29074118  1
  O  O104  1  0.69453947  0.44912171  0.72766893  1
  O  O105  1  0.36403352  0.09854268  0.74751008  1
  O  O106  1  0.42276080  0.78054705  0.79074118  1
  O  O107  1  0.35778625  0.57723920  0.79074118  1
  O  O108  1  0.21083012  0.24173663  0.90878393  1
  O  O109  1  0.92722569  0.04388248  0.24489752  1
  O  O110  1  0.07277431  0.95611752  0.74489752  1
  O  O111  1  0.94857983  0.39779321  0.42230543  1
