# generated using pymatgen
data_Hg3(SeI)2
_symmetry_space_group_name_H-M   'P 1'
_cell_length_a   9.98087788
_cell_length_b   11.18561760
_cell_length_c   11.26294873
_cell_angle_alpha   113.53425580
_cell_angle_beta   90.00000000
_cell_angle_gamma   116.49679955
_symmetry_Int_Tables_number   1
_chemical_formula_structural   Hg3(SeI)2
_chemical_formula_sum   'Hg12 Se8 I8'
_cell_volume   1007.12602331
_cell_formula_units_Z   4
loop_
 _symmetry_equiv_pos_site_id
 _symmetry_equiv_pos_as_xyz
  1  'x, y, z'
loop_
 _atom_site_type_symbol
 _atom_site_label
 _atom_site_symmetry_multiplicity
 _atom_site_fract_x
 _atom_site_fract_y
 _atom_site_fract_z
 _atom_site_occupancy
  Hg  Hg0  1  0.66606399  0.84370461  0.70367858  1
  Hg  Hg1  1  0.06552576  0.13105153  0.72385217  1
  Hg  Hg2  1  0.14290027  0.75185296  0.00197425  1
  Hg  Hg3  1  0.77845203  0.55690406  0.73436569  1
  Hg  Hg4  1  0.60895269  0.75185296  0.00197425  1
  Hg  Hg5  1  0.33393601  0.15629539  0.29632142  1
  Hg  Hg6  1  0.39104731  0.24814704  0.99802575  1
  Hg  Hg7  1  0.17764062  0.84370461  0.70367858  1
  Hg  Hg8  1  0.22154797  0.44309594  0.26563431  1
  Hg  Hg9  1  0.93447424  0.86894847  0.27614783  1
  Hg  Hg10  1  0.85709973  0.24814704  0.99802575  1
  Hg  Hg11  1  0.82235938  0.15629539  0.29632142  1
  Se  Se12  1  0.93822276  0.38822516  0.25202097  1
  Se  Se13  1  0.54999760  0.61177484  0.74797903  1
  Se  Se14  1  0.06177724  0.61177484  0.74797903  1
  Se  Se15  1  0.31599629  0.12057896  0.74354623  1
  Se  Se16  1  0.45000240  0.38822516  0.25202097  1
  Se  Se17  1  0.80458267  0.12057896  0.74354623  1
  Se  Se18  1  0.68400371  0.87942104  0.25645377  1
  Se  Se19  1  0.19541733  0.87942104  0.25645377  1
  I  I20  1  0.12209041  0.24418081  0.49691788  1
  I  I21  1  0.62283458  0.24566916  0.49672430  1
  I  I22  1  0.25407797  0.50815594  0.00954999  1
  I  I23  1  0.74592203  0.49184406  0.99045001  1
  I  I24  1  0.37716542  0.75433084  0.50327570  1
  I  I25  1  0.50000000  0.00000000  0.00000000  1
  I  I26  1  0.00000000  0.00000000  0.00000000  1
  I  I27  1  0.87790959  0.75581919  0.50308212  1
