# generated using pymatgen
data_Te4Mo(OF4)5
_symmetry_space_group_name_H-M   'P 1'
_cell_length_a   9.45279563
_cell_length_b   11.73639260
_cell_length_c   20.80231637
_cell_angle_alpha   90.00000000
_cell_angle_beta   102.79412170
_cell_angle_gamma   90.00000000
_symmetry_Int_Tables_number   1
_chemical_formula_structural   Te4Mo(OF4)5
_chemical_formula_sum   'Te16 Mo4 O20 F80'
_cell_volume   2250.54578567
_cell_formula_units_Z   4
loop_
 _symmetry_equiv_pos_site_id
 _symmetry_equiv_pos_as_xyz
  1  'x, y, z'
loop_
 _atom_site_type_symbol
 _atom_site_label
 _atom_site_symmetry_multiplicity
 _atom_site_fract_x
 _atom_site_fract_y
 _atom_site_fract_z
 _atom_site_occupancy
  Te  Te0  1  0.69774116  0.13250765  0.95838166  1
  Te  Te1  1  0.52823199  0.46910577  0.76826322  1
  Te  Te2  1  0.21445848  0.13366718  0.46159068  1
  Te  Te3  1  0.78554152  0.86633282  0.53840932  1
  Te  Te4  1  0.47176801  0.96910577  0.73173678  1
  Te  Te5  1  0.47176801  0.53089423  0.23173678  1
  Te  Te6  1  0.30225884  0.86749235  0.04161834  1
  Te  Te7  1  0.01965572  0.25846677  0.20668158  1
  Te  Te8  1  0.98034428  0.75846677  0.29331842  1
  Te  Te9  1  0.69774116  0.36749235  0.45838166  1
  Te  Te10  1  0.78554152  0.63366718  0.03840932  1
  Te  Te11  1  0.21445848  0.36633282  0.96159068  1
  Te  Te12  1  0.52823199  0.03089423  0.26826322  1
  Te  Te13  1  0.98034428  0.74153323  0.79331842  1
  Te  Te14  1  0.01965572  0.24153323  0.70668158  1
  Te  Te15  1  0.30225884  0.63250765  0.54161834  1
  Mo  Mo16  1  0.67043682  0.66441862  0.65864867  1
  Mo  Mo17  1  0.67043682  0.83558138  0.15864867  1
  Mo  Mo18  1  0.32956318  0.16441862  0.84135133  1
  Mo  Mo19  1  0.32956318  0.33558138  0.34135133  1
  O  O20  1  0.49320624  0.64495416  0.59345344  1
  O  O21  1  0.43197336  0.40101694  0.27711621  1
  O  O22  1  0.20361591  0.26521946  0.26618866  1
  O  O23  1  0.27570008  0.21743340  0.39472497  1
  O  O24  1  0.50679376  0.14495416  0.90654656  1
  O  O25  1  0.20361591  0.23478054  0.76618866  1
  O  O26  1  0.43197336  0.09898306  0.77711621  1
  O  O27  1  0.56802664  0.90101694  0.22288379  1
  O  O28  1  0.50679376  0.35504584  0.40654656  1
  O  O29  1  0.76926903  0.55274162  0.64266866  1
  O  O30  1  0.49320624  0.85504584  0.09345344  1
  O  O31  1  0.56802664  0.59898306  0.72288379  1
  O  O32  1  0.79638409  0.73478054  0.73381134  1
  O  O33  1  0.76926903  0.94725838  0.14266866  1
  O  O34  1  0.72429992  0.78256660  0.60527503  1
  O  O35  1  0.27570008  0.28256660  0.89472497  1
  O  O36  1  0.72429992  0.71743340  0.10527503  1
  O  O37  1  0.23073097  0.44725838  0.35733134  1
  O  O38  1  0.79638409  0.76521946  0.23381134  1
  O  O39  1  0.23073097  0.05274162  0.85733134  1
  F  F40  1  0.55233160  0.94975057  0.34707650  1
  F  F41  1  0.15988569  0.75152597  0.85265033  1
  F  F42  1  0.37764684  0.62172745  0.46593765  1
  F  F43  1  0.49945061  0.12452118  0.19354822  1
  F  F44  1  0.92419922  0.30251077  0.27260247  1
  F  F45  1  0.31132787  0.47400036  0.55061417  1
  F  F46  1  0.22262985  0.64256439  0.61613167  1
  F  F47  1  0.50054939  0.62452118  0.30645178  1
  F  F48  1  0.44766840  0.44975057  0.15292350  1
  F  F49  1  0.97426979  0.87232789  0.59017347  1
  F  F50  1  0.40235867  0.36119059  0.01434466  1
  F  F51  1  0.28778963  0.70932015  0.03157800  1
  F  F52  1  0.11568732  0.88222330  0.98887294  1
  F  F53  1  0.88431268  0.38222330  0.51112706  1
  F  F54  1  0.03240567  0.41126420  0.18290600  1
  F  F55  1  0.15461320  0.04990696  0.52710889  1
  F  F56  1  0.48644034  0.33928562  0.81615893  1
  F  F57  1  0.03240567  0.08873580  0.68290600  1
  F  F58  1  0.96759433  0.58873580  0.81709400  1
  F  F59  1  0.96759433  0.91126420  0.31709400  1
  F  F60  1  0.15461320  0.45009304  0.02710889  1
  F  F61  1  0.22262985  0.85743561  0.11613167  1
  F  F62  1  0.15988569  0.74847403  0.35265033  1
  F  F63  1  0.11101681  0.28525043  0.63962372  1
  F  F64  1  0.32998332  0.50189391  0.74993229  1
  F  F65  1  0.88431268  0.11777670  0.01112706  1
  F  F66  1  0.51355966  0.83928562  0.68384107  1
  F  F67  1  0.16782955  0.23203518  0.00053607  1
  F  F68  1  0.07580078  0.69748923  0.72739753  1
  F  F69  1  0.49945061  0.37547882  0.69354822  1
  F  F70  1  0.50054939  0.87547882  0.80645178  1
  F  F71  1  0.27799350  0.92230198  0.70893514  1
  F  F72  1  0.68867213  0.52599964  0.44938583  1
  F  F73  1  0.02573021  0.12767211  0.40982653  1
  F  F74  1  0.55233160  0.55024943  0.84707650  1
  F  F75  1  0.77737015  0.14256439  0.88386833  1
  F  F76  1  0.92419922  0.19748923  0.77260247  1
  F  F77  1  0.84011431  0.24847403  0.14734967  1
  F  F78  1  0.28778963  0.79067985  0.53157800  1
  F  F79  1  0.84538680  0.95009304  0.47289111  1
  F  F80  1  0.62235316  0.12172745  0.03406235  1
  F  F81  1  0.67001668  0.00189391  0.75006771  1
  F  F82  1  0.68867213  0.97400036  0.94938583  1
  F  F83  1  0.16782955  0.26796482  0.50053607  1
  F  F84  1  0.48644034  0.16071438  0.31615893  1
  F  F85  1  0.84011431  0.25152597  0.64734967  1
  F  F86  1  0.99760279  0.89451802  0.77129817  1
  F  F87  1  0.31132787  0.02599964  0.05061417  1
  F  F88  1  0.44766840  0.05024943  0.65292350  1
  F  F89  1  0.84538680  0.54990696  0.97289111  1
  F  F90  1  0.83217045  0.76796482  0.99946393  1
  F  F91  1  0.11568732  0.61777670  0.48887294  1
  F  F92  1  0.83217045  0.73203518  0.49946393  1
  F  F93  1  0.51355966  0.66071438  0.18384107  1
  F  F94  1  0.27799350  0.57769802  0.20893514  1
  F  F95  1  0.07580078  0.80251077  0.22739753  1
  F  F96  1  0.00239721  0.10548198  0.22870183  1
  F  F97  1  0.40235867  0.13880941  0.51434466  1
  F  F98  1  0.32998332  0.99810609  0.24993229  1
  F  F99  1  0.25929851  0.50231445  0.92385756  1
  F  F100  1  0.71221037  0.20932015  0.46842200  1
  F  F101  1  0.67001668  0.49810609  0.25006771  1
  F  F102  1  0.72200650  0.42230198  0.79106486  1
  F  F103  1  0.72200650  0.07769802  0.29106486  1
  F  F104  1  0.97426979  0.62767211  0.09017347  1
  F  F105  1  0.77737015  0.35743561  0.38386833  1
  F  F106  1  0.59764133  0.86119059  0.48565534  1
  F  F107  1  0.74070149  0.00231445  0.57614244  1
  F  F108  1  0.62235316  0.37827255  0.53406235  1
  F  F109  1  0.88898319  0.78525043  0.86037628  1
  F  F110  1  0.88898319  0.71474957  0.36037628  1
  F  F111  1  0.59764133  0.63880941  0.98565534  1
  F  F112  1  0.37764684  0.87827255  0.96593765  1
  F  F113  1  0.25929851  0.99768555  0.42385756  1
  F  F114  1  0.00239721  0.39451802  0.72870183  1
  F  F115  1  0.71221037  0.29067985  0.96842200  1
  F  F116  1  0.74070149  0.49768555  0.07614244  1
  F  F117  1  0.11101681  0.21474957  0.13962372  1
  F  F118  1  0.02573021  0.37232789  0.90982653  1
  F  F119  1  0.99760279  0.60548198  0.27129817  1
