# generated using pymatgen
data_Ba(FeO2)2
_symmetry_space_group_name_H-M   'P 1'
_cell_length_a   9.58301022
_cell_length_b   11.06365661
_cell_length_c   17.64984841
_cell_angle_alpha   90.00000000
_cell_angle_beta   90.00000000
_cell_angle_gamma   90.00000000
_symmetry_Int_Tables_number   1
_chemical_formula_structural   Ba(FeO2)2
_chemical_formula_sum   'Ba16 Fe32 O64'
_cell_volume   1871.29224948
_cell_formula_units_Z   16
loop_
 _symmetry_equiv_pos_site_id
 _symmetry_equiv_pos_as_xyz
  1  'x, y, z'
loop_
 _atom_site_type_symbol
 _atom_site_label
 _atom_site_symmetry_multiplicity
 _atom_site_fract_x
 _atom_site_fract_y
 _atom_site_fract_z
 _atom_site_occupancy
  Ba  Ba0  1  0.72162566  0.14387919  0.25000000  1
  Ba  Ba1  1  0.22162566  0.35612081  0.75000000  1
  Ba  Ba2  1  0.28022715  0.38197422  0.98761240  1
  Ba  Ba3  1  0.21977285  0.88197422  0.98761240  1
  Ba  Ba4  1  0.76100240  0.61594769  0.75000000  1
  Ba  Ba5  1  0.78022715  0.11802578  0.01238760  1
  Ba  Ba6  1  0.77837434  0.64387919  0.25000000  1
  Ba  Ba7  1  0.21977285  0.88197422  0.51238760  1
  Ba  Ba8  1  0.28022715  0.38197422  0.51238760  1
  Ba  Ba9  1  0.71977285  0.61802578  0.48761240  1
  Ba  Ba10  1  0.73899760  0.11594769  0.75000000  1
  Ba  Ba11  1  0.27837434  0.85612081  0.75000000  1
  Ba  Ba12  1  0.26100240  0.88405231  0.25000000  1
  Ba  Ba13  1  0.71977285  0.61802578  0.01238760  1
  Ba  Ba14  1  0.23899760  0.38405231  0.25000000  1
  Ba  Ba15  1  0.78022715  0.11802578  0.48761240  1
  Fe  Fe16  1  0.08948881  0.63324539  0.40625556  1
  Fe  Fe17  1  0.90936693  0.39098720  0.38644753  1
  Fe  Fe18  1  0.08948881  0.63324539  0.09374444  1
  Fe  Fe19  1  0.40936693  0.10901280  0.88644753  1
  Fe  Fe20  1  0.08998606  0.13736730  0.14754165  1
  Fe  Fe21  1  0.90936693  0.39098720  0.11355247  1
  Fe  Fe22  1  0.59063307  0.89098720  0.38644753  1
  Fe  Fe23  1  0.41051119  0.13324539  0.09374444  1
  Fe  Fe24  1  0.41001394  0.63736730  0.35245835  1
  Fe  Fe25  1  0.59063307  0.89098720  0.11355247  1
  Fe  Fe26  1  0.40936693  0.10901280  0.61355247  1
  Fe  Fe27  1  0.56894346  0.38167872  0.35173421  1
  Fe  Fe28  1  0.58998606  0.36263270  0.64754165  1
  Fe  Fe29  1  0.91001394  0.86263270  0.85245835  1
  Fe  Fe30  1  0.41001394  0.63736730  0.14754165  1
  Fe  Fe31  1  0.43105654  0.61832128  0.64826579  1
  Fe  Fe32  1  0.41051119  0.13324539  0.40625556  1
  Fe  Fe33  1  0.06894346  0.11832128  0.85173421  1
  Fe  Fe34  1  0.56894346  0.38167872  0.14826579  1
  Fe  Fe35  1  0.58948881  0.86675461  0.90625556  1
  Fe  Fe36  1  0.09063307  0.60901280  0.88644753  1
  Fe  Fe37  1  0.91051119  0.36675461  0.59374444  1
  Fe  Fe38  1  0.08998606  0.13736730  0.35245835  1
  Fe  Fe39  1  0.93105654  0.88167872  0.14826579  1
  Fe  Fe40  1  0.91051119  0.36675461  0.90625556  1
  Fe  Fe41  1  0.09063307  0.60901280  0.61355247  1
  Fe  Fe42  1  0.58948881  0.86675461  0.59374444  1
  Fe  Fe43  1  0.06894346  0.11832128  0.64826579  1
  Fe  Fe44  1  0.93105654  0.88167872  0.35173421  1
  Fe  Fe45  1  0.43105654  0.61832128  0.85173421  1
  Fe  Fe46  1  0.58998606  0.36263270  0.85245835  1
  Fe  Fe47  1  0.91001394  0.86263270  0.64754165  1
  O  O48  1  0.12577580  0.59732776  0.50899529  1
  O  O49  1  0.93531427  0.51513670  0.64675468  1
  O  O50  1  0.37422420  0.09732776  0.50899529  1
  O  O51  1  0.06468573  0.48486330  0.14675468  1
  O  O52  1  0.56468573  0.01513670  0.85324532  1
  O  O53  1  0.75041945  0.77014435  0.88215021  1
  O  O54  1  0.56035574  0.51396468  0.90227564  1
  O  O55  1  0.02109141  0.16166536  0.75000000  1
  O  O56  1  0.37422420  0.09732776  0.99100471  1
  O  O57  1  0.57853303  0.22678479  0.39942799  1
  O  O58  1  0.24958055  0.22985565  0.38215021  1
  O  O59  1  0.12733414  0.10235598  0.25000000  1
  O  O60  1  0.43531427  0.98486330  0.14675468  1
  O  O61  1  0.41851881  0.27544469  0.64060606  1
  O  O62  1  0.74958055  0.27014435  0.61784979  1
  O  O63  1  0.74958055  0.27014435  0.88215021  1
  O  O64  1  0.41851881  0.27544469  0.85939394  1
  O  O65  1  0.91851881  0.22455531  0.35939394  1
  O  O66  1  0.52109141  0.33833464  0.25000000  1
  O  O67  1  0.58148119  0.72455531  0.35939394  1
  O  O68  1  0.74238421  0.46526271  0.34916199  1
  O  O69  1  0.24958055  0.22985565  0.11784979  1
  O  O70  1  0.75761579  0.96526271  0.34916199  1
  O  O71  1  0.43531427  0.98486330  0.35324532  1
  O  O72  1  0.62577580  0.90267224  0.49100471  1
  O  O73  1  0.56035574  0.51396468  0.59772436  1
  O  O74  1  0.75041945  0.77014435  0.61784979  1
  O  O75  1  0.56468573  0.01513670  0.64675468  1
  O  O76  1  0.06468573  0.48486330  0.35324532  1
  O  O77  1  0.93531427  0.51513670  0.85324532  1
  O  O78  1  0.87422420  0.40267224  0.00899529  1
  O  O79  1  0.06035574  0.98603532  0.40227564  1
  O  O80  1  0.93964426  0.01396468  0.59772436  1
  O  O81  1  0.25041945  0.72985565  0.11784979  1
  O  O82  1  0.42146697  0.77321521  0.60057201  1
  O  O83  1  0.91851881  0.22455531  0.14060606  1
  O  O84  1  0.25761579  0.53473729  0.84916199  1
  O  O85  1  0.93964426  0.01396468  0.90227564  1
  O  O86  1  0.07853303  0.27321521  0.60057201  1
  O  O87  1  0.24238421  0.03473729  0.84916199  1
  O  O88  1  0.47890859  0.66166536  0.75000000  1
  O  O89  1  0.92146697  0.72678479  0.10057201  1
  O  O90  1  0.08148119  0.77544469  0.85939394  1
  O  O91  1  0.57853303  0.22678479  0.10057201  1
  O  O92  1  0.08148119  0.77544469  0.64060606  1
  O  O93  1  0.58148119  0.72455531  0.14060606  1
  O  O94  1  0.37266586  0.60235598  0.25000000  1
  O  O95  1  0.62577580  0.90267224  0.00899529  1
  O  O96  1  0.92146697  0.72678479  0.39942799  1
  O  O97  1  0.24238421  0.03473729  0.65083801  1
  O  O98  1  0.43964426  0.48603532  0.40227564  1
  O  O99  1  0.07853303  0.27321521  0.89942799  1
  O  O100  1  0.25041945  0.72985565  0.38215021  1
  O  O101  1  0.25761579  0.53473729  0.65083801  1
  O  O102  1  0.97890859  0.83833464  0.25000000  1
  O  O103  1  0.87422420  0.40267224  0.49100471  1
  O  O104  1  0.42146697  0.77321521  0.89942799  1
  O  O105  1  0.12577580  0.59732776  0.99100471  1
  O  O106  1  0.06035574  0.98603532  0.09772436  1
  O  O107  1  0.75761579  0.96526271  0.15083801  1
  O  O108  1  0.43964426  0.48603532  0.09772436  1
  O  O109  1  0.87266586  0.89764402  0.75000000  1
  O  O110  1  0.62733414  0.39764402  0.75000000  1
  O  O111  1  0.74238421  0.46526271  0.15083801  1
