# generated using pymatgen
data_Mg3Fe4(BiO4)6
_symmetry_space_group_name_H-M   'P 1'
_cell_length_a   6.60186351
_cell_length_b   7.99928570
_cell_length_c   11.63072303
_cell_angle_alpha   105.26220722
_cell_angle_beta   101.76488225
_cell_angle_gamma   109.57345841
_symmetry_Int_Tables_number   1
_chemical_formula_structural   Mg3Fe4(BiO4)6
_chemical_formula_sum   'Mg3 Fe4 Bi6 O24'
_cell_volume   528.70640264
_cell_formula_units_Z   1
loop_
 _symmetry_equiv_pos_site_id
 _symmetry_equiv_pos_as_xyz
  1  'x, y, z'
loop_
 _atom_site_type_symbol
 _atom_site_label
 _atom_site_symmetry_multiplicity
 _atom_site_fract_x
 _atom_site_fract_y
 _atom_site_fract_z
 _atom_site_occupancy
  Mg  Mg0  1  0.00000000  0.50000000  0.50000000  1
  Mg  Mg1  1  0.31623692  0.27791306  0.79942979  1
  Mg  Mg2  1  0.68376308  0.72208694  0.20057021  1
  Fe  Fe3  1  0.35920023  0.95879442  0.58903592  1
  Fe  Fe4  1  0.64079977  0.04120558  0.41096408  1
  Fe  Fe5  1  0.01224119  0.20138688  0.98320200  1
  Fe  Fe6  1  0.98775881  0.79861312  0.01679800  1
  Bi  Bi7  1  0.86884967  0.39657651  0.73216894  1
  Bi  Bi8  1  0.13115033  0.60342349  0.26783106  1
  Bi  Bi9  1  0.82346558  0.87442392  0.68657390  1
  Bi  Bi10  1  0.49648147  0.80184766  0.89105719  1
  Bi  Bi11  1  0.17653442  0.12557608  0.31342610  1
  Bi  Bi12  1  0.50351853  0.19815234  0.10894281  1
  O  O13  1  0.84500310  0.60210125  0.63128503  1
  O  O14  1  0.15499690  0.39789875  0.36871497  1
  O  O15  1  0.25512424  0.51207545  0.79094270  1
  O  O16  1  0.74487576  0.48792455  0.20905730  1
  O  O17  1  0.88898479  0.27651180  0.54952721  1
  O  O18  1  0.11101521  0.72348820  0.45047279  1
  O  O19  1  0.61951075  0.91125925  0.53906573  1
  O  O20  1  0.38048925  0.08874075  0.46093427  1
  O  O21  1  0.67388858  0.74636063  0.03359911  1
  O  O22  1  0.32611142  0.25363937  0.96640089  1
  O  O23  1  0.46703117  0.77382513  0.28924505  1
  O  O24  1  0.53296883  0.22617487  0.71075495  1
  O  O25  1  0.14661163  0.00064410  0.67347326  1
  O  O26  1  0.13304881  0.10360755  0.11923266  1
  O  O27  1  0.86695119  0.89639245  0.88076734  1
  O  O28  1  0.53095128  0.18525593  0.29413402  1
  O  O29  1  0.46904872  0.81474407  0.70586598  1
  O  O30  1  0.13371827  0.45146949  0.09738096  1
  O  O31  1  0.86628173  0.54853051  0.90261904  1
  O  O32  1  0.95395285  0.19160517  0.80253684  1
  O  O33  1  0.04604715  0.80839483  0.19746316  1
  O  O34  1  0.30119481  0.88462135  0.00165966  1
  O  O35  1  0.69880519  0.11537865  0.99834034  1
  O  O36  1  0.85338837  0.99935590  0.32652674  1
