# generated using pymatgen
data_Bi6Cl7
_symmetry_space_group_name_H-M   'P 1'
_cell_length_a   8.87117876
_cell_length_b   15.42121162
_cell_length_c   23.42753098
_cell_angle_alpha   90.00000000
_cell_angle_beta   90.00000000
_cell_angle_gamma   90.00000000
_symmetry_Int_Tables_number   1
_chemical_formula_structural   Bi6Cl7
_chemical_formula_sum   'Bi48 Cl56'
_cell_volume   3204.98756159
_cell_formula_units_Z   8
loop_
 _symmetry_equiv_pos_site_id
 _symmetry_equiv_pos_as_xyz
  1  'x, y, z'
loop_
 _atom_site_type_symbol
 _atom_site_label
 _atom_site_symmetry_multiplicity
 _atom_site_fract_x
 _atom_site_fract_y
 _atom_site_fract_z
 _atom_site_occupancy
  Bi  Bi0  1  0.00000000  0.31570507  0.85746085  1
  Bi  Bi1  1  0.50000000  0.04671336  0.91269871  1
  Bi  Bi2  1  0.68383847  0.66088584  0.29962850  1
  Bi  Bi3  1  0.00000000  0.09745806  0.41110097  1
  Bi  Bi4  1  0.00000000  0.06696878  0.10283492  1
  Bi  Bi5  1  0.50000000  0.89127317  0.43182517  1
  Bi  Bi6  1  0.50000000  0.59745806  0.08889903  1
  Bi  Bi7  1  0.31214351  0.71716931  0.45024217  1
  Bi  Bi8  1  0.76348811  0.15426877  0.65261291  1
  Bi  Bi9  1  0.73651189  0.34573123  0.15261291  1
  Bi  Bi10  1  0.23651189  0.15426877  0.65261291  1
  Bi  Bi11  1  0.81616153  0.16088584  0.20037150  1
  Bi  Bi12  1  0.18383847  0.83911416  0.79962850  1
  Bi  Bi13  1  0.50000000  0.43303122  0.60283492  1
  Bi  Bi14  1  0.81214351  0.21716931  0.04975783  1
  Bi  Bi15  1  0.23651189  0.84573123  0.34738709  1
  Bi  Bi16  1  0.50000000  0.18429493  0.35746085  1
  Bi  Bi17  1  0.50000000  0.56696878  0.39716508  1
  Bi  Bi18  1  0.00000000  0.45328664  0.41269871  1
  Bi  Bi19  1  0.00000000  0.67107315  0.75915706  1
  Bi  Bi20  1  0.76348811  0.84573123  0.34738709  1
  Bi  Bi21  1  0.31214351  0.28283069  0.54975783  1
  Bi  Bi22  1  0.73651189  0.65426877  0.84738709  1
  Bi  Bi23  1  0.50000000  0.40254194  0.91110097  1
  Bi  Bi24  1  0.00000000  0.54671336  0.58730129  1
  Bi  Bi25  1  0.00000000  0.68429493  0.14253915  1
  Bi  Bi26  1  0.81214351  0.78283069  0.95024217  1
  Bi  Bi27  1  0.00000000  0.32892685  0.24084294  1
  Bi  Bi28  1  0.50000000  0.17107315  0.74084294  1
  Bi  Bi29  1  0.50000000  0.82892685  0.25915706  1
  Bi  Bi30  1  0.81616153  0.83911416  0.79962850  1
  Bi  Bi31  1  0.50000000  0.10872683  0.56817483  1
  Bi  Bi32  1  0.00000000  0.90254194  0.58889903  1
  Bi  Bi33  1  0.26348811  0.34573123  0.15261291  1
  Bi  Bi34  1  0.18785649  0.21716931  0.04975783  1
  Bi  Bi35  1  0.31616153  0.66088584  0.29962850  1
  Bi  Bi36  1  0.18785649  0.78283069  0.95024217  1
  Bi  Bi37  1  0.68383847  0.33911416  0.70037150  1
  Bi  Bi38  1  0.31616153  0.33911416  0.70037150  1
  Bi  Bi39  1  0.26348811  0.65426877  0.84738709  1
  Bi  Bi40  1  0.68785649  0.71716931  0.45024217  1
  Bi  Bi41  1  0.50000000  0.95328664  0.08730129  1
  Bi  Bi42  1  0.00000000  0.39127317  0.06817483  1
  Bi  Bi43  1  0.00000000  0.60872683  0.93182517  1
  Bi  Bi44  1  0.68785649  0.28283069  0.54975783  1
  Bi  Bi45  1  0.50000000  0.81570507  0.64253915  1
  Bi  Bi46  1  0.18383847  0.16088584  0.20037150  1
  Bi  Bi47  1  0.00000000  0.93303122  0.89716508  1
  Cl  Cl48  1  0.19406903  0.58177109  0.05856759  1
  Cl  Cl49  1  0.30744478  0.29260426  0.83630725  1
  Cl  Cl50  1  0.00000000  0.27975238  0.46259165  1
  Cl  Cl51  1  0.50000000  0.32269694  0.43944026  1
  Cl  Cl52  1  0.19255522  0.79260426  0.66369275  1
  Cl  Cl53  1  0.50000000  0.67730306  0.56055974  1
  Cl  Cl54  1  0.28542637  0.05685076  0.83605012  1
  Cl  Cl55  1  0.50000000  0.87590603  0.89134008  1
  Cl  Cl56  1  0.80593097  0.58177109  0.05856759  1
  Cl  Cl57  1  0.69406903  0.91822891  0.55856759  1
  Cl  Cl58  1  0.78355805  0.50000000  0.50000000  1
  Cl  Cl59  1  0.69406903  0.08177109  0.44143241  1
  Cl  Cl60  1  0.21457363  0.55685076  0.66394988  1
  Cl  Cl61  1  0.00000000  0.37590603  0.60865992  1
  Cl  Cl62  1  0.50000000  0.12409397  0.10865992  1
  Cl  Cl63  1  0.00000000  0.82269694  0.06055974  1
  Cl  Cl64  1  0.00000000  0.54893273  0.21023210  1
  Cl  Cl65  1  0.71457363  0.05685076  0.83605012  1
  Cl  Cl66  1  0.00000000  0.62409397  0.39134008  1
  Cl  Cl67  1  0.50000000  0.28242060  0.26352500  1
  Cl  Cl68  1  0.00000000  0.45106727  0.78976790  1
  Cl  Cl69  1  0.50000000  0.51225953  0.18687690  1
  Cl  Cl70  1  0.00000000  0.01225953  0.31312310  1
  Cl  Cl71  1  0.50000000  0.57543455  0.94798900  1
  Cl  Cl72  1  0.50000000  0.22024762  0.96259165  1
  Cl  Cl73  1  0.71457363  0.94314924  0.16394988  1
  Cl  Cl74  1  0.28355805  0.00000000  0.00000000  1
  Cl  Cl75  1  0.00000000  0.21757940  0.76352500  1
  Cl  Cl76  1  0.80593097  0.41822891  0.94143241  1
  Cl  Cl77  1  0.00000000  0.72024762  0.53740835  1
  Cl  Cl78  1  0.50000000  0.42456545  0.05201100  1
  Cl  Cl79  1  0.78542637  0.44314924  0.33605012  1
  Cl  Cl80  1  0.78542637  0.55685076  0.66394988  1
  Cl  Cl81  1  0.00000000  0.92456545  0.44798900  1
  Cl  Cl82  1  0.30593097  0.08177109  0.44143241  1
  Cl  Cl83  1  0.71644195  0.00000000  0.00000000  1
  Cl  Cl84  1  0.69255522  0.70739574  0.16369275  1
  Cl  Cl85  1  0.19255522  0.20739574  0.33630725  1
  Cl  Cl86  1  0.28542637  0.94314924  0.16394988  1
  Cl  Cl87  1  0.50000000  0.04893273  0.28976790  1
  Cl  Cl88  1  0.19406903  0.41822891  0.94143241  1
  Cl  Cl89  1  0.50000000  0.95106727  0.71023210  1
  Cl  Cl90  1  0.21457363  0.44314924  0.33605012  1
  Cl  Cl91  1  0.21644195  0.50000000  0.50000000  1
  Cl  Cl92  1  0.50000000  0.77975238  0.03740835  1
  Cl  Cl93  1  0.50000000  0.48774047  0.81312310  1
  Cl  Cl94  1  0.00000000  0.17730306  0.93944026  1
  Cl  Cl95  1  0.00000000  0.78242060  0.23647500  1
  Cl  Cl96  1  0.30593097  0.91822891  0.55856759  1
  Cl  Cl97  1  0.80744478  0.20739574  0.33630725  1
  Cl  Cl98  1  0.50000000  0.71757940  0.73647500  1
  Cl  Cl99  1  0.69255522  0.29260426  0.83630725  1
  Cl  Cl100  1  0.80744478  0.79260426  0.66369275  1
  Cl  Cl101  1  0.00000000  0.07543455  0.55201100  1
  Cl  Cl102  1  0.00000000  0.98774047  0.68687690  1
  Cl  Cl103  1  0.30744478  0.70739574  0.16369275  1
