# generated using pymatgen
data_Li9Co3P8O29
_symmetry_space_group_name_H-M   'P 1'
_cell_length_a   9.81204404
_cell_length_b   9.82110791
_cell_length_c   13.74082509
_cell_angle_alpha   90.00126967
_cell_angle_beta   90.62575744
_cell_angle_gamma   120.03146596
_symmetry_Int_Tables_number   1
_chemical_formula_structural   Li9Co3P8O29
_chemical_formula_sum   'Li18 Co6 P16 O58'
_cell_volume   1146.28074205
_cell_formula_units_Z   2
loop_
 _symmetry_equiv_pos_site_id
 _symmetry_equiv_pos_as_xyz
  1  'x, y, z'
loop_
 _atom_site_type_symbol
 _atom_site_label
 _atom_site_symmetry_multiplicity
 _atom_site_fract_x
 _atom_site_fract_y
 _atom_site_fract_z
 _atom_site_occupancy
  Li  Li0  1  0.10144775  0.76555652  0.93646863  1
  Li  Li1  1  0.76652697  0.09526130  0.56468493  1
  Li  Li2  1  0.66151028  0.89892274  0.93604842  1
  Li  Li3  1  0.33796070  0.10079162  0.06392197  1
  Li  Li4  1  0.32885250  0.66453630  0.12039401  1
  Li  Li5  1  0.33848872  0.23739746  0.56395139  1
  Li  Li6  1  0.67125811  0.33556700  0.87960002  1
  Li  Li7  1  0.23348667  0.32874344  0.93532127  1
  Li  Li8  1  0.10160607  0.33627678  0.43645286  1
  Li  Li9  1  0.00120495  0.00133781  0.49994945  1
  Li  Li10  1  0.76651395  0.67106966  0.06467697  1
  Li  Li11  1  0.99857125  0.00025270  0.00008032  1
  Li  Li12  1  0.67115495  0.33572116  0.37961243  1
  Li  Li13  1  0.66194467  0.76280387  0.43607555  1
  Li  Li14  1  0.23350399  0.90461881  0.43531091  1
  Li  Li15  1  0.89851658  0.66407520  0.56354186  1
  Li  Li16  1  0.32878530  0.66430478  0.62038622  1
  Li  Li17  1  0.89840912  0.23472781  0.06354862  1
  Co  Co18  1  0.43307950  0.43098514  0.75245990  1
  Co  Co19  1  0.56692528  0.56897295  0.24760071  1
  Co  Co20  1  0.56691437  0.99790215  0.74755016  1
  Co  Co21  1  0.43309348  0.00205561  0.25238269  1
  Co  Co22  1  0.00000089  0.56279270  0.74999595  1
  Co  Co23  1  1.00000093  0.43719040  0.25001070  1
  P  P24  1  0.67732507  0.91028948  0.15677384  1
  P  P25  1  0.66813400  0.33547125  0.12571882  1
  P  P26  1  0.09139051  0.31426398  0.65656551  1
  P  P27  1  0.32296727  0.08973983  0.84322770  1
  P  P28  1  0.77314743  0.68276015  0.84583092  1
  P  P29  1  0.22684698  0.31731822  0.15417168  1
  P  P30  1  0.33191407  0.66735503  0.37426763  1
  P  P31  1  0.90862199  0.22288266  0.84343331  1
  P  P32  1  0.66815867  0.33262339  0.62571862  1
  P  P33  1  0.67706399  0.76680436  0.65677636  1
  P  P34  1  0.09132310  0.77695097  0.15655481  1
  P  P35  1  0.22685716  0.90959381  0.65416649  1
  P  P36  1  0.33181409  0.66444439  0.87428423  1
  P  P37  1  0.32270870  0.23299335  0.34321496  1
  P  P38  1  0.90867652  0.68565070  0.34346189  1
  P  P39  1  0.77314113  0.09047362  0.34582433  1
  O  O40  1  0.89124336  0.52174329  0.33534002  1
  O  O41  1  0.25434031  0.32715994  0.65859619  1
  O  O42  1  0.74567083  0.07282103  0.84140964  1
  O  O43  1  0.21631825  0.21581651  0.24909485  1
  O  O44  1  0.37379683  0.89168354  0.66456785  1
  O  O45  1  1.00000753  0.21111278  0.75000064  1
  O  O46  1  0.23406585  0.99701309  0.93239007  1
  O  O47  1  0.68093004  0.49266151  0.16050696  1
  O  O48  1  0.78356585  0.78413585  0.75088089  1
  O  O49  1  0.48713071  0.37798223  0.33155066  1
  O  O50  1  0.99965744  0.21943801  0.93324719  1
  O  O51  1  0.22857593  0.00448062  0.56574101  1
  O  O52  1  0.31910602  0.81175957  0.33951889  1
  O  O53  1  0.89124878  0.36938551  0.83532288  1
  O  O54  1  0.99976766  0.78010912  0.43324847  1
  O  O55  1  0.77145901  0.77594896  0.93425859  1
  O  O56  1  0.81535003  0.48679260  0.66680900  1
  O  O57  1  0.48746297  0.10936910  0.83138173  1
  O  O58  1  0.78368917  0.99949755  0.25090626  1
  O  O59  1  0.48504198  0.67846099  0.33467951  1
  O  O60  1  0.92186177  0.25224147  0.34691924  1
  O  O61  1  0.66451578  0.91693878  0.65445206  1
  O  O62  1  0.25431528  0.92699092  0.15858623  1
  O  O63  1  0.23349096  0.23642034  0.43237911  1
  O  O64  1  0.33040813  0.65879221  0.48445608  1
  O  O65  1  0.00023298  0.78028526  0.06676573  1
  O  O66  1  0.07813662  0.33038246  0.15309541  1
  O  O67  1  0.37380506  0.48214938  0.16467287  1
  O  O68  1  0.51510189  0.32159307  0.66539986  1
  O  O69  1  0.21646644  0.00057630  0.74911781  1
  O  O70  1  0.62620370  0.10837757  0.33529015  1
  O  O71  1  0.66938207  0.34105643  0.51553441  1
  O  O72  1  0.66468952  0.74757903  0.15448284  1
  O  O73  1  0.33055919  0.67158157  0.98447003  1
  O  O74  1  0.18463363  0.67142930  0.83319447  1
  O  O75  1  0.51258778  0.62192365  0.66860439  1
  O  O76  1  0.68103529  0.18825221  0.66044745  1
  O  O77  1  0.00035481  0.21977043  0.56675324  1
  O  O78  1  0.22860930  0.22424509  0.06572295  1
  O  O79  1  0.81522257  0.32840691  0.16690554  1
  O  O80  1  0.74568887  0.67269698  0.34142874  1
  O  O81  1  0.76600330  0.76304373  0.56761026  1
  O  O82  1  0.62618651  0.51792815  0.83544086  1
  O  O83  1  0.51290267  0.89085582  0.16841974  1
  O  O84  1  0.77130839  0.99561644  0.43427605  1
  O  O85  1  0.07814507  0.74781196  0.65311759  1
  O  O86  1  0.10876521  0.47814259  0.66466714  1
  O  O87  1  0.51497218  0.19340310  0.16523491  1
  O  O88  1  0.31894753  0.50720877  0.83953115  1
  O  O89  1  0.76658288  0.00294892  0.06762169  1
  O  O90  1  0.18478210  0.51319654  0.33312009  1
  O  O91  1  0.10877488  0.63049074  0.16469779  1
  O  O92  1  0.33549589  0.25240955  0.84557126  1
  O  O93  1  0.66978449  0.32855761  0.01552996  1
  O  O94  1  1.00000457  0.78877480  0.25000720  1
  O  O95  1  0.33534776  0.08292259  0.34549989  1
  O  O96  1  0.48488496  0.80650266  0.83463287  1
  O  O97  1  0.92183274  0.66964676  0.84688058  1
