# generated using pymatgen
data_KYb3F10
_symmetry_space_group_name_H-M   'P 1'
_cell_length_a   8.21132662
_cell_length_b   8.21132668
_cell_length_c   13.47746878
_cell_angle_alpha   90.00000000
_cell_angle_beta   90.00000000
_cell_angle_gamma   119.99999976
_symmetry_Int_Tables_number   1
_chemical_formula_structural   KYb3F10
_chemical_formula_sum   'K4 Yb12 F40'
_cell_volume   786.98349632
_cell_formula_units_Z   4
loop_
 _symmetry_equiv_pos_site_id
 _symmetry_equiv_pos_as_xyz
  1  'x, y, z'
loop_
 _atom_site_type_symbol
 _atom_site_label
 _atom_site_symmetry_multiplicity
 _atom_site_fract_x
 _atom_site_fract_y
 _atom_site_fract_z
 _atom_site_occupancy
  Yb  Yb0  1  0.81845430  0.63690860  0.75376994  1
  Yb  Yb1  1  0.03266701  0.51633350  0.48071054  1
  Yb  Yb2  1  0.36309140  0.18154570  0.75376994  1
  Yb  Yb3  1  0.51633350  0.03266701  0.98071054  1
  Yb  Yb4  1  0.48366650  0.96733299  0.48071054  1
  Yb  Yb5  1  0.48366650  0.51633350  0.48071054  1
  Yb  Yb6  1  0.96733299  0.48366650  0.98071054  1
  Yb  Yb7  1  0.63690860  0.81845430  0.25376994  1
  Yb  Yb8  1  0.81845430  0.18154570  0.75376994  1
  Yb  Yb9  1  0.18154570  0.81845430  0.25376994  1
  Yb  Yb10  1  0.51633350  0.48366650  0.98071054  1
  Yb  Yb11  1  0.18154570  0.36309140  0.25376994  1
  K  K12  1  0.00000000  0.00000000  0.98973405  1
  K  K13  1  0.66666700  0.33333300  0.24454410  1
  K  K14  1  0.33333300  0.66666700  0.74454410  1
  K  K15  1  0.00000000  0.00000000  0.48973405  1
  F  F16  1  0.11344208  0.22688416  0.78369553  1
  F  F17  1  0.22688416  0.11344208  0.28369553  1
  F  F18  1  0.49158023  0.50841977  0.30887735  1
  F  F19  1  0.33333300  0.66666700  0.20075524  1
  F  F20  1  0.78741395  0.21258605  0.46065315  1
  F  F21  1  0.21258605  0.42517211  0.96065315  1
  F  F22  1  0.81269071  0.18730929  0.92096318  1
  F  F23  1  0.62538141  0.81269071  0.42096318  1
  F  F24  1  0.88655792  0.11344208  0.28369553  1
  F  F25  1  0.01683955  0.50841977  0.30887735  1
  F  F26  1  0.50841977  0.01683955  0.80887735  1
  F  F27  1  0.01045067  0.31917275  0.10907245  1
  F  F28  1  0.69127792  0.68082725  0.60907245  1
  F  F29  1  0.98954933  0.68082725  0.60907245  1
  F  F30  1  0.21258605  0.78741395  0.96065315  1
  F  F31  1  0.31917275  0.01045067  0.60907245  1
  F  F32  1  0.30872208  0.98954933  0.10907245  1
  F  F33  1  0.77311584  0.88655792  0.78369553  1
  F  F34  1  0.81269071  0.62538141  0.92096318  1
  F  F35  1  0.66666700  0.33333300  0.70075524  1
  F  F36  1  0.37461859  0.18730929  0.92096318  1
  F  F37  1  0.78741395  0.57482789  0.46065315  1
  F  F38  1  0.30872208  0.31917275  0.10907245  1
  F  F39  1  0.66666700  0.33333300  0.04773287  1
  F  F40  1  0.18730929  0.37461859  0.42096318  1
  F  F41  1  0.98316045  0.49158023  0.80887735  1
  F  F42  1  0.88655792  0.77311584  0.28369553  1
  F  F43  1  0.31917275  0.30872208  0.60907245  1
  F  F44  1  0.49158023  0.98316045  0.30887735  1
  F  F45  1  0.33333300  0.66666700  0.54773287  1
  F  F46  1  0.42517211  0.21258605  0.46065315  1
  F  F47  1  0.69127792  0.01045067  0.60907245  1
  F  F48  1  0.68082725  0.69127792  0.10907245  1
  F  F49  1  0.50841977  0.49158023  0.80887735  1
  F  F50  1  0.68082725  0.98954933  0.10907245  1
  F  F51  1  0.18730929  0.81269071  0.42096318  1
  F  F52  1  0.57482789  0.78741395  0.96065315  1
  F  F53  1  0.98954933  0.30872208  0.60907245  1
  F  F54  1  0.11344208  0.88655792  0.78369553  1
  F  F55  1  0.01045067  0.69127792  0.10907245  1
