# generated using pymatgen
data_MnGaNi2
_symmetry_space_group_name_H-M   'P 1'
_cell_length_a   4.21490255
_cell_length_b   5.47427988
_cell_length_c   29.34303490
_cell_angle_alpha   89.98824027
_cell_angle_beta   89.88915774
_cell_angle_gamma   90.27683169
_symmetry_Int_Tables_number   1
_chemical_formula_structural   MnGaNi2
_chemical_formula_sum   'Mn14 Ga14 Ni28'
_cell_volume   677.03898038
_cell_formula_units_Z   14
loop_
 _symmetry_equiv_pos_site_id
 _symmetry_equiv_pos_as_xyz
  1  'x, y, z'
loop_
 _atom_site_type_symbol
 _atom_site_label
 _atom_site_symmetry_multiplicity
 _atom_site_fract_x
 _atom_site_fract_y
 _atom_site_fract_z
 _atom_site_occupancy
  Mn  Mn0  1  0.44804459  0.50024563  0.07149085  1
  Mn  Mn1  1  0.03338133  0.00019038  0.85706029  1
  Mn  Mn2  1  0.96632239  0.99979744  0.14320208  1
  Mn  Mn3  1  0.00084249  0.00024556  0.99986275  1
  Mn  Mn4  1  0.55314162  0.49900120  0.21405292  1
  Mn  Mn5  1  0.53410686  0.49979909  0.64301100  1
  Mn  Mn6  1  0.94800104  0.00009949  0.42859029  1
  Mn  Mn7  1  0.46532169  0.49962615  0.35694541  1
  Mn  Mn8  1  0.05387217  0.99986385  0.28588704  1
  Mn  Mn9  1  0.44657363  0.50003234  0.78586286  1
  Mn  Mn10  1  0.94782018  0.00049610  0.71415710  1
  Mn  Mn11  1  0.50008418  0.50065876  0.49996845  1
  Mn  Mn12  1  0.05224707  0.99937875  0.57141335  1
  Mn  Mn13  1  0.55219129  0.49995577  0.92870012  1
  Ga  Ga14  1  0.44914228  0.00006569  0.07160833  1
  Ga  Ga15  1  0.44443510  0.99948236  0.78523546  1
  Ga  Ga16  1  0.49984914  -0.00004896  0.50000269  1
  Ga  Ga17  1  0.55592336  0.00089319  0.21478269  1
  Ga  Ga18  1  0.03800791  0.49988026  0.85719288  1
  Ga  Ga19  1  0.99954066  0.49937600  0.99994229  1
  Ga  Ga20  1  0.05047120  0.49993941  0.57163784  1
  Ga  Ga21  1  0.05585471  0.49990678  0.28531957  1
  Ga  Ga22  1  0.94383507  0.50019894  0.71478200  1
  Ga  Ga23  1  0.53744528  0.00055340  0.64271958  1
  Ga  Ga24  1  0.94980276  0.50015970  0.42836251  1
  Ga  Ga25  1  0.55059349  0.00002420  0.92841603  1
  Ga  Ga26  1  0.96150999  0.49992556  0.14288300  1
  Ga  Ga27  1  0.46240748  0.00011356  0.35702031  1
  Ni  Ni28  1  0.44120891  0.75047403  0.71423734  1
  Ni  Ni29  1  0.05866386  0.74977477  0.21425849  1
  Ni  Ni30  1  0.03840370  0.74959346  0.64274789  1
  Ni  Ni31  1  0.44154937  0.24950605  0.71427355  1
  Ni  Ni32  1  0.46084287  0.24944391  0.14274504  1
  Ni  Ni33  1  0.96132522  0.74948275  0.35731015  1
  Ni  Ni34  1  0.94322289  0.25059836  0.07136142  1
  Ni  Ni35  1  0.94157577  0.25138253  0.78571881  1
  Ni  Ni36  1  0.44364408  0.75047003  0.42857853  1
  Ni  Ni37  1  0.94171247  0.74899565  0.78579797  1
  Ni  Ni38  1  0.96078301  0.25051257  0.35719008  1
  Ni  Ni39  1  0.05894782  0.25058889  0.21425467  1
  Ni  Ni40  1  0.55633344  0.75095001  0.57126087  1
  Ni  Ni41  1  0.44427831  0.24944467  0.42863146  1
  Ni  Ni42  1  0.94394835  0.74929382  0.07132060  1
  Ni  Ni43  1  0.05690598  0.74923822  0.92873647  1
  Ni  Ni44  1  0.05632104  0.25060340  0.92865436  1
  Ni  Ni45  1  0.00000689  0.74983085  0.50009446  1
  Ni  Ni46  1  0.53829317  0.75010308  0.85725365  1
  Ni  Ni47  1  0.55711497  0.24907375  0.57126352  1
  Ni  Ni48  1  0.03856459  0.25060111  0.64263286  1
  Ni  Ni49  1  0.46072614  0.75021920  0.14282950  1
  Ni  Ni50  1  0.55900822  0.74984447  0.28574669  1
  Ni  Ni51  1  0.55831561  0.24994985  0.28567972  1
  Ni  Ni52  1  0.99947248  0.24998244  0.49995905  1
  Ni  Ni53  1  0.53831939  0.25041393  0.85726846  1
  Ni  Ni54  1  0.49956948  0.75014218  0.00007129  1
  Ni  Ni55  1  0.50017299  0.24962536  0.00001342  1
