# generated using pymatgen
data_Li3Mn3(PO4)4
_symmetry_space_group_name_H-M   'P 1'
_cell_length_a   13.20023595
_cell_length_b   8.15786457
_cell_length_c   8.94412127
_cell_angle_alpha   91.55312910
_cell_angle_beta   84.16998255
_cell_angle_gamma   92.41333223
_symmetry_Int_Tables_number   1
_chemical_formula_structural   Li3Mn3(PO4)4
_chemical_formula_sum   'Li9 Mn9 P12 O48'
_cell_volume   957.07016836
_cell_formula_units_Z   3
loop_
 _symmetry_equiv_pos_site_id
 _symmetry_equiv_pos_as_xyz
  1  'x, y, z'
loop_
 _atom_site_type_symbol
 _atom_site_label
 _atom_site_symmetry_multiplicity
 _atom_site_fract_x
 _atom_site_fract_y
 _atom_site_fract_z
 _atom_site_occupancy
  Li  Li0  1  0.15601757  0.86622756  0.23336964  1
  Li  Li1  1  0.50743371  0.13302847  0.09534891  1
  Li  Li2  1  0.16133926  0.64044756  0.75337631  1
  Li  Li3  1  0.49400117  0.63538469  0.40824201  1
  Li  Li4  1  0.83435724  0.64370419  0.06793915  1
  Li  Li5  1  0.17415016  0.36402793  0.92224748  1
  Li  Li6  1  0.50093241  0.36295948  0.58531515  1
  Li  Li7  1  0.83375914  0.86788256  0.58051879  1
  Li  Li8  1  0.83711805  0.13057703  0.75710910  1
  Mn  Mn9  1  0.16533588  0.51392327  0.32830110  1
  Mn  Mn10  1  0.50128575  0.48680892  0.00461269  1
  Mn  Mn11  1  0.16823482  0.14821371  0.44085589  1
  Mn  Mn12  1  0.17014062  0.99460734  0.85001648  1
  Mn  Mn13  1  0.49395552  0.00362963  0.48244296  1
  Mn  Mn14  1  0.83328676  0.99547821  0.16137220  1
  Mn  Mn15  1  0.82256494  0.36461817  0.26785818  1
  Mn  Mn16  1  0.49869128  0.84975024  0.89052144  1
  Mn  Mn17  1  0.83849915  0.50696697  0.67825855  1
  P  P18  1  0.05626937  0.19699974  0.14623985  1
  P  P19  1  0.27566517  0.69808950  0.02875073  1
  P  P20  1  0.05070830  0.31458048  0.64621963  1
  P  P21  1  0.39154398  0.30169766  0.30393526  1
  P  P22  1  0.27415629  0.81643060  0.52643902  1
  P  P23  1  0.61062267  0.80634874  0.18627091  1
  P  P24  1  0.39127369  0.18106618  0.80391828  1
  P  P25  1  0.71774519  0.17964061  0.47834325  1
  P  P26  1  0.61791136  0.68396630  0.68639522  1
  P  P27  1  0.94183141  0.69546726  0.36751898  1
  P  P28  1  0.72373559  0.30139547  0.96876341  1
  P  P29  1  0.94713726  0.81881306  0.86084388  1
  O  O30  1  0.23276233  0.87070791  0.02549340  1
  O  O31  1  0.10140136  0.37471638  0.16347961  1
  O  O32  1  0.09621840  0.07874263  0.25485814  1
  O  O33  1  0.05708036  0.70036184  0.32217018  1
  O  O34  1  0.25453389  0.64494879  0.19751920  1
  O  O35  1  0.09189516  0.35343512  0.47288697  1
  O  O36  1  0.41253144  0.35562509  0.13490454  1
  O  O37  1  0.27185401  0.29143452  0.33055341  1
  O  O38  1  0.22873935  0.94022216  0.42386985  1
  O  O39  1  0.60739380  0.29816880  0.00609561  1
  O  O40  1  0.56794366  0.92210141  0.07783310  1
  O  O41  1  0.22489784  0.64309284  0.50412156  1
  O  O42  1  0.09390281  0.13556360  0.64252576  1
  O  O43  1  0.56486423  0.62837311  0.17303747  1
  O  O44  1  0.43606332  0.13013275  0.30626492  1
  O  O45  1  0.09866790  0.42775787  0.75479060  1
  O  O46  1  0.06682036  0.81834209  0.83581867  1
  O  O47  1  0.43242083  0.42377037  0.41428641  1
  O  O48  1  0.39207700  0.81583835  0.48622957  1
  O  O49  1  0.25201019  0.86425233  0.69502013  1
  O  O50  1  0.77319848  0.42399118  0.08049699  1
  O  O51  1  0.72929487  0.80813492  0.15676345  1
  O  O52  1  0.58284616  0.86250926  0.35402327  1
  O  O53  1  0.08402479  0.14438754  0.97926459  1
  O  O54  1  0.92291053  0.86729792  0.03339540  1
  O  O55  1  0.41289142  0.13278463  0.63444786  1
  O  O56  1  0.27376023  0.18081182  0.84469980  1
  O  O57  1  0.23429671  0.57624150  0.91872568  1
  O  O58  1  0.74865825  0.14629680  0.29996309  1
  O  O59  1  0.60064773  0.18434877  0.50099385  1
  O  O60  1  0.57129267  0.57061059  0.57612823  1
  O  O61  1  0.93605167  0.19494144  0.17647339  1
  O  O62  1  0.89140145  0.56984604  0.25709110  1
  O  O63  1  0.57378360  0.86243083  0.68941879  1
  O  O64  1  0.44065048  0.35412079  0.82456135  1
  O  O65  1  0.89190661  0.86040469  0.36070191  1
  O  O66  1  0.76744174  0.36051171  0.48164972  1
  O  O67  1  0.43752803  0.05725948  0.90541881  1
  O  O68  1  0.39570899  0.70574338  0.00105201  1
  O  O69  1  0.76320147  0.06655563  0.57864023  1
  O  O70  1  0.73451639  0.68958944  0.67299943  1
  O  O71  1  0.57528030  0.64450487  0.85924906  1
  O  O72  1  0.92349263  0.63059418  0.53165344  1
  O  O73  1  0.74757059  0.36996037  0.80611565  1
  O  O74  1  0.93387374  0.31039181  0.66145433  1
  O  O75  1  0.90460855  0.93232059  0.75529752  1
  O  O76  1  0.90439491  0.63947889  0.85215914  1
  O  O77  1  0.77098704  0.13361343  0.97405436  1
