# generated using pymatgen
data_Ca4Si2H2CO11
_symmetry_space_group_name_H-M   'P 1'
_cell_length_a   7.64931320
_cell_length_b   11.67050069
_cell_length_c   23.62572475
_cell_angle_alpha   90.00000000
_cell_angle_beta   90.00000000
_cell_angle_gamma   109.16759291
_symmetry_Int_Tables_number   1
_chemical_formula_structural   Ca4Si2H2CO11
_chemical_formula_sum   'Ca32 Si16 H16 C8 O88'
_cell_volume   1992.17574005
_cell_formula_units_Z   8
loop_
 _symmetry_equiv_pos_site_id
 _symmetry_equiv_pos_as_xyz
  1  'x, y, z'
loop_
 _atom_site_type_symbol
 _atom_site_label
 _atom_site_symmetry_multiplicity
 _atom_site_fract_x
 _atom_site_fract_y
 _atom_site_fract_z
 _atom_site_occupancy
  Ca  Ca0  1  0.65649931  0.05953822  0.30665558  1
  Ca  Ca1  1  0.34834246  0.44394828  0.80707911  1
  Ca  Ca2  1  0.68452988  0.62370176  0.45611649  1
  Ca  Ca3  1  0.15649931  0.55953822  0.19334442  1
  Ca  Ca4  1  0.80902720  0.37481219  0.54356523  1
  Ca  Ca5  1  0.43736532  0.62587307  0.04538726  1
  Ca  Ca6  1  0.02993770  0.80660376  0.80889131  1
  Ca  Ca7  1  0.56226779  0.87340092  0.54523357  1
  Ca  Ca8  1  0.97006230  0.19339624  0.19110869  1
  Ca  Ca9  1  0.31547012  0.37629824  0.54388351  1
  Ca  Ca10  1  0.43773221  0.12659908  0.45476643  1
  Ca  Ca11  1  0.52635554  0.80343746  0.80940675  1
  Ca  Ca12  1  0.30902720  0.87481219  0.95643477  1
  Ca  Ca13  1  0.06263468  0.87412693  0.54538726  1
  Ca  Ca14  1  0.18452988  0.12370176  0.04388351  1
  Ca  Ca15  1  0.47364446  0.19656254  0.19059325  1
  Ca  Ca16  1  0.93773221  0.62659908  0.04523357  1
  Ca  Ca17  1  0.84834246  0.94394828  0.69292089  1
  Ca  Ca18  1  0.19097280  0.62518781  0.45643477  1
  Ca  Ca19  1  0.84350069  0.44046178  0.80665558  1
  Ca  Ca20  1  0.81547012  0.87629824  0.95611649  1
  Ca  Ca21  1  0.02635554  0.30343746  0.69059325  1
  Ca  Ca22  1  0.06226779  0.37340092  0.95476643  1
  Ca  Ca23  1  0.56263468  0.37412693  0.95461274  1
  Ca  Ca24  1  0.15165754  0.05605172  0.30707911  1
  Ca  Ca25  1  0.47006230  0.69339624  0.30889131  1
  Ca  Ca26  1  0.93736532  0.12587307  0.45461274  1
  Ca  Ca27  1  0.69097280  0.12518781  0.04356523  1
  Ca  Ca28  1  0.97364446  0.69656254  0.30940675  1
  Ca  Ca29  1  0.34350069  0.94046178  0.69334442  1
  Ca  Ca30  1  0.65165754  0.55605172  0.19292089  1
  Ca  Ca31  1  0.52993770  0.30660376  0.69110869  1
  Si  Si32  1  0.77326580  0.87404566  0.08605809  1
  Si  Si33  1  0.85124075  0.37650954  0.41427130  1
  Si  Si34  1  0.22673420  0.12595434  0.91394191  1
  Si  Si35  1  0.72807095  0.12146547  0.78198118  1
  Si  Si36  1  0.14703740  0.12771953  0.78171416  1
  Si  Si37  1  0.27192905  0.87853453  0.21801882  1
  Si  Si38  1  0.64703740  0.62771953  0.71828584  1
  Si  Si39  1  0.85296260  0.87228047  0.21828584  1
  Si  Si40  1  0.14875925  0.62349046  0.58572870  1
  Si  Si41  1  0.27326580  0.37404566  0.41394191  1
  Si  Si42  1  0.77192905  0.37853453  0.28198118  1
  Si  Si43  1  0.35296260  0.37228047  0.28171416  1
  Si  Si44  1  0.22807095  0.62146547  0.71801882  1
  Si  Si45  1  0.35124075  0.87650954  0.08572870  1
  Si  Si46  1  0.72673420  0.62595434  0.58605809  1
  Si  Si47  1  0.64875925  0.12349046  0.91427130  1
  H  H48  1  0.14467812  0.03982882  0.14784664  1
  H  H49  1  0.15162337  0.54719368  0.34848782  1
  H  H50  1  0.64467812  0.53982882  0.35215336  1
  H  H51  1  0.34837663  0.95280632  0.84848782  1
  H  H52  1  0.65162337  0.04719368  0.15151218  1
  H  H53  1  0.47994018  0.20814747  0.34977171  1
  H  H54  1  0.02005982  0.29185253  0.84977171  1
  H  H55  1  0.84837663  0.45280632  0.65151218  1
  H  H56  1  0.52005982  0.79185253  0.65022829  1
  H  H57  1  0.35532188  0.46017118  0.64784664  1
  H  H58  1  0.97803449  0.20574993  0.34857619  1
  H  H59  1  0.52196551  0.29425007  0.84857619  1
  H  H60  1  0.97994018  0.70814747  0.15022829  1
  H  H61  1  0.85532188  0.96017118  0.85215336  1
  H  H62  1  0.02196551  0.79425007  0.65142381  1
  H  H63  1  0.47803449  0.70574993  0.15142381  1
  C  C64  1  0.93725149  0.62344596  0.91848284  1
  C  C65  1  0.06300990  0.87609181  0.42057611  1
  C  C66  1  0.93699010  0.12390819  0.57942389  1
  C  C67  1  0.56274851  0.87655404  0.41848284  1
  C  C68  1  0.56300990  0.37609181  0.07942389  1
  C  C69  1  0.06274851  0.37655404  0.08151716  1
  C  C70  1  0.43699010  0.62390819  0.92057611  1
  C  C71  1  0.43725149  0.12344596  0.58151716  1
  O  O72  1  0.48764850  0.72610597  0.94853578  1
  O  O73  1  0.56720882  0.87910141  0.64378865  1
  O  O74  1  0.43640211  0.62133483  0.86645502  1
  O  O75  1  0.51235150  0.27389403  0.05146422  1
  O  O76  1  0.24544467  0.62395558  0.64803811  1
  O  O77  1  0.28841886  0.75296056  0.24212471  1
  O  O78  1  0.71887149  0.74421362  0.24324687  1
  O  O79  1  0.83872744  0.99957465  0.24086784  1
  O  O80  1  0.36653590  0.36907062  0.35162647  1
  O  O81  1  0.80890157  0.87212817  0.85694310  1
  O  O82  1  0.63040627  0.00329952  0.95141793  1
  O  O83  1  0.78841886  0.25296056  0.25787529  1
  O  O84  1  0.93928571  0.62755267  0.60168639  1
  O  O85  1  0.13040627  0.50329952  0.54858207  1
  O  O86  1  0.16127256  0.00042535  0.75913216  1
  O  O87  1  0.43632977  0.12086109  0.63566175  1
  O  O88  1  0.06720882  0.37910141  0.85621135  1
  O  O89  1  0.93780876  0.11909542  0.35755102  1
  O  O90  1  0.21887149  0.24421362  0.25675313  1
  O  O91  1  0.86653590  0.86907062  0.14837353  1
  O  O92  1  0.19109843  0.12787183  0.14305690  1
  O  O93  1  0.40587055  0.00832308  0.24136284  1
  O  O94  1  0.56071429  0.87244733  0.10168639  1
  O  O95  1  0.74746693  0.25653445  0.45228616  1
  O  O96  1  0.93640211  0.12133483  0.63354498  1
  O  O97  1  0.28112851  0.25578638  0.75675313  1
  O  O98  1  0.11234026  0.47704406  0.05126969  1
  O  O99  1  0.75760020  0.75593263  0.04696067  1
  O  O100  1  0.62274741  0.50407437  0.55035669  1
  O  O101  1  0.37725259  0.49592563  0.44964331  1
  O  O102  1  0.56252531  0.37537200  0.25842713  1
  O  O103  1  0.51301881  0.77428443  0.44647042  1
  O  O104  1  0.24239980  0.24406737  0.95303933  1
  O  O105  1  0.98764850  0.22610597  0.55146422  1
  O  O106  1  0.06219124  0.88090458  0.64244898  1
  O  O107  1  0.75253307  0.24346555  0.95228616  1
  O  O108  1  0.61337770  0.47685443  0.04941429  1
  O  O109  1  0.43780876  0.61909542  0.14244898  1
  O  O110  1  0.24746693  0.75653445  0.04771384  1
  O  O111  1  0.90587055  0.50832308  0.25863716  1
  O  O112  1  0.38765974  0.02295594  0.55126969  1
  O  O113  1  0.30890157  0.37212817  0.64305690  1
  O  O114  1  0.68827207  0.13315799  0.14156933  1
  O  O115  1  0.48698119  0.22571557  0.55352958  1
  O  O116  1  0.87725259  0.99592563  0.05035669  1
  O  O117  1  0.69109843  0.62787183  0.35694310  1
  O  O118  1  0.01235150  0.77389403  0.44853578  1
  O  O119  1  0.71158114  0.24703944  0.75787529  1
  O  O120  1  0.88765974  0.52295594  0.94873031  1
  O  O121  1  0.88662230  0.02314557  0.54941429  1
  O  O122  1  0.38662230  0.52314557  0.95058571  1
  O  O123  1  0.25455533  0.87604442  0.14803811  1
  O  O124  1  0.93279118  0.62089859  0.14378865  1
  O  O125  1  0.33872744  0.49957465  0.25913216  1
  O  O126  1  0.25760020  0.25593263  0.45303933  1
  O  O127  1  0.18827207  0.63315799  0.35843067  1
  O  O128  1  0.06071429  0.37244733  0.39831361  1
  O  O129  1  0.56359789  0.37866517  0.13354498  1
  O  O130  1  0.43747469  0.62462800  0.74157287  1
  O  O131  1  0.13346410  0.13092938  0.85162647  1
  O  O132  1  0.66127256  0.50042535  0.74086784  1
  O  O133  1  0.93747469  0.12462800  0.75842713  1
  O  O134  1  0.56219124  0.38090458  0.85755102  1
  O  O135  1  0.11337770  0.97685443  0.45058571  1
  O  O136  1  0.25253307  0.74346555  0.54771384  1
  O  O137  1  0.75455533  0.37604442  0.35196189  1
  O  O138  1  0.09412945  0.49167692  0.74136284  1
  O  O139  1  0.21158114  0.74703944  0.74212471  1
  O  O140  1  0.86959373  0.49670048  0.45141793  1
  O  O141  1  0.31172793  0.86684201  0.85843067  1
  O  O142  1  0.01301881  0.27428443  0.05352958  1
  O  O143  1  0.74239980  0.74406737  0.54696067  1
  O  O144  1  0.12274741  0.00407437  0.94964331  1
  O  O145  1  0.59412945  0.99167692  0.75863716  1
  O  O146  1  0.43928571  0.12755267  0.89831361  1
  O  O147  1  0.98698119  0.72571557  0.94647042  1
  O  O148  1  0.06252531  0.87537200  0.24157287  1
  O  O149  1  0.43279118  0.12089859  0.35621135  1
  O  O150  1  0.63346410  0.63092938  0.64837353  1
  O  O151  1  0.93632977  0.62086109  0.86433825  1
  O  O152  1  0.74544467  0.12395558  0.85196189  1
  O  O153  1  0.56367023  0.87913891  0.36433825  1
  O  O154  1  0.81172793  0.36684201  0.64156933  1
  O  O155  1  0.36959373  0.99670048  0.04858207  1
  O  O156  1  0.06359789  0.87866517  0.36645502  1
  O  O157  1  0.61234026  0.97704406  0.44873031  1
  O  O158  1  0.78112851  0.75578638  0.74324687  1
  O  O159  1  0.06367023  0.37913891  0.13566175  1
