# generated using pymatgen
data_Ba2Ho(CuO2)3
_symmetry_space_group_name_H-M   'P 1'
_cell_length_a   3.88097149
_cell_length_b   3.88097190
_cell_length_c   12.12715323
_cell_angle_alpha   89.99995123
_cell_angle_beta   90.00025136
_cell_angle_gamma   90.00019694
_symmetry_Int_Tables_number   1
_chemical_formula_structural   Ba2Ho(CuO2)3
_chemical_formula_sum   'Ba2 Ho1 Cu3 O6'
_cell_volume   182.65847005
_cell_formula_units_Z   1
loop_
 _symmetry_equiv_pos_site_id
 _symmetry_equiv_pos_as_xyz
  1  'x, y, z'
loop_
 _atom_site_type_symbol
 _atom_site_label
 _atom_site_symmetry_multiplicity
 _atom_site_fract_x
 _atom_site_fract_y
 _atom_site_fract_z
 _atom_site_occupancy
  Ba  Ba0  1  0.49996969  0.49996384  0.80382838  1
  Ba  Ba1  1  0.49999816  0.50003072  0.19618965  1
  Ho  Ho2  1  0.50000239  0.49999272  0.50000515  1
  Cu  Cu3  1  -0.00000694  0.00001422  0.36609127  1
  Cu  Cu4  1  0.00001324  0.00000343  0.63388535  1
  Cu  Cu5  1  0.00001787  0.00000022  -0.00005272  1
  O  O6  1  0.50000625  0.00000073  0.38082772  1
  O  O7  1  0.99999737  0.00000851  0.14946871  1
  O  O8  1  0.49999653  0.99999733  0.61916818  1
  O  O9  1  -0.00000169  0.49999890  0.61917334  1
  O  O10  1  0.00000776  0.49999762  0.38082734  1
  O  O11  1  -0.00000061  -0.00000824  0.85058764  1
