# generated using pymatgen
data_MgV4(CuO4)3
_symmetry_space_group_name_H-M   'P 1'
_cell_length_a   6.37437601
_cell_length_b   6.36864574
_cell_length_c   6.38275469
_cell_angle_alpha   109.00342233
_cell_angle_beta   109.64950608
_cell_angle_gamma   109.73180731
_symmetry_Int_Tables_number   1
_chemical_formula_structural   MgV4(CuO4)3
_chemical_formula_sum   'Mg1 V4 Cu3 O12'
_cell_volume   199.53092283
_cell_formula_units_Z   1
loop_
 _symmetry_equiv_pos_site_id
 _symmetry_equiv_pos_as_xyz
  1  'x, y, z'
loop_
 _atom_site_type_symbol
 _atom_site_label
 _atom_site_symmetry_multiplicity
 _atom_site_fract_x
 _atom_site_fract_y
 _atom_site_fract_z
 _atom_site_occupancy
  Mg  Mg0  1  0.00000659  0.00000498  0.00000651  1
  V  V1  1  0.00000555  0.00000722  0.50000129  1
  V  V2  1  0.00000096  0.50000257  0.00000303  1
  V  V3  1  0.49999014  0.49999381  0.49999225  1
  V  V4  1  0.50000087  0.00000328  0.00000458  1
  Cu  Cu5  1  0.49999326  0.49999564  0.99999607  1
  Cu  Cu6  1  0.00000378  0.49999463  0.49999844  1
  Cu  Cu7  1  0.50000036  0.00001765  0.50000902  1
  O  O8  1  0.82553931  0.30072458  0.12637894  1
  O  O9  1  0.17446553  0.69926919  0.87362158  1
  O  O10  1  0.82186059  0.70138853  0.52355827  1
  O  O11  1  0.29386171  0.47385618  0.17124281  1
  O  O12  1  0.47952247  0.18060632  0.30407432  1
  O  O13  1  0.12441830  0.82574207  0.30468159  1
  O  O14  1  0.69620803  0.87602659  0.17228169  1
  O  O15  1  0.52047735  0.81939696  0.69591917  1
  O  O16  1  0.17814842  0.29860443  0.47644487  1
  O  O17  1  0.70613427  0.52614251  0.82875621  1
  O  O18  1  0.87557858  0.17425897  0.69531552  1
  O  O19  1  0.30378291  0.12396388  0.82771585  1
