# generated using pymatgen
data_RhSe2Cl7
_symmetry_space_group_name_H-M   'P 1'
_cell_length_a   8.21869397
_cell_length_b   12.37903815
_cell_length_c   14.34457593
_cell_angle_alpha   90.00000000
_cell_angle_beta   90.00000000
_cell_angle_gamma   96.41230079
_symmetry_Int_Tables_number   1
_chemical_formula_structural   RhSe2Cl7
_chemical_formula_sum   'Rh4 Se8 Cl28'
_cell_volume   1450.28023603
_cell_formula_units_Z   4
loop_
 _symmetry_equiv_pos_site_id
 _symmetry_equiv_pos_as_xyz
  1  'x, y, z'
loop_
 _atom_site_type_symbol
 _atom_site_label
 _atom_site_symmetry_multiplicity
 _atom_site_fract_x
 _atom_site_fract_y
 _atom_site_fract_z
 _atom_site_occupancy
  Rh  Rh0  1  0.04293723  0.60029801  0.40711467  1
  Rh  Rh1  1  0.95706277  0.89970199  0.90711467  1
  Rh  Rh2  1  0.04293723  0.10029801  0.09288533  1
  Rh  Rh3  1  0.95706277  0.39970199  0.59288533  1
  Se  Se4  1  0.22622302  0.84699343  0.92904283  1
  Se  Se5  1  0.77377698  0.15300657  0.07095717  1
  Se  Se6  1  0.77474982  0.74350519  0.86142771  1
  Se  Se7  1  0.22622302  0.34699343  0.57095717  1
  Se  Se8  1  0.22525018  0.25649481  0.13857229  1
  Se  Se9  1  0.77474982  0.24350519  0.63857229  1
  Se  Se10  1  0.77377698  0.65300657  0.42904283  1
  Se  Se11  1  0.22525018  0.75649481  0.36142771  1
  Cl  Cl12  1  0.03173749  0.11898315  0.25658911  1
  Cl  Cl13  1  0.90649117  0.10608024  0.67906976  1
  Cl  Cl14  1  0.33474684  0.33182220  0.01000549  1
  Cl  Cl15  1  0.69262003  0.72560735  0.29947570  1
  Cl  Cl16  1  0.19828863  0.69993650  0.01487234  1
  Cl  Cl17  1  0.96826251  0.38101685  0.75658911  1
  Cl  Cl18  1  0.07840675  0.08941153  0.92651866  1
  Cl  Cl19  1  0.03173749  0.61898315  0.24341089  1
  Cl  Cl20  1  0.92159325  0.41058847  0.42651866  1
  Cl  Cl21  1  0.09350883  0.89391976  0.32093024  1
  Cl  Cl22  1  0.90649117  0.60608024  0.82093024  1
  Cl  Cl23  1  0.30737997  0.77439265  0.79947570  1
  Cl  Cl24  1  0.31002123  0.04057237  0.10674883  1
  Cl  Cl25  1  0.31002123  0.54057237  0.39325117  1
  Cl  Cl26  1  0.80171137  0.80006350  0.51487234  1
  Cl  Cl27  1  0.96826251  0.88101685  0.74341089  1
  Cl  Cl28  1  0.92159325  0.91058847  0.07348134  1
  Cl  Cl29  1  0.80171137  0.30006350  0.98512766  1
  Cl  Cl30  1  0.68997877  0.95942763  0.89325117  1
  Cl  Cl31  1  0.66525316  0.16817780  0.51000549  1
  Cl  Cl32  1  0.68997877  0.45942763  0.60674883  1
  Cl  Cl33  1  0.69262003  0.22560735  0.20052430  1
  Cl  Cl34  1  0.19828863  0.19993650  0.48512766  1
  Cl  Cl35  1  0.66525316  0.66817780  0.98999451  1
  Cl  Cl36  1  0.09350883  0.39391976  0.17906976  1
  Cl  Cl37  1  0.07840675  0.58941153  0.57348134  1
  Cl  Cl38  1  0.33474684  0.83182220  0.48999451  1
  Cl  Cl39  1  0.30737997  0.27439265  0.70052430  1
