# generated using pymatgen
data_As2Pb2S5
_symmetry_space_group_name_H-M   'P 1'
_cell_length_a   8.21752250
_cell_length_b   8.47963201
_cell_length_c   26.23510925
_cell_angle_alpha   90.00000000
_cell_angle_beta   90.00000000
_cell_angle_gamma   89.95291585
_symmetry_Int_Tables_number   1
_chemical_formula_structural   As2Pb2S5
_chemical_formula_sum   'As16 Pb16 S40'
_cell_volume   1828.10290153
_cell_formula_units_Z   8
loop_
 _symmetry_equiv_pos_site_id
 _symmetry_equiv_pos_as_xyz
  1  'x, y, z'
loop_
 _atom_site_type_symbol
 _atom_site_label
 _atom_site_symmetry_multiplicity
 _atom_site_fract_x
 _atom_site_fract_y
 _atom_site_fract_z
 _atom_site_occupancy
  As  As0  1  0.44114231  0.55785445  0.54802554  1
  As  As1  1  0.72025978  0.36377612  0.65420083  1
  As  As2  1  0.56123289  0.88589463  0.03967834  1
  As  As3  1  0.10777199  0.62652176  0.63514950  1
  As  As4  1  0.43876711  0.11410537  0.53967834  1
  As  As5  1  0.94323258  0.17497201  0.35934484  1
  As  As6  1  0.55885769  0.44214555  0.04802554  1
  As  As7  1  0.89222801  0.37347824  0.13514950  1
  As  As8  1  0.11325277  0.03996305  0.64560921  1
  As  As9  1  0.27974022  0.63622388  0.15420083  1
  As  As10  1  0.88674723  0.96003695  0.14560921  1
  As  As11  1  0.94046235  0.63044086  0.36536094  1
  As  As12  1  0.05676742  0.82502799  0.85934484  1
  As  As13  1  0.36849414  0.88794661  0.76904879  1
  As  As14  1  0.05953765  0.36955914  0.86536094  1
  As  As15  1  0.63150586  0.11205339  0.26904879  1
  Pb  Pb16  1  0.53133902  0.37792699  0.40573426  1
  Pb  Pb17  1  0.78499237  0.60023458  0.77083932  1
  Pb  Pb18  1  0.96436526  0.63974584  0.00372904  1
  Pb  Pb19  1  0.21500763  0.39976542  0.27083932  1
  Pb  Pb20  1  0.46866098  0.62207301  0.90573426  1
  Pb  Pb21  1  0.19724013  0.87379313  0.27504123  1
  Pb  Pb22  1  0.03936640  0.86524979  0.50227319  1
  Pb  Pb23  1  0.53815475  0.87088030  0.40122698  1
  Pb  Pb24  1  0.35434307  0.34994652  0.74405807  1
  Pb  Pb25  1  0.64565693  0.65005348  0.24405807  1
  Pb  Pb26  1  0.96063360  0.13475021  0.00227319  1
  Pb  Pb27  1  0.69281136  0.86089833  0.62415854  1
  Pb  Pb28  1  0.03563474  0.36025416  0.50372904  1
  Pb  Pb29  1  0.80275987  0.12620687  0.77504123  1
  Pb  Pb30  1  0.46184525  0.12911970  0.90122698  1
  Pb  Pb31  1  0.30718864  0.13910167  0.12415854  1
  S  S32  1  0.40664763  0.65829611  0.01705349  1
  S  S33  1  0.60446549  0.92257316  0.51350899  1
  S  S34  1  0.03835746  0.11792597  0.19747580  1
  S  S35  1  0.09082017  0.39953345  0.38893253  1
  S  S36  1  0.89598308  0.17825317  0.89095882  1
  S  S37  1  0.94758310  0.36572557  0.70444634  1
  S  S38  1  0.10401692  0.82174683  0.39095882  1
  S  S39  1  0.26234298  0.11783767  0.47214077  1
  S  S40  1  0.74063382  0.16185781  0.09946423  1
  S  S41  1  0.42673648  0.42137886  0.18774148  1
  S  S42  1  0.10468936  0.37851313  0.08028417  1
  S  S43  1  0.58704034  0.37502932  0.81752130  1
  S  S44  1  0.07224144  0.90086858  0.08494628  1
  S  S45  1  0.77091444  0.32495172  0.30747739  1
  S  S46  1  0.92775856  0.09913142  0.58494628  1
  S  S47  1  0.71553243  0.39702242  0.97888753  1
  S  S48  1  0.59831445  0.87354340  0.81758178  1
  S  S49  1  0.25837005  0.41354874  0.59642676  1
  S  S50  1  0.75868097  0.62543517  0.43171364  1
  S  S51  1  0.96164254  0.88207403  0.69747580  1
  S  S52  1  0.42775646  0.84612622  0.19176263  1
  S  S53  1  0.41295966  0.62497068  0.31752130  1
  S  S54  1  0.25936618  0.83814219  0.59946423  1
  S  S55  1  0.23816155  0.08993404  0.80813113  1
  S  S56  1  0.57326352  0.57862114  0.68774148  1
  S  S57  1  0.90917983  0.60046655  0.88893253  1
  S  S58  1  0.21859065  0.86307458  0.92706632  1
  S  S59  1  0.78140935  0.13692542  0.42706632  1
  S  S60  1  0.05241690  0.63427443  0.20444634  1
  S  S61  1  0.89531064  0.62148687  0.58028417  1
  S  S62  1  0.40168555  0.12645660  0.31758178  1
  S  S63  1  0.22908556  0.67504828  0.80747739  1
  S  S64  1  0.59335237  0.34170389  0.51705349  1
  S  S65  1  0.57224354  0.15387378  0.69176263  1
  S  S66  1  0.24131903  0.37456483  0.93171364  1
  S  S67  1  0.73765702  0.88216233  0.97214077  1
  S  S68  1  0.28446757  0.60297758  0.47888753  1
  S  S69  1  0.74162995  0.58645126  0.09642676  1
  S  S70  1  0.76183845  0.91006596  0.30813113  1
  S  S71  1  0.39553451  0.07742684  0.01350899  1
