# generated using pymatgen
data_Zr7Ni10
_symmetry_space_group_name_H-M   'P 1'
_cell_length_a   7.71230169
_cell_length_b   7.71230226
_cell_length_c   9.23371058
_cell_angle_alpha   90.00000000
_cell_angle_beta   90.00000000
_cell_angle_gamma   107.00728847
_symmetry_Int_Tables_number   1
_chemical_formula_structural   Zr7Ni10
_chemical_formula_sum   'Zr14 Ni20'
_cell_volume   525.19880765
_cell_formula_units_Z   2
loop_
 _symmetry_equiv_pos_site_id
 _symmetry_equiv_pos_as_xyz
  1  'x, y, z'
loop_
 _atom_site_type_symbol
 _atom_site_label
 _atom_site_symmetry_multiplicity
 _atom_site_fract_x
 _atom_site_fract_y
 _atom_site_fract_z
 _atom_site_occupancy
  Zr  Zr0  1  0.25539999  0.74460001  0.00000000  1
  Zr  Zr1  1  0.75539999  0.24460001  0.50000000  1
  Zr  Zr2  1  0.75798532  0.86694179  0.68754718  1
  Zr  Zr3  1  0.13305821  0.24201468  0.31245282  1
  Zr  Zr4  1  0.63836333  0.36163667  0.00000000  1
  Zr  Zr5  1  0.94718434  0.55611348  0.75070587  1
  Zr  Zr6  1  0.94388652  0.55281566  0.25070587  1
  Zr  Zr7  1  0.25798532  0.36694179  0.81245282  1
  Zr  Zr8  1  0.94502862  0.05497138  0.00000000  1
  Zr  Zr9  1  0.44388652  0.05281566  0.24929413  1
  Zr  Zr10  1  0.13836333  0.86163667  0.50000000  1
  Zr  Zr11  1  0.44718434  0.05611348  0.74929413  1
  Zr  Zr12  1  0.63305821  0.74201468  0.18754718  1
  Zr  Zr13  1  0.44502862  0.55497138  0.50000000  1
  Ni  Ni14  1  0.33974496  0.44836871  0.10557557  1
  Ni  Ni15  1  0.79458502  0.19339458  0.20712589  1
  Ni  Ni16  1  0.79794030  0.61456421  0.49331490  1
  Ni  Ni17  1  0.80660542  0.20541498  0.79287411  1
  Ni  Ni18  1  0.58499797  0.39878947  0.29162111  1
  Ni  Ni19  1  0.29458502  0.69339458  0.29287411  1
  Ni  Ni20  1  0.05163129  0.16025504  0.60557557  1
  Ni  Ni21  1  0.59060815  0.98936576  0.99163572  1
  Ni  Ni22  1  0.10121053  0.91500203  0.79162111  1
  Ni  Ni23  1  0.30660542  0.70541498  0.70712589  1
  Ni  Ni24  1  0.88543579  0.70205970  0.99331490  1
  Ni  Ni25  1  0.29794030  0.11456421  0.00668510  1
  Ni  Ni26  1  0.09060815  0.48936576  0.50836428  1
  Ni  Ni27  1  0.38543579  0.20205970  0.50668510  1
  Ni  Ni28  1  0.55163129  0.66025504  0.89442443  1
  Ni  Ni29  1  0.83974496  0.94836871  0.39442443  1
  Ni  Ni30  1  0.01063424  0.40939185  0.00836428  1
  Ni  Ni31  1  0.51063424  0.90939185  0.49163572  1
  Ni  Ni32  1  0.60121053  0.41500203  0.70837889  1
  Ni  Ni33  1  0.08499797  0.89878947  0.20837889  1
