# generated using pymatgen
data_H5NO
_symmetry_space_group_name_H-M   'P 1'
_cell_length_a   4.90212126
_cell_length_b   6.00244729
_cell_length_c   8.76703389
_cell_angle_alpha   90.00000000
_cell_angle_beta   90.00000000
_cell_angle_gamma   90.00000000
_symmetry_Int_Tables_number   1
_chemical_formula_structural   H5NO
_chemical_formula_sum   'H20 N4 O4'
_cell_volume   257.96755665
_cell_formula_units_Z   4
loop_
 _symmetry_equiv_pos_site_id
 _symmetry_equiv_pos_as_xyz
  1  'x, y, z'
loop_
 _atom_site_type_symbol
 _atom_site_label
 _atom_site_symmetry_multiplicity
 _atom_site_fract_x
 _atom_site_fract_y
 _atom_site_fract_z
 _atom_site_occupancy
  H  H0  1  0.87414489  0.70952540  0.49610214  1
  H  H1  1  0.74245235  0.69899275  0.33078210  1
  H  H2  1  0.41920040  0.40480123  0.37121640  1
  H  H3  1  0.74209330  0.31271345  0.57097986  1
  H  H4  1  0.08466470  0.41224163  0.36689112  1
  H  H5  1  0.62585511  0.29047460  0.99610214  1
  H  H6  1  0.41533530  0.58775837  0.86689112  1
  H  H7  1  0.75790670  0.68728655  0.07097986  1
  H  H8  1  0.08079960  0.59519877  0.87121640  1
  H  H9  1  0.75754765  0.30100725  0.83078210  1
  H  H10  1  0.37414489  0.79047460  0.50389786  1
  H  H11  1  0.24245235  0.80100725  0.66921790  1
  H  H12  1  0.91920040  0.09519877  0.62878360  1
  H  H13  1  0.24209330  0.18728655  0.42902014  1
  H  H14  1  0.58466470  0.08775837  0.63310888  1
  H  H15  1  0.12585511  0.20952540  0.00389786  1
  H  H16  1  0.25754765  0.19899275  0.16921790  1
  H  H17  1  0.58079960  0.90480123  0.12878360  1
  H  H18  1  0.91533530  0.91224163  0.13310888  1
  H  H19  1  0.25790670  0.81271345  0.92902014  1
  N  N20  1  0.75029741  0.81069516  0.15175209  1
  N  N21  1  0.74970259  0.18930484  0.65175209  1
  N  N22  1  0.25029741  0.68930484  0.84824791  1
  N  N23  1  0.24970259  0.31069516  0.34824791  1
  O  O24  1  0.72580716  0.63533597  0.43877919  1
  O  O25  1  0.77419284  0.36466403  0.93877919  1
  O  O26  1  0.22580716  0.86466403  0.56122081  1
  O  O27  1  0.27419284  0.13533597  0.06122081  1
