# generated using pymatgen
data_CaCr4O6
_symmetry_space_group_name_H-M   'P 1'
_cell_length_a   3.10440088
_cell_length_b   5.40260348
_cell_length_c   15.14440243
_cell_angle_alpha   90.00000000
_cell_angle_beta   90.00000000
_cell_angle_gamma   106.69673921
_symmetry_Int_Tables_number   1
_chemical_formula_structural   CaCr4O6
_chemical_formula_sum   'Ca2 Cr8 O12'
_cell_volume   243.29068450
_cell_formula_units_Z   2
loop_
 _symmetry_equiv_pos_site_id
 _symmetry_equiv_pos_as_xyz
  1  'x, y, z'
loop_
 _atom_site_type_symbol
 _atom_site_label
 _atom_site_symmetry_multiplicity
 _atom_site_fract_x
 _atom_site_fract_y
 _atom_site_fract_z
 _atom_site_occupancy
  Ca  Ca0  1  0.66317305  0.32634809  0.75000000  1
  Ca  Ca1  1  0.33682695  0.67365191  0.25000000  1
  Cr  Cr2  1  0.86313849  0.72627999  0.04325150  1
  Cr  Cr3  1  0.41057516  0.82114833  0.63306757  1
  Cr  Cr4  1  0.13685951  0.27371901  0.95674850  1
  Cr  Cr5  1  0.58942484  0.17885167  0.36693343  1
  Cr  Cr6  1  0.86313849  0.72627999  0.45674850  1
  Cr  Cr7  1  0.13685951  0.27371901  0.54325150  1
  Cr  Cr8  1  0.58942484  0.17885167  0.13306657  1
  Cr  Cr9  1  0.41057516  0.82114833  0.86693243  1
  O  O10  1  0.49999900  -0.00000000  0.50000000  1
  O  O11  1  0.49999900  -0.00000000  0.00000000  1
  O  O12  1  0.03703578  0.07407055  0.84302415  1
  O  O13  1  0.96296422  0.92592945  0.15697685  1
  O  O14  1  0.96296422  0.92592945  0.34302315  1
  O  O15  1  0.03703578  0.07407055  0.65697685  1
  O  O16  1  0.78869708  0.57739515  0.91440270  1
  O  O17  1  0.21130192  0.42260585  0.08559730  1
  O  O18  1  0.21130192  0.42260585  0.41440270  1
  O  O19  1  0.78869708  0.57739515  0.58559730  1
  O  O20  1  0.32605017  0.65210033  0.75000000  1
  O  O21  1  0.67394783  0.34789867  0.25000000  1
