# generated using pymatgen
data_Na2Y2B2O7
_symmetry_space_group_name_H-M   'P 1'
_cell_length_a   6.29598886
_cell_length_b   10.35698130
_cell_length_c   10.67899636
_cell_angle_alpha   117.74053811
_cell_angle_beta   90.00000000
_cell_angle_gamma   90.00000000
_symmetry_Int_Tables_number   1
_chemical_formula_structural   Na2Y2B2O7
_chemical_formula_sum   'Na8 Y8 B8 O28'
_cell_volume   616.31467934
_cell_formula_units_Z   4
loop_
 _symmetry_equiv_pos_site_id
 _symmetry_equiv_pos_as_xyz
  1  'x, y, z'
loop_
 _atom_site_type_symbol
 _atom_site_label
 _atom_site_symmetry_multiplicity
 _atom_site_fract_x
 _atom_site_fract_y
 _atom_site_fract_z
 _atom_site_occupancy
  B  B0  1  0.84679434  0.64834257  0.20760748  1
  B  B1  1  0.34679434  0.85165743  0.79239252  1
  B  B2  1  0.15320566  0.35165743  0.79239252  1
  B  B3  1  0.65320566  0.14834257  0.20760748  1
  B  B4  1  0.24697804  0.41884349  0.31493597  1
  B  B5  1  0.74697804  0.08115651  0.68506403  1
  B  B6  1  0.75302196  0.58115651  0.68506403  1
  B  B7  1  0.25302196  0.91884349  0.31493597  1
  O  O8  1  0.35188147  0.83507787  0.36686758  1
  O  O9  1  0.85188147  0.66492213  0.63313242  1
  O  O10  1  0.64811853  0.16492213  0.63313242  1
  O  O11  1  0.14811853  0.33507787  0.36686758  1
  O  O12  1  0.24378705  0.77064511  0.84946756  1
  O  O13  1  0.74378705  0.72935489  0.15053244  1
  O  O14  1  0.75621295  0.22935489  0.15053244  1
  O  O15  1  0.25621295  0.27064511  0.84946756  1
  O  O16  1  0.12396565  0.09774992  0.97489770  1
  O  O17  1  0.62396565  0.40225008  0.02510230  1
  O  O18  1  0.87603435  0.90225008  0.02510230  1
  O  O19  1  0.37603435  0.59774992  0.97489770  1
  O  O20  1  0.74709228  0.13309443  0.31517571  1
  O  O21  1  0.24709228  0.36690557  0.68482429  1
  O  O22  1  0.25290772  0.86690557  0.68482429  1
  O  O23  1  0.75290772  0.63309443  0.31517571  1
  O  O24  1  0.26305001  0.36749292  0.16671515  1
  O  O25  1  0.76305001  0.13250708  0.83328485  1
  O  O26  1  0.73694999  0.63250708  0.83328485  1
  O  O27  1  0.23694999  0.86749292  0.16671515  1
  O  O28  1  0.45842419  0.08636876  0.14876776  1
  O  O29  1  0.95842419  0.41363124  0.85123224  1
  O  O30  1  0.54157581  0.91363124  0.85123224  1
  O  O31  1  0.04157581  0.58636876  0.14876776  1
  O  O32  1  0.16851893  0.05533090  0.39772155  1
  O  O33  1  0.66851893  0.44466910  0.60227845  1
  O  O34  1  0.83148107  0.94466910  0.60227845  1
  O  O35  1  0.33148107  0.55533090  0.39772155  1
  Na  Na36  1  0.23023354  0.54886203  0.61138016  1
  Na  Na37  1  0.73023354  0.95113797  0.38861984  1
  Na  Na38  1  0.76976646  0.45113797  0.38861984  1
  Na  Na39  1  0.26976646  0.04886203  0.61138016  1
  Na  Na40  1  0.55713006  0.76021519  0.52354329  1
  Na  Na41  1  0.05713006  0.73978481  0.47645671  1
  Na  Na42  1  0.44286994  0.23978481  0.47645671  1
  Na  Na43  1  0.94286994  0.26021519  0.52354329  1
  Y  Y44  1  0.04091827  0.68282173  0.98458705  1
  Y  Y45  1  0.54091827  0.81717827  0.01541295  1
  Y  Y46  1  0.95908173  0.31717827  0.01541295  1
  Y  Y47  1  0.45908173  0.18282173  0.98458705  1
  Y  Y48  1  0.41796945  0.58576572  0.18278163  1
  Y  Y49  1  0.91796945  0.91423428  0.81721837  1
  Y  Y50  1  0.58203055  0.41423428  0.81721837  1
  Y  Y51  1  0.08203055  0.08576572  0.18278163  1
