# generated using pymatgen
data_P2W9O31
_symmetry_space_group_name_H-M   'P 1'
_cell_length_a   5.39694711
_cell_length_b   6.67699516
_cell_length_c   33.48074379
_cell_angle_alpha   90.00571672
_cell_angle_beta   90.16454265
_cell_angle_gamma   89.91755030
_symmetry_Int_Tables_number   1
_chemical_formula_structural   P2W9O31
_chemical_formula_sum   'P4 W18 O62'
_cell_volume   1206.48542025
_cell_formula_units_Z   2
loop_
 _symmetry_equiv_pos_site_id
 _symmetry_equiv_pos_as_xyz
  1  'x, y, z'
loop_
 _atom_site_type_symbol
 _atom_site_label
 _atom_site_symmetry_multiplicity
 _atom_site_fract_x
 _atom_site_fract_y
 _atom_site_fract_z
 _atom_site_occupancy
  P  P0  1  0.01739922  0.86780814  0.71677581  1
  P  P1  1  0.49554115  0.36309087  0.78347556  1
  P  P2  1  0.50445885  0.63690913  0.21652444  1
  P  P3  1  0.98260078  0.13219186  0.28322419  1
  W  W4  1  0.99754185  0.82937046  0.45383624  1
  W  W5  1  0.49962343  0.67077650  0.95407536  1
  W  W6  1  0.50163340  0.84036271  0.59208287  1
  W  W7  1  0.00245815  0.17062954  0.54616376  1
  W  W8  1  0.49836660  0.15963729  0.40791713  1
  W  W9  1  0.00320787  0.34072739  0.90808455  1
  W  W10  1  0.49864694  0.00916638  0.86079278  1
  W  W11  1  0.50700283  0.17317933  0.68577037  1
  W  W12  1  0.99710461  0.32947880  0.18569094  1
  W  W13  1  0.99679213  0.65927261  0.09191545  1
  W  W14  1  0.99203492  0.48897666  0.36060802  1
  W  W15  1  0.50000000  0.50000000  0.50000000  1
  W  W16  1  0.49299717  0.82682067  0.31422963  1
  W  W17  1  0.00796508  0.51102334  0.63939198  1
  W  W18  1  0.50135306  0.99083362  0.13920722  1
  W  W19  1  0.00289539  0.67052120  0.81430906  1
  W  W20  1  0.00000000  0.00000000  0.00000000  1
  W  W21  1  0.50037657  0.32922350  0.04592464  1
  O  O22  1  0.49115065  0.99063561  0.35894257  1
  O  O23  1  0.49791594  0.16294899  0.09524777  1
  O  O24  1  0.72060864  0.19141685  0.88410079  1
  O  O25  1  0.51243613  0.30470784  0.73904216  1
  O  O26  1  0.19630796  0.98662710  0.29254121  1
  O  O27  1  0.23169507  0.32112446  0.66952607  1
  O  O28  1  0.21463735  0.64158487  0.47912620  1
  O  O29  1  0.00049196  0.83167092  0.04731946  1
  O  O30  1  0.21922989  0.15001803  0.87853213  1
  O  O31  1  0.27459332  0.82118495  0.83081902  1
  O  O32  1  0.78536265  0.35841513  0.52087380  1
  O  O33  1  0.28817643  0.47880723  0.92609309  1
  O  O34  1  0.49918280  0.32897286  0.45301892  1
  O  O35  1  0.99950804  0.16832908  0.95268054  1
  O  O36  1  0.00554008  0.33737468  0.59568557  1
  O  O37  1  0.27311453  0.96788091  0.71205475  1
  O  O38  1  0.71444092  0.85808347  0.97972911  1
  O  O39  1  0.72540668  0.17881505  0.16918098  1
  O  O40  1  0.27051538  0.64067474  0.33544494  1
  O  O41  1  0.00321343  0.50690343  0.85913442  1
  O  O42  1  0.75278837  0.52696738  0.21079442  1
  O  O43  1  0.72688547  0.03211909  0.28794525  1
  O  O44  1  0.28564445  0.31304642  0.52732376  1
  O  O45  1  0.99106207  0.80195244  0.76082468  1
  O  O46  1  0.78734989  0.69159481  0.61506927  1
  O  O47  1  0.78333886  0.01995039  0.42570564  1
  O  O48  1  0.50208406  0.83705101  0.90475223  1
  O  O49  1  0.70932960  0.34911465  0.37781432  1
  O  O50  1  0.50252306  0.17099451  0.80893955  1
  O  O51  1  0.48756387  0.69529216  0.26095784  1
  O  O52  1  0.21385407  0.47415697  0.06735802  1
  O  O53  1  0.28207700  0.50105912  0.20704394  1
  O  O54  1  0.22443847  0.14807138  0.16430614  1
  O  O55  1  0.27939136  0.80858315  0.11589921  1
  O  O56  1  0.71792300  0.49894088  0.79295606  1
  O  O57  1  0.21265011  0.30840519  0.38493073  1
  O  O58  1  0.21431593  0.81117363  0.97289561  1
  O  O59  1  0.00014314  0.67994865  0.69012980  1
  O  O60  1  0.72948462  0.35932526  0.66455506  1
  O  O61  1  0.71182357  0.52119277  0.07390691  1
  O  O62  1  0.21666114  0.98004961  0.57429436  1
  O  O63  1  0.00893793  0.19804756  0.23917532  1
  O  O64  1  0.76830493  0.67887554  0.33047393  1
  O  O65  1  0.50884935  0.00936439  0.64105743  1
  O  O66  1  0.24721163  0.47303262  0.78920558  1
  O  O67  1  0.78614593  0.52584303  0.93264198  1
  O  O68  1  0.71884857  0.02574782  0.56764020  1
  O  O69  1  0.28115143  0.97425218  0.43235980  1
  O  O70  1  0.77556153  0.85192862  0.83569386  1
  O  O71  1  -0.00014314  0.32005135  0.30987020  1
  O  O72  1  0.80369204  0.01337290  0.70745879  1
  O  O73  1  0.29067040  0.65088535  0.62218568  1
  O  O74  1  0.78568407  0.18882637  0.02710439  1
  O  O75  1  0.99678657  0.49309657  0.14086558  1
  O  O76  1  0.28555908  0.14191653  0.02027089  1
  O  O77  1  0.49747694  0.82900549  0.19106045  1
  O  O78  1  0.50081720  0.67102714  0.54698108  1
  O  O79  1  0.78077011  0.84998197  0.12146787  1
  O  O80  1  0.00000000  0.00000000  0.50000000  1
  O  O81  1  0.71435555  0.68695358  0.47267624  1
  O  O82  1  0.50000000  0.50000000  0.00000000  1
  O  O83  1  0.99445992  0.66262532  0.40431443  1
