# generated using pymatgen
data_K2Cd2(SO4)3
_symmetry_space_group_name_H-M   'P 1'
_cell_length_a   10.48117945
_cell_length_b   10.48117945
_cell_length_c   10.48117945
_cell_angle_alpha   90.00000000
_cell_angle_beta   90.00000000
_cell_angle_gamma   90.00000000
_symmetry_Int_Tables_number   1
_chemical_formula_structural   K2Cd2(SO4)3
_chemical_formula_sum   'K8 Cd8 S12 O48'
_cell_volume   1151.41125413
_cell_formula_units_Z   4
loop_
 _symmetry_equiv_pos_site_id
 _symmetry_equiv_pos_as_xyz
  1  'x, y, z'
loop_
 _atom_site_type_symbol
 _atom_site_label
 _atom_site_symmetry_multiplicity
 _atom_site_fract_x
 _atom_site_fract_y
 _atom_site_fract_z
 _atom_site_occupancy
  O  O0  1  0.58332510  0.76344186  0.98108688  1
  O  O1  1  0.08332510  0.73655814  0.01891312  1
  O  O2  1  0.41667490  0.26344186  0.51891312  1
  O  O3  1  0.73655814  0.01891312  0.08332510  1
  O  O4  1  0.51891312  0.41667490  0.26344186  1
  O  O5  1  0.01891312  0.08332510  0.73655814  1
  O  O6  1  0.76344186  0.98108688  0.58332510  1
  O  O7  1  0.98108688  0.58332510  0.76344186  1
  O  O8  1  0.26344186  0.51891312  0.41667490  1
  O  O9  1  0.23655814  0.48108688  0.91667490  1
  O  O10  1  0.48108688  0.91667490  0.23655814  1
  O  O11  1  0.91667490  0.23655814  0.48108688  1
  O  O12  1  0.07458433  0.85977536  0.76171743  1
  O  O13  1  0.57458433  0.64022464  0.23828257  1
  O  O14  1  0.92541567  0.35977536  0.73828257  1
  O  O15  1  0.64022464  0.23828257  0.57458433  1
  O  O16  1  0.73828257  0.92541567  0.35977536  1
  O  O17  1  0.23828257  0.57458433  0.64022464  1
  O  O18  1  0.67445492  0.77803108  0.52894464  1
  O  O19  1  0.85977536  0.76171743  0.07458433  1
  O  O20  1  0.35977536  0.73828257  0.92541567  1
  O  O21  1  0.14022464  0.26171743  0.42541567  1
  O  O22  1  0.26171743  0.42541567  0.14022464  1
  O  O23  1  0.42541567  0.14022464  0.26171743  1
  O  O24  1  0.22196892  0.02894464  0.82554508  1
  O  O25  1  0.72196892  0.47105536  0.17445492  1
  O  O26  1  0.77803108  0.52894464  0.67445492  1
  O  O27  1  0.47105536  0.17445492  0.72196892  1
  O  O28  1  0.09985514  0.31666305  0.01029280  1
  O  O29  1  0.01029280  0.09985514  0.31666305  1
  O  O30  1  0.31666305  0.01029280  0.09985514  1
  O  O31  1  0.18333695  0.98970720  0.59985514  1
  O  O32  1  0.51029280  0.40014486  0.68333695  1
  O  O33  1  0.68333695  0.51029280  0.40014486  1
  O  O34  1  0.48970720  0.90014486  0.81666305  1
  O  O35  1  0.98970720  0.59985514  0.18333695  1
  O  O36  1  0.81666305  0.48970720  0.90014486  1
  O  O37  1  0.59985514  0.18333695  0.98970720  1
  O  O38  1  0.90014486  0.81666305  0.48970720  1
  O  O39  1  0.40014486  0.68333695  0.51029280  1
  O  O40  1  0.27803108  0.97105536  0.32554508  1
  O  O41  1  0.32554508  0.27803108  0.97105536  1
  O  O42  1  0.97105536  0.32554508  0.27803108  1
  O  O43  1  0.52894464  0.67445492  0.77803108  1
  O  O44  1  0.82554508  0.22196892  0.02894464  1
  O  O45  1  0.02894464  0.82554508  0.22196892  1
  O  O46  1  0.17445492  0.72196892  0.47105536  1
  O  O47  1  0.76171743  0.07458433  0.85977536  1
  S  S48  1  0.26949661  0.62493212  0.51041631  1
  S  S49  1  0.76949661  0.87506788  0.48958369  1
  S  S50  1  0.73050339  0.12493212  0.98958369  1
  S  S51  1  0.87506788  0.48958369  0.76949661  1
  S  S52  1  0.98958369  0.73050339  0.12493212  1
  S  S53  1  0.48958369  0.76949661  0.87506788  1
  S  S54  1  0.62493212  0.51041631  0.26949661  1
  S  S55  1  0.51041631  0.26949661  0.62493212  1
  S  S56  1  0.12493212  0.98958369  0.73050339  1
  S  S57  1  0.23050339  0.37506788  0.01041631  1
  S  S58  1  0.01041631  0.23050339  0.37506788  1
  S  S59  1  0.37506788  0.01041631  0.23050339  1
  K  K60  1  0.68836514  0.18836514  0.31163486  1
  K  K61  1  0.31163486  0.68836514  0.18836514  1
  K  K62  1  0.94585499  0.55414501  0.44585499  1
  K  K63  1  0.81163486  0.81163486  0.81163486  1
  K  K64  1  0.05414501  0.05414501  0.05414501  1
  K  K65  1  0.44585499  0.94585499  0.55414501  1
  K  K66  1  0.55414501  0.44585499  0.94585499  1
  K  K67  1  0.18836514  0.31163486  0.68836514  1
  Cd  Cd68  1  0.32672375  0.32672375  0.32672375  1
  Cd  Cd69  1  0.17327625  0.67327625  0.82672375  1
  Cd  Cd70  1  0.82672375  0.17327625  0.67327625  1
  Cd  Cd71  1  0.67327625  0.82672375  0.17327625  1
  Cd  Cd72  1  0.41762693  0.08237307  0.91762693  1
  Cd  Cd73  1  0.08237307  0.91762693  0.41762693  1
  Cd  Cd74  1  0.58237307  0.58237307  0.58237307  1
  Cd  Cd75  1  0.91762693  0.41762693  0.08237307  1
