# generated using pymatgen
data_BaNd2(MoO4)4
_symmetry_space_group_name_H-M   'P 1'
_cell_length_a   5.44103760
_cell_length_b   7.03125815
_cell_length_c   19.72078787
_cell_angle_alpha   89.48839863
_cell_angle_beta   88.67765193
_cell_angle_gamma   67.23714518
_symmetry_Int_Tables_number   1
_chemical_formula_structural   BaNd2(MoO4)4
_chemical_formula_sum   'Ba2 Nd4 Mo8 O32'
_cell_volume   695.51749764
_cell_formula_units_Z   2
loop_
 _symmetry_equiv_pos_site_id
 _symmetry_equiv_pos_as_xyz
  1  'x, y, z'
loop_
 _atom_site_type_symbol
 _atom_site_label
 _atom_site_symmetry_multiplicity
 _atom_site_fract_x
 _atom_site_fract_y
 _atom_site_fract_z
 _atom_site_occupancy
  Ba  Ba0  1  0.96809100  0.06381799  0.75000000  1
  Ba  Ba1  1  0.03190900  0.93618201  0.25000000  1
  Nd  Nd2  1  0.15019312  0.70403888  0.03355926  1
  Nd  Nd3  1  0.85423201  0.29596112  0.53355926  1
  Nd  Nd4  1  0.14576799  0.70403888  0.46644074  1
  Nd  Nd5  1  0.84980688  0.29596112  0.96644074  1
  Mo  Mo6  1  0.54824727  0.88483970  0.59195064  1
  Mo  Mo7  1  0.25607254  0.47935891  0.84888192  1
  Mo  Mo8  1  0.43308697  0.11516030  0.09195064  1
  Mo  Mo9  1  0.74392746  0.52064109  0.15111808  1
  Mo  Mo10  1  0.56691303  0.88483970  0.90804936  1
  Mo  Mo11  1  0.45175273  0.11516030  0.40804936  1
  Mo  Mo12  1  0.26456856  0.47935891  0.65111808  1
  Mo  Mo13  1  0.73543144  0.52064109  0.34888192  1
  O  O14  1  0.81626939  0.66115068  0.95283977  1
  O  O15  1  0.08631969  0.51487851  0.56886118  1
  O  O16  1  0.73758554  0.27954325  0.32432470  1
  O  O17  1  0.53635874  0.16388253  0.17047275  1
  O  O18  1  0.23212853  0.03312431  0.46369152  1
  O  O19  1  0.68577943  0.08888249  0.89581323  1
  O  O20  1  0.31422057  0.91111751  0.10418677  1
  O  O21  1  0.26241446  0.72045675  0.67567530  1
  O  O22  1  0.47742007  0.33884932  0.45283977  1
  O  O23  1  0.09531839  0.39007139  0.71235903  1
  O  O24  1  0.48538978  0.60992861  0.21235903  1
  O  O25  1  0.46364126  0.83611747  0.82952725  1
  O  O26  1  0.76787147  0.96687569  0.53630848  1
  O  O27  1  0.60119820  0.48512149  0.06886118  1
  O  O28  1  0.91368031  0.48512149  0.43113882  1
  O  O29  1  0.90637304  0.70286419  0.13675521  1
  O  O30  1  0.18373061  0.33884932  0.04716023  1
  O  O31  1  0.29975874  0.16388253  0.32952725  1
  O  O32  1  0.77466192  0.91111751  0.39581323  1
  O  O33  1  0.01712879  0.72045675  0.82432470  1
  O  O34  1  0.73474715  0.03312431  0.03630848  1
  O  O35  1  0.70024126  0.83611747  0.67047275  1
  O  O36  1  0.26525285  0.96687569  0.96369152  1
  O  O37  1  0.51461022  0.39007139  0.78764097  1
  O  O38  1  0.39880180  0.51487851  0.93113882  1
  O  O39  1  0.90468161  0.60992861  0.28764097  1
  O  O40  1  0.52257993  0.66115068  0.54716023  1
  O  O41  1  0.09362696  0.29713581  0.86324479  1
  O  O42  1  0.60923722  0.29713581  0.63675521  1
  O  O43  1  0.22533808  0.08888249  0.60418677  1
  O  O44  1  0.39076278  0.70286419  0.36324479  1
  O  O45  1  0.98287121  0.27954325  0.17567530  1
