# generated using pymatgen
data_Al2Ge(HO3)2
_symmetry_space_group_name_H-M   'P 1'
_cell_length_a   5.01613135
_cell_length_b   5.01613135
_cell_length_c   9.45787534
_cell_angle_alpha   78.87775272
_cell_angle_beta   101.12224728
_cell_angle_gamma   65.26992755
_symmetry_Int_Tables_number   1
_chemical_formula_structural   Al2Ge(HO3)2
_chemical_formula_sum   'Al4 Ge2 H4 O12'
_cell_volume   201.84867955
_cell_formula_units_Z   2
loop_
 _symmetry_equiv_pos_site_id
 _symmetry_equiv_pos_as_xyz
  1  'x, y, z'
loop_
 _atom_site_type_symbol
 _atom_site_label
 _atom_site_symmetry_multiplicity
 _atom_site_fract_x
 _atom_site_fract_y
 _atom_site_fract_z
 _atom_site_occupancy
  Al  Al0  1  0.47213631  0.29405361  0.91444459  1
  Al  Al1  1  0.29405361  0.47213631  0.58555541  1
  Al  Al2  1  0.52786369  0.70594639  0.08555541  1
  Al  Al3  1  0.70594639  0.52786369  0.41444459  1
  Ge  Ge4  1  0.02601753  0.02601753  0.75000000  1
  Ge  Ge5  1  0.97398247  0.97398247  0.25000000  1
  H  H6  1  0.89701655  0.42971931  0.93238717  1
  H  H7  1  0.42971931  0.89701655  0.56761283  1
  H  H8  1  0.10298345  0.57028069  0.06761283  1
  H  H9  1  0.57028069  0.10298345  0.43238717  1
  O  O10  1  0.06828588  0.24476835  0.58899237  1
  O  O11  1  0.24476835  0.06828588  0.91100763  1
  O  O12  1  0.93171412  0.75523165  0.41100763  1
  O  O13  1  0.75523165  0.93171412  0.08899237  1
  O  O14  1  0.16335119  0.64173028  0.73947914  1
  O  O15  1  0.64173028  0.16335119  0.76052086  1
  O  O16  1  0.83664881  0.35826972  0.26052086  1
  O  O17  1  0.35826972  0.83664881  0.23947914  1
  O  O18  1  0.70465469  0.49346181  0.95643118  1
  O  O19  1  0.49346181  0.70465469  0.54356882  1
  O  O20  1  0.29534531  0.50653819  0.04356882  1
  O  O21  1  0.50653819  0.29534531  0.45643118  1
