# generated using pymatgen
data_Cs3B12H12I
_symmetry_space_group_name_H-M   'P 1'
_cell_length_a   7.46972962
_cell_length_b   7.46972962
_cell_length_c   7.46972968
_cell_angle_alpha   93.31641858
_cell_angle_beta   93.31641858
_cell_angle_gamma   93.31641772
_symmetry_Int_Tables_number   1
_chemical_formula_structural   Cs3B12H12I
_chemical_formula_sum   'Cs3 B12 H12 I1'
_cell_volume   414.60882771
_cell_formula_units_Z   1
loop_
 _symmetry_equiv_pos_site_id
 _symmetry_equiv_pos_as_xyz
  1  'x, y, z'
loop_
 _atom_site_type_symbol
 _atom_site_label
 _atom_site_symmetry_multiplicity
 _atom_site_fract_x
 _atom_site_fract_y
 _atom_site_fract_z
 _atom_site_occupancy
  Cs  Cs0  1  0.50000000  0.50000000  0.00000000  1
  Cs  Cs1  1  0.50000000  0.00000000  0.50000000  1
  Cs  Cs2  1  0.00000000  0.50000000  0.50000000  1
  B  B3  1  0.21941537  0.05588510  0.05588510  1
  B  B4  1  0.05588510  0.05588510  0.21941537  1
  B  B5  1  0.05588510  0.21941537  0.05588510  1
  B  B6  1  0.78058463  0.94411490  0.94411490  1
  B  B7  1  0.94411490  0.94411490  0.78058463  1
  B  B8  1  0.94411490  0.78058463  0.94411490  1
  B  B9  1  0.15085694  0.88527631  0.88527631  1
  B  B10  1  0.88527631  0.88527631  0.15085694  1
  B  B11  1  0.88527631  0.15085694  0.88527631  1
  B  B12  1  0.84914306  0.11472369  0.11472369  1
  B  B13  1  0.11472369  0.11472369  0.84914306  1
  B  B14  1  0.11472369  0.84914306  0.11472369  1
  H  H15  1  0.62404063  0.90430251  0.90430251  1
  H  H16  1  0.90430251  0.90430251  0.62404063  1
  H  H17  1  0.90430251  0.62404063  0.90430251  1
  H  H18  1  0.37595937  0.09569749  0.09569749  1
  H  H19  1  0.09569749  0.09569749  0.37595937  1
  H  H20  1  0.09569749  0.37595937  0.09569749  1
  H  H21  1  0.25741310  0.80271353  0.80271353  1
  H  H22  1  0.80271353  0.80271353  0.25741310  1
  H  H23  1  0.80271353  0.25741310  0.80271353  1
  H  H24  1  0.74258690  0.19728647  0.19728647  1
  H  H25  1  0.19728647  0.19728647  0.74258690  1
  H  H26  1  0.19728647  0.74258690  0.19728647  1
  I  I27  1  0.50000000  0.50000000  0.50000000  1
