# generated using pymatgen
data_K2SbF5
_symmetry_space_group_name_H-M   'P 1'
_cell_length_a   6.58871400
_cell_length_b   17.53927807
_cell_length_c   29.37012237
_cell_angle_alpha   101.55482666
_cell_angle_beta   90.00000000
_cell_angle_gamma   90.00000000
_symmetry_Int_Tables_number   1
_chemical_formula_structural   K2SbF5
_chemical_formula_sum   'K44 Sb22 F110'
_cell_volume   3325.26357286
_cell_formula_units_Z   22
loop_
 _symmetry_equiv_pos_site_id
 _symmetry_equiv_pos_as_xyz
  1  'x, y, z'
loop_
 _atom_site_type_symbol
 _atom_site_label
 _atom_site_symmetry_multiplicity
 _atom_site_fract_x
 _atom_site_fract_y
 _atom_site_fract_z
 _atom_site_occupancy
  K  K0  1  0.23954888  0.64860250  0.37351862  1
  K  K1  1  0.24500879  0.58778491  0.52245020  1
  K  K2  1  0.24505239  0.74463566  0.06761098  1
  K  K3  1  0.74382481  0.49971017  0.75017428  1
  K  K4  1  0.74306878  0.45110567  0.89375802  1
  K  K5  1  0.25634231  0.22545347  0.43068996  1
  K  K6  1  0.24670186  0.73814431  0.64375590  1
  K  K7  1  0.78969180  0.95163619  0.13255160  1
  K  K8  1  0.26102979  0.67690059  0.79305546  1
  K  K9  1  0.22958423  0.95307236  0.61154520  1
  K  K10  1  0.75848139  0.58945172  0.02273320  1
  K  K11  1  0.23440045  0.84247377  0.91668237  1
  K  K12  1  0.74677020  0.53314010  0.17243090  1
  K  K13  1  0.28969180  0.04836381  0.86744840  1
  K  K14  1  0.24677020  0.46685990  0.82756910  1
  K  K15  1  0.75634231  0.77454653  0.56931004  1
  K  K16  1  0.75087074  0.81263701  0.00553000  1
  K  K17  1  0.75395968  0.71292232  0.70998929  1
  K  K18  1  0.74505239  0.25536434  0.93238902  1
  K  K19  1  0.22999779  0.01039014  0.46434531  1
  K  K20  1  0.23188686  0.31386861  0.70311541  1
  K  K21  1  0.76110193  0.13729665  0.65916515  1
  K  K22  1  0.25992042  0.10080388  0.73490278  1
  K  K23  1  0.25395968  0.28707768  0.29001071  1
  K  K24  1  0.73188686  0.68613139  0.29688459  1
  K  K25  1  0.75183413  0.07337082  0.82282009  1
  K  K26  1  0.76102979  0.32309941  0.20694454  1
  K  K27  1  0.73440045  0.15752623  0.08331763  1
  K  K28  1  0.73954888  0.35139750  0.62648138  1
  K  K29  1  0.24306878  0.54889433  0.10624198  1
  K  K30  1  0.72999779  0.98960986  0.53565469  1
  K  K31  1  0.74500879  0.41221509  0.47754980  1
  K  K32  1  0.72958423  0.04692764  0.38845480  1
  K  K33  1  0.25848139  0.41054828  0.97726680  1
  K  K34  1  0.74670186  0.26185569  0.35624410  1
  K  K35  1  0.25183413  0.92662918  0.17717991  1
  K  K36  1  0.26110193  0.86270335  0.34083485  1
  K  K37  1  0.21722042  0.15367020  0.17097596  1
  K  K38  1  0.23482794  0.37205031  0.55467406  1
  K  K39  1  0.73482794  0.62794969  0.44532594  1
  K  K40  1  0.24382481  0.50028983  0.24982572  1
  K  K41  1  0.71722042  0.84632980  0.82902404  1
  K  K42  1  0.25087074  0.18736299  0.99447000  1
  K  K43  1  0.75992042  0.89919612  0.26509722  1
  Sb  Sb44  1  0.75762262  0.83384913  0.41259307  1
  Sb  Sb45  1  0.73834937  0.03067990  0.95777483  1
  Sb  Sb46  1  0.23435884  0.07308527  0.31759462  1
  Sb  Sb47  1  0.74818973  0.47278471  0.32140653  1
  Sb  Sb48  1  0.24448622  0.43936884  0.40717897  1
  Sb  Sb49  1  0.73225252  0.11214398  0.23710002  1
  Sb  Sb50  1  0.75820118  0.19819009  0.50264880  1
  Sb  Sb51  1  0.25820118  0.80180991  0.49735120  1
  Sb  Sb52  1  0.73435884  0.92691473  0.68240538  1
  Sb  Sb53  1  0.23134094  0.26379025  0.85505878  1
  Sb  Sb54  1  0.23225252  0.88785602  0.76289998  1
  Sb  Sb55  1  0.24818973  0.52721529  0.67859347  1
  Sb  Sb56  1  0.26055844  0.61945674  0.95210736  1
  Sb  Sb57  1  0.25762262  0.16615087  0.58740693  1
  Sb  Sb58  1  0.23834937  0.96932010  0.04222517  1
  Sb  Sb59  1  0.76055844  0.38054326  0.04789264  1
  Sb  Sb60  1  0.25797893  0.34271886  0.13351856  1
  Sb  Sb61  1  0.73134094  0.73620975  0.14494122  1
  Sb  Sb62  1  0.73709202  0.28826579  0.77333520  1
  Sb  Sb63  1  0.23709202  0.71173421  0.22666480  1
  Sb  Sb64  1  0.75797893  0.65728114  0.86648144  1
  Sb  Sb65  1  0.74448622  0.56063116  0.59282103  1
  F  F66  1  0.94826928  0.64968494  0.11605024  1
  F  F67  1  0.27919682  0.87992834  0.82876759  1
  F  F68  1  0.50391197  0.55168943  0.32482242  1
  F  F69  1  0.54230957  0.65636964  0.60226797  1
  F  F70  1  0.47107337  0.87777652  0.53565913  1
  F  F71  1  0.74208409  0.57967565  0.52851902  1
  F  F72  1  0.95440471  0.92713174  0.41140843  1
  F  F73  1  0.00779664  0.51468295  0.43650258  1
  F  F74  1  0.02810992  0.98392588  0.32096779  1
  F  F75  1  0.52975930  0.29956761  0.01891437  1
  F  F76  1  0.48687612  0.23573848  0.62395026  1
  F  F77  1  0.48577300  0.41682623  0.16732966  1
  F  F78  1  0.53959045  0.28937177  0.51755250  1
  F  F79  1  0.96033778  0.20108186  0.24488368  1
  F  F80  1  0.50885103  0.85087080  0.64828334  1
  F  F81  1  0.44624599  0.52723348  0.43959014  1
  F  F82  1  0.04932680  0.52701498  0.93602328  1
  F  F83  1  0.50779664  0.48531705  0.56349742  1
  F  F84  1  0.44376516  0.61562032  0.21218688  1
  F  F85  1  0.21465860  0.32851793  0.19846111  1
  F  F86  1  0.52039353  0.74265542  0.87465090  1
  F  F87  1  0.61847463  0.11278909  0.92620351  1
  F  F88  1  0.02362463  0.17254408  0.85401819  1
  F  F89  1  0.88885986  0.12615461  0.99844039  1
  F  F90  1  0.69432963  0.84729986  0.34851808  1
  F  F91  1  0.24360470  0.51172353  0.74384623  1
  F  F92  1  0.52330502  0.20063990  0.23371824  1
  F  F93  1  0.48934848  0.07671836  0.00999914  1
  F  F94  1  0.77651780  0.75916959  0.08201191  1
  F  F95  1  0.96967940  0.01169136  0.69053651  1
  F  F96  1  0.94624599  0.47276652  0.56040986  1
  F  F97  1  0.06150115  0.43930469  0.15870887  1
  F  F98  1  0.24208409  0.42032435  0.47148098  1
  F  F99  1  0.47225918  0.79163495  0.25272027  1
  F  F100  1  0.11847463  0.88721091  0.07379649  1
  F  F101  1  0.97107337  0.12222348  0.46434087  1
  F  F102  1  0.74360470  0.48827647  0.25615377  1
  F  F103  1  0.54932680  0.47298502  0.06397672  1
  F  F104  1  0.03959045  0.71062823  0.48244750  1
  F  F105  1  0.46967940  0.98830864  0.30946349  1
  F  F106  1  0.95142558  0.82652687  0.16174197  1
  F  F107  1  0.55584884  0.37987810  0.29068065  1
  F  F108  1  0.47668014  0.53104456  0.94960878  1
  F  F109  1  0.27651780  0.24083041  0.91798809  1
  F  F110  1  0.94376516  0.38437968  0.78781312  1
  F  F111  1  0.53138872  0.20870622  0.73549288  1
  F  F112  1  0.47977334  0.35581770  0.40291032  1
  F  F113  1  0.05584884  0.62012190  0.70931935  1
  F  F114  1  0.43594419  0.17003467  0.34001715  1
  F  F115  1  0.71894641  0.40524606  0.98502250  1
  F  F116  1  0.50937327  0.37366693  0.77449531  1
  F  F117  1  0.48359383  0.69179360  0.99042728  1
  F  F118  1  0.44550180  0.43101812  0.67196923  1
  F  F119  1  0.98687612  0.76426152  0.37604974  1
  F  F120  1  0.97668014  0.46895544  0.05039122  1
  F  F121  1  0.46033778  0.79891814  0.75511632  1
  F  F122  1  0.56401464  0.73486500  0.38953788  1
  F  F123  1  0.98934848  0.92328164  0.99000086  1
  F  F124  1  0.01882505  0.08209100  0.57510949  1
  F  F125  1  0.01303520  0.96636740  0.79632523  1
  F  F126  1  0.77875946  0.30992608  0.70995429  1
  F  F127  1  0.93594419  0.82996533  0.65998285  1
  F  F128  1  0.99033870  0.39974729  0.29193136  1
  F  F129  1  0.27875946  0.69007392  0.29004571  1
  F  F130  1  0.28735434  0.06377215  0.38311036  1
  F  F131  1  0.44235790  0.98332906  0.78409449  1
  F  F132  1  0.97977334  0.64418230  0.59708968  1
  F  F133  1  0.00937327  0.62633307  0.22550469  1
  F  F134  1  0.69079431  0.21331568  0.43888010  1
  F  F135  1  0.02975930  0.70043239  0.98108563  1
  F  F136  1  0.94550180  0.56898188  0.32803077  1
  F  F137  1  0.51139374  0.66129320  0.10725051  1
  F  F138  1  0.56150115  0.56069531  0.84129113  1
  F  F139  1  0.09969612  0.03776594  0.10509291  1
  F  F140  1  0.45440471  0.07286826  0.58859157  1
  F  F141  1  0.98359383  0.30820640  0.00957272  1
  F  F142  1  0.00885103  0.14912920  0.35171666  1
  F  F143  1  0.97011519  0.28592715  0.49833096  1
  F  F144  1  0.45142558  0.17347313  0.83825803  1
  F  F145  1  0.52810992  0.01607412  0.67903221  1
  F  F146  1  0.19079431  0.78668432  0.56111990  1
  F  F147  1  0.54535167  0.10580588  0.48102886  1
  F  F148  1  0.04535167  0.89419412  0.51897114  1
  F  F149  1  0.21894641  0.59475394  0.01497750  1
  F  F150  1  0.19432963  0.15270014  0.65148192  1
  F  F151  1  0.02039353  0.25734458  0.12534910  1
  F  F152  1  0.00391197  0.44831057  0.67517758  1
  F  F153  1  0.38885986  0.87384539  0.00155961  1
  F  F154  1  0.97225918  0.20836505  0.74727973  1
  F  F155  1  0.96591392  0.74894003  0.86626815  1
  F  F156  1  0.06401464  0.26513500  0.61046212  1
  F  F157  1  0.48307366  0.96436083  0.08468855  1
  F  F158  1  0.01139374  0.33870680  0.89274949  1
  F  F159  1  0.98577300  0.58317377  0.83267034  1
  F  F160  1  0.77919682  0.12007166  0.17123241  1
  F  F161  1  0.44826928  0.35031506  0.88394976  1
  F  F162  1  0.51303520  0.03363260  0.20367477  1
  F  F163  1  0.71465860  0.67148207  0.80153889  1
  F  F164  1  0.59969612  0.96223406  0.89490709  1
  F  F165  1  0.03138872  0.79129378  0.26450712  1
  F  F166  1  0.78735434  0.93622785  0.61688964  1
  F  F167  1  0.51882505  0.91790900  0.42489051  1
  F  F168  1  0.04230957  0.34363036  0.39773203  1
  F  F169  1  0.02330502  0.79936010  0.76628176  1
  F  F170  1  0.46591392  0.25105997  0.13373185  1
  F  F171  1  0.98307366  0.03563917  0.91531145  1
  F  F172  1  0.49033870  0.60025271  0.70806864  1
  F  F173  1  0.94235790  0.01667094  0.21590551  1
  F  F174  1  0.47011519  0.71407285  0.50166904  1
  F  F175  1  0.52362463  0.82745592  0.14598181  1
