# generated using pymatgen
data_Ca5Si2SO12
_symmetry_space_group_name_H-M   'P 1'
_cell_length_a   6.93344394
_cell_length_b   10.27610411
_cell_length_c   15.52726527
_cell_angle_alpha   90.00000000
_cell_angle_beta   90.00000000
_cell_angle_gamma   90.00000000
_symmetry_Int_Tables_number   1
_chemical_formula_structural   Ca5Si2SO12
_chemical_formula_sum   'Ca20 Si8 S4 O48'
_cell_volume   1106.29888995
_cell_formula_units_Z   4
loop_
 _symmetry_equiv_pos_site_id
 _symmetry_equiv_pos_as_xyz
  1  'x, y, z'
loop_
 _atom_site_type_symbol
 _atom_site_label
 _atom_site_symmetry_multiplicity
 _atom_site_fract_x
 _atom_site_fract_y
 _atom_site_fract_z
 _atom_site_occupancy
  O  O0  1  0.46800228  0.54570018  0.60903861  1
  O  O1  1  0.96800228  0.95429982  0.89096139  1
  O  O2  1  0.03199772  0.04570018  0.39096139  1
  O  O3  1  0.53199772  0.45429982  0.10903861  1
  O  O4  1  0.53199772  0.45429982  0.39096139  1
  O  O5  1  0.03199772  0.04570018  0.10903861  1
  O  O6  1  0.96800228  0.95429982  0.60903861  1
  O  O7  1  0.46800228  0.54570018  0.89096139  1
  O  O8  1  0.71027667  0.73265918  0.65434405  1
  O  O9  1  0.21027667  0.76734082  0.84565595  1
  O  O10  1  0.78972333  0.23265918  0.34565595  1
  O  O11  1  0.28972333  0.26734082  0.15434405  1
  O  O12  1  0.28972333  0.26734082  0.34565595  1
  O  O13  1  0.78972333  0.23265918  0.15434405  1
  O  O14  1  0.21027667  0.76734082  0.65434405  1
  O  O15  1  0.71027667  0.73265918  0.84565595  1
  O  O16  1  0.81915188  0.52414885  0.55134851  1
  O  O17  1  0.31915188  0.97585115  0.94865149  1
  O  O18  1  0.68084812  0.02414885  0.44865149  1
  O  O19  1  0.06822164  0.35123905  0.67064688  1
  O  O20  1  0.18084812  0.47585115  0.05134851  1
  O  O21  1  0.68084812  0.02414885  0.05134851  1
  O  O22  1  0.31915188  0.97585115  0.55134851  1
  O  O23  1  0.81915188  0.52414885  0.94865149  1
  O  O24  1  0.61383699  0.73053071  0.49086798  1
  O  O25  1  0.11383699  0.76946929  0.00913202  1
  O  O26  1  0.88616301  0.23053071  0.50913202  1
  O  O27  1  0.38616301  0.26946929  0.99086798  1
  O  O28  1  0.38616301  0.26946929  0.50913202  1
  O  O29  1  0.88616301  0.23053071  0.99086798  1
  O  O30  1  0.11383699  0.76946929  0.49086798  1
  O  O31  1  0.61383699  0.73053071  0.00913202  1
  O  O32  1  0.77253901  0.39327804  0.75000000  1
  O  O33  1  0.27253901  0.10672196  0.75000000  1
  O  O34  1  0.72746099  0.89327804  0.25000000  1
  O  O35  1  0.22746099  0.60672196  0.25000000  1
  O  O36  1  0.04308344  0.55103395  0.75000000  1
  O  O37  1  0.54308344  0.94896605  0.75000000  1
  O  O38  1  0.45691656  0.05103395  0.25000000  1
  O  O39  1  0.95691656  0.44896605  0.25000000  1
  O  O40  1  0.06822164  0.35123905  0.82935312  1
  O  O41  1  0.56822164  0.14876095  0.67064688  1
  O  O42  1  0.43177836  0.85123905  0.17064688  1
  O  O43  1  0.93177836  0.64876095  0.32935312  1
  O  O44  1  0.93177836  0.64876095  0.17064688  1
  O  O45  1  0.43177836  0.85123905  0.32935312  1
  O  O46  1  0.56822164  0.14876095  0.82935312  1
  O  O47  1  0.18084812  0.47585115  0.44865149  1
  Si  Si48  1  0.65343717  0.63393439  0.92530401  1
  Si  Si49  1  0.15343717  0.86606561  0.57469599  1
  Si  Si50  1  0.84656283  0.13393439  0.07469599  1
  Si  Si51  1  0.34656283  0.36606561  0.42530401  1
  Si  Si52  1  0.65343717  0.63393439  0.57469599  1
  Si  Si53  1  0.15343717  0.86606561  0.92530401  1
  Si  Si54  1  0.84656283  0.13393439  0.42530401  1
  Si  Si55  1  0.34656283  0.36606561  0.07469599  1
  S  S56  1  0.98541577  0.41080463  0.75000000  1
  S  S57  1  0.48541577  0.08919537  0.75000000  1
  S  S58  1  0.51458423  0.91080463  0.25000000  1
  S  S59  1  0.01458423  0.58919537  0.25000000  1
  Ca  Ca60  1  0.63787112  0.93371747  0.58609096  1
  Ca  Ca61  1  0.13787112  0.56628253  0.91390904  1
  Ca  Ca62  1  0.86212888  0.43371747  0.41390904  1
  Ca  Ca63  1  0.36212888  0.06628253  0.08609096  1
  Ca  Ca64  1  0.36212888  0.06628253  0.41390904  1
  Ca  Ca65  1  0.86212888  0.43371747  0.08609096  1
  Ca  Ca66  1  0.13787112  0.56628253  0.58609096  1
  Ca  Ca67  1  0.63787112  0.93371747  0.91390904  1
  Ca  Ca68  1  0.85930854  0.84190035  0.40402615  1
  Ca  Ca69  1  0.35930854  0.65809965  0.09597385  1
  Ca  Ca70  1  0.64069146  0.34190035  0.59597385  1
  Ca  Ca71  1  0.14069146  0.15809965  0.90402615  1
  Ca  Ca72  1  0.14069146  0.15809965  0.59597385  1
  Ca  Ca73  1  0.64069146  0.34190035  0.90402615  1
  Ca  Ca74  1  0.35930854  0.65809965  0.40402615  1
  Ca  Ca75  1  0.85930854  0.84190035  0.09597385  1
  Ca  Ca76  1  0.05052442  0.19356731  0.25000000  1
  Ca  Ca77  1  0.55052442  0.30643269  0.25000000  1
  Ca  Ca78  1  0.44947558  0.69356731  0.75000000  1
  Ca  Ca79  1  0.94947558  0.80643269  0.75000000  1
