# generated using pymatgen
data_Ca4Al6SO16
_symmetry_space_group_name_H-M   'P 1'
_cell_length_a   9.28350266
_cell_length_b   13.11567055
_cell_length_c   13.13561178
_cell_angle_alpha   90.00000000
_cell_angle_beta   90.00000000
_cell_angle_gamma   90.00000000
_symmetry_Int_Tables_number   1
_chemical_formula_structural   Ca4Al6SO16
_chemical_formula_sum   'Ca16 Al24 S4 O64'
_cell_volume   1599.38371557
_cell_formula_units_Z   4
loop_
 _symmetry_equiv_pos_site_id
 _symmetry_equiv_pos_as_xyz
  1  'x, y, z'
loop_
 _atom_site_type_symbol
 _atom_site_label
 _atom_site_symmetry_multiplicity
 _atom_site_fract_x
 _atom_site_fract_y
 _atom_site_fract_z
 _atom_site_occupancy
  Ca  Ca0  1  0.20073073  0.53727844  0.74395398  1
  Ca  Ca1  1  0.16251054  0.06019515  0.24973075  1
  Ca  Ca2  1  0.23344008  0.74331661  0.48995379  1
  Ca  Ca3  1  0.70073073  0.53727844  0.25604602  1
  Ca  Ca4  1  0.16251054  0.93980485  0.75026925  1
  Ca  Ca5  1  0.66251054  0.06019515  0.75026925  1
  Ca  Ca6  1  0.73344008  0.25668339  0.48995379  1
  Ca  Ca7  1  0.30203449  0.74656892  0.06096427  1
  Ca  Ca8  1  0.30203449  0.25343108  0.93903573  1
  Ca  Ca9  1  0.70073073  0.46272156  0.74395398  1
  Ca  Ca10  1  0.80203449  0.74656892  0.93903573  1
  Ca  Ca11  1  0.80203449  0.25343108  0.06096427  1
  Ca  Ca12  1  0.66251054  0.93980485  0.24973075  1
  Ca  Ca13  1  0.23344008  0.25668339  0.51004621  1
  Ca  Ca14  1  0.20073073  0.46272156  0.25604602  1
  Ca  Ca15  1  0.73344008  0.74331661  0.51004621  1
  Al  Al16  1  0.70061266  0.00000000  0.50000000  1
  Al  Al17  1  0.45559129  0.87946722  0.62834321  1
  Al  Al18  1  0.20061266  0.00000000  0.50000000  1
  Al  Al19  1  0.99440685  0.62683751  0.12169556  1
  Al  Al20  1  0.47881293  0.12358734  0.12119254  1
  Al  Al21  1  0.97881293  0.87641266  0.12119254  1
  Al  Al22  1  0.45559129  0.12053278  0.37165679  1
  Al  Al23  1  0.22871399  0.00000000  0.00000000  1
  Al  Al24  1  0.72757870  0.50000000  0.50000000  1
  Al  Al25  1  0.47881293  0.87641266  0.87880746  1
  Al  Al26  1  0.97881293  0.12358734  0.87880746  1
  Al  Al27  1  0.47804791  0.36992338  0.37097007  1
  Al  Al28  1  0.95559129  0.87946722  0.37165679  1
  Al  Al29  1  0.95559129  0.12053278  0.62834321  1
  Al  Al30  1  0.99440685  0.37316249  0.87830444  1
  Al  Al31  1  0.72871399  0.00000000  0.00000000  1
  Al  Al32  1  0.97804791  0.36992338  0.62902993  1
  Al  Al33  1  0.47804791  0.63007662  0.62902993  1
  Al  Al34  1  0.22757870  0.50000000  0.50000000  1
  Al  Al35  1  0.49440685  0.37316249  0.12169556  1
  Al  Al36  1  0.74441068  0.50000000  0.00000000  1
  Al  Al37  1  0.24441068  0.50000000  0.00000000  1
  Al  Al38  1  0.97804791  0.63007662  0.37097007  1
  Al  Al39  1  0.49440685  0.62683751  0.87830444  1
  S  S40  1  0.46793739  0.26462096  0.73404345  1
  S  S41  1  0.96793739  0.73537904  0.73404345  1
  S  S42  1  0.96793739  0.26462096  0.26595655  1
  S  S43  1  0.46793739  0.73537904  0.26595655  1
  O  O44  1  0.84213990  0.39269295  0.95604687  1
  O  O45  1  0.62462946  0.96305216  0.89214449  1
  O  O46  1  0.01185837  0.24371862  0.59185706  1
  O  O47  1  0.05395900  0.24663745  0.90267064  1
  O  O48  1  0.51185837  0.24371862  0.40814294  1
  O  O49  1  0.83138750  0.89134096  0.03640415  1
  O  O50  1  0.13516914  0.43720073  0.59804064  1
  O  O51  1  0.43631048  0.59790563  0.75435660  1
  O  O52  1  0.43631048  0.40209437  0.24564340  1
  O  O53  1  0.12462946  0.03694784  0.89214449  1
  O  O54  1  0.37038584  0.76313927  0.34964528  1
  O  O55  1  0.79713884  0.89789032  0.44481846  1
  O  O56  1  0.13516914  0.56279927  0.40195936  1
  O  O57  1  0.40212585  0.89588544  0.75638409  1
  O  O58  1  0.33138750  0.10865904  0.03640415  1
  O  O59  1  0.29713884  0.10210968  0.44481846  1
  O  O60  1  0.59921010  0.03671985  0.39224547  1
  O  O61  1  0.55395900  0.75336255  0.90267064  1
  O  O62  1  0.79713884  0.10210968  0.55518154  1
  O  O63  1  0.55395900  0.24663745  0.09732936  1
  O  O64  1  0.90212585  0.10411456  0.75638409  1
  O  O65  1  0.31967844  0.40440983  0.43506855  1
  O  O66  1  0.09921010  0.96328015  0.39224547  1
  O  O67  1  0.31967844  0.59559017  0.56493145  1
  O  O68  1  0.47403874  0.82337349  0.19153934  1
  O  O69  1  0.40212585  0.10411456  0.24361591  1
  O  O70  1  0.34213990  0.39269295  0.04395313  1
  O  O71  1  0.81967844  0.59559017  0.43506855  1
  O  O72  1  0.14582093  0.54704852  0.10485598  1
  O  O73  1  0.01185837  0.75628138  0.40814294  1
  O  O74  1  0.11686842  0.71548049  0.69472814  1
  O  O75  1  0.09921010  0.03671985  0.60775453  1
  O  O76  1  0.41478875  0.35548259  0.79096911  1
  O  O77  1  0.97403874  0.17662651  0.19153934  1
  O  O78  1  0.61686842  0.28451951  0.69472814  1
  O  O79  1  0.14582093  0.45295148  0.89514402  1
  O  O80  1  0.63516914  0.43720073  0.40195936  1
  O  O81  1  0.12462946  0.96305216  0.10785551  1
  O  O82  1  0.91478875  0.35548259  0.20903089  1
  O  O83  1  0.41478875  0.64451741  0.20903089  1
  O  O84  1  0.87038584  0.23686073  0.34964528  1
  O  O85  1  0.33138750  0.89134096  0.96359585  1
  O  O86  1  0.90212585  0.89588544  0.24361591  1
  O  O87  1  0.29713884  0.89789032  0.55518154  1
  O  O88  1  0.93631048  0.40209437  0.75435660  1
  O  O89  1  0.11686842  0.28451951  0.30527186  1
  O  O90  1  0.05395900  0.75336255  0.09732936  1
  O  O91  1  0.93631048  0.59790563  0.24564340  1
  O  O92  1  0.91478875  0.64451741  0.79096911  1
  O  O93  1  0.62462946  0.03694784  0.10785551  1
  O  O94  1  0.64582093  0.45295148  0.10485598  1
  O  O95  1  0.51185837  0.75628138  0.59185706  1
  O  O96  1  0.64582093  0.54704852  0.89514402  1
  O  O97  1  0.97403874  0.82337349  0.80846066  1
  O  O98  1  0.47403874  0.17662651  0.80846066  1
  O  O99  1  0.34213990  0.60730705  0.95604687  1
  O  O100  1  0.84213990  0.60730705  0.04395313  1
  O  O101  1  0.61686842  0.71548049  0.30527186  1
  O  O102  1  0.63516914  0.56279927  0.59804064  1
  O  O103  1  0.87038584  0.76313927  0.65035472  1
  O  O104  1  0.83138750  0.10865904  0.96359585  1
  O  O105  1  0.81967844  0.40440983  0.56493145  1
  O  O106  1  0.59921010  0.96328015  0.60775453  1
  O  O107  1  0.37038584  0.23686073  0.65035472  1
