# generated using pymatgen
data_Ag2Pb8Cl4O7
_symmetry_space_group_name_H-M   'P 1'
_cell_length_a   8.26254212
_cell_length_b   12.70371629
_cell_length_c   18.41375453
_cell_angle_alpha   90.00000000
_cell_angle_beta   90.00000000
_cell_angle_gamma   90.21395373
_symmetry_Int_Tables_number   1
_chemical_formula_structural   Ag2Pb8Cl4O7
_chemical_formula_sum   'Ag8 Pb32 Cl16 O28'
_cell_volume   1932.78610059
_cell_formula_units_Z   4
loop_
 _symmetry_equiv_pos_site_id
 _symmetry_equiv_pos_as_xyz
  1  'x, y, z'
loop_
 _atom_site_type_symbol
 _atom_site_label
 _atom_site_symmetry_multiplicity
 _atom_site_fract_x
 _atom_site_fract_y
 _atom_site_fract_z
 _atom_site_occupancy
  Ag  Ag0  1  0.11961134  0.10078890  0.45130496  1
  Ag  Ag1  1  0.12997584  0.61315282  0.03286704  1
  Ag  Ag2  1  0.87002416  0.38684718  0.96713296  1
  Ag  Ag3  1  0.61961134  0.60078890  0.04869504  1
  Ag  Ag4  1  0.38038866  0.39921110  0.95130496  1
  Ag  Ag5  1  0.62997584  0.11315282  0.46713296  1
  Ag  Ag6  1  0.37002416  0.88684718  0.53286704  1
  Ag  Ag7  1  0.88038866  0.89921110  0.54869504  1
  Pb  Pb8  1  0.12877215  0.00958044  0.91434610  1
  Pb  Pb9  1  0.87400045  0.23871287  0.60659091  1
  Pb  Pb10  1  0.87578999  0.53652794  0.41035022  1
  Pb  Pb11  1  0.62851840  0.22601438  0.79540619  1
  Pb  Pb12  1  0.37400045  0.73871287  0.89340909  1
  Pb  Pb13  1  0.12788084  0.50155086  0.24466668  1
  Pb  Pb14  1  0.87148160  0.27398562  0.29540619  1
  Pb  Pb15  1  0.87211916  0.49844914  0.75533332  1
  Pb  Pb16  1  0.87070842  0.75445037  0.22891543  1
  Pb  Pb17  1  0.12929158  0.24554963  0.77108457  1
  Pb  Pb18  1  0.12851840  0.72601438  0.70459381  1
  Pb  Pb19  1  0.88425921  0.99831757  0.74663831  1
  Pb  Pb20  1  0.62877215  0.50958044  0.58565390  1
  Pb  Pb21  1  0.88110603  0.74108697  0.89408513  1
  Pb  Pb22  1  0.37578999  0.03652794  0.08964978  1
  Pb  Pb23  1  0.37070842  0.25445037  0.27108457  1
  Pb  Pb24  1  0.61889397  0.75891303  0.39408513  1
  Pb  Pb25  1  0.62788084  0.00155086  0.25533332  1
  Pb  Pb26  1  0.62421001  0.96347206  0.91035022  1
  Pb  Pb27  1  0.61574079  0.50168243  0.24663831  1
  Pb  Pb28  1  0.37122785  0.49041956  0.41434610  1
  Pb  Pb29  1  0.11574079  0.00168243  0.25336169  1
  Pb  Pb30  1  0.62929158  0.74554963  0.72891543  1
  Pb  Pb31  1  0.37211916  0.99844914  0.74466668  1
  Pb  Pb32  1  0.12421001  0.46347206  0.58964978  1
  Pb  Pb33  1  0.62599955  0.26128713  0.10659091  1
  Pb  Pb34  1  0.12599955  0.76128713  0.39340909  1
  Pb  Pb35  1  0.87122785  0.99041956  0.08565390  1
  Pb  Pb36  1  0.38425921  0.49831757  0.75336169  1
  Pb  Pb37  1  0.11889397  0.25891303  0.10591487  1
  Pb  Pb38  1  0.38110603  0.24108697  0.60591487  1
  Pb  Pb39  1  0.37148160  0.77398562  0.20459381  1
  Cl  Cl40  1  0.11956092  0.49893973  0.91054587  1
  Cl  Cl41  1  0.86401060  0.19758950  0.93058311  1
  Cl  Cl42  1  0.13330753  0.01242699  0.58754700  1
  Cl  Cl43  1  0.89131121  0.70499878  0.56824905  1
  Cl  Cl44  1  0.10868879  0.29500122  0.43175095  1
  Cl  Cl45  1  0.63598940  0.30241050  0.43058311  1
  Cl  Cl46  1  0.36401060  0.69758950  0.56941689  1
  Cl  Cl47  1  0.60868879  0.79500122  0.06824905  1
  Cl  Cl48  1  0.63330753  0.51242699  0.91245300  1
  Cl  Cl49  1  0.88043908  0.50106027  0.08945413  1
  Cl  Cl50  1  0.39131121  0.20499878  0.93175095  1
  Cl  Cl51  1  0.38043908  0.00106027  0.41054587  1
  Cl  Cl52  1  0.86669247  0.98757301  0.41245300  1
  Cl  Cl53  1  0.36669247  0.48757301  0.08754700  1
  Cl  Cl54  1  0.61956092  0.99893973  0.58945413  1
  Cl  Cl55  1  0.13598940  0.80241050  0.06941689  1
  O  O56  1  0.09051649  0.08150127  0.13178269  1
  O  O57  1  0.36985084  0.43084081  0.29541368  1
  O  O58  1  0.36394340  0.68457588  0.77434652  1
  O  O59  1  0.12613814  0.54689228  0.69877863  1
  O  O60  1  0.10578935  0.31463277  0.22382407  1
  O  O61  1  0.63014916  0.56915919  0.70458632  1
  O  O62  1  0.89421065  0.68536723  0.77617593  1
  O  O63  1  0.37207453  0.21218993  0.13810431  1
  O  O64  1  0.87386186  0.45310772  0.30122137  1
  O  O65  1  0.86985084  0.93084081  0.20458632  1
  O  O66  1  0.63605660  0.31542412  0.22565348  1
  O  O67  1  0.13014916  0.06915919  0.79541368  1
  O  O68  1  0.13605660  0.81542412  0.27434652  1
  O  O69  1  0.12792547  0.28781007  0.63810431  1
  O  O70  1  0.37386186  0.95310772  0.19877863  1
  O  O71  1  0.62792547  0.78781007  0.86189569  1
  O  O72  1  0.60578935  0.81463277  0.27617593  1
  O  O73  1  0.86394340  0.18457588  0.72565348  1
  O  O74  1  0.59051649  0.58150127  0.36821731  1
  O  O75  1  0.84387635  0.41506085  0.63227207  1
  O  O76  1  0.15612365  0.58493915  0.36772793  1
  O  O77  1  0.90948351  0.91849873  0.86821731  1
  O  O78  1  0.87207453  0.71218993  0.36189569  1
  O  O79  1  0.40948351  0.41849873  0.63178269  1
  O  O80  1  0.65612365  0.08493915  0.13227207  1
  O  O81  1  0.39421065  0.18536723  0.72382407  1
  O  O82  1  0.34387635  0.91506085  0.86772793  1
  O  O83  1  0.62613814  0.04689228  0.80122137  1
