# generated using pymatgen
data_KCSN
_symmetry_space_group_name_H-M   'P 1'
_cell_length_a   6.70334144
_cell_length_b   6.84992183
_cell_length_c   7.76653637
_cell_angle_alpha   90.00000000
_cell_angle_beta   90.00000000
_cell_angle_gamma   90.00000000
_symmetry_Int_Tables_number   1
_chemical_formula_structural   KCSN
_chemical_formula_sum   'K4 C4 S4 N4'
_cell_volume   356.61888423
_cell_formula_units_Z   4
loop_
 _symmetry_equiv_pos_site_id
 _symmetry_equiv_pos_as_xyz
  1  'x, y, z'
loop_
 _atom_site_type_symbol
 _atom_site_label
 _atom_site_symmetry_multiplicity
 _atom_site_fract_x
 _atom_site_fract_y
 _atom_site_fract_z
 _atom_site_occupancy
  C  C0  1  0.71278485  0.23169436  0.75000000  1
  C  C1  1  0.78721515  0.23169436  0.25000000  1
  C  C2  1  0.28721515  0.76830564  0.25000000  1
  C  C3  1  0.21278485  0.76830564  0.75000000  1
  N  N4  1  0.08376175  0.88828745  0.75000000  1
  N  N5  1  0.41623825  0.88828745  0.25000000  1
  N  N6  1  0.58376175  0.11171255  0.75000000  1
  N  N7  1  0.91623825  0.11171255  0.25000000  1
  S  S8  1  0.88966934  0.39518083  0.75000000  1
  S  S9  1  0.61033066  0.39518083  0.25000000  1
  S  S10  1  0.38966934  0.60481917  0.75000000  1
  S  S11  1  0.11033066  0.60481917  0.25000000  1
  K  K12  1  0.75000000  0.80124170  0.50000000  1
  K  K13  1  0.25000000  0.19875830  0.00000000  1
  K  K14  1  0.25000000  0.19875830  0.50000000  1
  K  K15  1  0.75000000  0.80124170  0.00000000  1
