# generated using pymatgen
data_NaIn(MoO4)2
_symmetry_space_group_name_H-M   'P 1'
_cell_length_a   7.28533277
_cell_length_b   7.29128411
_cell_length_c   15.06391820
_cell_angle_alpha   92.00528339
_cell_angle_beta   92.01778647
_cell_angle_gamma   99.11317572
_symmetry_Int_Tables_number   1
_chemical_formula_structural   NaIn(MoO4)2
_chemical_formula_sum   'Na4 In4 Mo8 O32'
_cell_volume   788.92885513
_cell_formula_units_Z   4
loop_
 _symmetry_equiv_pos_site_id
 _symmetry_equiv_pos_as_xyz
  1  'x, y, z'
loop_
 _atom_site_type_symbol
 _atom_site_label
 _atom_site_symmetry_multiplicity
 _atom_site_fract_x
 _atom_site_fract_y
 _atom_site_fract_z
 _atom_site_occupancy
  Na  Na0  1  0.48164387  0.31770905  0.12638960  1
  Na  Na1  1  0.51835613  0.68229095  0.87361040  1
  Na  Na2  1  0.03696916  0.69517047  0.62012690  1
  Na  Na3  1  0.96303084  0.30482953  0.37987310  1
  In  In4  1  0.32364109  0.69332721  0.38935623  1
  In  In5  1  0.67635891  0.30667279  0.61064377  1
  In  In6  1  0.81383594  0.72099492  0.08639897  1
  In  In7  1  0.18616406  0.27900508  0.91360103  1
  Mo  Mo8  1  0.47141579  0.23702768  0.38258859  1
  Mo  Mo9  1  0.52858421  0.76297232  0.61741141  1
  Mo  Mo10  1  0.33504799  0.76919506  0.13901337  1
  Mo  Mo11  1  0.95174140  0.24653288  0.11428174  1
  Mo  Mo12  1  0.04825860  0.75346712  0.88571826  1
  Mo  Mo13  1  0.84301254  0.76771124  0.34931190  1
  Mo  Mo14  1  0.15698746  0.23228876  0.65068810  1
  Mo  Mo15  1  0.66495201  0.23080494  0.86098663  1
  O  O16  1  0.61885551  0.68010702  0.39144409  1
  O  O17  1  0.41781152  0.71298735  0.71698573  1
  O  O18  1  0.39710537  0.00738554  0.15656265  1
  O  O19  1  0.34083127  0.71860417  0.53224356  1
  O  O20  1  0.38114449  0.31989298  0.60855591  1
  O  O21  1  0.70412064  0.61328197  0.60179361  1
  O  O22  1  0.97876018  0.36538924  0.60973040  1
  O  O23  1  0.82616973  0.75710145  0.22960311  1
  O  O24  1  0.01578563  0.24032994  0.22623570  1
  O  O25  1  0.31628449  0.66069210  0.24492531  1
  O  O26  1  0.88843073  0.27215618  0.92083373  1
  O  O27  1  0.17264143  0.30544534  0.05819420  1
  O  O28  1  0.48767443  0.32480776  0.92520317  1
  O  O29  1  0.82671794  0.02001016  0.07941384  1
  O  O30  1  0.90664865  0.99551871  0.38922065  1
  O  O31  1  0.11156927  0.72784382  0.07916627  1
  O  O32  1  0.36170892  0.99643005  0.38186405  1
  O  O33  1  0.58218848  0.28701265  0.28301427  1
  O  O34  1  0.65916873  0.28139583  0.46775644  1
  O  O35  1  0.60289463  0.99261446  0.84343735  1
  O  O36  1  0.20239290  0.57970145  0.89743775  1
  O  O37  1  0.02123982  0.63461076  0.39026960  1
  O  O38  1  0.79760710  0.42029855  0.10256225  1
  O  O39  1  0.68371551  0.33930790  0.75507469  1
  O  O40  1  0.98421437  0.75967006  0.77376430  1
  O  O41  1  0.63829108  0.00356995  0.61813595  1
  O  O42  1  0.17328206  0.97998984  0.92058616  1
  O  O43  1  0.51232557  0.67519224  0.07479683  1
  O  O44  1  0.29587936  0.38671803  0.39820639  1
  O  O45  1  0.09335135  0.00448129  0.61077935  1
  O  O46  1  0.17383027  0.24289855  0.77039689  1
  O  O47  1  0.82735857  0.69455466  0.94180580  1
