# generated using pymatgen
data_La5MnOs3O16
_symmetry_space_group_name_H-M   'P 1'
_cell_length_a   5.71720202
_cell_length_b   5.70633992
_cell_length_c   10.25488062
_cell_angle_alpha   86.23706449
_cell_angle_beta   94.00623191
_cell_angle_gamma   89.13598553
_symmetry_Int_Tables_number   1
_chemical_formula_structural   La5MnOs3O16
_chemical_formula_sum   'La5 Mn1 Os3 O16'
_cell_volume   332.95628362
_cell_formula_units_Z   1
loop_
 _symmetry_equiv_pos_site_id
 _symmetry_equiv_pos_as_xyz
  1  'x, y, z'
loop_
 _atom_site_type_symbol
 _atom_site_label
 _atom_site_symmetry_multiplicity
 _atom_site_fract_x
 _atom_site_fract_y
 _atom_site_fract_z
 _atom_site_occupancy
  La  La0  1  0.02676541  0.48755681  0.20293340  1
  La  La1  1  0.97323459  0.51244319  0.79706660  1
  La  La2  1  0.50572555  0.96658961  0.20910700  1
  La  La3  1  0.49427445  0.03341039  0.79089300  1
  La  La4  1  0.00000000  0.00000000  0.50000000  1
  Mn  Mn5  1  0.50000000  0.50000000  0.00000000  1
  Os  Os6  1  0.44833633  0.55270219  0.60662085  1
  Os  Os7  1  0.55166367  0.44729781  0.39337915  1
  Os  Os8  1  0.00000000  0.00000000  0.00000000  1
  O  O9  1  0.30598232  0.67965423  0.43298394  1
  O  O10  1  0.69401768  0.32034577  0.56701606  1
  O  O11  1  0.22226011  0.77128694  0.67477727  1
  O  O12  1  0.77773989  0.22871306  0.32522273  1
  O  O13  1  0.54502173  0.46144209  0.79586994  1
  O  O14  1  0.45497827  0.53855791  0.20413006  1
  O  O15  1  0.92075889  0.08314506  0.81307949  1
  O  O16  1  0.07924111  0.91685494  0.18692051  1
  O  O17  1  0.22058326  0.29945791  0.63413174  1
  O  O18  1  0.77941674  0.70054209  0.36586826  1
  O  O19  1  0.68850819  0.79401509  0.63069431  1
  O  O20  1  0.31149181  0.20598491  0.36930569  1
  O  O21  1  0.81827675  0.70321654  0.99548873  1
  O  O22  1  0.18172325  0.29678346  0.00451127  1
  O  O23  1  0.71039644  0.17819307  0.03718194  1
  O  O24  1  0.28960356  0.82180693  0.96281806  1
