# generated using pymatgen
data_CaBi2(PO5)2
_symmetry_space_group_name_H-M   'P 1'
_cell_length_a   7.67089469
_cell_length_b   7.67089375
_cell_length_c   9.15834247
_cell_angle_alpha   103.39083360
_cell_angle_beta   103.39083220
_cell_angle_gamma   116.55138995
_symmetry_Int_Tables_number   1
_chemical_formula_structural   CaBi2(PO5)2
_chemical_formula_sum   'Ca2 Bi4 P4 O20'
_cell_volume   432.79175845
_cell_formula_units_Z   2
loop_
 _symmetry_equiv_pos_site_id
 _symmetry_equiv_pos_as_xyz
  1  'x, y, z'
loop_
 _atom_site_type_symbol
 _atom_site_label
 _atom_site_symmetry_multiplicity
 _atom_site_fract_x
 _atom_site_fract_y
 _atom_site_fract_z
 _atom_site_occupancy
  Ca  Ca0  1  0.50421642  0.00421642  0.50000000  1
  Ca  Ca1  1  0.25421642  0.25421642  0.00000000  1
  Bi  Bi2  1  0.87709737  0.61603017  0.25798907  1
  Bi  Bi3  1  0.35804110  0.61910731  0.74201093  1
  Bi  Bi4  1  0.86910731  0.10804110  0.24201093  1
  Bi  Bi5  1  0.86603017  0.62709737  0.75798907  1
  P  P6  1  0.04610495  0.04651564  0.60318298  1
  P  P7  1  0.69292197  0.19333266  0.89681702  1
  P  P8  1  0.44333266  0.44292197  0.39681702  1
  P  P9  1  0.29651564  0.79610495  0.10318298  1
  O  O10  1  0.55270859  0.51759883  0.28084166  1
  O  O11  1  0.66065035  0.67745350  0.85350142  1
  O  O12  1  0.30123138  0.61261700  0.99035487  1
  O  O13  1  0.76759883  0.30270858  0.78084166  1
  O  O14  1  0.22209312  0.25034128  0.27537171  1
  O  O15  1  0.43120824  0.62493759  0.50376372  1
  O  O16  1  0.05714893  0.57395208  0.64649858  1
  O  O17  1  0.82395208  0.80714893  0.14649858  1
  O  O18  1  0.92745350  0.41065035  0.35350142  1
  O  O19  1  0.19672141  0.72497057  0.22462829  1
  O  O20  1  0.23675717  0.27186793  0.71915834  1
  O  O21  1  0.50034128  0.97209312  0.77537171  1
  O  O22  1  0.97497057  0.94672141  0.72462829  1
  O  O23  1  0.17744552  0.87117487  0.99623628  1
  O  O24  1  0.12117487  0.92744552  0.49623628  1
  O  O25  1  0.87493759  0.18120824  0.00376372  1
  O  O26  1  0.86261700  0.05123138  0.49035487  1
  O  O27  1  0.62226213  0.31087651  0.00964513  1
  O  O28  1  0.52186793  0.98675717  0.21915834  1
  O  O29  1  0.56087651  0.37226213  0.50964513  1
