# generated using pymatgen
data_Li7(Mo3S4)4
_symmetry_space_group_name_H-M   'P 1'
_cell_length_a   6.67841893
_cell_length_b   6.69354685
_cell_length_c   13.39581543
_cell_angle_alpha   94.55349034
_cell_angle_beta   94.20015831
_cell_angle_gamma   94.92951691
_symmetry_Int_Tables_number   1
_chemical_formula_structural   Li7(Mo3S4)4
_chemical_formula_sum   'Li7 Mo12 S16'
_cell_volume   592.79020686
_cell_formula_units_Z   1
loop_
 _symmetry_equiv_pos_site_id
 _symmetry_equiv_pos_as_xyz
  1  'x, y, z'
loop_
 _atom_site_type_symbol
 _atom_site_label
 _atom_site_symmetry_multiplicity
 _atom_site_fract_x
 _atom_site_fract_y
 _atom_site_fract_z
 _atom_site_occupancy
  Li  Li0  1  0.05030466  0.09463097  0.43909232  1
  Li  Li1  1  0.40111796  0.96798051  0.00857330  1
  Li  Li2  1  0.57834817  0.01915975  0.49131038  1
  Li  Li3  1  0.90800476  0.12907003  0.97548780  1
  Li  Li4  1  0.98150745  0.59782649  0.51465661  1
  Li  Li5  1  0.97672411  0.01732328  0.70901048  1
  Li  Li6  1  0.97739924  0.01460971  0.20495260  1
  Mo  Mo7  1  0.23316130  0.41092003  0.77475379  1
  Mo  Mo8  1  0.23264462  0.41312971  0.27352717  1
  Mo  Mo9  1  0.45436287  0.76786515  0.79576170  1
  Mo  Mo10  1  0.41330409  0.54332273  0.61740296  1
  Mo  Mo11  1  0.45451713  0.76665136  0.29348208  1
  Mo  Mo12  1  0.41206714  0.54470722  0.11515610  1
  Mo  Mo13  1  0.58766464  0.45515142  0.88612431  1
  Mo  Mo14  1  0.54554532  0.22917927  0.70726907  1
  Mo  Mo15  1  0.58712110  0.45346288  0.38364612  1
  Mo  Mo16  1  0.54530351  0.23221704  0.20532423  1
  Mo  Mo17  1  0.76673771  0.58691279  0.72936929  1
  Mo  Mo18  1  0.76990511  0.58823247  0.22609350  1
  S  S19  1  0.13264002  0.70950033  0.68901369  1
  S  S20  1  0.13492433  0.70816257  0.18697815  1
  S  S21  1  0.28595015  0.62130810  0.93543409  1
  S  S22  1  0.21685616  0.21206166  0.60812880  1
  S  S23  1  0.29013726  0.62562644  0.43466627  1
  S  S24  1  0.21292177  0.21588113  0.10681146  1
  S  S25  1  0.37475729  0.13076553  0.85626537  1
  S  S26  1  0.37112555  0.12906516  0.35603059  1
  S  S27  1  0.62681054  0.86707950  0.64564609  1
  S  S28  1  0.62798549  0.86970330  0.14281987  1
  S  S29  1  0.78115477  0.78596714  0.89278543  1
  S  S30  1  0.71212450  0.37051885  0.56515561  1
  S  S31  1  0.78942330  0.78796324  0.39138709  1
  S  S32  1  0.71726009  0.37729614  0.06702012  1
  S  S33  1  0.86827661  0.28739843  0.81421027  1
  S  S34  1  0.86791125  0.28734967  0.31315331  1
