# generated using pymatgen
data_Cu2Bi8Pb2S15
_symmetry_space_group_name_H-M   'P 1'
_cell_length_a   4.02940549
_cell_length_b   11.69517559
_cell_length_c   55.84350088
_cell_angle_alpha   89.99809342
_cell_angle_beta   89.99670855
_cell_angle_gamma   89.99565125
_symmetry_Int_Tables_number   1
_chemical_formula_structural   Cu2Bi8Pb2S15
_chemical_formula_sum   'Cu8 Bi32 Pb8 S60'
_cell_volume   2631.60289530
_cell_formula_units_Z   4
loop_
 _symmetry_equiv_pos_site_id
 _symmetry_equiv_pos_as_xyz
  1  'x, y, z'
loop_
 _atom_site_type_symbol
 _atom_site_label
 _atom_site_symmetry_multiplicity
 _atom_site_fract_x
 _atom_site_fract_y
 _atom_site_fract_z
 _atom_site_occupancy
  Cu  Cu0  1  0.74998508  0.22055069  0.14183470  1
  Cu  Cu1  1  0.25011840  0.28043206  0.84298758  1
  Cu  Cu2  1  0.24986842  0.78046636  0.65700189  1
  Cu  Cu3  1  0.25003740  0.77939279  0.85818217  1
  Cu  Cu4  1  0.74994936  0.71955271  0.15700016  1
  Cu  Cu5  1  0.24998691  0.27943798  0.64181299  1
  Cu  Cu6  1  0.75003837  0.21958242  0.34300696  1
  Cu  Cu7  1  0.75004285  0.72054041  0.35815975  1
  Bi  Bi8  1  0.74985107  0.00583531  0.43529251  1
  Bi  Bi9  1  0.24994021  0.99262092  0.76568053  1
  Bi  Bi10  1  0.24985109  0.97637634  0.36278110  1
  Bi  Bi11  1  0.75012074  0.02728300  0.83743473  1
  Bi  Bi12  1  0.25016702  0.49410431  0.93528386  1
  Bi  Bi13  1  0.74995485  0.02058257  0.03375136  1
  Bi  Bi14  1  0.75001601  0.52052644  0.46624632  1
  Bi  Bi15  1  0.24983649  0.47944193  0.53375053  1
  Bi  Bi16  1  0.25011563  0.64541271  0.20760685  1
  Bi  Bi17  1  0.25008806  0.97943992  0.96625447  1
  Bi  Bi18  1  0.24974036  0.14535680  0.29239591  1
  Bi  Bi19  1  0.75008985  0.02360838  0.63722760  1
  Bi  Bi20  1  0.24984926  0.97271934  0.16257352  1
  Bi  Bi21  1  0.75007803  0.84302121  0.50769446  1
  Bi  Bi22  1  0.24991692  0.15698954  0.49231167  1
  Bi  Bi23  1  0.74982881  0.35222283  0.59278400  1
  Bi  Bi24  1  0.74975020  0.35459078  0.79239241  1
  Bi  Bi25  1  0.25013771  0.47273451  0.33742652  1
  Bi  Bi26  1  0.74996612  0.50740284  0.26568379  1
  Bi  Bi27  1  0.25011391  0.64782975  0.40721291  1
  Bi  Bi28  1  0.74975256  0.34303269  0.99230566  1
  Bi  Bi29  1  0.74994450  0.00744527  0.23431365  1
  Bi  Bi30  1  0.25010152  0.65700455  0.00770305  1
  Bi  Bi31  1  0.24981732  0.14779466  0.09279013  1
  Bi  Bi32  1  0.75006990  0.52359611  0.86277360  1
  Bi  Bi33  1  0.24995311  0.99414018  0.56471862  1
  Bi  Bi34  1  0.24993126  0.49267535  0.73431793  1
  Bi  Bi35  1  0.75030817  0.85217863  0.90722572  1
  Bi  Bi36  1  0.74989583  0.85457851  0.70760448  1
  Bi  Bi37  1  0.74987284  0.50587302  0.06470682  1
  Bi  Bi38  1  0.74997064  0.52730864  0.66256490  1
  Bi  Bi39  1  0.24985407  0.47636435  0.13721935  1
  Pb  Pb40  1  0.74989444  0.31671513  0.40099697  1
  Pb  Pb41  1  0.24965580  0.68477773  0.80040581  1
  Pb  Pb42  1  0.25048378  0.18320734  0.90098470  1
  Pb  Pb43  1  0.25015855  0.18484125  0.69959273  1
  Pb  Pb44  1  0.75057058  0.81527955  0.30040492  1
  Pb  Pb45  1  0.75033302  0.31539227  0.19959305  1
  Pb  Pb46  1  0.74998124  0.81664950  0.09900431  1
  Pb  Pb47  1  0.24945616  0.68324658  0.59899561  1
  S  S48  1  0.24999157  0.27389377  0.16020260  1
  S  S49  1  0.25006871  0.96005564  0.67472334  1
  S  S50  1  0.75000206  0.70435594  0.23914523  1
  S  S51  1  0.25012178  0.94435610  0.27147692  1
  S  S52  1  0.74993996  0.72777412  0.63865188  1
  S  S53  1  0.25001060  0.77218107  0.13866057  1
  S  S54  1  0.74993756  0.21190475  0.06183772  1
  S  S55  1  0.75003329  0.20674356  0.46025787  1
  S  S56  1  0.75016546  0.53993061  0.17472637  1
  S  S57  1  0.74995771  0.87281631  0.98991609  1
  S  S58  1  0.24991675  0.62714130  0.48992255  1
  S  S59  1  0.74998734  0.89073656  0.79022945  1
  S  S60  1  0.24982512  0.62832926  0.88793960  1
  S  S61  1  0.25012561  0.12830018  0.61205152  1
  S  S62  1  0.25001168  0.10668865  0.41086831  1
  S  S63  1  0.25000542  0.63287087  0.68772391  1
  S  S64  1  0.24995394  0.44887067  0.42924232  1
  S  S65  1  0.25002676  0.29322557  0.96025942  1
  S  S66  1  0.74994943  0.20436681  0.26085363  1
  S  S67  1  0.25021151  0.79321687  0.53974636  1
  S  S68  1  0.74997535  0.70682986  0.03975029  1
  S  S69  1  0.74991499  0.55560882  0.77148494  1
  S  S70  1  0.74996228  0.05112708  0.92924962  1
  S  S71  1  0.24996930  0.10926015  0.20976383  1
  S  S72  1  0.75002262  0.86711633  0.18772261  1
  S  S73  1  0.24999345  0.44440364  0.22851921  1
  S  S74  1  0.25005512  0.77393532  0.33978636  1
  S  S75  1  0.74987595  0.55115634  0.57074695  1
  S  S76  1  0.25008079  0.13285073  0.81227823  1
  S  S77  1  0.75004925  0.89325694  0.58913381  1
  S  S78  1  0.24980625  0.46007971  0.82528267  1
  S  S79  1  0.74999617  0.37281440  0.51008391  1
  S  S80  1  0.75003010  0.39073372  0.70977558  1
  S  S81  1  0.74999586  0.22609929  0.66020204  1
  S  S82  1  0.24999083  0.94887845  0.07074745  1
  S  S83  1  0.24992531  0.28809286  0.56184137  1
  S  S84  1  0.74995225  0.05562172  0.72850647  1
  S  S85  1  0.25011009  0.78806054  0.93816926  1
  S  S86  1  0.25000095  0.12720251  0.01007818  1
  S  S87  1  0.75020927  0.36712222  0.31227851  1
  S  S88  1  0.75000515  0.72607511  0.83978898  1
  S  S89  1  0.25009408  0.44828174  0.02534334  1
  S  S90  1  0.25004077  0.27222493  0.36134552  1
  S  S91  1  0.25024563  0.94828389  0.47466881  1
  S  S92  1  0.75014702  0.39325499  0.91087045  1
  S  S93  1  0.24990286  0.60925847  0.29022966  1
  S  S94  1  0.75004272  0.22780985  0.86134071  1
  S  S95  1  0.24999120  0.46180727  0.62543972  1
  S  S96  1  0.74991407  0.71189476  0.43816948  1
  S  S97  1  0.24983776  0.29569084  0.76085120  1
  S  S98  1  0.24998022  0.79567330  0.73915203  1
  S  S99  1  0.75014260  0.03995625  0.32527454  1
  S  S100  1  0.75001803  0.55172493  0.97466658  1
  S  S101  1  0.75014033  0.03818838  0.12544098  1
  S  S102  1  0.75009964  0.37164482  0.11205197  1
  S  S103  1  0.75004385  0.05171735  0.52533467  1
  S  S104  1  0.74990813  0.53823239  0.37456444  1
  S  S105  1  0.74995913  0.87163962  0.38794178  1
  S  S106  1  0.24996242  0.60670214  0.08913334  1
  S  S107  1  0.24992152  0.96177357  0.87456161  1
