# generated using pymatgen
data_AgNO3
_symmetry_space_group_name_H-M   'P 1'
_cell_length_a   7.07777895
_cell_length_b   7.41914299
_cell_length_c   10.22652206
_cell_angle_alpha   90.00000000
_cell_angle_beta   90.00000000
_cell_angle_gamma   90.00000000
_symmetry_Int_Tables_number   1
_chemical_formula_structural   AgNO3
_chemical_formula_sum   'Ag8 N8 O24'
_cell_volume   537.00545296
_cell_formula_units_Z   8
loop_
 _symmetry_equiv_pos_site_id
 _symmetry_equiv_pos_as_xyz
  1  'x, y, z'
loop_
 _atom_site_type_symbol
 _atom_site_label
 _atom_site_symmetry_multiplicity
 _atom_site_fract_x
 _atom_site_fract_y
 _atom_site_fract_z
 _atom_site_occupancy
  Ag  Ag0  1  0.11877351  0.75993126  0.37940999  1
  Ag  Ag1  1  0.88426540  0.26048285  0.37848718  1
  Ag  Ag2  1  0.61573460  0.76048285  0.62151282  1
  Ag  Ag3  1  0.38122649  0.25993126  0.62059001  1
  Ag  Ag4  1  0.11573460  0.23951715  0.87848718  1
  Ag  Ag5  1  0.38426540  0.73951715  0.12151282  1
  Ag  Ag6  1  0.88122649  0.74006874  0.87940999  1
  Ag  Ag7  1  0.61877351  0.24006874  0.12059001  1
  N  N8  1  0.87875062  0.61407921  0.15584427  1
  N  N9  1  0.13067188  0.10678963  0.15951021  1
  N  N10  1  0.37875062  0.38592079  0.34415573  1
  N  N11  1  0.12124938  0.88592079  0.65584427  1
  N  N12  1  0.63067188  0.89321037  0.34048979  1
  N  N13  1  0.86932812  0.39321037  0.65951021  1
  N  N14  1  0.36932812  0.60678963  0.84048979  1
  N  N15  1  0.62124938  0.11407921  0.84415573  1
  O  O16  1  0.26634265  0.54182629  0.93099183  1
  O  O17  1  0.50549350  0.77757835  0.36956237  1
  O  O18  1  0.73775074  0.04329523  0.92293244  1
  O  O19  1  0.87785573  0.57265313  0.27649056  1
  O  O20  1  0.37785573  0.42734687  0.22350944  1
  O  O21  1  0.12214427  0.92734687  0.77649056  1
  O  O22  1  0.76224926  0.54329523  0.07706756  1
  O  O23  1  0.76634265  0.45817371  0.56900817  1
  O  O24  1  0.62214427  0.07265313  0.72350944  1
  O  O25  1  0.49572983  0.26934591  0.38610787  1
  O  O26  1  0.73365735  0.95817371  0.43099183  1
  O  O27  1  0.65470748  0.93886828  0.22198203  1
  O  O28  1  0.99572983  0.73065409  0.11389213  1
  O  O29  1  0.23775074  0.95670477  0.57706756  1
  O  O30  1  0.34529252  0.56113172  0.72198203  1
  O  O31  1  0.26224926  0.45670477  0.42293244  1
  O  O32  1  0.00427017  0.76934591  0.61389213  1
  O  O33  1  0.49450650  0.72242165  0.86956237  1
  O  O34  1  0.99450650  0.27757835  0.63043763  1
  O  O35  1  0.00549350  0.22242165  0.13043763  1
  O  O36  1  0.23365735  0.04182629  0.06900817  1
  O  O37  1  0.15470748  0.06113172  0.27801797  1
  O  O38  1  0.50427017  0.23065409  0.88610787  1
  O  O39  1  0.84529252  0.43886828  0.77801797  1
