# generated using pymatgen
data_UF6
_symmetry_space_group_name_H-M   'P 1'
_cell_length_a   5.26017059
_cell_length_b   9.82187503
_cell_length_c   10.78268175
_cell_angle_alpha   90.02491656
_cell_angle_beta   90.02835271
_cell_angle_gamma   89.99748682
_symmetry_Int_Tables_number   1
_chemical_formula_structural   UF6
_chemical_formula_sum   'U4 F24'
_cell_volume   557.08430815
_cell_formula_units_Z   4
loop_
 _symmetry_equiv_pos_site_id
 _symmetry_equiv_pos_as_xyz
  1  'x, y, z'
loop_
 _atom_site_type_symbol
 _atom_site_label
 _atom_site_symmetry_multiplicity
 _atom_site_fract_x
 _atom_site_fract_y
 _atom_site_fract_z
 _atom_site_occupancy
  U  U0  1  0.06258897  0.75049705  0.09723906  1
  U  U1  1  0.43775089  0.74972293  0.59725847  1
  U  U2  1  0.56243991  0.25024306  0.40252224  1
  U  U3  1  0.93727604  0.24953189  0.90293762  1
  F  F4  1  0.70632699  0.39468476  0.83189275  1
  F  F5  1  0.79311637  0.10513800  0.33133547  1
  F  F6  1  0.23666263  0.74931829  0.43713104  1
  F  F7  1  0.76433754  0.25045917  0.56254489  1
  F  F8  1  0.20708599  0.60453612  0.66854538  1
  F  F9  1  0.20637805  0.89464435  0.66827378  1
  F  F10  1  0.70598655  0.10460272  0.83152860  1
  F  F11  1  0.29392312  0.60553897  0.16801640  1
  F  F12  1  0.82943828  0.60709353  0.02566378  1
  F  F13  1  0.79329656  0.39524674  0.33121204  1
  F  F14  1  0.26320064  0.75089364  0.93687756  1
  F  F15  1  0.17060538  0.39272725  0.97460495  1
  F  F16  1  0.65264629  0.74976363  0.75269288  1
  F  F17  1  0.73585868  0.24931676  0.06300645  1
  F  F18  1  0.84799917  0.75047569  0.25247156  1
  F  F19  1  0.82818482  0.89365919  0.02604829  1
  F  F20  1  0.67071043  0.89314320  0.52593311  1
  F  F21  1  0.15206832  0.24939067  0.74773458  1
  F  F22  1  0.17080498  0.10615464  0.97429781  1
  F  F23  1  0.32934503  0.39368394  0.47412183  1
  F  F24  1  0.34703341  0.25038888  0.24748779  1
  F  F25  1  0.67195949  0.60657286  0.52597255  1
  F  F26  1  0.29355245  0.89553984  0.16850682  1
  F  F27  1  0.32942201  0.10703124  0.47414132  1
