# generated using pymatgen
data_Ti2Se
_symmetry_space_group_name_H-M   'P 1'
_cell_length_a   3.46470438
_cell_length_b   9.51060872
_cell_length_c   17.94930256
_cell_angle_alpha   90.00000000
_cell_angle_beta   90.00000000
_cell_angle_gamma   90.00000000
_symmetry_Int_Tables_number   1
_chemical_formula_structural   Ti2Se
_chemical_formula_sum   'Ti24 Se12'
_cell_volume   591.45550435
_cell_formula_units_Z   12
loop_
 _symmetry_equiv_pos_site_id
 _symmetry_equiv_pos_as_xyz
  1  'x, y, z'
loop_
 _atom_site_type_symbol
 _atom_site_label
 _atom_site_symmetry_multiplicity
 _atom_site_fract_x
 _atom_site_fract_y
 _atom_site_fract_z
 _atom_site_occupancy
  Ti  Ti0  1  0.75000000  0.88885729  0.98663381  1
  Ti  Ti1  1  0.75000000  0.38702991  0.03088077  1
  Ti  Ti2  1  0.75000000  0.41824844  0.64586298  1
  Ti  Ti3  1  0.25000000  0.54155049  0.16024978  1
  Ti  Ti4  1  0.75000000  0.61114271  0.48663381  1
  Ti  Ti5  1  0.25000000  0.95844951  0.66024978  1
  Ti  Ti6  1  0.75000000  0.08175156  0.14586298  1
  Ti  Ti7  1  0.25000000  0.88702991  0.46911923  1
  Ti  Ti8  1  0.25000000  0.58175156  0.35413702  1
  Ti  Ti9  1  0.25000000  0.25439075  0.27078779  1
  Ti  Ti10  1  0.75000000  0.75439075  0.22921221  1
  Ti  Ti11  1  0.75000000  0.15021516  0.89340730  1
  Ti  Ti12  1  0.25000000  0.65021516  0.60659270  1
  Ti  Ti13  1  0.75000000  0.74560925  0.72921221  1
  Ti  Ti14  1  0.25000000  0.61297009  0.96911923  1
  Ti  Ti15  1  0.25000000  0.24560925  0.77078779  1
  Ti  Ti16  1  0.25000000  0.84978484  0.10659270  1
  Ti  Ti17  1  0.25000000  0.91824844  0.85413702  1
  Ti  Ti18  1  0.75000000  0.34978484  0.39340730  1
  Ti  Ti19  1  0.25000000  0.11114271  0.01336619  1
  Ti  Ti20  1  0.75000000  0.45844951  0.83975022  1
  Ti  Ti21  1  0.25000000  0.38885729  0.51336619  1
  Ti  Ti22  1  0.75000000  0.11297009  0.53088077  1
  Ti  Ti23  1  0.75000000  0.04155049  0.33975022  1
  Se  Se24  1  0.25000000  0.28214484  0.12761538  1
  Se  Se25  1  0.75000000  0.03125799  0.76153855  1
  Se  Se26  1  0.75000000  0.46874201  0.26153855  1
  Se  Se27  1  0.25000000  0.53125799  0.73846145  1
  Se  Se28  1  0.75000000  0.71785516  0.87238462  1
  Se  Se29  1  0.25000000  0.96874201  0.23846145  1
  Se  Se30  1  0.25000000  0.21785516  0.62761538  1
  Se  Se31  1  0.75000000  0.78214484  0.37238462  1
  Se  Se32  1  0.75000000  0.66018320  0.07499540  1
  Se  Se33  1  0.25000000  0.33981680  0.92500460  1
  Se  Se34  1  0.25000000  0.16018320  0.42500460  1
  Se  Se35  1  0.75000000  0.83981680  0.57499540  1
