# generated using pymatgen
data_TbNi
_symmetry_space_group_name_H-M   'P 1'
_cell_length_a   4.20915174
_cell_length_b   5.42959364
_cell_length_c   21.00880160
_cell_angle_alpha   90.00000000
_cell_angle_beta   90.00000000
_cell_angle_gamma   90.00000000
_symmetry_Int_Tables_number   1
_chemical_formula_structural   TbNi
_chemical_formula_sum   'Tb12 Ni12'
_cell_volume   480.13480548
_cell_formula_units_Z   12
loop_
 _symmetry_equiv_pos_site_id
 _symmetry_equiv_pos_as_xyz
  1  'x, y, z'
loop_
 _atom_site_type_symbol
 _atom_site_label
 _atom_site_symmetry_multiplicity
 _atom_site_fract_x
 _atom_site_fract_y
 _atom_site_fract_z
 _atom_site_occupancy
  Tb  Tb0  1  0.75000000  0.63093020  0.10715062  1
  Tb  Tb1  1  0.25000000  0.13093020  0.39284938  1
  Tb  Tb2  1  0.75000000  0.86906980  0.60715062  1
  Tb  Tb3  1  0.75000000  0.38093432  0.27116162  1
  Tb  Tb4  1  0.75000000  0.86092777  0.93949368  1
  Tb  Tb5  1  0.75000000  0.11906568  0.77116162  1
  Tb  Tb6  1  0.25000000  0.88093432  0.22883838  1
  Tb  Tb7  1  0.75000000  0.63907223  0.43949368  1
  Tb  Tb8  1  0.25000000  0.36092777  0.56050632  1
  Tb  Tb9  1  0.25000000  0.36906980  0.89284938  1
  Tb  Tb10  1  0.25000000  0.13907223  0.06050632  1
  Tb  Tb11  1  0.25000000  0.61906568  0.72883838  1
  Ni  Ni12  1  0.25000000  0.87774597  0.84614746  1
  Ni  Ni13  1  0.75000000  0.36134311  0.98792637  1
  Ni  Ni14  1  0.75000000  0.61036291  0.82106922  1
  Ni  Ni15  1  0.25000000  0.63865689  0.01207363  1
  Ni  Ni16  1  0.75000000  0.37774597  0.65385254  1
  Ni  Ni17  1  0.25000000  0.38963709  0.17893078  1
  Ni  Ni18  1  0.25000000  0.86134311  0.51207363  1
  Ni  Ni19  1  0.75000000  0.12225403  0.15385254  1
  Ni  Ni20  1  0.75000000  0.13865689  0.48792637  1
  Ni  Ni21  1  0.75000000  0.88963709  0.32106922  1
  Ni  Ni22  1  0.25000000  0.11036291  0.67893078  1
  Ni  Ni23  1  0.25000000  0.62225403  0.34614746  1
