# generated using pymatgen
data_Ti8Se3
_symmetry_space_group_name_H-M   'P 1'
_cell_length_a   3.44064999
_cell_length_b   12.88632058
_cell_length_c   16.93800352
_cell_angle_alpha   81.67057983
_cell_angle_beta   84.17064303
_cell_angle_gamma   82.32810447
_symmetry_Int_Tables_number   1
_chemical_formula_structural   Ti8Se3
_chemical_formula_sum   'Ti32 Se12'
_cell_volume   733.81900664
_cell_formula_units_Z   4
loop_
 _symmetry_equiv_pos_site_id
 _symmetry_equiv_pos_as_xyz
  1  'x, y, z'
loop_
 _atom_site_type_symbol
 _atom_site_label
 _atom_site_symmetry_multiplicity
 _atom_site_fract_x
 _atom_site_fract_y
 _atom_site_fract_z
 _atom_site_occupancy
  Ti  Ti0  1  0.07447478  0.41816289  0.43288754  1
  Ti  Ti1  1  0.70189387  0.06046956  0.53574270  1
  Ti  Ti2  1  0.16847865  0.00399763  0.65904507  1
  Ti  Ti3  1  0.79038864  0.28920152  0.13002119  1
  Ti  Ti4  1  0.29810613  0.93953044  0.46425730  1
  Ti  Ti5  1  0.73830043  0.56698628  0.95641285  1
  Ti  Ti6  1  0.06529789  0.92374218  0.94566204  1
  Ti  Ti7  1  0.51019241  0.89640806  0.08320713  1
  Ti  Ti8  1  0.22445514  0.15503846  0.39605127  1
  Ti  Ti9  1  0.90460688  0.77748697  0.41329928  1
  Ti  Ti10  1  0.51202414  0.40115958  0.57479214  1
  Ti  Ti11  1  0.83152135  0.99600237  0.34095493  1
  Ti  Ti12  1  0.92552522  0.58183711  0.56711246  1
  Ti  Ti13  1  0.26169957  0.43301372  0.04358715  1
  Ti  Ti14  1  0.48797586  0.59884042  0.42520786  1
  Ti  Ti15  1  0.34929505  0.10516380  0.19624609  1
  Ti  Ti16  1  0.65070495  0.89483620  0.80375391  1
  Ti  Ti17  1  0.33363791  0.48592007  0.84680412  1
  Ti  Ti18  1  0.43796451  0.83697930  0.28709169  1
  Ti  Ti19  1  0.20961136  0.71079848  0.86997881  1
  Ti  Ti20  1  0.66636209  0.51407993  0.15319588  1
  Ti  Ti21  1  0.48980759  0.10359194  0.91679287  1
  Ti  Ti22  1  0.12771577  0.67776844  0.06680003  1
  Ti  Ti23  1  0.56203549  0.16302070  0.71290831  1
  Ti  Ti24  1  0.95398060  0.37471295  0.71732586  1
  Ti  Ti25  1  0.87228423  0.32223156  0.93319997  1
  Ti  Ti26  1  0.19746857  0.35939262  0.24567024  1
  Ti  Ti27  1  0.80253143  0.64060738  0.75432976  1
  Ti  Ti28  1  0.04601940  0.62528705  0.28267414  1
  Ti  Ti29  1  0.09539312  0.22251303  0.58670072  1
  Ti  Ti30  1  0.93470211  0.07625782  0.05433796  1
  Ti  Ti31  1  0.77554486  0.84496154  0.60394873  1
  Se  Se32  1  0.24201803  0.79671472  0.71924921  1
  Se  Se33  1  0.60748534  0.46895868  0.31607065  1
  Se  Se34  1  0.63254017  0.26550433  0.46941533  1
  Se  Se35  1  0.36956299  0.22526742  0.03560659  1
  Se  Se36  1  0.92979866  0.94904012  0.19136256  1
  Se  Se37  1  0.63043701  0.77473258  0.96439341  1
  Se  Se38  1  0.55463309  0.71473803  0.17599580  1
  Se  Se39  1  0.39251466  0.53104132  0.68392935  1
  Se  Se40  1  0.44536691  0.28526197  0.82400420  1
  Se  Se41  1  0.07020134  0.05095988  0.80863744  1
  Se  Se42  1  0.75798197  0.20328528  0.28075079  1
  Se  Se43  1  0.36745983  0.73449567  0.53058467  1
