# generated using pymatgen
data_Ag9(PbO3)4
_symmetry_space_group_name_H-M   'P 1'
_cell_length_a   12.00666661
_cell_length_b   10.44199245
_cell_length_c   8.84968883
_cell_angle_alpha   89.90538456
_cell_angle_beta   47.14544798
_cell_angle_gamma   90.00251703
_symmetry_Int_Tables_number   1
_chemical_formula_structural   Ag9(PbO3)4
_chemical_formula_sum   'Ag18 Pb8 O24'
_cell_volume   813.36524786
_cell_formula_units_Z   2
loop_
 _symmetry_equiv_pos_site_id
 _symmetry_equiv_pos_as_xyz
  1  'x, y, z'
loop_
 _atom_site_type_symbol
 _atom_site_label
 _atom_site_symmetry_multiplicity
 _atom_site_fract_x
 _atom_site_fract_y
 _atom_site_fract_z
 _atom_site_occupancy
  Ag  Ag0  1  -0.00007330  0.49718152  0.00228391  1
  Ag  Ag1  1  0.12533254  0.74950302  0.00030640  1
  Ag  Ag2  1  0.13290830  0.49329248  0.23185628  1
  Ag  Ag3  1  0.25152937  0.99995410  0.99724878  1
  Ag  Ag4  1  0.37646749  0.74932279  0.99978051  1
  Ag  Ag5  1  0.37386564  0.25130797  0.99919405  1
  Ag  Ag6  1  0.11568488  0.00434826  0.76932729  1
  Ag  Ag7  1  0.49971760  0.49975858  0.00122206  1
  Ag  Ag8  1  0.37919273  0.99973598  0.24013826  1
  Ag  Ag9  1  0.62401014  0.24839217  0.00058213  1
  Ag  Ag10  1  0.74989263  0.99844846  0.99743625  1
  Ag  Ag11  1  0.63279313  0.50526037  0.22918737  1
  Ag  Ag12  1  0.36631323  0.50118023  0.76765143  1
  Ag  Ag13  1  0.87442364  0.74790712  0.00022355  1
  Ag  Ag14  1  0.87519718  0.24802570  0.00036428  1
  Ag  Ag15  1  0.62071165  0.99360842  0.76297667  1
  Ag  Ag16  1  0.87984085  0.00042524  0.24019094  1
  Ag  Ag17  1  0.87055208  0.49942283  0.76111144  1
  Pb  Pb18  1  0.99616282  0.83298941  0.50451041  1
  Pb  Pb19  1  0.25488849  0.66570020  0.49544425  1
  Pb  Pb20  1  0.24912378  0.32997483  0.50616689  1
  Pb  Pb21  1  0.49449271  0.16632105  0.50592834  1
  Pb  Pb22  1  0.50122855  0.83051742  0.49320484  1
  Pb  Pb23  1  0.75036459  0.66874572  0.50460237  1
  Pb  Pb24  1  0.75381639  0.33347962  0.49487519  1
  Pb  Pb25  1  0.00039061  0.16917342  0.49320595  1
  O  O26  1  0.03495437  0.00019429  0.30626645  1
  O  O27  1  0.99837410  0.31004536  0.69102209  1
  O  O28  1  0.00100850  0.68722792  0.69041182  1
  O  O29  1  0.25020233  0.81157175  0.30923901  1
  O  O30  1  0.25188567  0.18885332  0.30746356  1
  O  O31  1  0.28316475  0.49696559  0.31209508  1
  O  O32  1  0.21557144  0.49827962  0.69324268  1
  O  O33  1  0.24682842  0.81305810  0.69181291  1
  O  O34  1  0.24915650  0.18508464  0.68689380  1
  O  O35  1  0.50322050  0.31316659  0.30860416  1
  O  O36  1  0.50036189  0.68670105  0.31227357  1
  O  O37  1  0.53399894  -0.00002280  0.30755819  1
  O  O38  1  0.46841091  0.99694362  0.68683433  1
  O  O39  1  0.49989447  0.31282553  0.68966338  1
  O  O40  1  0.49949542  0.68848042  0.69033745  1
  O  O41  1  0.75223346  0.81101268  0.30802863  1
  O  O42  1  0.74810749  0.18751090  0.31115974  1
  O  O43  1  0.78254111  0.50210426  0.31128715  1
  O  O44  1  0.71601501  0.49982530  0.69193961  1
  O  O45  1  0.75109618  0.81211028  0.68607427  1
  O  O46  1  0.74610251  0.18673935  0.69087691  1
  O  O47  1  0.99958180  0.31345303  0.31163768  1
  O  O48  1  0.00403404  0.68555115  0.30853328  1
  O  O49  1  0.96722549  0.00243113  0.68704741  1
