# generated using pymatgen
data_TaZnBiO5
_symmetry_space_group_name_H-M   'P 1'
_cell_length_a   5.41083084
_cell_length_b   8.06905466
_cell_length_c   12.12848970
_cell_angle_alpha   90.00000000
_cell_angle_beta   90.00000000
_cell_angle_gamma   106.31151965
_symmetry_Int_Tables_number   1
_chemical_formula_structural   TaZnBiO5
_chemical_formula_sum   'Ta4 Zn4 Bi4 O20'
_cell_volume   508.21904413
_cell_formula_units_Z   4
loop_
 _symmetry_equiv_pos_site_id
 _symmetry_equiv_pos_as_xyz
  1  'x, y, z'
loop_
 _atom_site_type_symbol
 _atom_site_label
 _atom_site_symmetry_multiplicity
 _atom_site_fract_x
 _atom_site_fract_y
 _atom_site_fract_z
 _atom_site_occupancy
  Ta  Ta0  1  0.78692634  0.96599769  0.64476272  1
  Ta  Ta1  1  0.21307366  0.03400231  0.35523728  1
  Ta  Ta2  1  0.71307366  0.53400231  0.14476272  1
  Ta  Ta3  1  0.28692634  0.46599769  0.85523728  1
  Zn  Zn4  1  0.62081479  0.16651957  0.91888361  1
  Zn  Zn5  1  0.37918521  0.83348043  0.08111639  1
  Zn  Zn6  1  0.87918521  0.33348043  0.41888361  1
  Zn  Zn7  1  0.12081479  0.66651957  0.58111639  1
  Bi  Bi8  1  0.11438802  0.16762975  0.09250606  1
  Bi  Bi9  1  0.88561198  0.83237025  0.90749394  1
  Bi  Bi10  1  0.61438802  0.66762975  0.40749394  1
  Bi  Bi11  1  0.38561198  0.33237025  0.59250606  1
  O  O12  1  0.54855127  0.32904166  0.06956660  1
  O  O13  1  0.02017301  0.31890563  0.94013043  1
  O  O14  1  0.47636240  0.65231255  0.17454707  1
  O  O15  1  0.75751802  0.51509249  0.52501439  1
  O  O16  1  0.80276663  0.48675134  0.28865309  1
  O  O17  1  0.30276663  0.98675134  0.21134691  1
  O  O18  1  0.52017301  0.81890563  0.55986957  1
  O  O19  1  0.47982699  0.18109437  0.44013043  1
  O  O20  1  0.24248198  0.48490751  0.47498561  1
  O  O21  1  0.95144873  0.17095834  0.56956660  1
  O  O22  1  0.19723337  0.51324866  0.71134691  1
  O  O23  1  0.45144873  0.67095834  0.93043340  1
  O  O24  1  0.04855127  0.82904166  0.43043340  1
  O  O25  1  0.69723337  0.01324866  0.78865309  1
  O  O26  1  0.74248198  0.98490751  0.02501339  1
  O  O27  1  0.25751802  0.01509249  0.97498561  1
  O  O28  1  0.52363760  0.34768745  0.82545293  1
  O  O29  1  0.97982699  0.68109437  0.05986957  1
  O  O30  1  0.02363760  0.84768745  0.67454707  1
  O  O31  1  0.97636240  0.15231255  0.32545293  1
