# generated using pymatgen
data_K2YbTi(PO4)3
_symmetry_space_group_name_H-M   'P 1'
_cell_length_a   10.31628362
_cell_length_b   10.39145526
_cell_length_c   20.68917446
_cell_angle_alpha   89.95907590
_cell_angle_beta   90.02077166
_cell_angle_gamma   89.81639464
_symmetry_Int_Tables_number   1
_chemical_formula_structural   K2YbTi(PO4)3
_chemical_formula_sum   'K16 Yb8 Ti8 P24 O96'
_cell_volume   2217.89222331
_cell_formula_units_Z   8
loop_
 _symmetry_equiv_pos_site_id
 _symmetry_equiv_pos_as_xyz
  1  'x, y, z'
loop_
 _atom_site_type_symbol
 _atom_site_label
 _atom_site_symmetry_multiplicity
 _atom_site_fract_x
 _atom_site_fract_y
 _atom_site_fract_z
 _atom_site_occupancy
  Yb  Yb0  1  0.09784769  0.39676387  0.30059772  1
  Yb  Yb1  1  0.09541202  0.39378194  0.79852625  1
  Yb  Yb2  1  0.17221917  0.16020593  0.58687433  1
  Yb  Yb3  1  0.40840003  0.60778781  0.05092071  1
  Yb  Yb4  1  0.66686753  0.32704310  0.91888101  1
  Yb  Yb5  1  0.66529842  0.33014165  0.41542166  1
  Yb  Yb6  1  0.83343448  0.67274439  0.16829366  1
  Yb  Yb7  1  0.83238394  0.66890532  0.66947470  1
  K  K8  1  0.04455395  0.54291764  0.47631223  1
  K  K9  1  0.04843944  0.54646563  0.97602872  1
  K  K10  1  0.18038673  0.81311773  0.15807563  1
  K  K11  1  0.17553585  0.81917799  0.65922750  1
  K  K12  1  0.31819931  0.18494917  0.40955854  1
  K  K13  1  0.31979309  0.18739985  0.90882436  1
  K  K14  1  0.45282800  0.45350140  0.22642636  1
  K  K15  1  0.45260082  0.45174964  0.72747136  1
  K  K16  1  0.54714374  0.95274950  0.02366346  1
  K  K17  1  0.54577313  0.95680985  0.52365286  1
  K  K18  1  0.68429907  0.67489083  0.33987716  1
  K  K19  1  0.68291160  0.67550921  0.83990241  1
  K  K20  1  0.82281431  0.32243399  0.59006645  1
  K  K21  1  0.81627587  0.32518734  0.09024378  1
  K  K22  1  0.95295431  0.04771590  0.27313245  1
  K  K23  1  0.95397676  0.04796355  0.77264682  1
  Ti  Ti24  1  0.16453369  0.16607028  0.08346090  1
  Ti  Ti25  1  0.33492487  0.83463400  0.33276515  1
  Ti  Ti26  1  0.33624563  0.83386328  0.83365504  1
  Ti  Ti27  1  0.39531084  0.60881361  0.55262690  1
  Ti  Ti28  1  0.60603036  0.10302690  0.19660929  1
  Ti  Ti29  1  0.60357634  0.10488580  0.69637209  1
  Ti  Ti30  1  0.89100623  0.89584199  0.44681028  1
  Ti  Ti31  1  0.89427601  0.89692183  0.94654224  1
  P  P32  1  0.02087894  0.72114360  0.31964673  1
  P  P33  1  0.02170116  0.72129112  0.81929768  1
  P  P34  1  0.13089942  0.47434359  0.14143829  1
  P  P35  1  0.13543158  0.49173556  0.64110196  1
  P  P36  1  0.21111144  0.86704883  0.48781429  1
  P  P37  1  0.20495436  0.88259717  0.98912961  1
  P  P38  1  0.29537415  0.11706676  0.23909080  1
  P  P39  1  0.29915913  0.11212309  0.74486170  1
  P  P40  1  0.37396485  0.52909199  0.39659087  1
  P  P41  1  0.37009154  0.52508346  0.89162776  1
  P  P42  1  0.47823793  0.27855764  0.06943203  1
  P  P43  1  0.48726882  0.29436070  0.56549446  1
  P  P44  1  0.51249503  0.79742581  0.19374284  1
  P  P45  1  0.50705121  0.79364965  0.68916780  1
  P  P46  1  0.62121142  0.00846744  0.35287400  1
  P  P47  1  0.62132947  0.00805615  0.85209243  1
  P  P48  1  0.71938944  0.63638231  0.00335936  1
  P  P49  1  0.70885813  0.63115451  0.50684143  1
  P  P50  1  0.78224617  0.36398215  0.25301763  1
  P  P51  1  0.78112325  0.36288478  0.75390521  1
  P  P52  1  0.86805735  0.98770975  0.60387330  1
  P  P53  1  0.87887510  0.99156695  0.10287427  1
  P  P54  1  0.98159885  0.20115856  0.44025004  1
  P  P55  1  0.98808537  0.20319023  0.94333090  1
  O  O56  1  0.00051758  0.54518239  0.13189918  1
  O  O57  1  0.01965519  0.58173939  0.63075057  1
  O  O58  1  0.01382002  0.58308631  0.34419787  1
  O  O59  1  0.01545501  0.58295609  0.84351763  1
  O  O60  1  0.04137835  0.27019973  0.38222047  1
  O  O61  1  0.05361505  0.27848705  0.88944934  1
  O  O62  1  0.06390479  0.83103618  0.48754139  1
  O  O63  1  0.05846418  0.84350344  0.98749734  1
  O  O64  1  0.07375410  0.22570126  0.49672081  1
  O  O65  1  0.08070425  0.21537986  0.00384059  1
  O  O66  1  0.11295391  0.32874710  0.12095360  1
  O  O67  1  0.09952685  0.35529106  0.62138730  1
  O  O68  1  0.16498662  0.76457420  0.30923263  1
  O  O69  1  0.16584380  0.76556794  0.80986639  1
  O  O70  1  0.18070045  0.48379978  0.21057719  1
  O  O71  1  0.18698274  0.49715036  0.71017737  1
  O  O72  1  0.22033380  0.22273733  0.27396338  1
  O  O73  1  0.22352740  0.22130562  0.77628158  1
  O  O74  1  0.21964086  0.00820378  0.03001002  1
  O  O75  1  0.23912527  0.98657553  0.52764151  1
  O  O76  1  0.22538165  0.54166275  0.09542335  1
  O  O77  1  0.24550410  0.54551285  0.59461438  1
  O  O78  1  0.24114904  0.09354937  0.16946013  1
  O  O79  1  0.24759279  0.07330828  0.67899402  1
  O  O80  1  0.26182309  0.88820943  0.41729436  1
  O  O81  1  0.25914915  0.90406676  0.91934179  1
  O  O82  1  0.26204226  0.46146945  0.36317131  1
  O  O83  1  0.27436306  0.45879675  0.84649620  1
  O  O84  1  0.28064544  0.99180328  0.28087324  1
  O  O85  1  0.28893369  0.99356610  0.79158597  1
  O  O86  1  0.28061451  0.77838815  0.02406478  1
  O  O87  1  0.28991785  0.75500457  0.52020950  1
  O  O88  1  0.34557127  0.52956888  0.47115630  1
  O  O89  1  0.32226840  0.51751675  0.96122879  1
  O  O90  1  0.33381929  0.23427541  0.06019001  1
  O  O91  1  0.35291882  0.24625331  0.54706581  1
  O  O92  1  0.38852467  0.66999992  0.87039938  1
  O  O93  1  0.39035655  0.67031140  0.37158445  1
  O  O94  1  0.42003958  0.78377929  0.25404561  1
  O  O95  1  0.41197569  0.78021715  0.74815221  1
  O  O96  1  0.44183242  0.15617475  0.23746874  1
  O  O97  1  0.44510264  0.15334093  0.74076644  1
  O  O98  1  0.44618955  0.72281274  0.13982929  1
  O  O99  1  0.44461777  0.71410762  0.63252991  1
  O  O100  1  0.48424561  0.41687979  0.09411131  1
  O  O101  1  0.48264959  0.44165128  0.58376260  1
  O  O102  1  0.49955284  0.45361011  0.88168831  1
  O  O103  1  0.49797662  0.45408294  0.38295032  1
  O  O104  1  0.50414147  0.91224994  0.85839557  1
  O  O105  1  0.50187221  0.91598818  0.35955043  1
  O  O106  1  0.52169976  0.94150878  0.17212095  1
  O  O107  1  0.51486321  0.93759540  0.66750689  1
  O  O108  1  0.54249993  0.18594449  0.12032936  1
  O  O109  1  0.54133221  0.21429589  0.62427037  1
  O  O110  1  0.58157866  0.69154430  0.99955078  1
  O  O111  1  0.56134552  0.67048041  0.51082943  1
  O  O112  1  0.55276559  0.25733824  0.00665124  1
  O  O113  1  0.58238911  0.26968519  0.51014312  1
  O  O114  1  0.58384004  0.13897331  0.87833104  1
  O  O115  1  0.58318125  0.13981000  0.37907184  1
  O  O116  1  0.64628021  0.74642463  0.21229784  1
  O  O117  1  0.63880082  0.74113436  0.70807430  1
  O  O118  1  0.66595733  0.01551725  0.28072089  1
  O  O119  1  0.66493937  0.01456101  0.77949962  1
  O  O120  1  0.68871314  0.25574377  0.22668215  1
  O  O121  1  0.68963863  0.25267470  0.72754739  1
  O  O122  1  0.73066097  0.52028752  0.45975902  1
  O  O123  1  0.73731408  0.51885677  0.95937588  1
  O  O124  1  0.73318363  0.94649819  0.89337297  1
  O  O125  1  0.73296604  0.94623088  0.39390939  1
  O  O126  1  0.74361783  0.40237634  0.32157672  1
  O  O127  1  0.74334003  0.39863586  0.82264901  1
  O  O128  1  0.75626082  0.60084035  0.07255801  1
  O  O129  1  0.75790169  0.59742466  0.57387044  1
  O  O130  1  0.76777248  0.05395818  0.14397541  1
  O  O131  1  0.74810142  0.04402977  0.64217197  1
  O  O132  1  0.76365560  0.48093566  0.20837102  1
  O  O133  1  0.76079208  0.47833424  0.70913450  1
  O  O134  1  0.78660604  0.74834811  0.47759352  1
  O  O135  1  0.81314083  0.74407638  0.97661071  1
  O  O136  1  0.83462602  0.98480295  0.03054939  1
  O  O137  1  0.83141196  0.98092239  0.53024495  1
  O  O138  1  0.84659541  0.24926116  0.45698895  1
  O  O139  1  0.85475113  0.25328453  0.96238506  1
  O  O140  1  0.91581370  0.85977318  0.12863235  1
  O  O141  1  0.90304717  0.85429154  0.62812689  1
  O  O142  1  0.94565596  0.74360960  0.25713072  1
  O  O143  1  0.94622916  0.74336919  0.75690332  1
  O  O144  1  0.92070042  0.31055205  0.25068293  1
  O  O145  1  0.91934113  0.30943327  0.75043321  1
  O  O146  1  0.95623856  0.81154320  0.37180635  1
  O  O147  1  0.95784839  0.81387699  0.87037557  1
  O  O148  1  0.97512131  0.05323061  0.42252654  1
  O  O149  1  0.97888082  0.05885633  0.92180840  1
  O  O150  1  0.99890273  0.08357994  0.10943479  1
  O  O151  1  0.97838862  0.08212316  0.61548669  1
