# generated using pymatgen
data_Al2S3
_symmetry_space_group_name_H-M   'P 1'
_cell_length_a   7.09590277
_cell_length_b   21.28134316
_cell_length_c   18.76703874
_cell_angle_alpha   19.11934689
_cell_angle_beta   55.43548958
_cell_angle_gamma   59.98630702
_symmetry_Int_Tables_number   1
_chemical_formula_structural   Al2S3
_chemical_formula_sum   'Al16 S24'
_cell_volume   757.62362714
_cell_formula_units_Z   8
loop_
 _symmetry_equiv_pos_site_id
 _symmetry_equiv_pos_as_xyz
  1  'x, y, z'
loop_
 _atom_site_type_symbol
 _atom_site_label
 _atom_site_symmetry_multiplicity
 _atom_site_fract_x
 _atom_site_fract_y
 _atom_site_fract_z
 _atom_site_occupancy
  Al  Al0  1  0.98944518  0.99690652  0.01051559  1
  Al  Al1  1  0.01098842  0.33774341  0.98838516  1
  Al  Al2  1  0.62141220  0.10217904  0.15056213  1
  Al  Al3  1  0.24040561  0.24679006  0.26054661  1
  Al  Al4  1  0.09968420  0.12290509  0.63014264  1
  Al  Al5  1  0.63063584  0.48170634  0.09914240  1
  Al  Al6  1  0.26022346  0.58665628  0.23997341  1
  Al  Al7  1  0.15000817  0.45955392  0.62136937  1
  Al  Al8  1  0.64257959  0.12307768  0.63008867  1
  Al  Al9  1  0.62447761  0.29156597  0.62559798  1
  Al  Al10  1  0.62450793  0.79184810  0.12533146  1
  Al  Al11  1  0.12523862  0.79247701  0.62397478  1
  Al  Al12  1  0.60705251  0.46067472  0.62020275  1
  Al  Al13  1  0.62039851  0.64504602  0.60775020  1
  Al  Al14  1  0.62455216  0.79210720  0.62474652  1
  Al  Al15  1  0.63080716  0.93876781  0.64190991  1
  S  S16  1  0.37674180  0.03464623  0.38105386  1
  S  S17  1  0.38545249  0.20490728  0.38573010  1
  S  S18  1  0.87354842  0.03373725  0.38394188  1
  S  S19  1  0.38617942  0.35851981  0.38469083  1
  S  S20  1  0.84554275  0.20515106  0.38542319  1
  S  S21  1  0.38119488  0.54108523  0.37688224  1
  S  S22  1  0.38445328  0.04232035  0.87373844  1
  S  S23  1  0.39064433  0.22618407  0.84705587  1
  S  S24  1  0.85944646  0.35695452  0.40394512  1
  S  S25  1  0.38959134  0.70166463  0.37155888  1
  S  S26  1  0.86831187  0.04233391  0.87364996  1
  S  S27  1  0.86530324  0.54128410  0.37663708  1
  S  S28  1  0.37155838  0.87028163  0.39016985  1
  S  S29  1  0.40506536  0.37898128  0.86423494  1
  S  S30  1  0.37644882  0.55065727  0.86516463  1
  S  S31  1  0.86448573  0.22526934  0.86526229  1
  S  S32  1  0.86428049  0.68521496  0.40517068  1
  S  S33  1  0.86496701  0.37852299  0.86471579  1
  S  S34  1  0.84665952  0.86918910  0.39154786  1
  S  S35  1  0.40436259  0.71408704  0.85895626  1
  S  S36  1  0.87346911  0.54986301  0.86795265  1
  S  S37  1  0.38584535  0.89843481  0.84490880  1
  S  S38  1  0.88048060  0.71438130  0.85824657  1
  S  S39  1  0.85917960  0.88131467  0.87963064  1
