# generated using pymatgen
data_Ca10Ti8NbAl(SiO5)10
_symmetry_space_group_name_H-M   'P 1'
_cell_length_a   27.51594429
_cell_length_b   6.67596802
_cell_length_c   7.13076082
_cell_angle_alpha   114.17686468
_cell_angle_beta   104.30083004
_cell_angle_gamma   52.82215128
_symmetry_Int_Tables_number   1
_chemical_formula_structural   Ca10Ti8NbAl(SiO5)10
_chemical_formula_sum   'Ca10 Ti8 Nb1 Al1 Si10 O50'
_cell_volume   952.12668072
_cell_formula_units_Z   1
loop_
 _symmetry_equiv_pos_site_id
 _symmetry_equiv_pos_as_xyz
  1  'x, y, z'
loop_
 _atom_site_type_symbol
 _atom_site_label
 _atom_site_symmetry_multiplicity
 _atom_site_fract_x
 _atom_site_fract_y
 _atom_site_fract_z
 _atom_site_occupancy
  Ca  Ca0  1  0.13126911  0.17182684  0.25024482  1
  Ca  Ca1  1  0.06879644  0.82810470  0.74922092  1
  Ca  Ca2  1  0.33125096  0.17190818  0.25011975  1
  Ca  Ca3  1  0.26874904  0.82809182  0.74988025  1
  Ca  Ca4  1  0.53120356  0.17189530  0.25077908  1
  Ca  Ca5  1  0.46873089  0.82817316  0.74975518  1
  Ca  Ca6  1  0.73123762  0.15970630  0.24156765  1
  Ca  Ca7  1  0.66867204  0.82774011  0.75730747  1
  Ca  Ca8  1  0.93132796  0.17225989  0.24269253  1
  Ca  Ca9  1  0.86876238  0.84029370  0.75843235  1
  Ti  Ti10  1  0.99977225  0.50034165  0.49987049  1
  Ti  Ti11  1  0.20003702  0.49992522  0.50001119  1
  Ti  Ti12  1  0.19998174  0.50005486  0.00001595  1
  Ti  Ti13  1  0.39996298  0.50007478  0.49998881  1
  Ti  Ti14  1  0.40001826  0.49994514  -0.00001595  1
  Ti  Ti15  1  0.60022775  0.49965835  0.50012951  1
  Ti  Ti16  1  0.59975253  0.50043622  0.99987239  1
  Ti  Ti17  1  0.00024747  0.49956378  0.00012761  1
  Nb  Nb18  1  0.80000000  0.50000000  0.50000000  1
  Al  Al19  1  0.80000000  0.50000000  0.00000000  1
  Si  Si20  1  0.12811218  0.17990372  0.74978073  1
  Si  Si21  1  0.07191173  0.82042256  0.25019912  1
  Si  Si22  1  0.32809196  0.17977105  0.74989391  1
  Si  Si23  1  0.27190804  0.82022895  0.25010609  1
  Si  Si24  1  0.52808827  0.17957744  0.74980088  1
  Si  Si25  1  0.47188782  0.82009628  0.25021927  1
  Si  Si26  1  0.72810257  0.18969777  0.75674941  1
  Si  Si27  1  0.67186717  0.82174352  0.24560433  1
  Si  Si28  1  0.92813283  0.17825648  0.75439567  1
  Si  Si29  1  0.87189743  0.81030223  0.24325059  1
  O  O30  1  0.02494685  0.12407770  0.40583689  1
  O  O31  1  0.08564177  0.18833032  0.88532204  1
  O  O32  1  0.02772898  0.43085012  0.25022761  1
  O  O33  1  0.08563739  0.38375334  0.61511203  1
  O  O34  1  0.02513102  0.75063951  0.09315532  1
  O  O35  1  0.17500789  0.24917791  0.90634204  1
  O  O36  1  0.11432929  0.61652209  0.38496169  1
  O  O37  1  0.17233686  0.56919739  0.75001017  1
  O  O38  1  0.22507135  0.12386211  0.40635398  1
  O  O39  1  0.11447284  0.81159329  0.11481588  1
  O  O40  1  0.28557371  0.18833748  0.88519989  1
  O  O41  1  0.17491986  0.87618214  0.59366903  1
  O  O42  1  0.22767144  0.43083121  0.24998846  1
  O  O43  1  0.28563756  0.38366817  0.61510019  1
  O  O44  1  0.22502408  0.75076399  0.09368258  1
  O  O45  1  0.37497592  0.24923601  0.90631742  1
  O  O46  1  0.31436244  0.61633183  0.38489981  1
  O  O47  1  0.37232856  0.56916879  0.75001154  1
  O  O48  1  0.42508014  0.12381786  0.40633097  1
  O  O49  1  0.31442629  0.81166252  0.11480011  1
  O  O50  1  0.48552716  0.18840671  0.88518412  1
  O  O51  1  0.37492865  0.87613789  0.59364602  1
  O  O52  1  0.42766314  0.43080261  0.24998983  1
  O  O53  1  0.48567071  0.38347791  0.61503831  1
  O  O54  1  0.42499211  0.75082209  0.09365796  1
  O  O55  1  0.57486898  0.24936049  0.90684468  1
  O  O56  1  0.51436261  0.61624666  0.38488797  1
  O  O57  1  0.57227102  0.56914988  0.74977239  1
  O  O58  1  0.62509110  0.12356631  0.40447014  1
  O  O59  1  0.51435823  0.81166968  0.11467796  1
  O  O60  1  0.68560715  0.18843985  0.88448417  1
  O  O61  1  0.57505315  0.87592230  0.59416311  1
  O  O62  1  0.62764152  0.43035452  0.24929135  1
  O  O63  1  0.68543356  0.38478741  0.61529059  1
  O  O64  1  0.62489487  0.75120418  0.09177839  1
  O  O65  1  0.77558848  0.25452242  0.90910149  1
  O  O66  1  0.71306949  0.61889282  0.38457591  1
  O  O67  1  0.77283758  0.56766831  0.75575092  1
  O  O68  1  0.82580476  0.11558088  0.40497337  1
  O  O69  1  0.71594282  0.80612598  0.11403424  1
  O  O70  1  0.88405718  0.19387402  0.88596576  1
  O  O71  1  0.77419524  0.88441912  0.59502663  1
  O  O72  1  0.82716242  0.43233169  0.24424908  1
  O  O73  1  0.88693051  0.38110718  0.61542409  1
  O  O74  1  0.82441152  0.74547758  0.09089851  1
  O  O75  1  0.97510513  0.24879582  0.90822161  1
  O  O76  1  0.91456644  0.61521259  0.38470941  1
  O  O77  1  0.97235848  0.56964548  0.75070865  1
  O  O78  1  0.91439285  0.81156015  0.11551583  1
  O  O79  1  0.97490890  0.87643369  0.59552986  1
