# generated using pymatgen
data_U2AsSe
_symmetry_space_group_name_H-M   'P 1'
_cell_length_a   8.17493591
_cell_length_b   10.82332418
_cell_length_c   7.08719031
_cell_angle_alpha   29.16488574
_cell_angle_beta   54.69217476
_cell_angle_gamma   40.85003034
_symmetry_Int_Tables_number   1
_chemical_formula_structural   U2AsSe
_chemical_formula_sum   'U4 As2 Se2'
_cell_volume   193.05948472
_cell_formula_units_Z   2
loop_
 _symmetry_equiv_pos_site_id
 _symmetry_equiv_pos_as_xyz
  1  'x, y, z'
loop_
 _atom_site_type_symbol
 _atom_site_label
 _atom_site_symmetry_multiplicity
 _atom_site_fract_x
 _atom_site_fract_y
 _atom_site_fract_z
 _atom_site_occupancy
  U  U0  1  0.24922679  0.00482740  0.49116636  1
  U  U1  1  0.75503503  0.99665810  0.50343959  1
  U  U2  1  0.49810701  0.50177578  0.50120606  1
  U  U3  1  0.99739317  0.50031195  0.49802517  1
  As  As4  1  0.49731798  0.00517002  0.99268116  1
  As  As5  1  0.25519198  0.49669121  0.00412159  1
  Se  Se6  1  0.00035119  0.99699175  0.00119196  1
  Se  Se7  1  0.74685385  0.50445480  0.99613511  1
