# generated using pymatgen
data_P4S5
_symmetry_space_group_name_H-M   'P 1'
_cell_length_a   6.92053300
_cell_length_b   7.51482180
_cell_length_c   11.56210069
_cell_angle_alpha   90.00000000
_cell_angle_beta   90.00000000
_cell_angle_gamma   112.89145091
_symmetry_Int_Tables_number   1
_chemical_formula_structural   P4S5
_chemical_formula_sum   'P8 S10'
_cell_volume   553.94850368
_cell_formula_units_Z   2
loop_
 _symmetry_equiv_pos_site_id
 _symmetry_equiv_pos_as_xyz
  1  'x, y, z'
loop_
 _atom_site_type_symbol
 _atom_site_label
 _atom_site_symmetry_multiplicity
 _atom_site_fract_x
 _atom_site_fract_y
 _atom_site_fract_z
 _atom_site_occupancy
  P  P0  1  0.31993442  0.60482601  0.98637102  1
  P  P1  1  0.68006558  0.39517399  0.48637102  1
  P  P2  1  0.53585833  0.52762815  0.86496016  1
  P  P3  1  0.46414167  0.47237185  0.36496016  1
  P  P4  1  0.25861786  0.44637859  0.74268462  1
  P  P5  1  0.74138214  0.55362141  0.24268462  1
  P  P6  1  0.51442596  0.92540216  0.76365545  1
  P  P7  1  0.48557404  0.07459784  0.26365545  1
  S  S8  1  0.36995272  0.88934377  0.92919052  1
  S  S9  1  0.63004728  0.11065623  0.42919052  1
  S  S10  1  0.73360273  0.79081249  0.79760110  1
  S  S11  1  0.26639727  0.20918751  0.29760110  1
  S  S12  1  0.29423319  0.70828899  0.65800598  1
  S  S13  1  0.70576681  0.29171101  0.15800598  1
  S  S14  1  0.05966054  0.40268989  0.88754618  1
  S  S15  1  0.94033946  0.59731011  0.38754618  1
  S  S16  1  0.17285816  0.23675283  0.63098496  1
  S  S17  1  0.82714184  0.76324717  0.13098496  1
