# generated using pymatgen
data_LiCa9Mg(PO4)7
_symmetry_space_group_name_H-M   'P 1'
_cell_length_a   13.84241802
_cell_length_b   13.84250042
_cell_length_c   27.68485637
_cell_angle_alpha   44.21281073
_cell_angle_beta   44.21285522
_cell_angle_gamma   44.21330787
_symmetry_Int_Tables_number   1
_chemical_formula_structural   LiCa9Mg(PO4)7
_chemical_formula_sum   'Li4 Ca36 Mg4 P28 O112'
_cell_volume   2343.96416842
_cell_formula_units_Z   4
loop_
 _symmetry_equiv_pos_site_id
 _symmetry_equiv_pos_as_xyz
  1  'x, y, z'
loop_
 _atom_site_type_symbol
 _atom_site_label
 _atom_site_symmetry_multiplicity
 _atom_site_fract_x
 _atom_site_fract_y
 _atom_site_fract_z
 _atom_site_occupancy
  Li  Li0  1  0.15465222  0.15465399  0.07738406  1
  Li  Li1  1  0.18632718  0.18632656  0.59310834  1
  Li  Li2  1  0.68620803  0.68607614  0.34300173  1
  Li  Li3  1  0.68599174  0.68612986  0.84309461  1
  Ca  Ca4  1  0.06223809  0.65689327  0.03778561  1
  Ca  Ca5  1  0.07534533  0.06253640  0.32838691  1
  Ca  Ca6  1  0.05613217  0.44754695  0.23272257  1
  Ca  Ca7  1  0.65687208  0.07507649  0.03134729  1
  Ca  Ca8  1  0.44741492  0.46515062  0.02819671  1
  Ca  Ca9  1  0.46529205  0.05613246  0.22379260  1
  Ca  Ca10  1  0.15807449  0.56071345  0.28771905  1
  Ca  Ca11  1  0.56244568  0.57344420  0.07887261  1
  Ca  Ca12  1  0.57225129  0.15819599  0.28178003  1
  Ca  Ca13  1  0.06184304  0.65910798  0.53702039  1
  Ca  Ca14  1  0.07425443  0.06154200  0.82961725  1
  Ca  Ca15  1  0.40393442  0.85157094  0.21635418  1
  Ca  Ca16  1  0.43560294  0.40590448  0.42377444  1
  Ca  Ca17  1  0.05415302  0.44871161  0.73391942  1
  Ca  Ca18  1  0.85155152  0.43290138  0.20190217  1
  Ca  Ca19  1  0.65912934  0.07453823  0.53069154  1
  Ca  Ca20  1  0.44884790  0.46812372  0.52694479  1
  Ca  Ca21  1  0.46798296  0.05415688  0.72433629  1
  Ca  Ca22  1  0.34763678  0.90566587  0.46757985  1
  Ca  Ca23  1  0.15841631  0.56350431  0.78618085  1
  Ca  Ca24  1  0.56177321  0.57435106  0.57936306  1
  Ca  Ca25  1  0.57554820  0.15829466  0.78032784  1
  Ca  Ca26  1  0.90408481  0.93335787  0.17454366  1
  Ca  Ca27  1  0.93520592  0.34762617  0.45277987  1
  Ca  Ca28  1  0.55422505  0.96818795  0.47434602  1
  Ca  Ca29  1  0.94865473  0.55416216  0.48409617  1
  Ca  Ca30  1  0.40570720  0.84766871  0.71776981  1
  Ca  Ca31  1  0.96879416  0.94788707  0.27800320  1
  Ca  Ca32  1  0.43264811  0.40374711  0.92583977  1
  Ca  Ca33  1  0.84768234  0.43534414  0.70292546  1
  Ca  Ca34  1  0.34882488  0.90419393  0.96679175  1
  Ca  Ca35  1  0.90577751  0.93538187  0.67368754  1
  Ca  Ca36  1  0.93352865  0.34884368  0.95214834  1
  Ca  Ca37  1  0.55585865  0.96896416  0.97397825  1
  Ca  Ca38  1  0.94798911  0.55591810  0.98448137  1
  Ca  Ca39  1  0.96836303  0.94875994  0.77703782  1
  Mg  Mg40  1  0.99975237  0.99970579  0.00015341  1
  Mg  Mg41  1  0.00012438  0.00017346  0.49979299  1
  Mg  Mg42  1  0.50000389  0.49979476  0.25057873  1
  Mg  Mg43  1  0.50050567  0.50071871  0.74966117  1
  P  P44  1  0.26480669  0.26481092  0.13237831  1
  P  P45  1  0.18171562  0.68571403  0.11117186  1
  P  P46  1  0.22234183  0.18165871  0.34276186  1
  P  P47  1  0.68571690  0.22231774  0.09087704  1
  P  P48  1  0.26900923  0.82301062  0.15403539  1
  P  P49  1  0.30592736  0.27007343  0.41274548  1
  P  P50  1  0.18535760  0.68166374  0.36114988  1
  P  P51  1  0.82313117  0.30791856  0.13452810  1
  P  P52  1  0.68163194  0.72192262  0.09280044  1
  P  P53  1  0.72218929  0.18527754  0.34089640  1
  P  P54  1  0.26489955  0.26489647  0.63246588  1
  P  P55  1  0.32539121  0.76993390  0.40301711  1
  P  P56  1  0.18170516  0.68523988  0.61119055  1
  P  P57  1  0.22235563  0.18175941  0.84272218  1
  P  P58  1  0.77002107  0.80596721  0.16267878  1
  P  P59  1  0.80598437  0.32536418  0.38505024  1
  P  P60  1  0.68523976  0.22239072  0.59084204  1
  P  P61  1  0.27004056  0.82549666  0.65294064  1
  P  P62  1  0.30802667  0.26898475  0.91150041  1
  P  P63  1  0.76495450  0.76504632  0.38241423  1
  P  P64  1  0.18541879  0.68173032  0.86104601  1
  P  P65  1  0.82537264  0.30602924  0.63500364  1
  P  P66  1  0.68176669  0.72248880  0.59257291  1
  P  P67  1  0.72221775  0.18550149  0.84079900  1
  P  P68  1  0.32532898  0.77008467  0.90298167  1
  P  P69  1  0.77001793  0.80601996  0.66267369  1
  P  P70  1  0.80600233  0.32536667  0.88496231  1
  P  P71  1  0.76493851  0.76484211  0.88253766  1
  O  O72  1  0.10771521  0.39191358  0.12855779  1
  O  O73  1  0.25718794  0.10767588  0.19595327  1
  O  O74  1  0.39199447  0.25716599  0.05382007  1
  O  O75  1  0.17075103  0.61162959  0.09322251  1
  O  O76  1  0.30652546  0.30650029  0.15321855  1
  O  O77  1  0.18666191  0.17037999  0.30577716  1
  O  O78  1  0.08476216  0.64578589  0.19778189  1
  O  O79  1  0.11577922  0.86282417  0.06615695  1
  O  O80  1  0.13238183  0.11569103  0.43136651  1
  O  O81  1  0.61163402  0.18665073  0.08527008  1
  O  O82  1  0.17072498  0.35190096  0.31304275  1
  O  O83  1  0.39549982  0.08479252  0.32295803  1
  O  O84  1  0.35200203  0.62663100  0.08527447  1
  O  O85  1  0.10854544  0.83209016  0.19488170  1
  O  O86  1  0.64582321  0.39560133  0.04233571  1
  O  O87  1  0.62656002  0.17072223  0.17599339  1
  O  O88  1  0.13267713  0.34811889  0.43752194  1
  O  O89  1  0.86281990  0.13243019  0.05782795  1
  O  O90  1  0.38881631  0.10929431  0.41701651  1
  O  O91  1  0.34261740  0.88110469  0.06639146  1
  O  O92  1  0.11113419  0.67030039  0.34331803  1
  O  O93  1  0.37078206  0.64877290  0.18892036  1
  O  O94  1  0.37928814  0.36966053  0.32515842  1
  O  O95  1  0.24551414  0.92590283  0.17084621  1
  O  O96  1  0.33969880  0.24807085  0.46384553  1
  O  O97  1  0.64887848  0.37780833  0.18533385  1
  O  O98  1  0.83213840  0.38972112  0.05426883  1
  O  O99  1  0.14592683  0.58462914  0.44770303  1
  O  O100  1  0.12539934  0.85190265  0.33539535  1
  O  O101  1  0.88130712  0.13273369  0.17123453  1
  O  O102  1  0.66984458  0.68678570  0.05559331  1
  O  O103  1  0.68704149  0.11099228  0.33496617  1
  O  O104  1  0.36236949  0.61603475  0.31602997  1
  O  O105  1  0.10800220  0.38998698  0.62771117  1
  O  O106  1  0.58527067  0.89488520  0.07294934  1
  O  O107  1  0.61577126  0.63178537  0.18130895  1
  O  O108  1  0.25537424  0.10803512  0.69500219  1
  O  O109  1  0.63230368  0.36239155  0.30785224  1
  O  O110  1  0.92596652  0.34172643  0.12269606  1
  O  O111  1  0.66996473  0.12577155  0.42613307  1
  O  O112  1  0.38993392  0.25538896  0.55402914  1
  O  O113  1  0.15029990  0.86946697  0.43976942  1
  O  O114  1  0.33384768  0.60908924  0.44459951  1
  O  O115  1  0.89502484  0.14579427  0.29268910  1
  O  O116  1  0.85208654  0.67013578  0.06274403  1
  O  O117  1  0.37528598  0.84755858  0.31650546  1
  O  O118  1  0.17038089  0.61081214  0.59358185  1
  O  O119  1  0.30626930  0.30630240  0.65316150  1
  O  O120  1  0.18692051  0.17073835  0.80545395  1
  O  O121  1  0.60924271  0.88894785  0.16696334  1
  O  O122  1  0.63261644  0.37501234  0.42413745  1
  O  O123  1  0.08475558  0.64592332  0.69776868  1
  O  O124  1  0.11566659  0.86239395  0.56620617  1
  O  O125  1  0.13233440  0.11577326  0.93125419  1
  O  O126  1  0.42761267  0.74779097  0.42007382  1
  O  O127  1  0.88863152  0.33390526  0.30476462  1
  O  O128  1  0.84784456  0.63280502  0.18762543  1
  O  O129  1  0.61081562  0.18695939  0.58529184  1
  O  O130  1  0.17055993  0.35207858  0.81316473  1
  O  O131  1  0.86968212  0.87931838  0.07519151  1
  O  O132  1  0.87914651  0.15027895  0.43494945  1
  O  O133  1  0.39556441  0.08471853  0.82290492  1
  O  O134  1  0.35197416  0.62577832  0.58537995  1
  O  O135  1  0.74812295  0.83979142  0.21382383  1
  O  O136  1  0.83948679  0.42763152  0.37423454  1
  O  O137  1  0.10924019  0.83401840  0.69440552  1
  O  O138  1  0.64589049  0.39547063  0.54244297  1
  O  O139  1  0.62583777  0.17054451  0.67601304  1
  O  O140  1  0.13277877  0.34246949  0.94061126  1
  O  O141  1  0.86240526  0.13229024  0.55789403  1
  O  O142  1  0.38978484  0.10849489  0.91603621  1
  O  O143  1  0.34800867  0.87516072  0.56632983  1
  O  O144  1  0.60809172  0.75555595  0.44489826  1
  O  O145  1  0.11092846  0.66998117  0.84353832  1
  O  O146  1  0.36956876  0.65033806  0.68964977  1
  O  O147  1  0.37784928  0.37070334  0.82439906  1
  O  O148  1  0.75536188  0.89028636  0.30400641  1
  O  O149  1  0.88996227  0.60814255  0.37767575  1
  O  O150  1  0.24795988  0.92770079  0.66986981  1
  O  O151  1  0.34172209  0.24542220  0.96295873  1
  O  O152  1  0.65021564  0.37931758  0.68485279  1
  O  O153  1  0.83396215  0.38885972  0.55463386  1
  O  O154  1  0.14590070  0.58536255  0.94747846  1
  O  O155  1  0.12583903  0.85223699  0.83495564  1
  O  O156  1  0.87498200  0.13272227  0.67406302  1
  O  O157  1  0.67042460  0.68695798  0.55543211  1
  O  O158  1  0.80635466  0.80628551  0.40318276  1
  O  O159  1  0.68668952  0.11105919  0.83517348  1
  O  O160  1  0.36252786  0.61559225  0.81607773  1
  O  O161  1  0.58474040  0.89546948  0.57296799  1
  O  O162  1  0.61585379  0.63241266  0.68113329  1
  O  O163  1  0.63192296  0.36250388  0.80795749  1
  O  O164  1  0.92763202  0.33970144  0.62405029  1
  O  O165  1  0.67076123  0.12547759  0.92593482  1
  O  O166  1  0.15039736  0.86990343  0.93955268  1
  O  O167  1  0.33401153  0.60945432  0.94431914  1
  O  O168  1  0.89533969  0.14603470  0.79230481  1
  O  O169  1  0.85206774  0.67058271  0.56286312  1
  O  O170  1  0.37517831  0.84820092  0.81627968  1
  O  O171  1  0.60930513  0.88886730  0.66696615  1
  O  O172  1  0.63294321  0.37544673  0.92374974  1
  O  O173  1  0.42777160  0.74839322  0.91968212  1
  O  O174  1  0.88919381  0.33396255  0.80450856  1
  O  O175  1  0.84795046  0.63276563  0.68760227  1
  O  O176  1  0.86967809  0.87933432  0.57514290  1
  O  O177  1  0.87950377  0.15042314  0.93473103  1
  O  O178  1  0.74805022  0.83972715  0.71386262  1
  O  O179  1  0.84000967  0.42777042  0.87385299  1
  O  O180  1  0.60809138  0.75520613  0.94512524  1
  O  O181  1  0.75538811  0.88975200  0.80409709  1
  O  O182  1  0.89008398  0.60805215  0.87771503  1
  O  O183  1  0.80631714  0.80639447  0.90315516  1
