# generated using pymatgen
data_Ti4(PO5)3
_symmetry_space_group_name_H-M   'P 1'
_cell_length_a   7.50198372
_cell_length_b   11.81375177
_cell_length_c   19.86990870
_cell_angle_alpha   86.56369620
_cell_angle_beta   79.11855040
_cell_angle_gamma   71.48755457
_symmetry_Int_Tables_number   1
_chemical_formula_structural   Ti4(PO5)3
_chemical_formula_sum   'Ti24 P18 O90'
_cell_volume   1639.85376055
_cell_formula_units_Z   6
loop_
 _symmetry_equiv_pos_site_id
 _symmetry_equiv_pos_as_xyz
  1  'x, y, z'
loop_
 _atom_site_type_symbol
 _atom_site_label
 _atom_site_symmetry_multiplicity
 _atom_site_fract_x
 _atom_site_fract_y
 _atom_site_fract_z
 _atom_site_occupancy
  Ti  Ti0  1  0.97611240  0.06538306  0.08137098  1
  Ti  Ti1  1  0.12286644  0.93461694  0.91862902  1
  Ti  Ti2  1  0.80748338  0.56538306  0.41862902  1
  Ti  Ti3  1  0.79149546  0.43461694  0.58137098  1
  Ti  Ti4  1  0.67755612  0.09081543  0.75279202  1
  Ti  Ti5  1  0.52116357  0.90918457  0.24720798  1
  Ti  Ti6  1  0.18034814  0.59081543  0.74720798  1
  Ti  Ti7  1  0.51837155  0.40918457  0.25279202  1
  Ti  Ti8  1  0.52749922  0.23007410  0.91280853  1
  Ti  Ti9  1  0.67038186  0.76992590  0.08719147  1
  Ti  Ti10  1  0.19030776  0.73007410  0.58719147  1
  Ti  Ti11  1  0.50757332  0.26992590  0.41280853  1
  Ti  Ti12  1  0.31783201  0.07382026  0.40599156  1
  Ti  Ti13  1  0.79764383  0.92617974  0.59400844  1
  Ti  Ti14  1  0.47382357  0.57382026  0.09400844  1
  Ti  Ti15  1  0.14165227  0.42617974  0.90599156  1
  Ti  Ti16  1  0.18896299  0.23409265  0.56991828  1
  Ti  Ti17  1  0.99297392  0.76590735  0.43008172  1
  Ti  Ti18  1  0.50888126  0.73409265  0.93008172  1
  Ti  Ti19  1  0.17305564  0.26590735  0.06991828  1
  Ti  Ti20  1  0.98487618  0.39470543  0.74077149  1
  Ti  Ti21  1  0.12035310  0.60529457  0.25922851  1
  Ti  Ti22  1  0.47564767  0.89470543  0.75922851  1
  Ti  Ti23  1  0.12958162  0.10529457  0.24077149  1
  P  P24  1  0.43267219  -0.00000000  -0.00000000  1
  P  P25  1  0.18267219  0.50000000  0.50000000  1
  P  P26  1  0.13091798  0.33671816  0.32861621  1
  P  P27  1  0.79625235  0.66328184  0.67138379  1
  P  P28  1  0.20953419  0.83671816  0.17138379  1
  P  P29  1  0.21763614  0.16328184  0.82861621  1
  P  P30  1  0.78245355  0.00344285  0.33571571  1
  P  P31  1  0.12161211  0.99655715  0.66428429  1
  P  P32  1  0.86816926  0.50344285  0.16428429  1
  P  P33  1  0.53589640  0.49655715  0.83571571  1
  P  P34  1  0.43433300  0.67125529  0.33711565  1
  P  P35  1  0.44270395  0.32874471  0.66288435  1
  P  P36  1  0.52144865  0.17125529  0.16288435  1
  P  P37  1  0.85558829  0.82874471  0.83711565  1
  P  P38  1  0.78827463  0.33515373  0.00086367  1
  P  P39  1  0.12429202  0.66484627  0.99913633  1
  P  P40  1  0.53913829  0.83515373  0.49913633  1
  P  P41  1  0.87342835  0.16484627  0.50086367  1
  O  O42  1  0.18905774  0.08652035  0.61542852  1
  O  O43  1  0.89100661  0.91347965  0.38457148  1
  O  O44  1  0.55448626  0.58652035  0.88457148  1
  O  O45  1  0.02557809  0.41347965  0.11542852  1
  O  O46  1  0.55953113  0.92642739  0.04848294  1
  O  O47  1  0.53444146  0.07357261  0.95151706  1
  O  O48  1  0.35801407  0.42642739  0.45151706  1
  O  O49  1  0.23595852  0.57357261  0.54848294  1
  O  O50  1  0.27985999  0.92670337  0.70352892  1
  O  O51  1  0.91009227  0.07329663  0.29647108  1
  O  O52  1  0.73338891  0.42670337  0.79647108  1
  O  O53  1  0.95656335  0.57329663  0.20352892  1
  O  O54  1  0.41179121  0.76308771  0.53626906  1
  O  O55  1  0.71114799  0.23691229  0.46373094  1
  O  O56  1  0.69806027  0.26308771  0.96373094  1
  O  O57  1  0.92487892  0.73691229  0.03626906  1
  O  O58  1  0.92223139  0.24794348  0.04614587  1
  O  O59  1  0.21632074  0.75205652  0.95385413  1
  O  O60  1  0.71837726  0.74794348  0.45385413  1
  O  O61  1  0.92017487  0.25205652  0.54614587  1
  O  O62  1  0.55867316  0.23844976  0.70889217  1
  O  O63  1  0.50601509  0.76155024  0.29110783  1
  O  O64  1  0.01756533  0.73844976  0.79110783  1
  O  O65  1  0.54712292  0.26155024  0.20889217  1
  O  O66  1  0.56433435  0.40341712  0.62496812  1
  O  O67  1  0.59271959  0.59658288  0.37503188  1
  O  O68  1  0.93930247  0.90341712  0.87503188  1
  O  O69  1  0.71775147  0.09658288  0.12496812  1
  O  O70  1  0.90876649  0.39573419  0.94871115  1
  O  O71  1  0.25321184  0.60426581  0.05128885  1
  O  O72  1  0.60747764  0.89573419  0.55128885  1
  O  O73  1  0.05450069  0.10426581  0.44871115  1
  O  O74  1  0.93688463  0.57570963  0.71439048  1
  O  O75  1  0.22698474  0.42429037  0.28560952  1
  O  O76  1  0.40127511  0.07570963  0.78560952  1
  O  O77  1  0.26259426  0.92429037  0.21439048  1
  O  O78  1  0.11213981  0.09163787  0.87698899  1
  O  O79  1  0.08076666  0.90836213  0.12301101  1
  O  O80  1  0.73912879  0.59163787  0.62301101  1
  O  O81  1  0.95377768  0.40836213  0.37698899  1
  O  O82  1  0.42824947  0.92911040  0.45254413  1
  O  O83  1  0.80990400  0.07088960  0.54745587  1
  O  O84  1  0.63079360  0.42911040  0.04745587  1
  O  O85  1  0.10735987  0.57088960  0.95254413  1
  O  O86  1  0.71625961  0.91469088  0.79358696  1
  O  O87  1  0.42453744  0.08530912  0.20641304  1
  O  O88  1  0.25984656  0.41469088  0.70641304  1
  O  O89  1  0.38095048  0.58530912  0.29358696  1
  O  O90  1  0.73843611  0.76523620  0.88848378  1
  O  O91  1  0.39215610  0.23476380  0.11151622  1
  O  O92  1  0.37691989  0.26523620  0.61151622  1
  O  O93  1  0.25367232  0.73476380  0.38848378  1
  O  O94  1  0.90025598  0.74790833  0.63022021  1
  O  O95  1  0.27838452  0.25209167  0.36977979  1
  O  O96  1  0.28047619  0.24790833  0.86977979  1
  O  O97  1  0.39816430  0.75209167  0.13022021  1
  O  O98  1  0.11244776  0.75946441  0.22023873  1
  O  O99  1  0.09215090  0.24053559  0.77976127  1
  O  O100  1  0.08268649  0.25946441  0.27976127  1
  O  O101  1  0.62191217  0.74053559  0.72023873  1
  O  O102  1  0.44071073  0.40855616  0.87848740  1
  O  O103  1  0.72775428  0.59144384  0.12151260  1
  O  O104  1  0.06919813  0.90855616  0.62151260  1
  O  O105  1  0.59926688  0.09144384  0.37848740  1
  O  O106  1  0.08097637  0.41414676  0.54138901  1
  O  O107  1  0.03651214  0.58585324  0.45861099  1
  O  O108  1  0.37236538  0.91414676  0.95861099  1
  O  O109  1  0.24512314  0.08585324  0.04138901  1
  O  O110  1  0.40464333  0.56231864  0.78512405  1
  O  O111  1  0.75208601  0.43768136  0.21487595  1
  O  O112  1  0.93976738  0.06231864  0.71487595  1
  O  O113  1  0.71696196  0.93768136  0.28512405  1
  O  O114  1  0.73122787  0.50000000  0.50000000  1
  O  O115  1  0.98122787  -0.00000000  -0.00000000  1
  O  O116  1  0.65400233  0.98123841  0.67335683  1
  O  O117  1  0.30859758  0.01876159  0.32664317  1
  O  O118  1  0.07735916  0.48123841  0.82664317  1
  O  O119  1  0.38524074  0.51876159  0.17335683  1
  O  O120  1  0.25362573  0.66326751  0.66743621  1
  O  O121  1  0.58432945  0.33673249  0.33256379  1
  O  O122  1  0.67106194  0.16326751  0.83256379  1
  O  O123  1  0.66689324  0.83673249  0.16743621  1
  O  O124  1  0.96898058  0.64829581  0.33813225  1
  O  O125  1  0.95540864  0.35170419  0.66186775  1
  O  O126  1  0.05711283  0.14829581  0.16186775  1
  O  O127  1  0.36727639  0.85170419  0.83813225  1
  O  O128  1  0.57378638  0.68686936  0.01018066  1
  O  O129  1  0.27083639  0.31313064  0.98981934  1
  O  O130  1  0.33396703  0.18686936  0.48981934  1
  O  O131  1  0.01065574  0.81313064  0.51018066  1
