# generated using pymatgen
data_ZnBi2O5
_symmetry_space_group_name_H-M   'P 1'
_cell_length_a   5.49136966
_cell_length_b   8.56125448
_cell_length_c   11.80711625
_cell_angle_alpha   90.00000000
_cell_angle_beta   90.00000000
_cell_angle_gamma   104.73106111
_symmetry_Int_Tables_number   1
_chemical_formula_structural   ZnBi2O5
_chemical_formula_sum   'Zn4 Bi8 O20'
_cell_volume   536.84238945
_cell_formula_units_Z   4
loop_
 _symmetry_equiv_pos_site_id
 _symmetry_equiv_pos_as_xyz
  1  'x, y, z'
loop_
 _atom_site_type_symbol
 _atom_site_label
 _atom_site_symmetry_multiplicity
 _atom_site_fract_x
 _atom_site_fract_y
 _atom_site_fract_z
 _atom_site_occupancy
  Zn  Zn0  1  0.61077016  0.14869676  0.91057254  1
  Zn  Zn1  1  0.38922984  0.85130324  0.08942746  1
  Zn  Zn2  1  0.88922984  0.35130324  0.41057254  1
  Zn  Zn3  1  0.11077016  0.64869676  0.58942746  1
  Bi  Bi4  1  0.79256639  0.94468582  0.61495322  1
  Bi  Bi5  1  0.20743361  0.05531418  0.38504678  1
  Bi  Bi6  1  0.70743361  0.55531418  0.11495322  1
  Bi  Bi7  1  0.29256639  0.44468582  0.88504678  1
  Bi  Bi8  1  0.08626169  0.14928022  0.10541684  1
  Bi  Bi9  1  0.91373831  0.85071978  0.89458316  1
  Bi  Bi10  1  0.58626169  0.64928022  0.39458316  1
  Bi  Bi11  1  0.41373831  0.35071978  0.60541684  1
  O  O12  1  0.46085854  0.34581802  0.04640800  1
  O  O13  1  0.96144309  0.31641868  0.96173563  1
  O  O14  1  0.51847093  0.70674745  0.19262990  1
  O  O15  1  0.76240706  0.51009496  0.51936767  1
  O  O16  1  0.76111546  0.48037730  0.28208005  1
  O  O17  1  0.26111546  0.98037730  0.21791995  1
  O  O18  1  0.46144309  0.81641868  0.53826437  1
  O  O19  1  0.53855691  0.18358132  0.46173563  1
  O  O20  1  0.23759294  0.48990504  0.48063233  1
  O  O21  1  0.03914146  0.15418198  0.54640800  1
  O  O22  1  0.23888454  0.51962270  0.71791995  1
  O  O23  1  0.53914146  0.65418198  0.95359200  1
  O  O24  1  0.96085854  0.84581802  0.45359200  1
  O  O25  1  0.73888454  0.01962270  0.78208005  1
  O  O26  1  0.73759294  0.98990504  0.01936767  1
  O  O27  1  0.26240706  0.01009496  0.98063233  1
  O  O28  1  0.48152907  0.29325255  0.80737010  1
  O  O29  1  0.03855691  0.68358132  0.03826437  1
  O  O30  1  0.98152907  0.79325255  0.69262990  1
  O  O31  1  0.01847093  0.20674745  0.30737010  1
