# generated using pymatgen
data_Na3MgZr(PO4)3
_symmetry_space_group_name_H-M   'P 1'
_cell_length_a   9.06982732
_cell_length_b   9.07946209
_cell_length_c   27.20403569
_cell_angle_alpha   59.89164852
_cell_angle_beta   60.11421920
_cell_angle_gamma   60.13892143
_symmetry_Int_Tables_number   1
_chemical_formula_structural   Na3MgZr(PO4)3
_chemical_formula_sum   'Na18 Mg6 Zr6 P18 O72'
_cell_volume   1585.79630985
_cell_formula_units_Z   6
loop_
 _symmetry_equiv_pos_site_id
 _symmetry_equiv_pos_as_xyz
  1  'x, y, z'
loop_
 _atom_site_type_symbol
 _atom_site_label
 _atom_site_symmetry_multiplicity
 _atom_site_fract_x
 _atom_site_fract_y
 _atom_site_fract_z
 _atom_site_occupancy
  Na  Na0  1  0.00756101  0.99754043  0.32734462  1
  Na  Na1  1  0.75163669  0.09333487  0.12886321  1
  Na  Na2  1  0.49322552  0.51552760  0.16767967  1
  Na  Na3  1  0.24869466  0.87987358  0.20604980  1
  Na  Na4  1  0.99538545  0.00668219  0.66096144  1
  Na  Na5  1  0.62670456  0.25095742  0.29160711  1
  Na  Na6  1  0.87970509  0.64272473  0.08224753  1
  Na  Na7  1  0.75098885  0.10314233  0.46516152  1
  Na  Na8  1  0.49191728  0.51644337  0.50134716  1
  Na  Na9  1  0.24893081  0.87606826  0.54007526  1
  Na  Na10  1  0.62261259  0.25618651  0.62760634  1
  Na  Na11  1  0.87473732  0.62286545  0.41588221  1
  Na  Na12  1  0.39226832  0.72824793  0.70340330  1
  Na  Na13  1  0.73821282  0.11975992  0.79570802  1
  Na  Na14  1  0.47910583  0.48855959  0.83486546  1
  Na  Na15  1  0.22476235  0.89941821  0.87936366  1
  Na  Na16  1  0.63447220  0.22229726  0.96361250  1
  Na  Na17  1  0.89174503  0.61181752  0.74347458  1
  Mg  Mg18  1  0.65201622  0.64835778  0.21847268  1
  Mg  Mg19  1  0.84696730  0.84466732  0.28403358  1
  Mg  Mg20  1  0.34660544  0.35171414  0.78590241  1
  Mg  Mg21  1  0.65380950  0.64710097  0.55100545  1
  Mg  Mg22  1  0.85172997  0.84449633  0.61635432  1
  Mg  Mg23  1  0.85129542  0.85016796  0.95110256  1
  Zr  Zr24  1  0.14903715  0.13506016  0.04515385  1
  Zr  Zr25  1  0.34652731  0.35977764  0.11958479  1
  Zr  Zr26  1  0.15096421  0.14454980  0.37847791  1
  Zr  Zr27  1  0.34902315  0.36385980  0.45147780  1
  Zr  Zr28  1  0.14580050  0.15616725  0.71277745  1
  Zr  Zr29  1  0.65259282  0.64765951  0.88362538  1
  P  P30  1  0.04113176  0.74594672  0.15599978  1
  P  P31  1  0.46135542  0.03861303  0.24938680  1
  P  P32  1  0.74909437  0.46164987  0.01736832  1
  P  P33  1  0.24940800  0.54982502  0.31677438  1
  P  P34  1  0.54394873  0.95243174  0.08488473  1
  P  P35  1  0.03985826  0.75182708  0.48658160  1
  P  P36  1  0.94852547  0.24902730  0.18090257  1
  P  P37  1  0.46075258  0.03914467  0.58347465  1
  P  P38  1  0.74948045  0.45591874  0.34828742  1
  P  P39  1  0.25502612  0.55518824  0.65136678  1
  P  P40  1  0.54971277  0.95491395  0.41727224  1
  P  P41  1  0.05420687  0.74999722  0.81889154  1
  P  P42  1  0.95015722  0.24861836  0.51502378  1
  P  P43  1  0.46406792  0.05184128  0.91404371  1
  P  P44  1  0.74623221  0.45528052  0.68221142  1
  P  P45  1  0.24876799  0.54113205  0.98448876  1
  P  P46  1  0.54849751  0.95665307  0.74984234  1
  P  P47  1  0.95542274  0.24967563  0.84766295  1
  O  O48  1  0.11935074  0.28818027  0.16585723  1
  O  O49  1  0.28954394  0.50575038  0.03932451  1
  O  O50  1  0.06377515  0.91370907  0.09704689  1
  O  O51  1  0.51589540  0.11787058  0.09713072  1
  O  O52  1  0.01899897  0.78375443  0.20834076  1
  O  O53  1  0.22147111  0.58627560  0.14475441  1
  O  O54  1  0.27893169  0.07067594  0.30252779  1
  O  O55  1  0.43995228  0.21896816  0.19372677  1
  O  O56  1  0.58697348  0.42706254  0.07658834  1
  O  O57  1  0.20896865  0.38172679  0.33106818  1
  O  O58  1  0.08468005  0.72281113  0.31208982  1
  O  O59  1  0.36883567  0.99891539  0.07481323  1
  O  O60  1  0.61871337  0.01560292  0.26236287  1
  O  O61  1  0.12114843  0.28726831  0.49940438  1
  O  O62  1  0.90694332  0.28070773  0.02593940  1
  O  O63  1  0.78703657  0.62020723  0.00725986  1
  O  O64  1  0.41390171  0.56490680  0.25920517  1
  O  O65  1  0.28999959  0.50730169  0.37293892  1
  O  O66  1  0.56069123  0.77810729  0.14005779  1
  O  O67  1  0.06259690  0.91742409  0.42600009  1
  O  O68  1  0.51690721  0.11780751  0.43147241  1
  O  O69  1  0.71123907  0.93190453  0.02929726  1
  O  O70  1  0.01618896  0.79716440  0.53746393  1
  O  O71  1  0.22074838  0.59093371  0.47685122  1
  O  O72  1  0.77695504  0.41507455  0.18762952  1
  O  O73  1  0.98165439  0.20871614  0.12656827  1
  O  O74  1  0.28257713  0.06133508  0.63897914  1
  O  O75  1  0.48484789  0.88537191  0.23472113  1
  O  O76  1  0.93556596  0.08518500  0.23993202  1
  O  O77  1  0.43474065  0.21897775  0.52871270  1
  O  O78  1  0.70507879  0.47862758  0.29725994  1
  O  O79  1  0.59087841  0.42095160  0.41064414  1
  O  O80  1  0.21411598  0.38315957  0.66696321  1
  O  O81  1  0.08780594  0.72619502  0.64320015  1
  O  O82  1  0.88092728  0.71282886  0.16290626  1
  O  O83  1  0.37870013  0.00185983  0.40441596  1
  O  O84  1  0.62005226  0.01525005  0.59568457  1
  O  O85  1  0.12103370  0.28513220  0.83392155  1
  O  O86  1  0.90825902  0.26974625  0.35949832  1
  O  O87  1  0.79260912  0.60908551  0.34128436  1
  O  O88  1  0.41624164  0.56727998  0.59192998  1
  O  O89  1  0.29249779  0.52604386  0.70511453  1
  O  O90  1  0.56361424  0.77897415  0.47198065  1
  O  O91  1  0.06295945  0.91891960  0.75860167  1
  O  O92  1  0.51650596  0.11653154  0.76314226  1
  O  O93  1  0.72167424  0.93778231  0.36196687  1
  O  O94  1  0.01940961  0.79853281  0.87035142  1
  O  O95  1  0.23038664  0.59516475  0.80644515  1
  O  O96  1  0.77863275  0.41514290  0.52057084  1
  O  O97  1  0.98315462  0.20603492  0.46075250  1
  O  O98  1  0.28897824  0.06674763  0.96882473  1
  O  O99  1  0.48469041  0.88036927  0.57109402  1
  O  O100  1  0.93526405  0.08603099  0.57400208  1
  O  O101  1  0.44217834  0.22121199  0.85854380  1
  O  O102  1  0.70497333  0.48001036  0.62985842  1
  O  O103  1  0.58712271  0.42901856  0.74249183  1
  O  O104  1  0.22625081  0.36835168  0.99541872  1
  O  O105  1  0.08694406  0.71072066  0.97634733  1
  O  O106  1  0.88037121  0.71558454  0.49446192  1
  O  O107  1  0.38049220  0.98798734  0.73806492  1
  O  O108  1  0.62633308  0.01825451  0.92646513  1
  O  O109  1  0.90972510  0.27106791  0.69186991  1
  O  O110  1  0.79046685  0.61300716  0.67248604  1
  O  O111  1  0.41925141  0.56270531  0.92620044  1
  O  O112  1  0.56653392  0.77589346  0.80552545  1
  O  O113  1  0.72315927  0.92896295  0.69578698  1
  O  O114  1  0.77849676  0.41933671  0.85444253  1
  O  O115  1  0.97528942  0.22422127  0.79104982  1
  O  O116  1  0.49760521  0.88501692  0.90043526  1
  O  O117  1  0.92481746  0.08867922  0.90455082  1
  O  O118  1  0.70584817  0.48973603  0.96335069  1
  O  O119  1  0.88615577  0.71143502  0.82967773  1
