# generated using pymatgen
data_LiMnO2
_symmetry_space_group_name_H-M   'P 1'
_cell_length_a   2.87178432
_cell_length_b   32.44334878
_cell_length_c   5.82278525
_cell_angle_alpha   90.00000000
_cell_angle_beta   90.00000000
_cell_angle_gamma   90.00000000
_symmetry_Int_Tables_number   1
_chemical_formula_structural   LiMnO2
_chemical_formula_sum   'Li14 Mn14 O28'
_cell_volume   542.51065041
_cell_formula_units_Z   14
loop_
 _symmetry_equiv_pos_site_id
 _symmetry_equiv_pos_as_xyz
  1  'x, y, z'
loop_
 _atom_site_type_symbol
 _atom_site_label
 _atom_site_symmetry_multiplicity
 _atom_site_fract_x
 _atom_site_fract_y
 _atom_site_fract_z
 _atom_site_occupancy
  Li  Li0  1  0.25000000  0.03690290  0.63950703  1
  Li  Li1  1  0.25000000  0.17857100  0.11366901  1
  Li  Li2  1  0.25000000  0.32024010  0.63950703  1
  Li  Li3  1  0.25000000  0.46377941  0.11849438  1
  Li  Li4  1  0.25000000  0.60691982  0.11633512  1
  Li  Li5  1  0.25000000  0.75022318  0.11633512  1
  Li  Li6  1  0.25000000  0.89336359  0.11849438  1
  Li  Li7  1  0.75000000  0.10803624  0.87349330  1
  Li  Li8  1  0.75000000  0.39030553  0.87915582  1
  Li  Li9  1  0.75000000  0.53450629  0.87754138  1
  Li  Li10  1  0.75000000  0.24910676  0.87349330  1
  Li  Li11  1  0.75000000  0.67857100  0.87587304  1
  Li  Li12  1  0.75000000  0.82263671  0.87754138  1
  Li  Li13  1  0.75000000  0.96683747  0.87915582  1
  Mn  Mn14  1  0.25000000  0.03781559  0.11983553  1
  Mn  Mn15  1  0.25000000  0.31932741  0.11983553  1
  Mn  Mn16  1  0.25000000  0.17857100  0.63535907  1
  Mn  Mn17  1  0.25000000  0.46252872  0.63574841  1
  Mn  Mn18  1  0.25000000  0.60647996  0.63223162  1
  Mn  Mn19  1  0.25000000  0.75066304  0.63223162  1
  Mn  Mn20  1  0.25000000  0.89461428  0.63574841  1
  Mn  Mn21  1  0.75000000  0.10834555  0.37465143  1
  Mn  Mn22  1  0.75000000  0.24879745  0.37465143  1
  Mn  Mn23  1  0.75000000  0.39062036  0.37755639  1
  Mn  Mn24  1  0.75000000  0.53430461  0.36242500  1
  Mn  Mn25  1  0.75000000  0.67857100  0.36053275  1
  Mn  Mn26  1  0.75000000  0.82283839  0.36242500  1
  Mn  Mn27  1  0.75000000  0.96652264  0.37755639  1
  O  O28  1  0.25000000  0.10890312  0.14407102  1
  O  O29  1  0.25000000  0.10768644  0.60465089  1
  O  O30  1  0.25000000  0.24823988  0.14407102  1
  O  O31  1  0.25000000  0.24945656  0.60465089  1
  O  O32  1  0.25000000  0.39084963  0.14754166  1
  O  O33  1  0.25000000  0.39027254  0.60779779  1
  O  O34  1  0.25000000  0.53401500  0.13811114  1
  O  O35  1  0.25000000  0.53466324  0.59820555  1
  O  O36  1  0.25000000  0.67857100  0.13634010  1
  O  O37  1  0.25000000  0.67857100  0.59621202  1
  O  O38  1  0.25000000  0.82312800  0.13811114  1
  O  O39  1  0.25000000  0.82247976  0.59820555  1
  O  O40  1  0.25000000  0.96629337  0.14754166  1
  O  O41  1  0.25000000  0.96687046  0.60779779  1
  O  O42  1  0.75000000  0.03757800  0.35646674  1
  O  O43  1  0.75000000  0.03772424  0.89632353  1
  O  O44  1  0.75000000  0.17857100  0.39855648  1
  O  O45  1  0.75000000  0.17857100  0.85863309  1
  O  O46  1  0.75000000  0.31956500  0.35646674  1
  O  O47  1  0.75000000  0.31941876  0.89632353  1
  O  O48  1  0.75000000  0.46260566  0.39985124  1
  O  O49  1  0.75000000  0.46278005  0.85959276  1
  O  O50  1  0.75000000  0.75062722  0.39623593  1
  O  O51  1  0.75000000  0.75060221  0.85658856  1
  O  O52  1  0.75000000  0.89453734  0.39985124  1
  O  O53  1  0.75000000  0.89436295  0.85959276  1
  O  O54  1  0.75000000  0.60651578  0.39623593  1
  O  O55  1  0.75000000  0.60654079  0.85658856  1
