# generated using pymatgen
data_Na7AlSn11(PO4)18
_symmetry_space_group_name_H-M   'P 1'
_cell_length_a   9.06037960
_cell_length_b   9.05622050
_cell_length_c   27.17313546
_cell_angle_alpha   57.14136012
_cell_angle_beta   57.22871362
_cell_angle_gamma   57.14170836
_symmetry_Int_Tables_number   1
_chemical_formula_structural   Na7AlSn11(PO4)18
_chemical_formula_sum   'Na7 Al1 Sn11 P18 O72'
_cell_volume   1473.81670635
_cell_formula_units_Z   1
loop_
 _symmetry_equiv_pos_site_id
 _symmetry_equiv_pos_as_xyz
  1  'x, y, z'
loop_
 _atom_site_type_symbol
 _atom_site_label
 _atom_site_symmetry_multiplicity
 _atom_site_fract_x
 _atom_site_fract_y
 _atom_site_fract_z
 _atom_site_occupancy
  Na  Na0  1  0.99519506  0.00157618  0.00206517  1
  Na  Na1  1  0.50081783  0.49977752  0.16626936  1
  Na  Na2  1  0.00014885  0.00021072  0.33318796  1
  Na  Na3  1  0.50015449  0.50016624  0.49987066  1
  Na  Na4  1  0.00007379  0.99941048  0.66683075  1
  Na  Na5  1  0.50538045  0.49555554  0.83389515  1
  Na  Na6  1  0.24276151  0.90238635  0.86922718  1
  Al  Al7  1  0.65486051  0.64362750  0.88322421  1
  Sn  Sn8  1  0.14493594  0.14795196  0.04735811  1
  Sn  Sn9  1  0.35323501  0.35313593  0.11700224  1
  Sn  Sn10  1  0.14567185  0.14575522  0.38175421  1
  Sn  Sn11  1  0.35226029  0.35234247  0.45063453  1
  Sn  Sn12  1  0.64797102  0.64759144  0.21588340  1
  Sn  Sn13  1  0.14513175  0.14451513  0.71556375  1
  Sn  Sn14  1  0.85443907  0.85469652  0.28470426  1
  Sn  Sn15  1  0.35173130  0.35369907  0.78440191  1
  Sn  Sn16  1  0.64782769  0.64776134  0.54914277  1
  Sn  Sn17  1  0.85547968  0.85434814  0.61767339  1
  Sn  Sn18  1  0.84629846  0.85180068  0.95291099  1
  P  P19  1  0.04170165  0.75074811  0.15244940  1
  P  P20  1  0.45728920  0.04167552  0.25020149  1
  P  P21  1  0.74794798  0.45976239  0.01101345  1
  P  P22  1  0.24954906  0.54280377  0.31933514  1
  P  P23  1  0.54180444  0.95860368  0.08320576  1
  P  P24  1  0.04188021  0.75044672  0.48567435  1
  P  P25  1  0.95915455  0.24946807  0.18063901  1
  P  P26  1  0.45747644  0.04163821  0.58350083  1
  P  P27  1  0.75045511  0.45744376  0.34728450  1
  P  P28  1  0.24983396  0.54214735  0.65284515  1
  P  P29  1  0.54274546  0.95826958  0.41641584  1
  P  P30  1  0.03267543  0.74924703  0.82053912  1
  P  P31  1  0.95852711  0.24944295  0.51413794  1
  P  P32  1  0.45925871  0.03314369  0.91595759  1
  P  P33  1  0.75043464  0.45775794  0.68051261  1
  P  P34  1  0.25745651  0.54247330  0.98457434  1
  P  P35  1  0.54916813  0.95364818  0.75061636  1
  P  P36  1  0.94896109  0.25996460  0.84797550  1
  O  O37  1  0.13596943  0.25485372  0.17433298  1
  O  O38  1  0.25423316  0.52318156  0.04501882  1
  O  O39  1  0.09443611  0.90224634  0.08760416  1
  O  O40  1  0.52375265  0.13513595  0.08483008  1
  O  O41  1  0.20706615  0.56073404  0.15502152  1
  O  O42  1  0.01122727  0.79783713  0.20443162  1
  O  O43  1  0.26306190  0.09442733  0.30061617  1
  O  O44  1  0.46453165  0.20724356  0.18698061  1
  O  O45  1  0.56155775  0.46375085  0.06813861  1
  O  O46  1  0.20210325  0.38697089  0.32954797  1
  O  O47  1  0.09806289  0.73728514  0.30176313  1
  O  O48  1  0.38644663  0.98922533  0.06715107  1
  O  O49  1  0.61284477  0.01118185  0.26613317  1
  O  O50  1  0.90097947  0.26484958  0.02942834  1
  O  O51  1  0.13538764  0.25449043  0.50788908  1
  O  O52  1  0.79799101  0.60978707  0.00420055  1
  O  O53  1  0.25426356  0.52380760  0.37843579  1
  O  O54  1  0.43912599  0.53539225  0.26432103  1
  O  O55  1  0.53534166  0.79259443  0.14634560  1
  O  O56  1  0.09470306  0.90179792  0.42095149  1
  O  O57  1  0.52365501  0.13526827  0.41818605  1
  O  O58  1  0.73691174  0.90560734  0.03275764  1
  O  O59  1  0.20723690  0.56049131  0.48827850  1
  O  O60  1  0.98942179  0.20175240  0.12872436  1
  O  O61  1  0.01174004  0.79768884  0.53758452  1
  O  O62  1  0.79294416  0.43908588  0.17845030  1
  O  O63  1  0.26306726  0.09445457  0.63400676  1
  O  O64  1  0.47647681  0.86432877  0.24858965  1
  O  O65  1  0.90558118  0.09849899  0.24560352  1
  O  O66  1  0.46469780  0.20721773  0.52027501  1
  O  O67  1  0.56094383  0.46457080  0.40241748  1
  O  O68  1  0.74540238  0.47629044  0.28829778  1
  O  O69  1  0.20228145  0.38624693  0.66296344  1
  O  O70  1  0.86461278  0.74572209  0.15877651  1
  O  O71  1  0.09863632  0.73679461  0.63502648  1
  O  O72  1  0.38677011  0.98871043  0.40071803  1
  O  O73  1  0.61276172  0.01112879  0.59957904  1
  O  O74  1  0.90171811  0.26274071  0.36499589  1
  O  O75  1  0.13691810  0.24914566  0.84104018  1
  O  O76  1  0.79788195  0.61317561  0.33714175  1
  O  O77  1  0.25452949  0.52314494  0.71191689  1
  O  O78  1  0.43919004  0.53523131  0.59766586  1
  O  O79  1  0.53520653  0.79277230  0.47974149  1
  O  O80  1  0.08870423  0.90131322  0.75537420  1
  O  O81  1  0.52247129  0.13542588  0.75168825  1
  O  O82  1  0.73694462  0.90520222  0.36611734  1
  O  O83  1  0.20429954  0.56214595  0.82160175  1
  O  O84  1  0.98889649  0.20194978  0.46226237  1
  O  O85  1  0.01477888  0.80009633  0.87051278  1
  O  O86  1  0.79282921  0.43917332  0.51175646  1
  O  O87  1  0.26497149  0.08850195  0.96677276  1
  O  O88  1  0.47655241  0.86445527  0.58188215  1
  O  O89  1  0.90545805  0.09827743  0.57896456  1
  O  O90  1  0.46370774  0.20530756  0.85367732  1
  O  O91  1  0.56102004  0.46541282  0.73565760  1
  O  O92  1  0.74553906  0.47659829  0.62147995  1
  O  O93  1  0.20779378  0.38740933  0.99488369  1
  O  O94  1  0.86461485  0.74559959  0.49215723  1
  O  O95  1  0.09953664  0.73739967  0.96723304  1
  O  O96  1  0.38495128  0.98376942  0.73785430  1
  O  O97  1  0.61071321  0.01112960  0.93228729  1
  O  O98  1  0.90167756  0.26297465  0.69817875  1
  O  O99  1  0.79829556  0.61336582  0.67031058  1
  O  O100  1  0.44151552  0.55270705  0.92866838  1
  O  O101  1  0.54968244  0.78971402  0.81381397  1
  O  O102  1  0.73925629  0.90513158  0.69868924  1
  O  O103  1  0.98604401  0.20657461  0.79604035  1
  O  O104  1  0.78844208  0.44703066  0.84871268  1
  O  O105  1  0.48791342  0.85809509  0.91076733  1
  O  O106  1  0.90983682  0.09502895  0.91136075  1
  O  O107  1  0.73536015  0.49251036  0.95192713  1
  O  O108  1  0.85582763  0.73584464  0.83167753  1
