# generated using pymatgen
data_Li2Mn2(SO4)3
_symmetry_space_group_name_H-M   'P 1'
_cell_length_a   8.81881622
_cell_length_b   8.92161565
_cell_length_c   24.49527323
_cell_angle_alpha   90.00000000
_cell_angle_beta   90.00000000
_cell_angle_gamma   90.00000000
_symmetry_Int_Tables_number   1
_chemical_formula_structural   Li2Mn2(SO4)3
_chemical_formula_sum   'Li16 Mn16 S24 O96'
_cell_volume   1927.24128244
_cell_formula_units_Z   8
loop_
 _symmetry_equiv_pos_site_id
 _symmetry_equiv_pos_as_xyz
  1  'x, y, z'
loop_
 _atom_site_type_symbol
 _atom_site_label
 _atom_site_symmetry_multiplicity
 _atom_site_fract_x
 _atom_site_fract_y
 _atom_site_fract_z
 _atom_site_occupancy
  Li  Li0  1  0.96247927  0.37733784  0.70890708  1
  Li  Li1  1  0.53752073  0.62266216  0.20890708  1
  Li  Li2  1  0.46247927  0.37733784  0.79109292  1
  Li  Li3  1  0.14376848  0.56864913  0.50934539  1
  Li  Li4  1  0.64376848  0.56864913  0.99065461  1
  Li  Li5  1  0.85623152  0.43135087  0.49065461  1
  Li  Li6  1  0.96247927  0.12266216  0.20890708  1
  Li  Li7  1  0.85623152  0.06864913  0.99065461  1
  Li  Li8  1  0.46247927  0.12266216  0.29109292  1
  Li  Li9  1  0.64376848  0.93135087  0.49065461  1
  Li  Li10  1  0.35623152  0.06864913  0.50934539  1
  Li  Li11  1  0.03752073  0.87733784  0.79109292  1
  Li  Li12  1  0.14376848  0.93135087  0.00934539  1
  Li  Li13  1  0.03752073  0.62266216  0.29109292  1
  Li  Li14  1  0.35623152  0.43135087  0.00934539  1
  Li  Li15  1  0.53752073  0.87733784  0.70890708  1
  Mn  Mn16  1  0.49916559  0.90287036  0.06576416  1
  Mn  Mn17  1  0.99916559  0.59712964  0.93423584  1
  Mn  Mn18  1  0.50142565  0.70529909  0.82198354  1
  Mn  Mn19  1  0.99857435  0.20529909  0.82198354  1
  Mn  Mn20  1  0.00142565  0.70529909  0.67801646  1
  Mn  Mn21  1  0.50083441  0.09712964  0.93423584  1
  Mn  Mn22  1  0.50083441  0.40287036  0.43423584  1
  Mn  Mn23  1  0.99857435  0.29470091  0.32198354  1
  Mn  Mn24  1  0.49857435  0.29470091  0.17801646  1
  Mn  Mn25  1  0.50142565  0.79470091  0.32198354  1
  Mn  Mn26  1  0.00142565  0.79470091  0.17801646  1
  Mn  Mn27  1  0.00083441  0.09712964  0.56576416  1
  Mn  Mn28  1  0.49916559  0.59712964  0.56576416  1
  Mn  Mn29  1  0.49857435  0.20529909  0.67801646  1
  Mn  Mn30  1  0.00083441  0.40287036  0.06576416  1
  Mn  Mn31  1  0.99916559  0.90287036  0.43423584  1
  S  S32  1  0.80613613  0.90716544  0.88406101  1
  S  S33  1  0.19386387  0.09283456  0.11593899  1
  S  S34  1  0.14448996  0.55287043  0.79879851  1
  S  S35  1  0.85551004  0.05287043  0.70120149  1
  S  S36  1  0.64896278  0.24684427  0.55180066  1
  S  S37  1  0.35551004  0.05287043  0.79879851  1
  S  S38  1  0.80613613  0.59283456  0.38406101  1
  S  S39  1  0.19386387  0.40716544  0.61593899  1
  S  S40  1  0.35551004  0.44712957  0.29879851  1
  S  S41  1  0.64448996  0.55287043  0.70120149  1
  S  S42  1  0.14448996  0.94712957  0.29879851  1
  S  S43  1  0.64896278  0.25315573  0.05180066  1
  S  S44  1  0.85103722  0.75315573  0.05180066  1
  S  S45  1  0.35103722  0.74684427  0.94819934  1
  S  S46  1  0.30613613  0.59283456  0.11593899  1
  S  S47  1  0.14896278  0.25315573  0.44819934  1
  S  S48  1  0.69386387  0.40716544  0.88406101  1
  S  S49  1  0.69386387  0.09283456  0.38406101  1
  S  S50  1  0.35103722  0.75315573  0.44819934  1
  S  S51  1  0.14896278  0.24684427  0.94819934  1
  S  S52  1  0.85551004  0.44712957  0.20120149  1
  S  S53  1  0.30613613  0.90716544  0.61593899  1
  S  S54  1  0.64448996  0.94712957  0.20120149  1
  S  S55  1  0.85103722  0.74684427  0.55180066  1
  O  O56  1  0.40598149  0.81052536  0.58311436  1
  O  O57  1  0.09431791  0.67823381  0.76224583  1
  O  O58  1  0.90598149  0.81052536  0.91688564  1
  O  O59  1  0.14126250  0.23171146  0.38869092  1
  O  O60  1  0.91556412  0.88652155  0.52449101  1
  O  O61  1  0.64126250  0.23171146  0.11130908  1
  O  O62  1  0.06546279  0.11154085  0.96546270  1
  O  O63  1  0.31341256  0.54353751  0.79761641  1
  O  O64  1  0.35873750  0.76828854  0.88869092  1
  O  O65  1  0.41900592  0.59149250  0.27799374  1
  O  O66  1  0.58099408  0.40850750  0.72200626  1
  O  O67  1  0.81009203  0.26340662  0.03314386  1
  O  O68  1  0.41556412  0.61347845  0.47550899  1
  O  O69  1  0.68990797  0.73659338  0.53314386  1
  O  O70  1  0.59401851  0.31052536  0.91688564  1
  O  O71  1  0.09820044  0.01137192  0.15692454  1
  O  O72  1  0.58443588  0.38652155  0.52449101  1
  O  O73  1  0.91900592  0.90850750  0.72200626  1
  O  O74  1  0.85873750  0.76828854  0.61130908  1
  O  O75  1  0.41053865  0.41550725  0.35424907  1
  O  O76  1  0.56546279  0.38845915  0.03453730  1
  O  O77  1  0.40179956  0.51137192  0.15692454  1
  O  O78  1  0.31009203  0.23659338  0.96685614  1
  O  O79  1  0.08099408  0.40850750  0.77799374  1
  O  O80  1  0.81341256  0.95646249  0.20238359  1
  O  O81  1  0.81058818  0.17829651  0.35468216  1
  O  O82  1  0.31058818  0.32170349  0.64531784  1
  O  O83  1  0.23358538  0.48238906  0.07777187  1
  O  O84  1  0.18658744  0.04353751  0.79761641  1
  O  O85  1  0.85873750  0.73171146  0.11130908  1
  O  O86  1  0.58443588  0.11347845  0.02449101  1
  O  O87  1  0.08443588  0.38652155  0.97550899  1
  O  O88  1  0.90568209  0.17823381  0.73775417  1
  O  O89  1  0.08946135  0.58449275  0.85424907  1
  O  O90  1  0.93453721  0.61154085  0.53453730  1
  O  O91  1  0.73358538  0.48238906  0.42222813  1
  O  O92  1  0.09431791  0.82176619  0.26224583  1
  O  O93  1  0.09401851  0.18947464  0.08311436  1
  O  O94  1  0.90179956  0.98862808  0.84307546  1
  O  O95  1  0.43453721  0.88845915  0.46546270  1
  O  O96  1  0.90179956  0.51137192  0.34307546  1
  O  O97  1  0.09401851  0.31052536  0.58311436  1
  O  O98  1  0.68990797  0.76340662  0.03314386  1
  O  O99  1  0.18941182  0.67829651  0.14531784  1
  O  O100  1  0.40179956  0.98862808  0.65692454  1
  O  O101  1  0.08946135  0.91550725  0.35424907  1
  O  O102  1  0.58946135  0.91550725  0.14575093  1
  O  O103  1  0.81009203  0.23659338  0.53314386  1
  O  O104  1  0.06546279  0.38845915  0.46546270  1
  O  O105  1  0.40568209  0.32176619  0.26224583  1
  O  O106  1  0.14126250  0.26828854  0.88869092  1
  O  O107  1  0.31058818  0.17829651  0.14531784  1
  O  O108  1  0.08443588  0.11347845  0.47550899  1
  O  O109  1  0.91900592  0.59149250  0.22200626  1
  O  O110  1  0.08099408  0.09149250  0.27799374  1
  O  O111  1  0.35873750  0.73171146  0.38869092  1
  O  O112  1  0.73358538  0.01761094  0.92222813  1
  O  O113  1  0.40568209  0.17823381  0.76224583  1
  O  O114  1  0.68941182  0.67829651  0.35468216  1
  O  O115  1  0.68941182  0.82170349  0.85468216  1
  O  O116  1  0.81341256  0.54353751  0.70238359  1
  O  O117  1  0.90598149  0.68947464  0.41688564  1
  O  O118  1  0.31009203  0.26340662  0.46685614  1
  O  O119  1  0.90568209  0.32176619  0.23775417  1
  O  O120  1  0.31341256  0.95646249  0.29761641  1
  O  O121  1  0.91556412  0.61347845  0.02449101  1
  O  O122  1  0.59401851  0.18947464  0.41688564  1
  O  O123  1  0.68658744  0.45646249  0.20238359  1
  O  O124  1  0.91053865  0.08449275  0.64575093  1
  O  O125  1  0.40598149  0.68947464  0.08311436  1
  O  O126  1  0.41900592  0.90850750  0.77799374  1
  O  O127  1  0.26641462  0.51761094  0.57777187  1
  O  O128  1  0.18941182  0.82170349  0.64531784  1
  O  O129  1  0.26641462  0.98238906  0.07777187  1
  O  O130  1  0.09820044  0.48862808  0.65692454  1
  O  O131  1  0.18990797  0.76340662  0.46685614  1
  O  O132  1  0.59820044  0.48862808  0.84307546  1
  O  O133  1  0.64126250  0.26828854  0.61130908  1
  O  O134  1  0.76641462  0.98238906  0.42222813  1
  O  O135  1  0.59431791  0.67823381  0.73775417  1
  O  O136  1  0.18990797  0.73659338  0.96685614  1
  O  O137  1  0.59820044  0.01137192  0.34307546  1
  O  O138  1  0.68658744  0.04353751  0.70238359  1
  O  O139  1  0.76641462  0.51761094  0.92222813  1
  O  O140  1  0.81058818  0.32170349  0.85468216  1
  O  O141  1  0.58099408  0.09149250  0.22200626  1
  O  O142  1  0.41556412  0.88652155  0.97550899  1
  O  O143  1  0.58946135  0.58449275  0.64575093  1
  O  O144  1  0.41053865  0.08449275  0.85424907  1
  O  O145  1  0.56546279  0.11154085  0.53453730  1
  O  O146  1  0.18658744  0.45646249  0.29761641  1
  O  O147  1  0.91053865  0.41550725  0.14575093  1
  O  O148  1  0.93453721  0.88845915  0.03453730  1
  O  O149  1  0.23358538  0.01761094  0.57777187  1
  O  O150  1  0.43453721  0.61154085  0.96546270  1
  O  O151  1  0.59431791  0.82176619  0.23775417  1
