# generated using pymatgen
data_MoSO6
_symmetry_space_group_name_H-M   'P 1'
_cell_length_a   8.79989896
_cell_length_b   12.37557689
_cell_length_c   25.44496491
_cell_angle_alpha   90.00000000
_cell_angle_beta   90.00000000
_cell_angle_gamma   90.00000000
_symmetry_Int_Tables_number   1
_chemical_formula_structural   MoSO6
_chemical_formula_sum   'Mo24 S24 O144'
_cell_volume   2771.05403632
_cell_formula_units_Z   24
loop_
 _symmetry_equiv_pos_site_id
 _symmetry_equiv_pos_as_xyz
  1  'x, y, z'
loop_
 _atom_site_type_symbol
 _atom_site_label
 _atom_site_symmetry_multiplicity
 _atom_site_fract_x
 _atom_site_fract_y
 _atom_site_fract_z
 _atom_site_occupancy
  Mo  Mo0  1  0.49952286  0.74532995  0.33838371  1
  Mo  Mo1  1  0.01592742  0.23864715  0.49173223  1
  Mo  Mo2  1  0.47983895  0.49030499  0.17153724  1
  Mo  Mo3  1  0.00127652  0.48983338  0.32119630  1
  Mo  Mo4  1  0.00961623  0.47883831  0.00486591  1
  Mo  Mo5  1  0.00047714  0.74532995  0.83838371  1
  Mo  Mo6  1  0.02335664  0.24895307  0.84562755  1
  Mo  Mo7  1  0.97664336  0.74895307  0.15437245  1
  Mo  Mo8  1  0.98407258  0.73864715  0.50826777  1
  Mo  Mo9  1  0.49872348  0.48983338  0.82119630  1
  Mo  Mo10  1  0.49038377  0.47883831  0.50486591  1
  Mo  Mo11  1  0.97983895  0.99030499  0.32846276  1
  Mo  Mo12  1  0.50961623  0.97883831  0.49513409  1
  Mo  Mo13  1  0.99038377  0.97883831  0.99513409  1
  Mo  Mo14  1  0.51592742  0.73864715  0.00826777  1
  Mo  Mo15  1  0.99872348  0.98983338  0.67880370  1
  Mo  Mo16  1  0.50127652  0.98983338  0.17880370  1
  Mo  Mo17  1  0.52335664  0.74895307  0.65437245  1
  Mo  Mo18  1  0.50047714  0.24532995  0.66161629  1
  Mo  Mo19  1  -0.00047714  0.24532995  0.16161629  1
  Mo  Mo20  1  0.52016105  0.99030499  0.82846276  1
  Mo  Mo21  1  0.47664336  0.24895307  0.34562755  1
  Mo  Mo22  1  0.02016105  0.49030499  0.67153724  1
  Mo  Mo23  1  0.48407258  0.23864715  0.99173223  1
  S  S24  1  0.87951357  0.22680827  0.97679824  1
  S  S25  1  0.09300671  0.73840240  0.36698770  1
  S  S26  1  0.13832972  0.73661864  0.70604496  1
  S  S27  1  0.88387981  0.48881607  0.46333779  1
  S  S28  1  0.61612019  0.48881607  0.96333779  1
  S  S29  1  0.40343379  0.99661368  0.69053425  1
  S  S30  1  0.63832972  0.23661864  0.79395504  1
  S  S31  1  0.86167028  0.23661864  0.29395504  1
  S  S32  1  0.86569110  0.50303879  0.13181310  1
  S  S33  1  0.90343379  0.49661368  0.80946575  1
  S  S34  1  0.12048643  0.72680827  0.02320176  1
  S  S35  1  0.38387981  0.98881607  0.03666221  1
  S  S36  1  0.59300671  0.23840240  0.13301230  1
  S  S37  1  0.36167028  0.73661864  0.20604496  1
  S  S38  1  0.36569110  0.00303879  0.36818690  1
  S  S39  1  0.37951357  0.72680827  0.52320176  1
  S  S40  1  0.62048643  0.22680827  0.47679824  1
  S  S41  1  0.90699329  0.23840240  0.63301230  1
  S  S42  1  0.11612019  0.98881607  0.53666221  1
  S  S43  1  0.09656621  0.99661368  0.19053425  1
  S  S44  1  0.40699329  0.73840240  0.86698770  1
  S  S45  1  0.59656621  0.49661368  0.30946575  1
  S  S46  1  0.13430890  0.00303879  0.86818690  1
  S  S47  1  0.63430890  0.50303879  0.63181310  1
  O  O48  1  0.79887267  0.77305046  0.49838976  1
  O  O49  1  0.64849188  0.25653743  0.73737117  1
  O  O50  1  0.42930745  0.82490831  0.49268542  1
  O  O51  1  0.49493199  0.22793663  0.92515580  1
  O  O52  1  0.59332685  0.74524459  0.71676753  1
  O  O53  1  0.03250944  0.07777839  0.50846730  1
  O  O54  1  0.85150812  0.25653743  0.23737117  1
  O  O55  1  0.49783965  0.50444766  0.75470186  1
  O  O56  1  0.08328203  0.88959527  0.50405916  1
  O  O57  1  0.58187661  0.33555739  0.82244922  1
  O  O58  1  0.69652509  0.96279524  0.80439556  1
  O  O59  1  0.86692260  0.25171374  0.92074627  1
  O  O60  1  0.00506801  0.22793663  0.42515580  1
  O  O61  1  0.78006725  0.51006325  0.96378046  1
  O  O62  1  0.47958841  0.65046951  0.19505037  1
  O  O63  1  0.14849188  0.75653743  0.76262883  1
  O  O64  1  0.49671778  0.14432308  0.48632611  1
  O  O65  1  0.66536554  0.48990097  0.57552306  1
  O  O66  1  0.63307740  0.25171374  0.42074627  1
  O  O67  1  0.10413423  0.47687534  0.94639342  1
  O  O68  1  0.35150812  0.75653743  0.26262883  1
  O  O69  1  0.91812339  0.33555739  0.32244922  1
  O  O70  1  0.39586577  0.47687534  0.44639342  1
  O  O71  1  0.07100416  0.90076842  0.84545929  1
  O  O72  1  0.90667315  0.74524459  0.21676753  1
  O  O73  1  0.26293864  0.68802309  0.00023975  1
  O  O74  1  0.73706136  0.18802309  0.99976025  1
  O  O75  1  0.05340542  0.50488412  0.60604183  1
  O  O76  1  0.34516495  0.26689085  0.70010990  1
  O  O77  1  0.41812339  0.83555739  0.17755078  1
  O  O78  1  0.00328222  0.14432308  0.98632611  1
  O  O79  1  0.76293864  0.18802309  0.49976025  1
  O  O80  1  0.91671797  0.38959527  0.49594084  1
  O  O81  1  0.94335703  0.40347139  0.84526321  1
  O  O82  1  0.18110013  0.26845523  0.88329063  1
  O  O83  1  0.44335703  0.90347139  0.65473679  1
  O  O84  1  0.81889987  0.76845523  0.11670937  1
  O  O85  1  0.02457366  0.75352743  0.41861467  1
  O  O86  1  0.84516495  0.76689085  0.79989010  1
  O  O87  1  0.21993275  0.01006325  0.03621954  1
  O  O88  1  0.16536554  0.98990097  0.92447694  1
  O  O89  1  0.34946917  0.46072275  0.54998640  1
  O  O90  1  0.60413423  0.97687534  0.55360658  1
  O  O91  1  0.23706136  0.68802309  0.50023975  1
  O  O92  1  0.94659458  0.00488412  0.39395817  1
  O  O93  1  0.89586577  0.97687534  0.05360658  1
  O  O94  1  0.25332060  0.03609361  0.67508606  1
  O  O95  1  0.19652509  0.46279524  0.69560444  1
  O  O96  1  0.83463446  0.48990097  0.07552306  1
  O  O97  1  0.74439528  0.21366979  0.63060960  1
  O  O98  1  0.15053083  0.46072275  0.04998640  1
  O  O99  1  0.02073519  0.58292131  0.82052885  1
  O  O100  1  0.78416093  0.20507021  0.81636238  1
  O  O101  1  0.73111731  0.53549596  0.16167191  1
  O  O102  1  0.70112733  0.77305046  0.99838976  1
  O  O103  1  0.96749056  0.57777839  0.49153270  1
  O  O104  1  0.93134484  0.33711323  0.66656771  1
  O  O105  1  0.08699786  0.96240456  0.24532980  1
  O  O106  1  0.18632694  0.46165913  0.33530412  1
  O  O107  1  0.28416093  0.70507021  0.68363762  1
  O  O108  1  0.24667940  0.03609361  0.17508606  1
  O  O109  1  0.49011772  0.08533946  0.35981002  1
  O  O110  1  0.25560472  0.71366979  0.36939040  1
  O  O111  1  0.57680628  0.72739167  0.39919061  1
  O  O112  1  0.57100416  0.40076842  0.65454071  1
  O  O113  1  0.55664297  0.40347139  0.34526321  1
  O  O114  1  0.58699786  0.46240456  0.25467020  1
  O  O115  1  0.94533109  0.47605052  0.41059423  1
  O  O116  1  0.08187661  0.83555739  0.67755078  1
  O  O117  1  0.97958841  0.15046951  0.30494963  1
  O  O118  1  0.84946917  0.96072275  0.95001360  1
  O  O119  1  0.24439528  0.71366979  0.86939040  1
  O  O120  1  0.55340542  0.00488412  0.89395817  1
  O  O121  1  0.56865516  0.33711323  0.16656771  1
  O  O122  1  0.40667315  0.24524459  0.28323247  1
  O  O123  1  0.99783965  0.00444766  0.74529814  1
  O  O124  1  0.68110013  0.76845523  0.61670937  1
  O  O125  1  0.43134484  0.83711323  0.83343229  1
  O  O126  1  0.21583907  0.70507021  0.18363762  1
  O  O127  1  0.42319372  0.22739167  0.60080939  1
  O  O128  1  0.50809848  0.15111533  0.16199139  1
  O  O129  1  0.99190152  0.15111533  0.66199139  1
  O  O130  1  0.99671778  0.64432308  0.01367389  1
  O  O131  1  0.92899584  0.40076842  0.15454071  1
  O  O132  1  0.50506801  0.72793663  0.07484420  1
  O  O133  1  0.80347491  0.96279524  0.30439556  1
  O  O134  1  0.92930745  0.32490831  0.00731458  1
  O  O135  1  0.00216035  0.50444766  0.25470186  1
  O  O136  1  0.97926481  0.08292131  0.17947115  1
  O  O137  1  0.05466891  0.97605052  0.58940577  1
  O  O138  1  0.74667940  0.53609361  0.32491394  1
  O  O139  1  0.36692260  0.75171374  0.57925373  1
  O  O140  1  0.50988228  0.58533946  0.64018998  1
  O  O141  1  0.46749056  0.07777839  0.00846730  1
  O  O142  1  0.31889987  0.26845523  0.38329063  1
  O  O143  1  0.09332685  0.24524459  0.78323247  1
  O  O144  1  0.07069255  0.82490831  0.99268542  1
  O  O145  1  0.75332060  0.53609361  0.82491394  1
  O  O146  1  0.65483505  0.76689085  0.29989010  1
  O  O147  1  0.20112733  0.27305046  0.50161024  1
  O  O148  1  0.13307740  0.75171374  0.07925373  1
  O  O149  1  0.71583907  0.20507021  0.31636238  1
  O  O150  1  0.15483505  0.26689085  0.20010990  1
  O  O151  1  0.99011772  0.58533946  0.14018998  1
  O  O152  1  0.52073519  0.08292131  0.67947115  1
  O  O153  1  0.65053083  0.96072275  0.45001360  1
  O  O154  1  0.28006725  0.01006325  0.53621954  1
  O  O155  1  0.76888269  0.53549596  0.66167191  1
  O  O156  1  0.99493199  0.72793663  0.57484420  1
  O  O157  1  0.41671797  0.88959527  0.00405916  1
  O  O158  1  0.49190152  0.65111533  0.83800861  1
  O  O159  1  0.68632694  0.96165913  0.16469588  1
  O  O160  1  0.50216035  0.00444766  0.24529814  1
  O  O161  1  0.71993275  0.51006325  0.46378046  1
  O  O162  1  0.02041159  0.65046951  0.69505037  1
  O  O163  1  0.75560472  0.21366979  0.13060960  1
  O  O164  1  0.97542634  0.25352743  0.58138533  1
  O  O165  1  0.55466891  0.47605052  0.91059423  1
  O  O166  1  0.47542634  0.75352743  0.91861467  1
  O  O167  1  0.30347491  0.46279524  0.19560444  1
  O  O168  1  0.57069255  0.32490831  0.50731458  1
  O  O169  1  0.81367306  0.96165913  0.66469588  1
  O  O170  1  0.00809848  0.65111533  0.33800861  1
  O  O171  1  0.41300214  0.96240456  0.74532980  1
  O  O172  1  0.47926481  0.58292131  0.32052885  1
  O  O173  1  0.44533109  0.97605052  0.08940577  1
  O  O174  1  0.52041159  0.15046951  0.80494963  1
  O  O175  1  0.91300214  0.46240456  0.75467020  1
  O  O176  1  0.07680628  0.22739167  0.10080939  1
  O  O177  1  0.33463446  0.98990097  0.42447694  1
  O  O178  1  0.52457366  0.25352743  0.08138533  1
  O  O179  1  0.23111731  0.03549596  0.33832809  1
  O  O180  1  0.31367306  0.46165913  0.83530412  1
  O  O181  1  0.05664297  0.90347139  0.15473679  1
  O  O182  1  0.53250944  0.57777839  0.99153270  1
  O  O183  1  0.92319372  0.72739167  0.89919061  1
  O  O184  1  0.26888269  0.03549596  0.83832809  1
  O  O185  1  0.42899584  0.90076842  0.34545929  1
  O  O186  1  0.29887267  0.27305046  0.00161024  1
  O  O187  1  0.06865516  0.83711323  0.33343229  1
  O  O188  1  0.50328222  0.64432308  0.51367389  1
  O  O189  1  0.00988228  0.08533946  0.85981002  1
  O  O190  1  0.44659458  0.50488412  0.10604183  1
  O  O191  1  0.58328203  0.38959527  0.99594084  1
