# generated using pymatgen
data_Li11Fe3B24(PbO24)2
_symmetry_space_group_name_H-M   'P 1'
_cell_length_a   17.67462480
_cell_length_b   9.57508919
_cell_length_c   9.63363636
_cell_angle_alpha   100.69687937
_cell_angle_beta   56.81060862
_cell_angle_gamma   57.23677660
_symmetry_Int_Tables_number   1
_chemical_formula_structural   Li11Fe3B24(PbO24)2
_chemical_formula_sum   'Li11 Fe3 B24 Pb2 O48'
_cell_volume   836.19534239
_cell_formula_units_Z   1
loop_
 _symmetry_equiv_pos_site_id
 _symmetry_equiv_pos_as_xyz
  1  'x, y, z'
loop_
 _atom_site_type_symbol
 _atom_site_label
 _atom_site_symmetry_multiplicity
 _atom_site_fract_x
 _atom_site_fract_y
 _atom_site_fract_z
 _atom_site_occupancy
  Li  Li0  1  0.11237976  0.08524185  0.17366394  1
  Li  Li1  1  0.21615544  0.16998663  0.47881028  1
  Li  Li2  1  0.30004300  0.48651435  0.08917391  1
  Li  Li3  1  0.19455685  0.51983954  0.91821684  1
  Li  Li4  1  0.28321223  0.83115687  0.52039524  1
  Li  Li5  1  0.38660428  0.91650358  0.82812128  1
  Li  Li6  1  0.71408567  0.17631149  0.48578438  1
  Li  Li7  1  0.80476785  0.47691398  0.08304326  1
  Li  Li8  1  0.69683815  0.51795545  0.91363125  1
  Li  Li9  1  0.78738563  0.82362457  0.51628735  1
  Li  Li10  1  0.89567605  0.91116206  0.81600949  1
  Fe  Fe11  1  0.00076307  0.00158751  0.00103981  1
  Fe  Fe12  1  0.49666080  0.00070454  0.99537504  1
  Fe  Fe13  1  0.61251255  0.08520701  0.17288901  1
  B  B14  1  0.03735146  0.01223735  0.66551108  1
  B  B15  1  0.09755666  0.38692594  0.13580550  1
  B  B16  1  0.01499565  0.71817321  0.38771314  1
  B  B17  1  0.20351930  0.33290083  0.24703120  1
  B  B18  1  0.04993319  0.24687646  0.98711547  1
  B  B19  1  0.26617845  0.13614478  0.71900183  1
  B  B20  1  0.23380856  0.86308592  0.28129067  1
  B  B21  1  0.45014813  0.75397302  0.01394733  1
  B  B22  1  0.29663419  0.66815624  0.75194432  1
  B  B23  1  0.53669542  0.01297992  0.66492874  1
  B  B24  1  0.47993351  0.29022203  0.62110008  1
  B  B25  1  0.59906774  0.38820932  0.13392483  1
  B  B26  1  0.40221005  0.61398208  0.86540148  1
  B  B27  1  0.51474806  0.71754235  0.38853094  1
  B  B28  1  0.46329723  0.98734261  0.33767052  1
  B  B29  1  0.70284120  0.33130606  0.24952006  1
  B  B30  1  0.54974038  0.24270554  0.98067625  1
  B  B31  1  0.76769654  0.13559456  0.71689877  1
  B  B32  1  0.74017457  0.85403573  0.27757810  1
  B  B33  1  0.95101520  0.75371534  0.01308206  1
  B  B34  1  0.79333162  0.66905160  0.75336576  1
  B  B35  1  0.98547548  0.28048807  0.61164374  1
  B  B36  1  0.90779392  0.60554564  0.86405103  1
  B  B37  1  0.96336339  0.98736505  0.33384462  1
  Pb  Pb38  1  0.23242311  0.52358376  0.51645130  1
  Pb  Pb39  1  0.75457267  0.48935292  0.49293304  1
  O  O40  1  0.03101848  0.32792594  0.15311436  1
  O  O41  1  0.10869882  0.07708893  0.37508829  1
  O  O42  1  0.19012617  0.24359004  0.14556923  1
  O  O43  1  0.01657301  0.37730288  0.66733674  1
  O  O44  1  0.06604291  0.76956079  0.24411543  1
  O  O45  1  0.13905762  0.54566160  0.33187538  1
  O  O46  1  0.28574204  0.21693283  0.26244863  1
  O  O47  1  0.16480047  0.14490135  0.76874835  1
  O  O48  1  0.00252306  0.94747250  0.78135530  1
  O  O49  1  0.31722696  0.15264434  0.54109054  1
  O  O50  1  0.31471183  0.66767782  0.07597759  1
  O  O51  1  0.45027939  0.26468816  0.05143908  1
  O  O52  1  0.04965802  0.73433689  0.94714363  1
  O  O53  1  0.18588309  0.33093832  0.92248904  1
  O  O54  1  0.18440373  0.84544135  0.45607954  1
  O  O55  1  0.50310757  0.05278774  0.22162570  1
  O  O56  1  0.33574724  0.85349523  0.23069088  1
  O  O57  1  0.21603417  0.78073611  0.73399971  1
  O  O58  1  0.53901918  0.31071837  0.14448455  1
  O  O59  1  0.36329530  0.45256168  0.66371709  1
  O  O60  1  0.43440270  0.22968286  0.75162834  1
  O  O61  1  0.61094291  0.07518807  0.36947493  1
  O  O62  1  0.48309482  0.62376190  0.33070798  1
  O  O63  1  0.30930014  0.75696394  0.85578614  1
  O  O64  1  0.68772027  0.23978141  0.14889621  1
  O  O65  1  0.51722133  0.37379212  0.66765785  1
  O  O66  1  0.39182179  0.92185491  0.62467822  1
  O  O67  1  0.56710878  0.76861857  0.24374259  1
  O  O68  1  0.64132210  0.53972368  0.32492021  1
  O  O69  1  0.46967094  0.67093249  0.84656446  1
  O  O70  1  0.78425456  0.21589584  0.26481177  1
  O  O71  1  0.66321872  0.14849165  0.76906068  1
  O  O72  1  0.50288819  0.94888756  0.77914671  1
  O  O73  1  0.81598813  0.15375633  0.54450945  1
  O  O74  1  0.81564356  0.66587894  0.07649067  1
  O  O75  1  0.95057140  0.26557063  0.05179809  1
  O  O76  1  0.54680557  0.74057625  0.95265672  1
  O  O77  1  0.68531714  0.33186183  0.92447811  1
  O  O78  1  0.68417924  0.84831935  0.45515845  1
  O  O79  1  0.99636131  0.05335496  0.21933447  1
  O  O80  1  0.83510242  0.85539513  0.23096083  1
  O  O81  1  0.71151191  0.78882654  0.74189902  1
  O  O82  1  0.85994084  0.45797667  0.67123192  1
  O  O83  1  0.93428562  0.23101516  0.75649357  1
  O  O84  1  0.98294297  0.62574737  0.33183895  1
  O  O85  1  0.80101425  0.76874973  0.86776784  1
  O  O86  1  0.89002278  0.92392345  0.62728942  1
  O  O87  1  0.96724954  0.67480400  0.84922438  1
