# generated using pymatgen
data_KCa2P4H11O18
_symmetry_space_group_name_H-M   'P 1'
_cell_length_a   5.70083158
_cell_length_b   12.28593741
_cell_length_c   6.35358879
_cell_angle_alpha   103.51624761
_cell_angle_beta   115.00170090
_cell_angle_gamma   84.38692234
_symmetry_Int_Tables_number   1
_chemical_formula_structural   KCa2P4H11O18
_chemical_formula_sum   'K1 Ca2 P4 H11 O18'
_cell_volume   392.13623856
_cell_formula_units_Z   1
loop_
 _symmetry_equiv_pos_site_id
 _symmetry_equiv_pos_as_xyz
  1  'x, y, z'
loop_
 _atom_site_type_symbol
 _atom_site_label
 _atom_site_symmetry_multiplicity
 _atom_site_fract_x
 _atom_site_fract_y
 _atom_site_fract_z
 _atom_site_occupancy
  K  K0  1  0.48911610  0.53431621  0.98557550  1
  Ca  Ca1  1  0.00336013  0.90539183  0.70616476  1
  Ca  Ca2  1  0.99677437  0.10548556  0.30095152  1
  P  P3  1  0.14172842  0.63817588  0.37281808  1
  P  P4  1  0.50061277  0.09980775  0.79137150  1
  P  P5  1  0.49538754  0.91015171  0.21195620  1
  P  P6  1  0.83429777  0.36649845  0.61671430  1
  H  H7  1  0.98936182  0.50163931  0.49895463  1
  H  H8  1  0.03132229  0.30014691  0.06373746  1
  H  H9  1  0.26550342  0.30750582  0.31176735  1
  H  H10  1  0.47677014  0.51208896  0.49810653  1
  H  H11  1  0.36600994  0.81248180  0.40796566  1
  H  H12  1  0.62370800  0.80792329  0.92956503  1
  H  H13  1  0.37637226  0.20830776  0.06681668  1
  H  H14  1  0.63202032  0.19262067  0.58998984  1
  H  H15  1  0.73780145  0.69865500  0.68891921  1
  H  H16  1  0.97648992  0.48410997  0.98056546  1
  H  H17  1  0.95668350  0.70255956  0.94294455  1
  O  O18  1  0.05066952  0.42303234  0.59192139  1
  O  O19  1  0.24780454  0.03618018  0.68269206  1
  O  O20  1  0.14116504  0.76590552  0.44247754  1
  O  O21  1  0.14969865  0.25293748  0.17248045  1
  O  O22  1  0.09695472  0.59836020  0.10732289  1
  O  O23  1  0.46553918  0.82906353  0.96475011  1
  O  O24  1  0.46639591  0.16915273  0.59804816  1
  O  O25  1  0.41921851  0.59821936  0.53949707  1
  O  O26  1  0.75445767  0.03626430  0.86191116  1
  O  O27  1  0.23844945  0.97075522  0.14406546  1
  O  O28  1  0.56129372  0.40374587  0.46327544  1
  O  O29  1  0.52974681  0.83390543  0.39498612  1
  O  O30  1  0.88324089  0.40688699  0.89434610  1
  O  O31  1  0.53508888  0.18662629  0.03346853  1
  O  O32  1  0.84733518  0.75205679  0.83272929  1
  O  O33  1  0.85898876  0.23923104  0.57238162  1
  O  O34  1  0.74522686  0.97632657  0.32744488  1
  O  O35  1  0.93110456  0.58395172  0.41111547  1
