# generated using pymatgen
data_CaH4(ClO)2
_symmetry_space_group_name_H-M   'P 1'
_cell_length_a   5.89855139
_cell_length_b   7.60072141
_cell_length_c   12.12593566
_cell_angle_alpha   90.00000000
_cell_angle_beta   90.00000000
_cell_angle_gamma   90.00000000
_symmetry_Int_Tables_number   1
_chemical_formula_structural   CaH4(ClO)2
_chemical_formula_sum   'Ca4 H16 Cl8 O8'
_cell_volume   543.64505446
_cell_formula_units_Z   4
loop_
 _symmetry_equiv_pos_site_id
 _symmetry_equiv_pos_as_xyz
  1  'x, y, z'
loop_
 _atom_site_type_symbol
 _atom_site_label
 _atom_site_symmetry_multiplicity
 _atom_site_fract_x
 _atom_site_fract_y
 _atom_site_fract_z
 _atom_site_occupancy
  Ca  Ca0  1  0.00000000  0.78240476  0.75000000  1
  Ca  Ca1  1  0.50000000  0.71759524  0.25000000  1
  Ca  Ca2  1  0.00000000  0.21759524  0.25000000  1
  Ca  Ca3  1  0.50000000  0.28240476  0.75000000  1
  H  H4  1  0.40128878  0.71529936  0.60327865  1
  H  H5  1  0.09871122  0.78470064  0.10327865  1
  H  H6  1  0.90128878  0.78470064  0.39672135  1
  H  H7  1  0.59871122  0.71529936  0.89672135  1
  H  H8  1  0.59871122  0.28470064  0.39672135  1
  H  H9  1  0.90128878  0.21529936  0.89672135  1
  H  H10  1  0.09871122  0.21529936  0.60327865  1
  H  H11  1  0.40128878  0.28470064  0.10327865  1
  H  H12  1  0.25471796  0.85095541  0.53550878  1
  H  H13  1  0.24528204  0.64904459  0.03550878  1
  H  H14  1  0.75471796  0.64904459  0.46449122  1
  H  H15  1  0.74528204  0.85095541  0.96449122  1
  H  H16  1  0.74528204  0.14904459  0.46449122  1
  H  H17  1  0.75471796  0.35095541  0.96449122  1
  H  H18  1  0.24528204  0.35095541  0.53550878  1
  H  H19  1  0.25471796  0.14904459  0.03550878  1
  Cl  Cl20  1  0.71896291  0.55107597  0.63514402  1
  Cl  Cl21  1  0.78103709  0.94892403  0.13514402  1
  Cl  Cl22  1  0.21896291  0.94892403  0.36485598  1
  Cl  Cl23  1  0.28103709  0.55107597  0.86485598  1
  Cl  Cl24  1  0.28103709  0.44892403  0.36485598  1
  Cl  Cl25  1  0.21896291  0.05107597  0.86485598  1
  Cl  Cl26  1  0.78103709  0.05107597  0.63514402  1
  Cl  Cl27  1  0.71896291  0.44892403  0.13514402  1
  O  O28  1  0.26198307  0.78654929  0.60552168  1
  O  O29  1  0.23801693  0.71345071  0.10552168  1
  O  O30  1  0.76198307  0.71345071  0.39447832  1
  O  O31  1  0.73801693  0.78654929  0.89447832  1
  O  O32  1  0.73801693  0.21345071  0.39447832  1
  O  O33  1  0.76198307  0.28654929  0.89447832  1
  O  O34  1  0.23801693  0.28654929  0.60552168  1
  O  O35  1  0.26198307  0.21345071  0.10552168  1
