# generated using pymatgen
data_NaCa9Co(PO4)7
_symmetry_space_group_name_H-M   'P 1'
_cell_length_a   13.83801674
_cell_length_b   13.83801743
_cell_length_c   13.83801766
_cell_angle_alpha   44.38285384
_cell_angle_beta   44.38285091
_cell_angle_gamma   44.38285144
_symmetry_Int_Tables_number   1
_chemical_formula_structural   NaCa9Co(PO4)7
_chemical_formula_sum   'Na2 Ca18 Co2 P14 O56'
_cell_volume   1178.41159494
_cell_formula_units_Z   2
loop_
 _symmetry_equiv_pos_site_id
 _symmetry_equiv_pos_as_xyz
  1  'x, y, z'
loop_
 _atom_site_type_symbol
 _atom_site_label
 _atom_site_symmetry_multiplicity
 _atom_site_fract_x
 _atom_site_fract_y
 _atom_site_fract_z
 _atom_site_occupancy
  Na  Na0  1  0.68864208  0.68864208  0.68864208  1
  Na  Na1  1  0.18864208  0.18864208  0.18864208  1
  Ca  Ca2  1  0.57630276  0.16275328  0.56460568  1
  Ca  Ca3  1  0.07630276  0.06460568  0.66275328  1
  Ca  Ca4  1  0.84857952  0.44096906  0.40934408  1
  Ca  Ca5  1  0.66275328  0.07630276  0.06460568  1
  Ca  Ca6  1  0.34857952  0.90934408  0.94096906  1
  Ca  Ca7  1  0.97174879  0.94924113  0.55939086  1
  Ca  Ca8  1  0.56460568  0.57630276  0.16275328  1
  Ca  Ca9  1  0.44924113  0.47174879  0.05939086  1
  Ca  Ca10  1  0.06460568  0.66275328  0.07630276  1
  Ca  Ca11  1  0.47174879  0.05939086  0.44924113  1
  Ca  Ca12  1  0.94096906  0.34857952  0.90934408  1
  Ca  Ca13  1  0.05939086  0.44924113  0.47174879  1
  Ca  Ca14  1  0.40934408  0.84857952  0.44096906  1
  Ca  Ca15  1  0.16275328  0.56460568  0.57630276  1
  Ca  Ca16  1  0.94924113  0.55939086  0.97174879  1
  Ca  Ca17  1  0.44096906  0.40934408  0.84857952  1
  Ca  Ca18  1  0.90934408  0.94096906  0.34857952  1
  Ca  Ca19  1  0.55939086  0.97174879  0.94924113  1
  Co  Co20  1  0.00271389  0.00271389  0.00271389  1
  Co  Co21  1  0.50271389  0.50271389  0.50271389  1
  P  P22  1  0.68443067  0.72593447  0.18837105  1
  P  P23  1  0.72593447  0.18837105  0.68443067  1
  P  P24  1  0.31111571  0.27416720  0.82518802  1
  P  P25  1  0.82518802  0.31111571  0.27416720  1
  P  P26  1  0.76846878  0.76846878  0.76846878  1
  P  P27  1  0.27416720  0.82518802  0.31111571  1
  P  P28  1  0.18443067  0.68837105  0.22593447  1
  P  P29  1  0.22593447  0.18443067  0.68837105  1
  P  P30  1  0.26846878  0.26846878  0.26846878  1
  P  P31  1  0.18837105  0.68443067  0.72593447  1
  P  P32  1  0.68837105  0.22593447  0.18443067  1
  P  P33  1  0.32518802  0.77416720  0.81111571  1
  P  P34  1  0.81111571  0.32518802  0.77416720  1
  P  P35  1  0.77416720  0.81111571  0.32518802  1
  O  O36  1  0.11433109  0.67369309  0.68949664  1
  O  O37  1  0.14725319  0.58916199  0.89905491  1
  O  O38  1  0.63706344  0.38088277  0.84964686  1
  O  O39  1  0.11723044  0.86565457  0.13823024  1
  O  O40  1  0.89186904  0.33787190  0.61213262  1
  O  O41  1  0.61213262  0.89186904  0.33787190  1
  O  O42  1  0.39905491  0.08916199  0.64725319  1
  O  O43  1  0.64884973  0.37964010  0.37306726  1
  O  O44  1  0.58916199  0.89905491  0.14725319  1
  O  O45  1  0.61723044  0.63823024  0.36565457  1
  O  O46  1  0.64725319  0.39905491  0.08916199  1
  O  O47  1  0.61433109  0.18949664  0.17369309  1
  O  O48  1  0.11213262  0.83787190  0.39186904  1
  O  O49  1  0.85244639  0.41752000  0.75628638  1
  O  O50  1  0.33787190  0.61213262  0.89186904  1
  O  O51  1  0.63823024  0.36565457  0.61723044  1
  O  O52  1  0.84964686  0.63706344  0.38088277  1
  O  O53  1  0.11127507  0.39261878  0.26026500  1
  O  O54  1  0.13706344  0.34964686  0.88088277  1
  O  O55  1  0.17369309  0.61433109  0.18949664  1
  O  O56  1  0.41752000  0.75628638  0.85244639  1
  O  O57  1  0.67369309  0.68949664  0.11433109  1
  O  O58  1  0.35421563  0.63098791  0.17265880  1
  O  O59  1  0.67265880  0.13098791  0.85421563  1
  O  O60  1  0.37306726  0.64884973  0.37964010  1
  O  O61  1  0.89905491  0.14725319  0.58916199  1
  O  O62  1  0.87964010  0.14884973  0.87306726  1
  O  O63  1  0.89261878  0.61127507  0.76026500  1
  O  O64  1  0.88088277  0.13706344  0.34964686  1
  O  O65  1  0.61127507  0.76026500  0.89261878  1
  O  O66  1  0.86565457  0.13823024  0.11723044  1
  O  O67  1  0.25628638  0.91752000  0.35244639  1
  O  O68  1  0.08916199  0.64725319  0.39905491  1
  O  O69  1  0.63098791  0.17265880  0.35421563  1
  O  O70  1  0.13098791  0.85421563  0.67265880  1
  O  O71  1  0.80992914  0.80992914  0.80992914  1
  O  O72  1  0.36565457  0.61723044  0.63823024  1
  O  O73  1  0.68949664  0.11433109  0.67369309  1
  O  O74  1  0.87306726  0.87964010  0.14884973  1
  O  O75  1  0.13823024  0.11723044  0.86565457  1
  O  O76  1  0.39261878  0.26026500  0.11127507  1
  O  O77  1  0.76026500  0.89261878  0.61127507  1
  O  O78  1  0.39186904  0.11213262  0.83787190  1
  O  O79  1  0.34964686  0.88088277  0.13706344  1
  O  O80  1  0.85421563  0.67265880  0.13098791  1
  O  O81  1  0.17265880  0.35421563  0.63098791  1
  O  O82  1  0.14884973  0.87306726  0.87964010  1
  O  O83  1  0.18949664  0.17369309  0.61433109  1
  O  O84  1  0.91752000  0.35244639  0.25628638  1
  O  O85  1  0.26026500  0.11127507  0.39261878  1
  O  O86  1  0.75628638  0.85244639  0.41752000  1
  O  O87  1  0.38088277  0.84964686  0.63706344  1
  O  O88  1  0.35244639  0.25628638  0.91752000  1
  O  O89  1  0.83787190  0.39186904  0.11213262  1
  O  O90  1  0.30992914  0.30992914  0.30992914  1
  O  O91  1  0.37964010  0.37306726  0.64884973  1
