# generated using pymatgen
data_Na2TiFe(PO4)3
_symmetry_space_group_name_H-M   'P 1'
_cell_length_a   8.86927499
_cell_length_b   8.89124041
_cell_length_c   8.89124013
_cell_angle_alpha   58.99593492
_cell_angle_beta   59.04567667
_cell_angle_gamma   59.04567896
_symmetry_Int_Tables_number   1
_chemical_formula_structural   Na2TiFe(PO4)3
_chemical_formula_sum   'Na4 Ti2 Fe2 P6 O24'
_cell_volume   484.81153426
_cell_formula_units_Z   2
loop_
 _symmetry_equiv_pos_site_id
 _symmetry_equiv_pos_as_xyz
  1  'x, y, z'
loop_
 _atom_site_type_symbol
 _atom_site_label
 _atom_site_symmetry_multiplicity
 _atom_site_fract_x
 _atom_site_fract_y
 _atom_site_fract_z
 _atom_site_occupancy
  Na  Na0  1  0.00930618  0.99967054  0.99241469  1
  Na  Na1  1  0.49069382  0.50758531  0.50032946  1
  Na  Na2  1  0.61993421  0.24837650  0.88165277  1
  Na  Na3  1  0.88006579  0.61834723  0.25162350  1
  Ti  Ti4  1  0.14409377  0.14227398  0.14480063  1
  Ti  Ti5  1  0.35590623  0.35519937  0.35772602  1
  Fe  Fe6  1  0.64179896  0.65599751  0.65039326  1
  Fe  Fe7  1  0.85820104  0.84960674  0.84400249  1
  P  P8  1  0.04151363  0.74915081  0.45613857  1
  P  P9  1  0.45848637  0.04386143  0.75084919  1
  P  P10  1  0.75000000  0.45779732  0.04220268  1
  P  P11  1  0.25000000  0.53972345  0.96027655  1
  P  P12  1  0.53586183  0.96035461  0.25393224  1
  P  P13  1  0.96413817  0.24606776  0.53964539  1
  O  O14  1  0.13199913  0.28908271  0.50020040  1
  O  O15  1  0.28625896  0.50150010  0.13248386  1
  O  O16  1  0.06849490  0.92111017  0.27628320  1
  O  O17  1  0.49935698  0.13288040  0.28747003  1
  O  O18  1  0.01118601  0.78153199  0.62496824  1
  O  O19  1  0.22360185  0.57900978  0.43076485  1
  O  O20  1  0.27639815  0.06923515  0.92099022  1
  O  O21  1  0.43150510  0.22371680  0.57888983  1
  O  O22  1  0.57876524  0.43112202  0.22333757  1
  O  O23  1  0.21374104  0.36751614  0.99849990  1
  O  O24  1  0.07728922  0.71828998  0.94605779  1
  O  O25  1  0.36800087  0.99979960  0.21091729  1
  O  O26  1  0.62398683  0.02105451  0.78532975  1
  O  O27  1  0.92123476  0.27666243  0.06887798  1
  O  O28  1  0.78394879  0.62441270  0.01726125  1
  O  O29  1  0.42271078  0.55394221  0.78171002  1
  O  O30  1  0.56224075  0.77632617  0.41896450  1
  O  O31  1  0.71899531  0.94199723  0.08260889  1
  O  O32  1  0.78100469  0.41739111  0.55800277  1
  O  O33  1  0.00064302  0.21252997  0.36711960  1
  O  O34  1  0.48881399  0.87503176  0.71846801  1
  O  O35  1  0.93775925  0.08103550  0.72367383  1
  O  O36  1  0.71605121  0.48273875  0.87558730  1
  O  O37  1  0.87601317  0.71467025  0.47894549  1
