# generated using pymatgen
data_TiZnBi(PO4)3
_symmetry_space_group_name_H-M   'P 1'
_cell_length_a   8.44805593
_cell_length_b   8.44805613
_cell_length_c   8.44805634
_cell_angle_alpha   64.04831911
_cell_angle_beta   64.04832324
_cell_angle_gamma   64.04832326
_symmetry_Int_Tables_number   1
_chemical_formula_structural   TiZnBi(PO4)3
_chemical_formula_sum   'Ti2 Zn2 Bi2 P6 O24'
_cell_volume   464.33612209
_cell_formula_units_Z   2
loop_
 _symmetry_equiv_pos_site_id
 _symmetry_equiv_pos_as_xyz
  1  'x, y, z'
loop_
 _atom_site_type_symbol
 _atom_site_label
 _atom_site_symmetry_multiplicity
 _atom_site_fract_x
 _atom_site_fract_y
 _atom_site_fract_z
 _atom_site_occupancy
  Ti  Ti0  1  0.14943793  0.14943793  0.14943793  1
  Ti  Ti1  1  0.64943793  0.64943793  0.64943793  1
  Zn  Zn2  1  0.99354935  0.99354935  0.99354935  1
  Zn  Zn3  1  0.49354935  0.49354935  0.49354935  1
  Bi  Bi4  1  0.33211301  0.33211301  0.33211301  1
  Bi  Bi5  1  0.83211301  0.83211301  0.83211301  1
  P  P6  1  0.06499445  0.42934392  0.75957413  1
  P  P7  1  0.42934392  0.75957413  0.06499445  1
  P  P8  1  0.75957413  0.06499445  0.42934392  1
  P  P9  1  0.25957413  0.92934392  0.56499445  1
  P  P10  1  0.56499445  0.25957413  0.92934392  1
  P  P11  1  0.92934392  0.56499445  0.25957413  1
  O  O12  1  0.05701949  0.56407857  0.34159895  1
  O  O13  1  0.34159895  0.05701949  0.56407857  1
  O  O14  1  0.07140973  0.23540026  0.90808179  1
  O  O15  1  0.56407857  0.34159895  0.05701949  1
  O  O16  1  0.06407857  0.55701949  0.84159895  1
  O  O17  1  0.24170470  0.41864543  0.58982917  1
  O  O18  1  0.23540026  0.90808179  0.07140973  1
  O  O19  1  0.41864543  0.58982917  0.24170470  1
  O  O20  1  0.21003908  0.00556868  0.37761038  1
  O  O21  1  0.58982917  0.24170470  0.41864543  1
  O  O22  1  0.08982917  0.91864543  0.74170470  1
  O  O23  1  0.37761038  0.21003908  0.00556868  1
  O  O24  1  0.55701949  0.84159895  0.06407857  1
  O  O25  1  0.90808179  0.07140973  0.23540026  1
  O  O26  1  0.40808179  0.73540026  0.57140973  1
  O  O27  1  0.84159895  0.06407857  0.55701949  1
  O  O28  1  0.57140973  0.40808179  0.73540026  1
  O  O29  1  0.74170470  0.08982917  0.91864543  1
  O  O30  1  0.73540026  0.57140973  0.40808179  1
  O  O31  1  0.00556868  0.37761038  0.21003908  1
  O  O32  1  0.50556868  0.71003908  0.87761038  1
  O  O33  1  0.91864543  0.74170470  0.08982917  1
  O  O34  1  0.71003908  0.87761038  0.50556868  1
  O  O35  1  0.87761038  0.50556868  0.71003908  1
