# generated using pymatgen
data_Rb(WO3)6
_symmetry_space_group_name_H-M   'P 1'
_cell_length_a   7.51787298
_cell_length_b   15.03640503
_cell_length_c   7.73016041
_cell_angle_alpha   89.99999970
_cell_angle_beta   90.00000060
_cell_angle_gamma   119.99855007
_symmetry_Int_Tables_number   1
_chemical_formula_structural   Rb(WO3)6
_chemical_formula_sum   'Rb2 W12 O36'
_cell_volume   756.77100176
_cell_formula_units_Z   2
loop_
 _symmetry_equiv_pos_site_id
 _symmetry_equiv_pos_as_xyz
  1  'x, y, z'
loop_
 _atom_site_type_symbol
 _atom_site_label
 _atom_site_symmetry_multiplicity
 _atom_site_fract_x
 _atom_site_fract_y
 _atom_site_fract_z
 _atom_site_occupancy
  Rb  Rb0  1  0.00000000  0.00000000  0.00000000  1
  Rb  Rb1  1  0.00000000  0.50000000  0.50000000  1
  W  W2  1  0.00025709  0.75337145  0.74838733  1
  W  W3  1  0.49351416  0.74662850  0.75161292  1
  W  W4  1  0.00025716  0.25337150  0.75161292  1
  W  W5  1  0.50648580  0.75337145  0.25161267  1
  W  W6  1  0.49322791  0.50000000  0.24968582  1
  W  W7  1  0.50677209  0.50000000  0.75031418  1
  W  W8  1  0.49351420  0.24662855  0.74838733  1
  W  W9  1  0.50648584  0.25337150  0.24838708  1
  W  W10  1  0.99974284  0.74662850  0.24838708  1
  W  W11  1  0.49322801  0.00000000  0.25031403  1
  W  W12  1  0.50677199  0.00000000  0.74968597  1
  W  W13  1  0.99974291  0.24662855  0.25161267  1
  O  O14  1  0.00006500  0.75015512  0.99933907  1
  O  O15  1  0.21054887  0.89329987  0.24760795  1
  O  O16  1  0.21347462  0.89479835  0.75186247  1
  O  O17  1  0.21060739  0.71202803  0.74769644  1
  O  O18  1  0.21344867  0.71202803  0.25230356  1
  O  O19  1  0.57612208  0.89479835  0.24813753  1
  O  O20  1  0.57605086  0.89329987  0.75239205  1
  O  O21  1  0.99993500  0.24984488  0.00066093  1
  O  O22  1  0.49975498  0.74984491  0.50066089  1
  O  O23  1  0.50024524  0.75015512  0.00066093  1
  O  O24  1  0.21054882  0.39329987  0.25239197  1
  O  O25  1  0.42394909  0.60670013  0.25239197  1
  O  O26  1  0.42387790  0.60520165  0.74813750  1
  O  O27  1  0.21347461  0.39479835  0.74813750  1
  O  O28  1  0.21060748  0.21202800  0.75230373  1
  O  O29  1  0.78655147  0.78797200  0.75230373  1
  O  O30  1  0.50000000  0.50000000  0.00000000  1
  O  O31  1  0.50000000  0.50000000  0.50000000  1
  O  O32  1  0.21344853  0.21202800  0.24769627  1
  O  O33  1  0.78939252  0.78797200  0.24769627  1
  O  O34  1  0.57612210  0.39479835  0.25186250  1
  O  O35  1  0.78652539  0.60520165  0.25186250  1
  O  O36  1  0.78945118  0.60670013  0.74760803  1
  O  O37  1  0.57605091  0.39329987  0.74760803  1
  O  O38  1  0.49975476  0.24984488  0.99933907  1
  O  O39  1  0.50024502  0.25015509  0.49933911  1
  O  O40  1  0.99993484  0.74984491  0.49933911  1
  O  O41  1  0.42394914  0.10670013  0.24760795  1
  O  O42  1  0.42387792  0.10520165  0.75186247  1
  O  O43  1  0.78655133  0.28797197  0.74769644  1
  O  O44  1  0.50000000  0.00000000  0.00000000  1
  O  O45  1  0.50000000  0.00000000  0.50000000  1
  O  O46  1  0.78939261  0.28797197  0.25230356  1
  O  O47  1  0.78652538  0.10520165  0.24813753  1
  O  O48  1  0.78945113  0.10670013  0.75239205  1
  O  O49  1  0.00006516  0.25015509  0.50066089  1
