# generated using pymatgen
data_CaH2(SO4)2
_symmetry_space_group_name_H-M   'P 1'
_cell_length_a   12.80576685
_cell_length_b   6.99836920
_cell_length_c   14.24909826
_cell_angle_alpha   90.00000000
_cell_angle_beta   90.00000000
_cell_angle_gamma   90.00000000
_symmetry_Int_Tables_number   1
_chemical_formula_structural   CaH2(SO4)2
_chemical_formula_sum   'Ca8 H16 S16 O64'
_cell_volume   1276.99683788
_cell_formula_units_Z   8
loop_
 _symmetry_equiv_pos_site_id
 _symmetry_equiv_pos_as_xyz
  1  'x, y, z'
loop_
 _atom_site_type_symbol
 _atom_site_label
 _atom_site_symmetry_multiplicity
 _atom_site_fract_x
 _atom_site_fract_y
 _atom_site_fract_z
 _atom_site_occupancy
  Ca  Ca0  1  0.56340358  0.34825657  0.31220850  1
  Ca  Ca1  1  0.06340358  0.15174343  0.68779150  1
  Ca  Ca2  1  0.43659642  0.84825657  0.18779150  1
  Ca  Ca3  1  0.93659642  0.65174343  0.81220850  1
  Ca  Ca4  1  0.43659642  0.65174343  0.68779150  1
  Ca  Ca5  1  0.93659642  0.84825657  0.31220850  1
  Ca  Ca6  1  0.56340358  0.15174343  0.81220850  1
  Ca  Ca7  1  0.06340358  0.34825657  0.18779150  1
  H  H8  1  0.82767939  0.32877674  0.47657683  1
  H  H9  1  0.32767939  0.17122326  0.52342317  1
  H  H10  1  0.17232061  0.82877674  0.02342317  1
  H  H11  1  0.67232061  0.67122326  0.97657683  1
  H  H12  1  0.17232061  0.67122326  0.52342317  1
  H  H13  1  0.67232061  0.82877674  0.47657683  1
  H  H14  1  0.82767939  0.17122326  0.97657683  1
  H  H15  1  0.32767939  0.32877674  0.02342317  1
  H  H16  1  0.67755851  0.41859904  0.11867401  1
  H  H17  1  0.17755851  0.08140096  0.88132599  1
  H  H18  1  0.32244149  0.91859904  0.38132599  1
  H  H19  1  0.82244149  0.58140096  0.61867401  1
  H  H20  1  0.32244149  0.58140096  0.88132599  1
  H  H21  1  0.82244149  0.91859904  0.11867401  1
  H  H22  1  0.67755851  0.08140096  0.61867401  1
  H  H23  1  0.17755851  0.41859904  0.38132599  1
  S  S24  1  0.85998559  0.33783610  0.32606833  1
  S  S25  1  0.35998559  0.16216390  0.67393167  1
  S  S26  1  0.14001441  0.83783610  0.17393167  1
  S  S27  1  0.64001441  0.66216390  0.82606833  1
  S  S28  1  0.14001441  0.66216390  0.67393167  1
  S  S29  1  0.64001441  0.83783610  0.32606833  1
  S  S30  1  0.85998559  0.16216390  0.82606833  1
  S  S31  1  0.35998559  0.33783610  0.17393167  1
  S  S32  1  0.64355687  0.13542402  0.06534090  1
  S  S33  1  0.14355687  0.36457598  0.93465910  1
  S  S34  1  0.35644313  0.63542402  0.43465910  1
  S  S35  1  0.85644313  0.86457598  0.56534090  1
  S  S36  1  0.35644313  0.86457598  0.93465910  1
  S  S37  1  0.85644313  0.63542402  0.06534090  1
  S  S38  1  0.64355687  0.36457598  0.56534090  1
  S  S39  1  0.14355687  0.13542402  0.43465910  1
  O  O40  1  0.74981674  0.37099580  0.30888623  1
  O  O41  1  0.24981674  0.12900420  0.69111377  1
  O  O42  1  0.25018326  0.87099580  0.19111377  1
  O  O43  1  0.75018326  0.62900420  0.80888623  1
  O  O44  1  0.25018326  0.62900420  0.69111377  1
  O  O45  1  0.75018326  0.87099580  0.30888623  1
  O  O46  1  0.74981674  0.12900420  0.80888623  1
  O  O47  1  0.24981674  0.37099580  0.19111377  1
  O  O48  1  0.57600304  0.01117516  0.31562827  1
  O  O49  1  0.07600304  0.48882484  0.68437173  1
  O  O50  1  0.42399696  0.51117516  0.18437173  1
  O  O51  1  0.92399696  0.98882484  0.81562827  1
  O  O52  1  0.42399696  0.98882484  0.68437173  1
  O  O53  1  0.92399696  0.51117516  0.31562827  1
  O  O54  1  0.57600304  0.48882484  0.81562827  1
  O  O55  1  0.07600304  0.01117516  0.18437173  1
  O  O56  1  0.90742582  0.18496504  0.26811337  1
  O  O57  1  0.40742582  0.31503496  0.73188663  1
  O  O58  1  0.09257418  0.68496504  0.23188663  1
  O  O59  1  0.59257418  0.81503496  0.76811337  1
  O  O60  1  0.09257418  0.81503496  0.73188663  1
  O  O61  1  0.59257418  0.68496504  0.26811337  1
  O  O62  1  0.90742582  0.31503496  0.76811337  1
  O  O63  1  0.40742582  0.18496504  0.23188663  1
  O  O64  1  0.87327675  0.26020145  0.42860296  1
  O  O65  1  0.37327675  0.23979855  0.57139704  1
  O  O66  1  0.12672325  0.76020145  0.07139704  1
  O  O67  1  0.62672325  0.73979855  0.92860296  1
  O  O68  1  0.12672325  0.73979855  0.57139704  1
  O  O69  1  0.62672325  0.76020145  0.42860296  1
  O  O70  1  0.87327675  0.23979855  0.92860296  1
  O  O71  1  0.37327675  0.26020145  0.07139704  1
  O  O72  1  0.63256966  0.30699278  0.13946809  1
  O  O73  1  0.13256966  0.19300722  0.86053191  1
  O  O74  1  0.36743034  0.80699278  0.36053191  1
  O  O75  1  0.86743034  0.69300722  0.63946809  1
  O  O76  1  0.36743034  0.69300722  0.86053191  1
  O  O77  1  0.86743034  0.80699278  0.13946809  1
  O  O78  1  0.63256966  0.19300722  0.63946809  1
  O  O79  1  0.13256966  0.30699278  0.36053191  1
  O  O80  1  0.91878915  0.48442102  0.10637566  1
  O  O81  1  0.41878915  0.01557898  0.89362434  1
  O  O82  1  0.08121085  0.98442102  0.39362434  1
  O  O83  1  0.58121085  0.51557898  0.60637566  1
  O  O84  1  0.08121085  0.51557898  0.89362434  1
  O  O85  1  0.58121085  0.98442102  0.10637566  1
  O  O86  1  0.91878915  0.01557898  0.60637566  1
  O  O87  1  0.41878915  0.48442102  0.39362434  1
  O  O88  1  0.60807388  0.29132759  0.47523885  1
  O  O89  1  0.10807388  0.20867241  0.52476115  1
  O  O90  1  0.39192612  0.79132759  0.02476115  1
  O  O91  1  0.89192612  0.70867241  0.97523885  1
  O  O92  1  0.39192612  0.70867241  0.52476115  1
  O  O93  1  0.89192612  0.79132759  0.47523885  1
  O  O94  1  0.60807388  0.20867241  0.97523885  1
  O  O95  1  0.10807388  0.29132759  0.02476115  1
  O  O96  1  0.75643105  0.08575367  0.06160041  1
  O  O97  1  0.25643105  0.41424633  0.93839959  1
  O  O98  1  0.24356895  0.58575367  0.43839959  1
  O  O99  1  0.74356895  0.91424633  0.56160041  1
  O  O100  1  0.24356895  0.91424633  0.93839959  1
  O  O101  1  0.74356895  0.58575367  0.06160041  1
  O  O102  1  0.75643105  0.41424633  0.56160041  1
  O  O103  1  0.25643105  0.08575367  0.43839959  1
