# generated using pymatgen
data_Mg3Si2
_symmetry_space_group_name_H-M   'P 1'
_cell_length_a   13.74080757
_cell_length_b   5.34689222
_cell_length_c   5.34987962
_cell_angle_alpha   93.87583581
_cell_angle_beta   79.58483731
_cell_angle_gamma   100.31838506
_symmetry_Int_Tables_number   1
_chemical_formula_structural   Mg3Si2
_chemical_formula_sum   'Mg12 Si8'
_cell_volume   380.07888316
_cell_formula_units_Z   4
loop_
 _symmetry_equiv_pos_site_id
 _symmetry_equiv_pos_as_xyz
  1  'x, y, z'
loop_
 _atom_site_type_symbol
 _atom_site_label
 _atom_site_symmetry_multiplicity
 _atom_site_fract_x
 _atom_site_fract_y
 _atom_site_fract_z
 _atom_site_occupancy
  Mg  Mg0  1  0.00936209  0.36042362  0.23605402  1
  Mg  Mg1  1  0.99062891  0.63958138  0.76394298  1
  Mg  Mg2  1  0.12509996  0.15758955  0.65817184  1
  Mg  Mg3  1  0.87489104  0.84241445  0.34182216  1
  Mg  Mg4  1  0.74078013  0.73622010  0.86014470  1
  Mg  Mg5  1  0.25921087  0.26378590  0.13984930  1
  Mg  Mg6  1  0.50936209  0.36042262  0.23605502  1
  Mg  Mg7  1  0.49062891  0.63958138  0.76394298  1
  Mg  Mg8  1  0.62509996  0.15758855  0.65817384  1
  Mg  Mg9  1  0.37489104  0.84241245  0.34182116  1
  Mg  Mg10  1  0.24078013  0.73621910  0.86014370  1
  Mg  Mg11  1  0.75921087  0.26378590  0.13985030  1
  Si  Si12  1  0.16815177  0.66264911  0.40088842  1
  Si  Si13  1  0.83183823  0.33735589  0.59910758  1
  Si  Si14  1  0.08172395  0.90066930  0.16277239  1
  Si  Si15  1  0.91826705  0.09933270  0.83722561  1
  Si  Si16  1  0.66815277  0.66264911  0.40088842  1
  Si  Si17  1  0.33183823  0.33735489  0.59910758  1
  Si  Si18  1  0.58172395  0.90067030  0.16277239  1
  Si  Si19  1  0.41826705  0.09933270  0.83722561  1
