# generated using pymatgen
data_Co3P2O9
_symmetry_space_group_name_H-M   'P 1'
_cell_length_a   10.81192410
_cell_length_b   8.51475389
_cell_length_c   13.03675461
_cell_angle_alpha   90.00000000
_cell_angle_beta   130.05573340
_cell_angle_gamma   90.00000000
_symmetry_Int_Tables_number   1
_chemical_formula_structural   Co3P2O9
_chemical_formula_sum   'Co12 P8 O36'
_cell_volume   918.63653921
_cell_formula_units_Z   4
loop_
 _symmetry_equiv_pos_site_id
 _symmetry_equiv_pos_as_xyz
  1  'x, y, z'
loop_
 _atom_site_type_symbol
 _atom_site_label
 _atom_site_symmetry_multiplicity
 _atom_site_fract_x
 _atom_site_fract_y
 _atom_site_fract_z
 _atom_site_occupancy
  Co  Co0  1  0.26530413  0.48679070  0.56877848  1
  Co  Co1  1  0.73469587  0.98679070  0.93122152  1
  Co  Co2  1  0.73469587  0.51320930  0.43122152  1
  Co  Co3  1  0.26530413  0.01320930  0.06877848  1
  Co  Co4  1  0.09007490  0.35191361  0.68437058  1
  Co  Co5  1  0.90992510  0.85191361  0.81562942  1
  Co  Co6  1  0.90992510  0.64808639  0.31562942  1
  Co  Co7  1  0.09007490  0.14808639  0.18437058  1
  Co  Co8  1  0.60893709  0.23640884  0.58365224  1
  Co  Co9  1  0.39106291  0.73640884  0.91634776  1
  Co  Co10  1  0.39106291  0.76359116  0.41634776  1
  Co  Co11  1  0.60893709  0.26359116  0.08365224  1
  P  P12  1  0.13329430  0.00780520  0.77845417  1
  P  P13  1  0.86670570  0.50780520  0.72154583  1
  P  P14  1  0.86670570  0.99219480  0.22154583  1
  P  P15  1  0.13329430  0.49219480  0.27845417  1
  P  P16  1  0.47938373  0.46125851  0.82419974  1
  P  P17  1  0.52061627  0.96125851  0.67580026  1
  P  P18  1  0.52061627  0.53874149  0.17580026  1
  P  P19  1  0.47938373  0.03874149  0.32419974  1
  O  O20  1  0.12326219  0.13713279  0.68948427  1
  O  O21  1  0.87673781  0.63713279  0.81051573  1
  O  O22  1  0.87673781  0.86286721  0.31051573  1
  O  O23  1  0.12326219  0.36286721  0.18948427  1
  O  O24  1  0.78698651  0.35770733  0.72015284  1
  O  O25  1  0.21301349  0.85770733  0.77984716  1
  O  O26  1  0.21301349  0.64229267  0.27984716  1
  O  O27  1  0.78698651  0.14229267  0.22015284  1
  O  O28  1  0.04113447  0.47193474  0.77726618  1
  O  O29  1  0.95886553  0.97193474  0.72273382  1
  O  O30  1  0.95886553  0.52806526  0.22273382  1
  O  O31  1  0.04113447  0.02806526  0.27726618  1
  O  O32  1  0.24463701  0.07931606  0.92477986  1
  O  O33  1  0.75536299  0.57931606  0.57522014  1
  O  O34  1  0.75536299  0.92068394  0.07522014  1
  O  O35  1  0.24463701  0.42068394  0.42477986  1
  O  O36  1  0.47455572  0.11819963  0.60222551  1
  O  O37  1  0.52544428  0.61819963  0.89777449  1
  O  O38  1  0.52544428  0.88180037  0.39777449  1
  O  O39  1  0.47455572  0.38180037  0.10222551  1
  O  O40  1  0.28246352  0.44959248  0.72417485  1
  O  O41  1  0.71753648  0.94959248  0.77582515  1
  O  O42  1  0.71753648  0.55040752  0.27582515  1
  O  O43  1  0.28246352  0.05040752  0.22417485  1
  O  O44  1  0.49081146  0.46111227  0.71032998  1
  O  O45  1  0.50918854  0.96111227  0.78967002  1
  O  O46  1  0.50918854  0.53888773  0.28967002  1
  O  O47  1  0.49081146  0.03888773  0.21032998  1
  O  O48  1  0.56193482  0.32127248  0.91786106  1
  O  O49  1  0.43806518  0.82127248  0.58213894  1
  O  O50  1  0.43806518  0.67872752  0.08213894  1
  O  O51  1  0.56193482  0.17872752  0.41786106  1
  O  O52  1  0.91126582  0.09534480  0.02051835  1
  O  O53  1  0.08873418  0.59534480  0.47948165  1
  O  O54  1  0.08873418  0.90465520  0.97948165  1
  O  O55  1  0.91126582  0.40465520  0.52051835  1
