# generated using pymatgen
data_Sr3La7Mn8(FeO15)2
_symmetry_space_group_name_H-M   'P 1'
_cell_length_a   5.53789922
_cell_length_b   27.68429695
_cell_length_c   14.59405546
_cell_angle_alpha   19.28951222
_cell_angle_beta   56.15190166
_cell_angle_gamma   60.63309106
_symmetry_Int_Tables_number   1
_chemical_formula_structural   Sr3La7Mn8(FeO15)2
_chemical_formula_sum   'Sr3 La7 Mn8 Fe2 O30'
_cell_volume   608.74670014
_cell_formula_units_Z   1
loop_
 _symmetry_equiv_pos_site_id
 _symmetry_equiv_pos_as_xyz
  1  'x, y, z'
loop_
 _atom_site_type_symbol
 _atom_site_label
 _atom_site_symmetry_multiplicity
 _atom_site_fract_x
 _atom_site_fract_y
 _atom_site_fract_z
 _atom_site_occupancy
  Sr  Sr0  1  0.24593574  0.15086739  0.25020794  1
  Sr  Sr1  1  0.24990101  0.34945768  0.25091934  1
  Sr  Sr2  1  0.25122304  0.95170880  0.24659567  1
  La  La3  1  0.25404523  0.54901251  0.24935819  1
  La  La4  1  0.74963207  0.05210728  0.74707904  1
  La  La5  1  0.25316131  0.74992428  0.25004590  1
  La  La6  1  0.74968289  0.24657901  0.75574325  1
  La  La7  1  0.74917500  0.44662480  0.75778694  1
  La  La8  1  0.75110697  0.64940372  0.75035339  1
  La  La9  1  0.75331760  0.85424951  0.74014488  1
  Mn  Mn10  1  0.99813398  -0.00028458  0.00100242  1
  Mn  Mn11  1  0.00043999  0.19946299  0.00055571  1
  Mn  Mn12  1  0.00086166  0.39929757  0.00161119  1
  Mn  Mn13  1  0.00315055  0.60123712  0.99641267  1
  Mn  Mn14  1  0.50065036  0.10041245  0.49951548  1
  Mn  Mn15  1  0.49980707  0.29859319  0.50185802  1
  Mn  Mn16  1  0.49975868  0.70116753  0.49876449  1
  Mn  Mn17  1  0.50357537  0.90097399  0.49705881  1
  Fe  Fe18  1  -0.00044913  0.80134365  0.99731701  1
  Fe  Fe19  1  0.49788291  0.49885951  0.50294853  1
  O  O20  1  0.18788237  0.02801466  0.30713126  1
  O  O21  1  0.19118571  0.22247403  0.31712124  1
  O  O22  1  0.70673214  0.06364434  0.24245598  1
  O  O23  1  0.25062369  0.01386393  0.81062189  1
  O  O24  1  0.74668796  0.18518350  0.19182698  1
  O  O25  1  0.18934482  0.42783905  0.31017481  1
  O  O26  1  0.69865551  0.25614536  0.25542419  1
  O  O27  1  0.30755494  0.13853065  0.74916044  1
  O  O28  1  0.25331174  0.22521671  0.78999740  1
  O  O29  1  0.75333491  0.38831155  0.18366315  1
  O  O30  1  0.18262280  0.62324388  0.31483570  1
  O  O31  1  0.69437524  0.46200058  0.24871797  1
  O  O32  1  0.31079582  0.33994977  0.74379014  1
  O  O33  1  0.79498032  0.16879648  0.70326690  1
  O  O34  1  0.24669660  0.42253666  0.79851444  1
  O  O35  1  0.75518037  0.58700320  0.18630555  1
  O  O36  1  0.19142212  0.82377165  0.30984698  1
  O  O37  1  0.68932984  0.66304059  0.24679229  1
  O  O38  1  0.31338448  0.54491809  0.73507547  1
  O  O39  1  0.81109696  0.37379490  0.69096791  1
  O  O40  1  0.25082784  0.62061735  0.79870579  1
  O  O41  1  0.74494402  0.78632973  0.19207740  1
  O  O42  1  0.70570541  0.85823734  0.25064354  1
  O  O43  1  0.30618375  0.73236185  0.76370541  1
  O  O44  1  0.80693542  0.57407394  0.68972086  1
  O  O45  1  0.25372436  0.81634706  0.80447945  1
  O  O46  1  0.74718107  0.98430595  0.19420362  1
  O  O47  1  0.31105940  0.93356145  0.76133555  1
  O  O48  1  0.79450148  0.76616938  0.70897945  1
  O  O49  1  0.79274661  0.96871798  0.70517934  1
