# generated using pymatgen
data_Sr3La7Mn7(FeO10)3
_symmetry_space_group_name_H-M   'P 1'
_cell_length_a   5.54072834
_cell_length_b   27.70866018
_cell_length_c   9.56814468
_cell_angle_alpha   30.28452102
_cell_angle_beta   55.39325289
_cell_angle_gamma   60.68491227
_symmetry_Int_Tables_number   1
_chemical_formula_structural   Sr3La7Mn7(FeO10)3
_chemical_formula_sum   'Sr3 La7 Mn7 Fe3 O30'
_cell_volume   609.71920298
_cell_formula_units_Z   1
loop_
 _symmetry_equiv_pos_site_id
 _symmetry_equiv_pos_as_xyz
  1  'x, y, z'
loop_
 _atom_site_type_symbol
 _atom_site_label
 _atom_site_symmetry_multiplicity
 _atom_site_fract_x
 _atom_site_fract_y
 _atom_site_fract_z
 _atom_site_occupancy
  Sr  Sr0  1  0.25113662  0.00303924  0.24268642  1
  Sr  Sr1  1  0.25064120  0.20104567  0.24782296  1
  Sr  Sr2  1  0.25168788  0.39709051  0.25690285  1
  La  La3  1  0.75156781  0.00384972  0.74042178  1
  La  La4  1  0.24584993  0.59770893  0.25792466  1
  La  La5  1  0.75131963  0.19997048  0.75068007  1
  La  La6  1  0.25294323  0.80101578  0.24739724  1
  La  La7  1  0.74957849  0.39603636  0.76081863  1
  La  La8  1  0.75226699  0.59815311  0.75552146  1
  La  La9  1  0.74925632  0.80407022  0.74064497  1
  Mn  Mn10  1  0.99971799  0.00092703  0.99851894  1
  Mn  Mn11  1  0.00292815  0.20057405  0.99766393  1
  Mn  Mn12  1  0.00002933  0.39869251  0.00371627  1
  Mn  Mn13  1  0.50250364  0.00127602  0.49653892  1
  Mn  Mn14  1  0.00059141  0.59986893  0.00090475  1
  Mn  Mn15  1  0.50066876  0.19992947  0.50059028  1
  Mn  Mn16  1  0.50173272  0.39942243  0.50107499  1
  Fe  Fe17  1  0.99898247  0.80167217  0.99641044  1
  Fe  Fe18  1  0.49685655  0.59898433  0.50531387  1
  Fe  Fe19  1  0.50065022  0.80168627  0.49716708  1
  O  O20  1  0.19526528  0.08650738  0.31416424  1
  O  O21  1  0.75090982  0.02355984  0.19141517  1
  O  O22  1  0.18746385  0.29103134  0.30235672  1
  O  O23  1  0.70089122  0.10732817  0.25676176  1
  O  O24  1  0.30663967  0.08546505  0.75609618  1
  O  O25  1  0.25001956  0.18304937  0.79190537  1
  O  O26  1  0.75025699  0.22215366  0.19544555  1
  O  O27  1  0.18239861  0.49390761  0.30333852  1
  O  O28  1  0.70893403  0.31183968  0.24168322  1
  O  O29  1  0.30750038  0.28917688  0.74759981  1
  O  O30  1  0.80133961  0.10630689  0.71023981  1
  O  O31  1  0.24772531  0.38455674  0.78924428  1
  O  O32  1  0.75249051  0.42540241  0.18624553  1
  O  O33  1  0.18815471  0.68793404  0.31231370  1
  O  O34  1  0.69235229  0.51583656  0.24282434  1
  O  O35  1  0.30899646  0.49062336  0.73777444  1
  O  O36  1  0.79601490  0.30958742  0.70661772  1
  O  O37  1  0.24042882  0.58017702  0.80630314  1
  O  O38  1  0.75895062  0.62671190  0.17942570  1
  O  O39  1  0.18832125  0.88624149  0.31126644  1
  O  O40  1  0.69000164  0.71019204  0.25655077  1
  O  O41  1  0.30887944  0.68653858  0.75303020  1
  O  O42  1  0.80664568  0.51118097  0.69446809  1
  O  O43  1  0.25211112  0.77479680  0.81308054  1
  O  O44  1  0.74664044  0.82502021  0.18957436  1
  O  O45  1  0.70898973  0.90804204  0.25536633  1
  O  O46  1  0.30997321  0.88773266  0.75616076  1
  O  O47  1  0.81238104  0.70928709  0.69586459  1
  O  O48  1  0.24912688  0.97540846  0.81204652  1
  O  O49  1  0.78993259  0.90897212  0.70440570  1
