# generated using pymatgen
data_K2U2MoO10
_symmetry_space_group_name_H-M   'P 1'
_cell_length_a   8.39681089
_cell_length_b   8.43671764
_cell_length_c   15.58684742
_cell_angle_alpha   90.00000000
_cell_angle_beta   90.00000000
_cell_angle_gamma   104.60796063
_symmetry_Int_Tables_number   1
_chemical_formula_structural   K2U2MoO10
_chemical_formula_sum   'K8 U8 Mo4 O40'
_cell_volume   1068.50191584
_cell_formula_units_Z   4
loop_
 _symmetry_equiv_pos_site_id
 _symmetry_equiv_pos_as_xyz
  1  'x, y, z'
loop_
 _atom_site_type_symbol
 _atom_site_label
 _atom_site_symmetry_multiplicity
 _atom_site_fract_x
 _atom_site_fract_y
 _atom_site_fract_z
 _atom_site_occupancy
  K  K0  1  0.82486696  0.57465838  0.26386979  1
  K  K1  1  0.44457415  0.22632825  0.54196000  1
  K  K2  1  0.44457415  0.72632825  0.95804000  1
  K  K3  1  0.82486696  0.07465838  0.23613021  1
  K  K4  1  0.55542585  0.77367175  0.45804000  1
  K  K5  1  0.17513304  0.92534162  0.76386979  1
  K  K6  1  0.55542585  0.27367175  0.04196000  1
  K  K7  1  0.17513304  0.42534162  0.73613021  1
  U  U8  1  0.88380825  0.60585243  0.92878985  1
  U  U9  1  0.11619175  0.89414757  0.42878985  1
  U  U10  1  0.13394122  0.41729255  0.42583136  1
  U  U11  1  0.13394122  0.91729255  0.07416864  1
  U  U12  1  0.11619175  0.39414757  0.07121015  1
  U  U13  1  0.88380825  0.10585243  0.57121015  1
  U  U14  1  0.86605878  0.58270745  0.57416864  1
  U  U15  1  0.86605878  0.08270745  0.92583136  1
  Mo  Mo16  1  0.62175998  0.29016519  0.76327344  1
  Mo  Mo17  1  0.62175998  0.79016519  0.73672656  1
  Mo  Mo18  1  0.37824002  0.20983481  0.26327344  1
  Mo  Mo19  1  0.37824002  0.70983481  0.23672656  1
  O  O20  1  0.97318048  0.86829891  0.95666688  1
  O  O21  1  0.24714810  0.67939479  0.33182835  1
  O  O22  1  0.02681952  0.13170109  0.04333312  1
  O  O23  1  0.09807053  0.14517526  0.46578946  1
  O  O24  1  0.71545035  0.09363068  0.49261666  1
  O  O25  1  0.66433576  0.96479485  0.66576938  1
  O  O26  1  0.30955597  0.49004726  0.49940982  1
  O  O27  1  0.04047563  0.12025166  0.65584476  1
  O  O28  1  0.96907510  0.34572835  0.34627587  1
  O  O29  1  0.65561855  0.62577934  0.67106138  1
  O  O30  1  0.69044403  0.00995274  0.99940982  1
  O  O31  1  0.24714810  0.17939479  0.16817165  1
  O  O32  1  0.41393486  0.24144149  0.72918903  1
  O  O33  1  0.71545035  0.59363068  0.00738334  1
  O  O34  1  0.33566424  0.53520515  0.16576938  1
  O  O35  1  0.96907510  0.84572835  0.15372413  1
  O  O36  1  0.69044403  0.50995274  0.50059018  1
  O  O37  1  0.66433576  0.46479485  0.83423062  1
  O  O38  1  0.97318048  0.36829891  0.54333312  1
  O  O39  1  0.58606514  0.75855851  0.27081097  1
  O  O40  1  0.28454965  0.90636932  0.50738334  1
  O  O41  1  0.03092490  0.15427165  0.84627587  1
  O  O42  1  0.33566424  0.03520515  0.33423062  1
  O  O43  1  0.95952437  0.37974834  0.15584476  1
  O  O44  1  0.75285190  0.32060521  0.66817165  1
  O  O45  1  0.02681952  0.63170109  0.45666688  1
  O  O46  1  0.58606514  0.25855851  0.22918903  1
  O  O47  1  0.04047563  0.62025166  0.84415524  1
  O  O48  1  0.09807053  0.64517526  0.03421054  1
  O  O49  1  0.34438145  0.37422066  0.32893862  1
  O  O50  1  0.28454965  0.40636932  0.99261666  1
  O  O51  1  0.90192947  0.35482474  0.96578946  1
  O  O52  1  0.03092490  0.65427165  0.65372413  1
  O  O53  1  0.34438145  0.87422066  0.17106138  1
  O  O54  1  0.90192947  0.85482474  0.53421054  1
  O  O55  1  0.75285190  0.82060521  0.83182835  1
  O  O56  1  0.41393486  0.74144149  0.77081097  1
  O  O57  1  0.30955597  0.99004726  0.00059018  1
  O  O58  1  0.95952437  0.87974834  0.34415524  1
  O  O59  1  0.65561855  0.12577934  0.82893862  1
