# generated using pymatgen
data_YbMn2O5
_symmetry_space_group_name_H-M   'P 1'
_cell_length_a   5.84617826
_cell_length_b   7.06021281
_cell_length_c   8.46225893
_cell_angle_alpha   90.00000000
_cell_angle_beta   90.00000000
_cell_angle_gamma   90.00000000
_symmetry_Int_Tables_number   1
_chemical_formula_structural   YbMn2O5
_chemical_formula_sum   'Yb4 Mn8 O20'
_cell_volume   349.28195987
_cell_formula_units_Z   4
loop_
 _symmetry_equiv_pos_site_id
 _symmetry_equiv_pos_as_xyz
  1  'x, y, z'
loop_
 _atom_site_type_symbol
 _atom_site_label
 _atom_site_symmetry_multiplicity
 _atom_site_fract_x
 _atom_site_fract_y
 _atom_site_fract_z
 _atom_site_occupancy
  Yb  Yb0  1  0.00000000  0.37276512  0.67005135  1
  Yb  Yb1  1  0.00000000  0.62723488  0.32994865  1
  Yb  Yb2  1  0.00000000  0.12723488  0.17005135  1
  Yb  Yb3  1  0.00000000  0.87276512  0.82994865  1
  Mn  Mn4  1  0.75429089  0.00000000  0.50000000  1
  Mn  Mn5  1  0.75429089  0.50000000  0.00000000  1
  Mn  Mn6  1  0.50000000  0.59109329  0.65267274  1
  Mn  Mn7  1  0.24570911  0.00000000  0.50000000  1
  Mn  Mn8  1  0.50000000  0.90890671  0.15267274  1
  Mn  Mn9  1  0.24570911  0.50000000  0.00000000  1
  Mn  Mn10  1  0.50000000  0.09109329  0.84732726  1
  Mn  Mn11  1  0.50000000  0.40890671  0.34732726  1
  O  O12  1  0.24753015  0.38893999  0.20637079  1
  O  O13  1  0.28738227  0.50000000  0.50000000  1
  O  O14  1  0.50000000  0.65336581  0.08726515  1
  O  O15  1  0.00000000  0.16503010  0.44457504  1
  O  O16  1  0.00000000  0.33496990  0.94457504  1
  O  O17  1  0.75246985  0.38893999  0.20637079  1
  O  O18  1  0.71261773  0.00000000  0.00000000  1
  O  O19  1  0.24753015  0.61106001  0.79362921  1
  O  O20  1  0.00000000  0.83496990  0.55542496  1
  O  O21  1  0.71261773  0.50000000  0.50000000  1
  O  O22  1  0.75246985  0.61106001  0.79362921  1
  O  O23  1  0.28738227  0.00000000  0.00000000  1
  O  O24  1  0.75246985  0.88893999  0.29362921  1
  O  O25  1  0.24753015  0.88893999  0.29362921  1
  O  O26  1  0.50000000  0.34663419  0.91273485  1
  O  O27  1  0.75246985  0.11106001  0.70637079  1
  O  O28  1  0.00000000  0.66503010  0.05542496  1
  O  O29  1  0.24753015  0.11106001  0.70637079  1
  O  O30  1  0.50000000  0.84663419  0.58726515  1
  O  O31  1  0.50000000  0.15336581  0.41273485  1
