# generated using pymatgen
data_CaAl2Si3H6O13
_symmetry_space_group_name_H-M   'P 1'
_cell_length_a   6.59037871
_cell_length_b   9.91578450
_cell_length_c   10.13054189
_cell_angle_alpha   83.92617136
_cell_angle_beta   71.01790145
_cell_angle_gamma   71.01649939
_symmetry_Int_Tables_number   1
_chemical_formula_structural   CaAl2Si3H6O13
_chemical_formula_sum   'Ca2 Al4 Si6 H12 O26'
_cell_volume   591.97041115
_cell_formula_units_Z   2
loop_
 _symmetry_equiv_pos_site_id
 _symmetry_equiv_pos_as_xyz
  1  'x, y, z'
loop_
 _atom_site_type_symbol
 _atom_site_label
 _atom_site_symmetry_multiplicity
 _atom_site_fract_x
 _atom_site_fract_y
 _atom_site_fract_z
 _atom_site_occupancy
  Ca  Ca0  1  0.15821719  0.94808423  0.46221007  1
  Ca  Ca1  1  0.37042727  0.44808423  0.03778993  1
  Al  Al2  1  0.41800915  0.56678949  0.31736706  1
  Al  Al3  1  0.48537622  0.06678949  0.18263294  1
  Al  Al4  1  0.32773864  0.40061056  0.67319902  1
  Al  Al5  1  0.75093767  0.90061056  0.82680098  1
  Si  Si6  1  0.75315268  0.50121151  0.49176300  1
  Si  Si7  1  0.99491568  0.00121151  0.00823700  1
  Si  Si8  1  0.42626230  0.80100867  0.08685642  1
  Si  Si9  1  0.26311872  0.30100867  0.41314358  1
  Si  Si10  1  0.33394983  0.16856225  0.91417940  1
  Si  Si11  1  0.99812923  0.66856225  0.58582060  1
  H  H12  1  0.87871124  0.31097787  0.94144701  1
  H  H13  1  0.57015825  0.81097787  0.55855299  1
  H  H14  1  0.83697844  0.45524760  0.85771848  1
  H  H15  1  0.44469692  0.95524760  0.64228152  1
  H  H16  1  0.44518906  0.59404192  0.76283748  1
  H  H17  1  0.95802655  0.09404192  0.73716252  1
  H  H18  1  0.29798793  0.72431775  0.87203021  1
  H  H19  1  0.92001815  0.22431775  0.62796979  1
  H  H20  1  0.86921173  0.55135874  0.19183209  1
  H  H21  1  0.81104382  0.05135874  0.30816791  1
  H  H22  1  0.90131179  0.63079685  0.04547156  1
  H  H23  1  0.69678335  0.13079685  0.45452844  1
  O  O24  1  0.67775281  0.53101250  0.35037509  1
  O  O25  1  0.77812790  0.03101250  0.14962491  1
  O  O26  1  0.55655079  0.47054762  0.62498481  1
  O  O27  1  0.93153560  0.97054762  0.87501519  1
  O  O28  1  0.42563691  0.64384092  0.15246549  1
  O  O29  1  0.32810240  0.14384092  0.34753451  1
  O  O30  1  0.30737422  0.32408134  0.83986449  1
  O  O31  1  0.89723871  0.82408134  0.66013551  1
  O  O32  1  0.20846883  0.68444767  0.44900507  1
  O  O33  1  0.40747390  0.18444767  0.05099493  1
  O  O34  1  0.37268828  0.28538187  0.53854879  1
  O  O35  1  0.66123707  0.78538187  0.96145121  1
  O  O36  1  0.39701110  0.91152629  0.20758275  1
  O  O37  1  0.35459386  0.41152629  0.29241725  1
  O  O38  1  0.50854487  0.03715108  0.81277285  1
  O  O39  1  0.07131771  0.53715108  0.68722715  1
  O  O40  1  0.20477803  0.86518845  0.02939572  1
  O  O41  1  0.98417374  0.36518845  0.47060428  1
  O  O42  1  0.08012689  0.14498446  0.97176909  1
  O  O43  1  0.80189599  0.64498446  0.52823091  1
  O  O44  1  0.98244076  0.56025240  0.10082225  1
  O  O45  1  0.83326301  0.06025240  0.39917775  1
  O  O46  1  0.76044292  0.39018268  0.91653182  1
  O  O47  1  0.42697475  0.89018268  0.58346818  1
  O  O48  1  0.36436832  0.62101528  0.86194052  1
  O  O49  1  0.97630884  0.12101528  0.63805948  1
