# generated using pymatgen
data_K2SnBr6
_symmetry_space_group_name_H-M   'P 1'
_cell_length_a   7.47954653
_cell_length_b   7.48020597
_cell_length_c   11.32189068
_cell_angle_alpha   89.99190168
_cell_angle_beta   89.99010874
_cell_angle_gamma   90.15753352
_symmetry_Int_Tables_number   1
_chemical_formula_structural   K2SnBr6
_chemical_formula_sum   'K4 Sn2 Br12'
_cell_volume   633.44094059
_cell_formula_units_Z   2
loop_
 _symmetry_equiv_pos_site_id
 _symmetry_equiv_pos_as_xyz
  1  'x, y, z'
loop_
 _atom_site_type_symbol
 _atom_site_label
 _atom_site_symmetry_multiplicity
 _atom_site_fract_x
 _atom_site_fract_y
 _atom_site_fract_z
 _atom_site_occupancy
  K  K0  1  0.50003834  0.49988013  0.99941570  1
  K  K1  1  0.99992541  0.00002076  0.00050055  1
  K  K2  1  0.49996241  0.49989093  0.50058116  1
  K  K3  1  0.00010792  0.99999246  0.49972393  1
  Sn  Sn4  1  0.49990802  0.99985934  0.25141713  1
  Sn  Sn5  1  0.00002392  0.50018020  0.74844451  1
  Br  Br6  1  0.49991163  0.99994028  0.48725822  1
  Br  Br7  1  0.99997453  0.50002873  0.51278231  1
  Br  Br8  1  0.50001948  0.99994023  0.01536994  1
  Br  Br9  1  0.00003356  0.50007122  0.98428128  1
  Br  Br10  1  0.68911483  0.70036704  0.25092255  1
  Br  Br11  1  0.29957423  0.31049232  0.74910133  1
  Br  Br12  1  0.31066485  0.29940155  0.25085271  1
  Br  Br13  1  0.70061917  0.68988777  0.74914353  1
  Br  Br14  1  0.80982190  0.20001801  0.74923478  1
  Br  Br15  1  0.19038749  0.80029047  0.74905272  1
  Br  Br16  1  0.79972511  0.19052758  0.25094507  1
  Br  Br17  1  0.20018721  0.80921099  0.25097257  1
