# generated using pymatgen
data_MgTi3O7
_symmetry_space_group_name_H-M   'P 1'
_cell_length_a   5.43926330
_cell_length_b   10.40194061
_cell_length_c   10.14529944
_cell_angle_alpha   90.00000000
_cell_angle_beta   90.00000000
_cell_angle_gamma   90.00000000
_symmetry_Int_Tables_number   1
_chemical_formula_structural   MgTi3O7
_chemical_formula_sum   'Mg4 Ti12 O28'
_cell_volume   574.00981967
_cell_formula_units_Z   4
loop_
 _symmetry_equiv_pos_site_id
 _symmetry_equiv_pos_as_xyz
  1  'x, y, z'
loop_
 _atom_site_type_symbol
 _atom_site_label
 _atom_site_symmetry_multiplicity
 _atom_site_fract_x
 _atom_site_fract_y
 _atom_site_fract_z
 _atom_site_occupancy
  Mg  Mg0  1  0.62686328  0.75000000  0.93920984  1
  Mg  Mg1  1  0.12686328  0.25000000  0.56079016  1
  Mg  Mg2  1  0.37313672  0.25000000  0.06079016  1
  Mg  Mg3  1  0.87313672  0.75000000  0.43920984  1
  Ti  Ti4  1  0.28922948  0.03060675  0.31263280  1
  Ti  Ti5  1  0.78922948  0.96939325  0.18736720  1
  Ti  Ti6  1  0.71077052  0.53060675  0.68736720  1
  Ti  Ti7  1  0.21077052  0.46939325  0.81263280  1
  Ti  Ti8  1  0.30041675  0.75000000  0.22059307  1
  Ti  Ti9  1  0.80041675  0.25000000  0.27940693  1
  Ti  Ti10  1  0.69958325  0.25000000  0.77940693  1
  Ti  Ti11  1  0.19958325  0.75000000  0.72059307  1
  Ti  Ti12  1  0.78922948  0.53060675  0.18736720  1
  Ti  Ti13  1  0.28922948  0.46939325  0.31263280  1
  Ti  Ti14  1  0.21077052  0.03060675  0.81263280  1
  Ti  Ti15  1  0.71077052  0.96939325  0.68736720  1
  O  O16  1  0.94984515  0.12156365  0.71311704  1
  O  O17  1  0.44984515  0.87843635  0.78688296  1
  O  O18  1  0.05015485  0.62156365  0.28688296  1
  O  O19  1  0.55015485  0.37843635  0.21311704  1
  O  O20  1  0.05015485  0.87843635  0.28688296  1
  O  O21  1  0.55015485  0.12156365  0.21311704  1
  O  O22  1  0.94984515  0.37843635  0.71311704  1
  O  O23  1  0.44984515  0.62156365  0.78688296  1
  O  O24  1  0.47287864  0.11674820  0.71918656  1
  O  O25  1  0.97287864  0.88325180  0.78081344  1
  O  O26  1  0.52712136  0.61674820  0.28081344  1
  O  O27  1  0.02712136  0.38325180  0.21918656  1
  O  O28  1  0.52712136  0.88325180  0.28081344  1
  O  O29  1  0.02712136  0.11674820  0.21918656  1
  O  O30  1  0.47287864  0.38325180  0.71918656  1
  O  O31  1  0.97287864  0.61674820  0.78081344  1
  O  O32  1  0.17999846  0.75000000  0.55353073  1
  O  O33  1  0.67999846  0.25000000  0.94646927  1
  O  O34  1  0.82000154  0.25000000  0.44646927  1
  O  O35  1  0.32000154  0.75000000  0.05353073  1
  O  O36  1  0.22328838  0.40240447  0.96489439  1
  O  O37  1  0.72328838  0.59759553  0.53510561  1
  O  O38  1  0.77671162  0.90240447  0.03510561  1
  O  O39  1  0.27671162  0.09759553  0.46489439  1
  O  O40  1  0.77671162  0.59759553  0.03510561  1
  O  O41  1  0.27671162  0.40240447  0.46489439  1
  O  O42  1  0.22328838  0.09759553  0.96489439  1
  O  O43  1  0.72328838  0.90240447  0.53510561  1
