# generated using pymatgen
data_Rb6U5V2O23
_symmetry_space_group_name_H-M   'P 1'
_cell_length_a   7.18462632
_cell_length_b   13.11040474
_cell_length_c   14.82861899
_cell_angle_alpha   104.22566989
_cell_angle_beta   90.00000000
_cell_angle_gamma   105.90271249
_symmetry_Int_Tables_number   1
_chemical_formula_structural   Rb6U5V2O23
_chemical_formula_sum   'Rb12 U10 V4 O46'
_cell_volume   1298.70834712
_cell_formula_units_Z   2
loop_
 _symmetry_equiv_pos_site_id
 _symmetry_equiv_pos_as_xyz
  1  'x, y, z'
loop_
 _atom_site_type_symbol
 _atom_site_label
 _atom_site_symmetry_multiplicity
 _atom_site_fract_x
 _atom_site_fract_y
 _atom_site_fract_z
 _atom_site_occupancy
  Rb  Rb0  1  0.71427622  0.92659620  0.45156814  1
  Rb  Rb1  1  0.88321571  0.26015769  0.61361566  1
  Rb  Rb2  1  0.51351771  0.58111715  0.32662183  1
  Rb  Rb3  1  0.48648229  0.41888285  0.67337817  1
  Rb  Rb4  1  0.78768001  0.07340380  0.04843186  1
  Rb  Rb5  1  0.11678429  0.73984231  0.38638434  1
  Rb  Rb6  1  0.62305802  0.73984231  0.88638434  1
  Rb  Rb7  1  0.37694198  0.26015769  0.11361566  1
  Rb  Rb8  1  0.06759944  0.58111715  0.82662183  1
  Rb  Rb9  1  0.93240056  0.41888285  0.17337817  1
  Rb  Rb10  1  0.21231999  0.92659620  0.95156814  1
  Rb  Rb11  1  0.28572378  0.07340380  0.54843186  1
  U  U12  1  0.10650375  0.29281685  0.88350162  1
  U  U13  1  0.36174179  0.83426099  0.67184571  1
  U  U14  1  0.81368690  0.70718315  0.61649838  1
  U  U15  1  0.89349625  0.70718315  0.11649838  1
  U  U16  1  0.52748080  0.16573901  0.82815429  1
  U  U17  1  0.63825821  0.16573901  0.32815429  1
  U  U18  1  0.08390781  0.00000000  0.25000000  1
  U  U19  1  0.91609219  0.00000000  0.75000000  1
  U  U20  1  0.47251920  0.83426099  0.17184571  1
  U  U21  1  0.18631310  0.29281685  0.38350162  1
  V  V22  1  0.76538530  0.43571440  0.42997282  1
  V  V23  1  0.23461470  0.56428560  0.57002718  1
  V  V24  1  0.67032910  0.43571440  0.92997282  1
  V  V25  1  0.32967090  0.56428560  0.07002718  1
  O  O26  1  0.82245763  0.66721493  0.72735535  1
  O  O27  1  0.93433828  0.13152666  0.31688344  1
  O  O28  1  0.67602090  0.21586874  0.21899961  1
  O  O29  1  0.84074393  0.15449701  0.81956236  1
  O  O30  1  0.76380654  0.51647631  0.54254622  1
  O  O31  1  0.51005991  0.00000000  0.25000000  1
  O  O32  1  0.31375308  0.15449701  0.31956236  1
  O  O33  1  0.23619346  0.48352369  0.45745378  1
  O  O34  1  0.11495752  0.04560443  0.13869711  1
  O  O35  1  0.53984783  0.21586874  0.71899961  1
  O  O36  1  0.34080081  0.48555704  0.14257633  1
  O  O37  1  0.06935309  0.95439557  0.36130289  1
  O  O38  1  0.24733023  0.48352369  0.95745378  1
  O  O39  1  0.14475623  0.48555704  0.64257633  1
  O  O40  1  0.05964736  0.26102465  0.99864924  1
  O  O41  1  0.38928269  0.87432443  0.55792354  1
  O  O42  1  0.17754237  0.33278507  0.27264465  1
  O  O43  1  0.75266977  0.51647631  0.04254622  1
  O  O44  1  0.85524377  0.51444296  0.35742367  1
  O  O45  1  0.47355504  0.64099098  0.61056026  1
  O  O46  1  0.46015217  0.78413126  0.28100039  1
  O  O47  1  0.44977819  0.32445946  0.91851121  1
  O  O48  1  0.80281162  0.86847334  0.18311656  1
  O  O49  1  0.15925607  0.84550299  0.18043764  1
  O  O50  1  0.65919919  0.51444296  0.85742367  1
  O  O51  1  0.93064691  0.04560443  0.63869711  1
  O  O52  1  0.16743594  0.64099098  0.11056026  1
  O  O53  1  0.87468127  0.32445946  0.41851121  1
  O  O54  1  0.48994009  0.00000000  0.75000000  1
  O  O55  1  0.19718838  0.13152666  0.81688344  1
  O  O56  1  0.06566172  0.86847334  0.68311656  1
  O  O57  1  0.88504248  0.95439557  0.86130289  1
  O  O58  1  0.52644496  0.35900902  0.38943974  1
  O  O59  1  0.51495826  0.12567557  0.94207646  1
  O  O60  1  0.83256406  0.35900902  0.88943974  1
  O  O61  1  0.94035264  0.73897535  0.00135076  1
  O  O62  1  0.79862271  0.73897535  0.50135076  1
  O  O63  1  0.12531873  0.67554054  0.58148879  1
  O  O64  1  0.61071731  0.12567557  0.44207646  1
  O  O65  1  0.15524270  0.33278507  0.77264465  1
  O  O66  1  0.48504174  0.87432443  0.05792354  1
  O  O67  1  0.20137729  0.26102465  0.49864924  1
  O  O68  1  0.68624692  0.84550299  0.68043764  1
  O  O69  1  0.32397910  0.78413126  0.78100039  1
  O  O70  1  0.55022181  0.67554054  0.08148879  1
  O  O71  1  0.84475730  0.66721493  0.22735535  1
