# generated using pymatgen
data_WO3
_symmetry_space_group_name_H-M   'P 1'
_cell_length_a   7.72750351
_cell_length_b   7.50714498
_cell_length_c   7.50753780
_cell_angle_alpha   60.00173471
_cell_angle_beta   90.00001386
_cell_angle_gamma   90.00002775
_symmetry_Int_Tables_number   1
_chemical_formula_structural   WO3
_chemical_formula_sum   'W6 O18'
_cell_volume   377.18096301
_cell_formula_units_Z   6
loop_
 _symmetry_equiv_pos_site_id
 _symmetry_equiv_pos_as_xyz
  1  'x, y, z'
loop_
 _atom_site_type_symbol
 _atom_site_label
 _atom_site_symmetry_multiplicity
 _atom_site_fract_x
 _atom_site_fract_y
 _atom_site_fract_z
 _atom_site_occupancy
  W  W0  1  0.23896829  0.00001367  0.48315301  1
  W  W1  1  0.23896829  0.48316668  0.51684699  1
  W  W2  1  0.73895394  0.48317226  1.00000000  1
  W  W3  1  0.73899311  0.51683250  0.48315420  1
  W  W4  1  0.23892993  0.51683576  0.00000000  1
  W  W5  1  0.73899311  0.99998670  0.51684580  1
  O  O6  1  0.99712011  0.00002533  0.49860855  1
  O  O7  1  0.49707921  0.99998394  0.50138285  1
  O  O8  1  0.49707921  0.50136678  0.49861715  1
  O  O9  1  0.99712011  0.49863388  0.50139145  1
  O  O10  1  0.99710355  0.50134159  0.00000000  1
  O  O11  1  0.49706649  0.49865710  1.00000000  1
  O  O12  1  0.74897389  0.21615598  0.57401305  1
  O  O13  1  0.24897112  0.20983323  0.57400825  1
  O  O14  1  0.24898334  0.21617751  0.20984191  1
  O  O15  1  0.74895083  0.20983444  0.21619744  1
  O  O16  1  0.74898317  0.57397658  0.20984538  1
  O  O17  1  0.24894998  0.57396068  0.21620093  1
  O  O18  1  0.74895083  0.42603188  0.78380256  1
  O  O19  1  0.24898334  0.42601942  0.79015809  1
  O  O20  1  0.24894998  0.79016160  0.78379907  1
  O  O21  1  0.74898317  0.78382197  0.79015462  1
  O  O22  1  0.74897389  0.79016903  0.42598695  1
  O  O23  1  0.24897112  0.78384149  0.42599175  1
