# generated using pymatgen
data_SrB6(H4O7)2
_symmetry_space_group_name_H-M   'P 1'
_cell_length_a   14.65940742
_cell_length_b   8.29975978
_cell_length_c   10.01047664
_cell_angle_alpha   90.00000000
_cell_angle_beta   114.30886231
_cell_angle_gamma   90.00000000
_symmetry_Int_Tables_number   1
_chemical_formula_structural   SrB6(H4O7)2
_chemical_formula_sum   'Sr4 B24 H32 O56'
_cell_volume   1109.98457351
_cell_formula_units_Z   4
loop_
 _symmetry_equiv_pos_site_id
 _symmetry_equiv_pos_as_xyz
  1  'x, y, z'
loop_
 _atom_site_type_symbol
 _atom_site_label
 _atom_site_symmetry_multiplicity
 _atom_site_fract_x
 _atom_site_fract_y
 _atom_site_fract_z
 _atom_site_occupancy
  Sr  Sr0  1  0.66276974  0.44266051  0.19453713  1
  Sr  Sr1  1  0.83723026  0.94266051  0.80546287  1
  Sr  Sr2  1  0.33723026  0.55733949  0.80546287  1
  Sr  Sr3  1  0.16276974  0.05733949  0.19453713  1
  B  B4  1  0.69467465  0.34705000  0.84818362  1
  B  B5  1  0.80532535  0.84705000  0.15181638  1
  B  B6  1  0.30532535  0.65295000  0.15181638  1
  B  B7  1  0.19467465  0.15295000  0.84818362  1
  B  B8  1  0.69232494  0.34120684  0.58299115  1
  B  B9  1  0.80767506  0.84120684  0.41700885  1
  B  B10  1  0.30767506  0.65879316  0.41700885  1
  B  B11  1  0.19232494  0.15879316  0.58299115  1
  B  B12  1  0.54458912  0.25261167  0.62798323  1
  B  B13  1  0.95541088  0.75261167  0.37201677  1
  B  B14  1  0.45541088  0.74738833  0.37201677  1
  B  B15  1  0.04458912  0.24738833  0.62798323  1
  B  B16  1  0.69048082  0.04651355  0.21714951  1
  B  B17  1  0.80951918  0.54651355  0.78285049  1
  B  B18  1  0.30951918  0.95348645  0.78285049  1
  B  B19  1  0.19048082  0.45348645  0.21714951  1
  B  B20  1  0.75219757  0.10743983  0.48189136  1
  B  B21  1  0.74780243  0.60743983  0.51810864  1
  B  B22  1  0.24780243  0.89256017  0.51810864  1
  B  B23  1  0.25219757  0.39256017  0.48189136  1
  B  B24  1  0.75196778  0.11384483  0.02302242  1
  B  B25  1  0.74803222  0.61384483  0.97697758  1
  B  B26  1  0.24803222  0.88615517  0.97697758  1
  B  B27  1  0.25196778  0.38615517  0.02302242  1
  H  H28  1  0.57131234  0.85170470  0.34949704  1
  H  H29  1  0.92868766  0.35170470  0.65050296  1
  H  H30  1  0.42868766  0.14829530  0.65050296  1
  H  H31  1  0.07131234  0.64829530  0.34949704  1
  H  H32  1  0.45010593  0.41730510  0.19962760  1
  H  H33  1  0.04989407  0.91730510  0.80037240  1
  H  H34  1  0.54989407  0.58269490  0.80037240  1
  H  H35  1  0.95010593  0.08269490  0.19962760  1
  H  H36  1  0.52474056  0.32742744  0.34462005  1
  H  H37  1  0.97525944  0.82742744  0.65537995  1
  H  H38  1  0.47525944  0.67257256  0.65537995  1
  H  H39  1  0.02474056  0.17257256  0.34462005  1
  H  H40  1  0.53980286  0.04155076  0.13852649  1
  H  H41  1  0.96019714  0.54155076  0.86147351  1
  H  H42  1  0.46019714  0.95844924  0.86147351  1
  H  H43  1  0.03980286  0.45844924  0.13852649  1
  H  H44  1  0.55243667  0.76815904  0.08538991  1
  H  H45  1  0.94756333  0.26815904  0.91461009  1
  H  H46  1  0.44756333  0.23184096  0.91461009  1
  H  H47  1  0.05243667  0.73184096  0.08538991  1
  H  H48  1  0.47874038  0.67309930  0.12858748  1
  H  H49  1  0.02125962  0.17309930  0.87141252  1
  H  H50  1  0.52125962  0.32690070  0.87141252  1
  H  H51  1  0.97874038  0.82690070  0.12858748  1
  H  H52  1  0.60803693  0.86283175  0.76575139  1
  H  H53  1  0.89196307  0.36283175  0.23424861  1
  H  H54  1  0.39196307  0.13716825  0.23424861  1
  H  H55  1  0.10803693  0.63716825  0.76575139  1
  H  H56  1  0.60569058  0.89107420  0.61072718  1
  H  H57  1  0.89430942  0.39107420  0.38927282  1
  H  H58  1  0.39430942  0.10892580  0.38927282  1
  H  H59  1  0.10569058  0.60892580  0.61072718  1
  O  O60  1  0.69396275  0.47183191  0.95189795  1
  O  O61  1  0.80603725  0.97183191  0.04810205  1
  O  O62  1  0.30603725  0.52816809  0.04810205  1
  O  O63  1  0.19396275  0.02816809  0.95189795  1
  O  O64  1  0.70059286  0.45972005  0.48094268  1
  O  O65  1  0.79940714  0.95972005  0.51905732  1
  O  O66  1  0.29940714  0.54027995  0.51905732  1
  O  O67  1  0.20059286  0.04027995  0.48094268  1
  O  O68  1  0.54837379  0.82072398  0.42603288  1
  O  O69  1  0.95162621  0.32072398  0.57396712  1
  O  O70  1  0.45162621  0.17927602  0.57396712  1
  O  O71  1  0.04837379  0.67927602  0.42603288  1
  O  O72  1  0.50088936  0.33250569  0.23605668  1
  O  O73  1  0.99911064  0.83250569  0.76394332  1
  O  O74  1  0.49911064  0.66749431  0.76394332  1
  O  O75  1  0.00088936  0.16749431  0.23605668  1
  O  O76  1  0.59363993  0.96224333  0.16973729  1
  O  O77  1  0.90636007  0.46224333  0.83026271  1
  O  O78  1  0.40636007  0.03775667  0.83026271  1
  O  O79  1  0.09363993  0.53775667  0.16973729  1
  O  O80  1  0.74479190  0.69932048  0.40228795  1
  O  O81  1  0.75520810  0.19932048  0.59771205  1
  O  O82  1  0.25520810  0.30067952  0.59771205  1
  O  O83  1  0.24479190  0.80067952  0.40228795  1
  O  O84  1  0.70473433  0.15602108  0.33884158  1
  O  O85  1  0.79526567  0.65602108  0.66115842  1
  O  O86  1  0.29526567  0.84397892  0.66115842  1
  O  O87  1  0.20473433  0.34397892  0.33884158  1
  O  O88  1  0.73897450  0.71314701  0.08007877  1
  O  O89  1  0.76102550  0.21314701  0.91992123  1
  O  O90  1  0.26102550  0.28685299  0.91992123  1
  O  O91  1  0.23897450  0.78685299  0.08007877  1
  O  O92  1  0.69602695  0.14875989  0.10032853  1
  O  O93  1  0.80397305  0.64875989  0.89967147  1
  O  O94  1  0.30397305  0.85124011  0.89967147  1
  O  O95  1  0.19602695  0.35124011  0.10032853  1
  O  O96  1  0.59049240  0.29385409  0.77310505  1
  O  O97  1  0.90950760  0.79385409  0.22689495  1
  O  O98  1  0.40950760  0.70614591  0.22689495  1
  O  O99  1  0.09049240  0.20614591  0.77310505  1
  O  O100  1  0.58641428  0.29220858  0.53233763  1
  O  O101  1  0.91358572  0.79220858  0.46766237  1
  O  O102  1  0.41358572  0.70779142  0.46766237  1
  O  O103  1  0.08641428  0.20779142  0.53233763  1
  O  O104  1  0.52168781  0.65961894  0.07395280  1
  O  O105  1  0.97831219  0.15961894  0.92604720  1
  O  O106  1  0.47831219  0.34038106  0.92604720  1
  O  O107  1  0.02168781  0.84038106  0.07395280  1
  O  O108  1  0.64099704  0.92459491  0.71476799  1
  O  O109  1  0.85900296  0.42459491  0.28523201  1
  O  O110  1  0.35900296  0.07540509  0.28523201  1
  O  O111  1  0.14099704  0.57540509  0.71476799  1
  O  O112  1  0.72771400  0.41974767  0.73572851  1
  O  O113  1  0.77228600  0.91974767  0.26427149  1
  O  O114  1  0.27228600  0.58025233  0.26427149  1
  O  O115  1  0.22771400  0.08025233  0.73572851  1
