# generated using pymatgen
data_BHO2
_symmetry_space_group_name_H-M   'P 1'
_cell_length_a   8.95657762
_cell_length_b   8.95657762
_cell_length_c   8.95657762
_cell_angle_alpha   90.00000000
_cell_angle_beta   90.00000000
_cell_angle_gamma   90.00000000
_symmetry_Int_Tables_number   1
_chemical_formula_structural   BHO2
_chemical_formula_sum   'B24 H24 O48'
_cell_volume   718.49918837
_cell_formula_units_Z   24
loop_
 _symmetry_equiv_pos_site_id
 _symmetry_equiv_pos_as_xyz
  1  'x, y, z'
loop_
 _atom_site_type_symbol
 _atom_site_label
 _atom_site_symmetry_multiplicity
 _atom_site_fract_x
 _atom_site_fract_y
 _atom_site_fract_z
 _atom_site_occupancy
  B  B0  1  0.19202517  0.58166391  0.28292234  1
  B  B1  1  0.41833609  0.71707766  0.19202517  1
  B  B2  1  0.28292234  0.80797483  0.41833609  1
  B  B3  1  0.80797483  0.41833609  0.28292234  1
  B  B4  1  0.58166391  0.28292234  0.19202517  1
  B  B5  1  0.71707766  0.19202517  0.41833609  1
  B  B6  1  0.19202517  0.41833609  0.71707766  1
  B  B7  1  0.41833609  0.28292234  0.80797483  1
  B  B8  1  0.28292234  0.19202517  0.58166391  1
  B  B9  1  0.80797483  0.58166391  0.71707766  1
  B  B10  1  0.58166391  0.71707766  0.80797483  1
  B  B11  1  0.71707766  0.80797483  0.58166391  1
  B  B12  1  0.69202517  0.78292234  0.08166391  1
  B  B13  1  0.91833609  0.69202517  0.21707766  1
  B  B14  1  0.78292234  0.91833609  0.30797483  1
  B  B15  1  0.30797483  0.78292234  0.91833609  1
  B  B16  1  0.08166391  0.69202517  0.78292234  1
  B  B17  1  0.21707766  0.91833609  0.69202517  1
  B  B18  1  0.69202517  0.21707766  0.91833609  1
  B  B19  1  0.91833609  0.30797483  0.78292234  1
  B  B20  1  0.78292234  0.08166391  0.69202517  1
  B  B21  1  0.30797483  0.21707766  0.08166391  1
  B  B22  1  0.08166391  0.30797483  0.21707766  1
  B  B23  1  0.21707766  0.08166391  0.30797483  1
  H  H24  1  0.16563709  0.61046693  0.56837769  1
  H  H25  1  0.38953307  0.43162231  0.16563709  1
  H  H26  1  0.56837769  0.83436291  0.38953307  1
  H  H27  1  0.83436291  0.38953307  0.56837769  1
  H  H28  1  0.61046693  0.56837769  0.16563709  1
  H  H29  1  0.43162231  0.16563709  0.38953307  1
  H  H30  1  0.16563709  0.38953307  0.43162231  1
  H  H31  1  0.38953307  0.56837769  0.83436291  1
  H  H32  1  0.56837769  0.16563709  0.61046693  1
  H  H33  1  0.83436291  0.61046693  0.43162231  1
  H  H34  1  0.61046693  0.43162231  0.83436291  1
  H  H35  1  0.43162231  0.83436291  0.61046693  1
  H  H36  1  0.66563709  0.06837769  0.11046693  1
  H  H37  1  0.88953307  0.66563709  0.93162231  1
  H  H38  1  0.06837769  0.88953307  0.33436291  1
  H  H39  1  0.33436291  0.06837769  0.88953307  1
  H  H40  1  0.11046693  0.66563709  0.06837769  1
  H  H41  1  0.93162231  0.88953307  0.66563709  1
  H  H42  1  0.66563709  0.93162231  0.88953307  1
  H  H43  1  0.88953307  0.33436291  0.06837769  1
  H  H44  1  0.06837769  0.11046693  0.66563709  1
  H  H45  1  0.33436291  0.93162231  0.11046693  1
  H  H46  1  0.11046693  0.33436291  0.93162231  1
  H  H47  1  0.93162231  0.11046693  0.33436291  1
  O  O48  1  0.19960520  0.66831489  0.41932333  1
  O  O49  1  0.33168511  0.58067667  0.19960520  1
  O  O50  1  0.41932333  0.80039480  0.33168511  1
  O  O51  1  0.80039480  0.33168511  0.41932333  1
  O  O52  1  0.66831489  0.41932333  0.19960520  1
  O  O53  1  0.58067667  0.19960520  0.33168511  1
  O  O54  1  0.19960520  0.33168511  0.58067667  1
  O  O55  1  0.33168511  0.41932333  0.80039480  1
  O  O56  1  0.41932333  0.19960520  0.66831489  1
  O  O57  1  0.80039480  0.66831489  0.58067667  1
  O  O58  1  0.66831489  0.58067667  0.80039480  1
  O  O59  1  0.58067667  0.80039480  0.66831489  1
  O  O60  1  0.69960520  0.91932333  0.16831489  1
  O  O61  1  0.83168511  0.69960520  0.08067667  1
  O  O62  1  0.91932333  0.83168511  0.30039480  1
  O  O63  1  0.30039480  0.91932333  0.83168511  1
  O  O64  1  0.16831489  0.69960520  0.91932333  1
  O  O65  1  0.08067667  0.83168511  0.69960520  1
  O  O66  1  0.69960520  0.08067667  0.83168511  1
  O  O67  1  0.83168511  0.30039480  0.91932333  1
  O  O68  1  0.91932333  0.16831489  0.69960520  1
  O  O69  1  0.30039480  0.08067667  0.16831489  1
  O  O70  1  0.16831489  0.30039480  0.08067667  1
  O  O71  1  0.08067667  0.16831489  0.30039480  1
  O  O72  1  0.07343210  0.64499608  0.17752109  1
  O  O73  1  0.35500392  0.82247891  0.07343210  1
  O  O74  1  0.17752109  0.92656790  0.35500392  1
  O  O75  1  0.92656790  0.35500392  0.17752109  1
  O  O76  1  0.64499608  0.17752109  0.07343210  1
  O  O77  1  0.82247891  0.07343210  0.35500392  1
  O  O78  1  0.07343210  0.35500392  0.82247891  1
  O  O79  1  0.35500392  0.17752109  0.92656790  1
  O  O80  1  0.17752109  0.07343210  0.64499608  1
  O  O81  1  0.92656790  0.64499608  0.82247891  1
  O  O82  1  0.64499608  0.82247891  0.92656790  1
  O  O83  1  0.82247891  0.92656790  0.64499608  1
  O  O84  1  0.57343210  0.67752109  0.14499608  1
  O  O85  1  0.85500392  0.57343210  0.32247891  1
  O  O86  1  0.67752109  0.85500392  0.42656790  1
  O  O87  1  0.42656790  0.67752109  0.85500392  1
  O  O88  1  0.14499608  0.57343210  0.67752109  1
  O  O89  1  0.32247891  0.85500392  0.57343210  1
  O  O90  1  0.57343210  0.32247891  0.85500392  1
  O  O91  1  0.85500392  0.42656790  0.67752109  1
  O  O92  1  0.67752109  0.14499608  0.57343210  1
  O  O93  1  0.42656790  0.32247891  0.14499608  1
  O  O94  1  0.14499608  0.42656790  0.32247891  1
  O  O95  1  0.32247891  0.14499608  0.42656790  1
