# generated using pymatgen
data_Na6HfH8S5O24
_symmetry_space_group_name_H-M   'P 1'
_cell_length_a   8.63151981
_cell_length_b   11.29002065
_cell_length_c   10.79416117
_cell_angle_alpha   90.00000000
_cell_angle_beta   98.69446285
_cell_angle_gamma   90.00000000
_symmetry_Int_Tables_number   1
_chemical_formula_structural   Na6HfH8S5O24
_chemical_formula_sum   'Na12 Hf2 H16 S10 O48'
_cell_volume   1039.80359463
_cell_formula_units_Z   2
loop_
 _symmetry_equiv_pos_site_id
 _symmetry_equiv_pos_as_xyz
  1  'x, y, z'
loop_
 _atom_site_type_symbol
 _atom_site_label
 _atom_site_symmetry_multiplicity
 _atom_site_fract_x
 _atom_site_fract_y
 _atom_site_fract_z
 _atom_site_occupancy
  Na  Na0  1  0.94607251  0.82497355  0.50649406  1
  Na  Na1  1  0.05392749  0.32497355  0.49350594  1
  Na  Na2  1  0.46880926  0.19177779  0.02064255  1
  Na  Na3  1  0.53119074  0.69177779  0.97935745  1
  Na  Na4  1  0.41041753  0.47080733  0.46734890  1
  Na  Na5  1  0.58958247  0.97080733  0.53265110  1
  Na  Na6  1  0.79289702  0.96964488  0.04930105  1
  Na  Na7  1  0.20710298  0.46964488  0.95069895  1
  Na  Na8  1  0.30712228  0.82339729  0.72917876  1
  Na  Na9  1  0.69287772  0.32339729  0.27082124  1
  Na  Na10  1  0.02265553  0.56336107  0.22617542  1
  Na  Na11  1  0.97734447  0.06336107  0.77382458  1
  Hf  Hf12  1  0.77714287  0.50205862  0.72701730  1
  Hf  Hf13  1  0.22285713  0.00205862  0.27298270  1
  H  H14  1  0.46536708  0.15729148  0.38170909  1
  H  H15  1  0.53463292  0.65729148  0.61829091  1
  H  H16  1  0.54730915  0.07526709  0.29075157  1
  H  H17  1  0.45269085  0.57526709  0.70924843  1
  H  H18  1  0.97582564  0.65895561  0.97105630  1
  H  H19  1  0.02417436  0.15895561  0.02894370  1
  H  H20  1  0.87835479  0.23066818  0.97308885  1
  H  H21  1  0.12164521  0.73066818  0.02691115  1
  H  H22  1  0.51222058  0.04268502  0.82696357  1
  H  H23  1  0.48777942  0.54268502  0.17303643  1
  H  H24  1  0.66368928  0.11306586  0.84111383  1
  H  H25  1  0.33631072  0.61306586  0.15888617  1
  H  H26  1  0.73288026  0.75678037  0.21768333  1
  H  H27  1  0.26711974  0.25678037  0.78231667  1
  H  H28  1  0.58125416  0.83075386  0.19483033  1
  H  H29  1  0.41874584  0.33075386  0.80516967  1
  S  S30  1  0.69834364  0.26833018  0.61898065  1
  S  S31  1  0.30165636  0.76833018  0.38101935  1
  S  S32  1  0.75123395  0.80182396  0.77803669  1
  S  S33  1  0.24876605  0.30182396  0.22196331  1
  S  S34  1  0.77517411  0.56011520  0.40330528  1
  S  S35  1  0.22482589  0.06011520  0.59669472  1
  S  S36  1  0.15330326  0.57481801  0.67889932  1
  S  S37  1  0.84669674  0.07481801  0.32110068  1
  S  S38  1  0.73883437  0.44704740  0.98378111  1
  S  S39  1  0.26116563  0.94704740  0.01621889  1
  O  O40  1  0.61100161  0.34673214  0.70125030  1
  O  O41  1  0.38899839  0.84673214  0.29874970  1
  O  O42  1  0.85064630  0.33811703  0.62986957  1
  O  O43  1  0.14935370  0.83811703  0.37013043  1
  O  O44  1  0.61152768  0.26711223  0.49104274  1
  O  O45  1  0.38847232  0.76711223  0.50895726  1
  O  O46  1  0.72735733  0.14819883  0.67012185  1
  O  O47  1  0.27264267  0.64819883  0.32987815  1
  O  O48  1  0.81687981  0.67495370  0.79910003  1
  O  O49  1  0.18312019  0.17495370  0.20089997  1
  O  O50  1  0.75444228  0.83351637  0.64581735  1
  O  O51  1  0.24555772  0.33351637  0.35418265  1
  O  O52  1  0.85358517  0.87927623  0.86425644  1
  O  O53  1  0.14641483  0.37927623  0.13574356  1
  O  O54  1  0.58801116  0.80009450  0.80559259  1
  O  O55  1  0.41198884  0.30009450  0.19440741  1
  O  O56  1  0.78176236  0.56668484  0.54491008  1
  O  O57  1  0.21823764  0.06668484  0.45508992  1
  O  O58  1  0.88164825  0.46529340  0.37225824  1
  O  O59  1  0.11835175  0.96529340  0.62774176  1
  O  O60  1  0.61123400  0.53126826  0.34835518  1
  O  O61  1  0.38876600  0.03126826  0.65164482  1
  O  O62  1  0.82721286  0.67596417  0.36052933  1
  O  O63  1  0.17278714  0.17596417  0.63947067  1
  O  O64  1  0.03026803  0.51491645  0.74574374  1
  O  O65  1  0.96973197  0.01491645  0.25425626  1
  O  O66  1  0.19187169  0.49436903  0.58042680  1
  O  O67  1  0.80812831  0.99436903  0.41957320  1
  O  O68  1  0.29544489  0.59131222  0.77728838  1
  O  O69  1  0.70455511  0.09131222  0.22271162  1
  O  O70  1  0.09732231  0.69102039  0.63156269  1
  O  O71  1  0.90267769  0.19102039  0.36843731  1
  O  O72  1  0.87224104  0.42280000  0.90731921  1
  O  O73  1  0.12775896  0.92280000  0.09268079  1
  O  O74  1  0.62054999  0.50450930  0.88380246  1
  O  O75  1  0.37945001  0.00450930  0.11619754  1
  O  O76  1  0.78619214  0.53084317  0.08538992  1
  O  O77  1  0.21380786  0.03084317  0.91461008  1
  O  O78  1  0.68338707  0.33453747  0.02952549  1
  O  O79  1  0.31661293  0.83453747  0.97047451  1
  O  O80  1  0.53866446  0.57715066  0.65469166  1
  O  O81  1  0.46133554  0.07715066  0.34530834  1
  O  O82  1  0.92944005  0.15405303  0.96651273  1
  O  O83  1  0.07055995  0.65405303  0.03348727  1
  O  O84  1  0.59452700  0.07316003  0.89184275  1
  O  O85  1  0.40547300  0.57316003  0.10815725  1
  O  O86  1  0.66835010  0.80469379  0.15274454  1
  O  O87  1  0.33164990  0.30469379  0.84725546  1
