# generated using pymatgen
data_Ti3ZnO7
_symmetry_space_group_name_H-M   'P 1'
_cell_length_a   5.54077428
_cell_length_b   10.44084321
_cell_length_c   10.15839119
_cell_angle_alpha   90.00000000
_cell_angle_beta   90.00000000
_cell_angle_gamma   90.00000000
_symmetry_Int_Tables_number   1
_chemical_formula_structural   Ti3ZnO7
_chemical_formula_sum   'Ti12 Zn4 O28'
_cell_volume   587.66654185
_cell_formula_units_Z   4
loop_
 _symmetry_equiv_pos_site_id
 _symmetry_equiv_pos_as_xyz
  1  'x, y, z'
loop_
 _atom_site_type_symbol
 _atom_site_label
 _atom_site_symmetry_multiplicity
 _atom_site_fract_x
 _atom_site_fract_y
 _atom_site_fract_z
 _atom_site_occupancy
  Ti  Ti0  1  0.26363190  0.03402555  0.30618152  1
  Ti  Ti1  1  0.76363190  0.96597445  0.19381848  1
  Ti  Ti2  1  0.73636810  0.53402555  0.69381848  1
  Ti  Ti3  1  0.23636810  0.46597445  0.80618152  1
  Ti  Ti4  1  0.27287266  0.75000000  0.22544237  1
  Ti  Ti5  1  0.77287266  0.25000000  0.27455763  1
  Ti  Ti6  1  0.72712734  0.25000000  0.77455763  1
  Ti  Ti7  1  0.22712734  0.75000000  0.72544237  1
  Ti  Ti8  1  0.76363190  0.53402555  0.19381848  1
  Ti  Ti9  1  0.26363190  0.46597445  0.30618152  1
  Ti  Ti10  1  0.23636810  0.03402555  0.80618152  1
  Ti  Ti11  1  0.73636810  0.96597445  0.69381848  1
  Zn  Zn12  1  0.60166403  0.75000000  0.95805686  1
  Zn  Zn13  1  0.10166403  0.25000000  0.54194314  1
  Zn  Zn14  1  0.39833597  0.25000000  0.04194314  1
  Zn  Zn15  1  0.89833597  0.75000000  0.45805686  1
  O  O16  1  0.97252591  0.12156206  0.71120398  1
  O  O17  1  0.47252591  0.87843794  0.78879602  1
  O  O18  1  0.02747409  0.62156206  0.28879602  1
  O  O19  1  0.52747409  0.37843794  0.21120398  1
  O  O20  1  0.02747409  0.87843794  0.28879602  1
  O  O21  1  0.52747409  0.12156206  0.21120398  1
  O  O22  1  0.97252591  0.37843794  0.71120398  1
  O  O23  1  0.47252591  0.62156206  0.78879602  1
  O  O24  1  0.50722535  0.11400680  0.72175581  1
  O  O25  1  0.00722535  0.88599320  0.77824419  1
  O  O26  1  0.49277465  0.61400680  0.27824419  1
  O  O27  1  0.99277465  0.38599320  0.22175581  1
  O  O28  1  0.49277465  0.88599320  0.27824419  1
  O  O29  1  0.99277465  0.11400680  0.22175581  1
  O  O30  1  0.50722535  0.38599320  0.72175581  1
  O  O31  1  0.00722535  0.61400680  0.77824419  1
  O  O32  1  0.20807380  0.75000000  0.55765940  1
  O  O33  1  0.70807380  0.25000000  0.94234060  1
  O  O34  1  0.79192620  0.25000000  0.44234060  1
  O  O35  1  0.29192620  0.75000000  0.05765940  1
  O  O36  1  0.24092725  0.40119426  0.95994249  1
  O  O37  1  0.74092725  0.59880574  0.54005751  1
  O  O38  1  0.75907275  0.90119426  0.04005751  1
  O  O39  1  0.25907275  0.09880574  0.45994249  1
  O  O40  1  0.75907275  0.59880574  0.04005751  1
  O  O41  1  0.25907275  0.40119426  0.45994249  1
  O  O42  1  0.24092725  0.09880574  0.95994249  1
  O  O43  1  0.74092725  0.90119426  0.54005751  1
