# generated using pymatgen
data_LiH4SNO4
_symmetry_space_group_name_H-M   'P 1'
_cell_length_a   9.21163120
_cell_length_b   5.36801900
_cell_length_c   17.52049973
_cell_angle_alpha   90.00000000
_cell_angle_beta   89.87612709
_cell_angle_gamma   90.00000000
_symmetry_Int_Tables_number   1
_chemical_formula_structural   LiH4SNO4
_chemical_formula_sum   'Li8 H32 S8 N8 O32'
_cell_volume   866.35534784
_cell_formula_units_Z   8
loop_
 _symmetry_equiv_pos_site_id
 _symmetry_equiv_pos_as_xyz
  1  'x, y, z'
loop_
 _atom_site_type_symbol
 _atom_site_label
 _atom_site_symmetry_multiplicity
 _atom_site_fract_x
 _atom_site_fract_y
 _atom_site_fract_z
 _atom_site_occupancy
  Li  Li0  1  0.08917657  0.23380782  0.66088384  1
  Li  Li1  1  0.91082343  0.73380782  0.83911616  1
  Li  Li2  1  0.91082343  0.76619218  0.33911616  1
  Li  Li3  1  0.08917657  0.26619218  0.16088384  1
  Li  Li4  1  0.40957694  0.27444784  0.91360796  1
  Li  Li5  1  0.59042306  0.77444784  0.58639204  1
  Li  Li6  1  0.59042306  0.72555216  0.08639204  1
  Li  Li7  1  0.40957694  0.22555216  0.41360796  1
  H  H8  1  0.17330281  0.68067683  0.75439990  1
  H  H9  1  0.82669719  0.18067683  0.74560010  1
  H  H10  1  0.82669719  0.31932317  0.24560010  1
  H  H11  1  0.17330281  0.81932317  0.25439990  1
  H  H12  1  0.28731436  0.91038637  0.72822421  1
  H  H13  1  0.71268564  0.41038637  0.77177579  1
  H  H14  1  0.71268564  0.08961363  0.27177579  1
  H  H15  1  0.28731436  0.58961363  0.22822421  1
  H  H16  1  0.32992095  0.61561038  0.70747342  1
  H  H17  1  0.67007905  0.11561038  0.79252658  1
  H  H18  1  0.67007905  0.38438962  0.29252658  1
  H  H19  1  0.32992095  0.88438962  0.20747342  1
  H  H20  1  0.33576004  0.70883737  0.80029600  1
  H  H21  1  0.66423996  0.20883737  0.69970400  1
  H  H22  1  0.66423996  0.29116263  0.19970400  1
  H  H23  1  0.33576004  0.79116263  0.30029600  1
  H  H24  1  0.28391078  0.63808961  0.01366939  1
  H  H25  1  0.71608922  0.13808961  0.48633061  1
  H  H26  1  0.71608922  0.36191039  0.98633061  1
  H  H27  1  0.28391078  0.86191039  0.51366939  1
  H  H28  1  0.24829431  0.90298987  0.96385079  1
  H  H29  1  0.75170569  0.40298987  0.53614921  1
  H  H30  1  0.75170569  0.09701013  0.03614921  1
  H  H31  1  0.24829431  0.59701013  0.46385079  1
  H  H32  1  0.13738087  0.65805572  0.95744668  1
  H  H33  1  0.86261913  0.15805572  0.54255332  1
  H  H34  1  0.86261913  0.34194428  0.04255332  1
  H  H35  1  0.13738087  0.84194428  0.45744668  1
  H  H36  1  0.14371450  0.83052670  0.04005247  1
  H  H37  1  0.85628550  0.33052670  0.45994753  1
  H  H38  1  0.85628550  0.16947330  0.95994753  1
  H  H39  1  0.14371450  0.66947330  0.54005247  1
  S  S40  1  0.41463796  0.26141293  0.60325001  1
  S  S41  1  0.58536204  0.76141293  0.89674999  1
  S  S42  1  0.58536204  0.73858707  0.39674999  1
  S  S43  1  0.41463796  0.23858707  0.10325001  1
  S  S44  1  0.07618719  0.23105489  0.85265569  1
  S  S45  1  0.92381281  0.73105489  0.64734431  1
  S  S46  1  0.92381281  0.76894511  0.14734431  1
  S  S47  1  0.07618719  0.26894511  0.35265569  1
  N  N48  1  0.28129481  0.72836423  0.74834027  1
  N  N49  1  0.71870519  0.22836423  0.75165973  1
  N  N50  1  0.71870519  0.27163577  0.25165973  1
  N  N51  1  0.28129481  0.77163577  0.24834027  1
  N  N52  1  0.20404062  0.75812612  0.99443628  1
  N  N53  1  0.79595938  0.25812612  0.50556372  1
  N  N54  1  0.79595938  0.24187388  0.00556372  1
  N  N55  1  0.20404062  0.74187388  0.49443628  1
  O  O56  1  0.37121702  0.21793219  0.52284682  1
  O  O57  1  0.62878298  0.71793219  0.97715318  1
  O  O58  1  0.62878298  0.78206781  0.47715318  1
  O  O59  1  0.37121702  0.28206781  0.02284682  1
  O  O60  1  0.29632088  0.17484780  0.65512397  1
  O  O61  1  0.70367912  0.67484780  0.84487603  1
  O  O62  1  0.70367912  0.82515220  0.34487603  1
  O  O63  1  0.29632088  0.32515220  0.15512397  1
  O  O64  1  0.44012435  0.53241718  0.61715999  1
  O  O65  1  0.55987565  0.03241718  0.88284001  1
  O  O66  1  0.55987565  0.46758282  0.38284001  1
  O  O67  1  0.44012435  0.96758282  0.11715999  1
  O  O68  1  0.55033355  0.11857427  0.62032145  1
  O  O69  1  0.44966645  0.61857427  0.87967855  1
  O  O70  1  0.44966645  0.88142573  0.37967855  1
  O  O71  1  0.55033355  0.38142573  0.12032145  1
  O  O72  1  0.06024826  0.23482963  0.76899995  1
  O  O73  1  0.93975174  0.73482963  0.73100005  1
  O  O74  1  0.93975174  0.76517037  0.23100005  1
  O  O75  1  0.06024826  0.26517037  0.26899995  1
  O  O76  1  0.22605022  0.15679598  0.87389441  1
  O  O77  1  0.77394978  0.65679598  0.62610559  1
  O  O78  1  0.77394978  0.84320402  0.12610559  1
  O  O79  1  0.22605022  0.34320402  0.37389441  1
  O  O80  1  0.04205669  0.48413453  0.88424785  1
  O  O81  1  0.95794331  0.98413453  0.61575215  1
  O  O82  1  0.95794331  0.51586547  0.11575215  1
  O  O83  1  0.04205669  0.01586547  0.38424785  1
  O  O84  1  0.96995161  0.04815831  0.88595998  1
  O  O85  1  0.03004839  0.54815831  0.61404002  1
  O  O86  1  0.03004839  0.95184169  0.11404002  1
  O  O87  1  0.96995161  0.45184169  0.38595998  1
