# generated using pymatgen
data_Na3B5(HO5)2
_symmetry_space_group_name_H-M   'P 1'
_cell_length_a   11.33900137
_cell_length_b   6.09852419
_cell_length_c   11.22993350
_cell_angle_alpha   90.00000000
_cell_angle_beta   90.00000000
_cell_angle_gamma   90.00000000
_symmetry_Int_Tables_number   1
_chemical_formula_structural   Na3B5(HO5)2
_chemical_formula_sum   'Na12 B20 H8 O40'
_cell_volume   776.56308710
_cell_formula_units_Z   4
loop_
 _symmetry_equiv_pos_site_id
 _symmetry_equiv_pos_as_xyz
  1  'x, y, z'
loop_
 _atom_site_type_symbol
 _atom_site_label
 _atom_site_symmetry_multiplicity
 _atom_site_fract_x
 _atom_site_fract_y
 _atom_site_fract_z
 _atom_site_occupancy
  Na  Na0  1  0.86125750  0.91857944  0.25009821  1
  Na  Na1  1  0.13874250  0.08142056  0.75009821  1
  Na  Na2  1  0.63874250  0.91857944  0.75009821  1
  Na  Na3  1  0.36125750  0.08142056  0.25009821  1
  Na  Na4  1  0.06587025  0.47488465  0.25609528  1
  Na  Na5  1  0.93412975  0.52511535  0.75609528  1
  Na  Na6  1  0.43412975  0.47488465  0.75609528  1
  Na  Na7  1  0.56587025  0.52511535  0.25609528  1
  Na  Na8  1  0.74382555  0.65152484  0.50526748  1
  Na  Na9  1  0.25617445  0.34847516  0.00526748  1
  Na  Na10  1  0.75617445  0.65152484  0.00526748  1
  Na  Na11  1  0.24382555  0.34847516  0.50526748  1
  B  B12  1  0.24717000  0.86273927  0.51281961  1
  B  B13  1  0.75283000  0.13726073  0.01281961  1
  B  B14  1  0.25283000  0.86273927  0.01281961  1
  B  B15  1  0.74717000  0.13726073  0.51281961  1
  B  B16  1  0.45804489  0.72289780  0.50854620  1
  B  B17  1  0.54195511  0.27710220  0.00854620  1
  B  B18  1  0.04195511  0.72289780  0.00854620  1
  B  B19  1  0.95804489  0.27710220  0.50854620  1
  B  B20  1  0.10469877  0.96127644  0.34874850  1
  B  B21  1  0.89530123  0.03872356  0.84874850  1
  B  B22  1  0.39530123  0.96127644  0.84874850  1
  B  B23  1  0.60469877  0.03872356  0.34874850  1
  B  B24  1  0.41163950  0.06376692  0.62740886  1
  B  B25  1  0.58836050  0.93623308  0.12740886  1
  B  B26  1  0.08836050  0.06376692  0.12740886  1
  B  B27  1  0.91163950  0.93623308  0.62740886  1
  B  B28  1  0.03986303  0.67268918  0.49714800  1
  B  B29  1  0.96013697  0.32731082  0.99714800  1
  B  B30  1  0.46013697  0.67268918  0.99714800  1
  B  B31  1  0.53986303  0.32731082  0.49714800  1
  H  H32  1  0.81979769  0.41504151  0.17765252  1
  H  H33  1  0.18020231  0.58495849  0.67765252  1
  H  H34  1  0.68020231  0.41504151  0.67765252  1
  H  H35  1  0.31979769  0.58495849  0.17765252  1
  H  H36  1  0.81596407  0.41295018  0.32045943  1
  H  H37  1  0.18403593  0.58704982  0.82045943  1
  H  H38  1  0.68403593  0.41295018  0.82045943  1
  H  H39  1  0.31596407  0.58704982  0.32045943  1
  O  O40  1  0.20888093  0.00103330  0.40756897  1
  O  O41  1  0.79111907  0.99896670  0.90756897  1
  O  O42  1  0.29111907  0.00103330  0.90756897  1
  O  O43  1  0.70888093  0.99896670  0.40756897  1
  O  O44  1  0.28823076  0.00333056  0.60833142  1
  O  O45  1  0.71176924  0.99666944  0.10833142  1
  O  O46  1  0.21176924  0.00333056  0.10833142  1
  O  O47  1  0.78823076  0.99666944  0.60833142  1
  O  O48  1  0.15223419  0.72231924  0.55642726  1
  O  O49  1  0.84776581  0.27768076  0.05642726  1
  O  O50  1  0.34776581  0.72231924  0.05642726  1
  O  O51  1  0.65223419  0.27768076  0.55642726  1
  O  O52  1  0.34455451  0.71576120  0.46435837  1
  O  O53  1  0.65544549  0.28423880  0.96435837  1
  O  O54  1  0.15544549  0.71576120  0.96435837  1
  O  O55  1  0.84455451  0.28423880  0.46435837  1
  O  O56  1  0.54088330  0.57026901  0.47122517  1
  O  O57  1  0.45911670  0.42973099  0.97122517  1
  O  O58  1  0.95911670  0.57026901  0.97122517  1
  O  O59  1  0.04088330  0.42973099  0.47122517  1
  O  O60  1  0.49200344  0.88057492  0.58923713  1
  O  O61  1  0.50799656  0.11942508  0.08923713  1
  O  O62  1  0.00799656  0.88057492  0.08923713  1
  O  O63  1  0.99200344  0.11942508  0.58923713  1
  O  O64  1  0.06737138  0.09813861  0.25809980  1
  O  O65  1  0.93262862  0.90186139  0.75809980  1
  O  O66  1  0.43262862  0.09813861  0.75809980  1
  O  O67  1  0.56737138  0.90186139  0.25809980  1
  O  O68  1  0.03251883  0.78718129  0.37847788  1
  O  O69  1  0.96748117  0.21281871  0.87847788  1
  O  O70  1  0.46748117  0.78718129  0.87847788  1
  O  O71  1  0.53251883  0.21281871  0.37847788  1
  O  O72  1  0.93789153  0.72395133  0.56994515  1
  O  O73  1  0.06210847  0.27604867  0.06994515  1
  O  O74  1  0.56210847  0.72395133  0.06994515  1
  O  O75  1  0.43789153  0.27604867  0.56994515  1
  O  O76  1  0.79964439  0.50700774  0.25038476  1
  O  O77  1  0.20035561  0.49299226  0.75038476  1
  O  O78  1  0.70035561  0.50700774  0.75038476  1
  O  O79  1  0.29964439  0.49299226  0.25038476  1
