# generated using pymatgen
data_BH2NCl2
_symmetry_space_group_name_H-M   'P 1'
_cell_length_a   10.45749130
_cell_length_b   12.25276989
_cell_length_c   8.28242573
_cell_angle_alpha   90.00000000
_cell_angle_beta   90.00000000
_cell_angle_gamma   90.00000000
_symmetry_Int_Tables_number   1
_chemical_formula_structural   BH2NCl2
_chemical_formula_sum   'B12 H24 N12 Cl24'
_cell_volume   1061.25399850
_cell_formula_units_Z   12
loop_
 _symmetry_equiv_pos_site_id
 _symmetry_equiv_pos_as_xyz
  1  'x, y, z'
loop_
 _atom_site_type_symbol
 _atom_site_label
 _atom_site_symmetry_multiplicity
 _atom_site_fract_x
 _atom_site_fract_y
 _atom_site_fract_z
 _atom_site_occupancy
  B  B0  1  0.53914054  0.25000000  0.79336216  1
  B  B1  1  0.03914054  0.25000000  0.70663784  1
  B  B2  1  0.46085946  0.75000000  0.20663784  1
  B  B3  1  0.96085946  0.75000000  0.29336216  1
  B  B4  1  0.66649483  0.13759400  0.03314843  1
  B  B5  1  0.16649483  0.36240600  0.46685157  1
  B  B6  1  0.33350517  0.63759400  0.96685157  1
  B  B7  1  0.83350517  0.86240600  0.53314843  1
  B  B8  1  0.33350517  0.86240600  0.96685157  1
  B  B9  1  0.83350517  0.63759400  0.53314843  1
  B  B10  1  0.66649483  0.36240600  0.03314843  1
  B  B11  1  0.16649483  0.13759400  0.46685157  1
  H  H12  1  0.82407656  0.25000000  0.02349035  1
  H  H13  1  0.32407656  0.25000000  0.47650965  1
  H  H14  1  0.17592344  0.75000000  0.97650965  1
  H  H15  1  0.67592344  0.75000000  0.52349035  1
  H  H16  1  0.75270500  0.25000000  0.19873061  1
  H  H17  1  0.25270500  0.25000000  0.30126939  1
  H  H18  1  0.24729500  0.75000000  0.80126939  1
  H  H19  1  0.74729500  0.75000000  0.69873061  1
  H  H20  1  0.68884690  0.13189376  0.77624882  1
  H  H21  1  0.18884690  0.36810624  0.72375118  1
  H  H22  1  0.31115310  0.63189376  0.22375118  1
  H  H23  1  0.81115310  0.86810624  0.27624882  1
  H  H24  1  0.31115310  0.86810624  0.22375118  1
  H  H25  1  0.81115310  0.63189376  0.27624882  1
  H  H26  1  0.68884690  0.36810624  0.77624882  1
  H  H27  1  0.18884690  0.13189376  0.72375118  1
  H  H28  1  0.55440054  0.07837782  0.83637650  1
  H  H29  1  0.05440054  0.42162218  0.66362350  1
  H  H30  1  0.44559946  0.57837782  0.16362350  1
  H  H31  1  0.94559946  0.92162218  0.33637650  1
  H  H32  1  0.44559946  0.92162218  0.16362350  1
  H  H33  1  0.94559946  0.57837782  0.33637650  1
  H  H34  1  0.55440054  0.42162218  0.83637650  1
  H  H35  1  0.05440054  0.07837782  0.66362350  1
  N  N36  1  0.73400625  0.25000000  0.07693302  1
  N  N37  1  0.23400625  0.25000000  0.42306698  1
  N  N38  1  0.26599375  0.75000000  0.92306698  1
  N  N39  1  0.76599375  0.75000000  0.57693302  1
  N  N40  1  0.61316466  0.14534367  0.85398224  1
  N  N41  1  0.11316466  0.35465633  0.64601776  1
  N  N42  1  0.38683534  0.64534367  0.14601776  1
  N  N43  1  0.88683534  0.85465633  0.35398224  1
  N  N44  1  0.38683534  0.85465633  0.14601776  1
  N  N45  1  0.88683534  0.64534367  0.35398224  1
  N  N46  1  0.61316466  0.35465633  0.85398224  1
  N  N47  1  0.11316466  0.14534367  0.64601776  1
  Cl  Cl48  1  0.53774631  0.10684222  0.17807783  1
  Cl  Cl49  1  0.03774631  0.39315778  0.32192217  1
  Cl  Cl50  1  0.46225369  0.60684222  0.82192217  1
  Cl  Cl51  1  0.96225369  0.89315778  0.67807783  1
  Cl  Cl52  1  0.46225369  0.89315778  0.82192217  1
  Cl  Cl53  1  0.96225369  0.60684222  0.67807783  1
  Cl  Cl54  1  0.53774631  0.39315778  0.17807783  1
  Cl  Cl55  1  0.03774631  0.10684222  0.32192217  1
  Cl  Cl56  1  0.78956090  0.02900821  0.03434712  1
  Cl  Cl57  1  0.28956090  0.47099179  0.46565288  1
  Cl  Cl58  1  0.21043910  0.52900821  0.96565288  1
  Cl  Cl59  1  0.71043910  0.97099179  0.53434712  1
  Cl  Cl60  1  0.21043910  0.97099179  0.96565288  1
  Cl  Cl61  1  0.71043910  0.52900821  0.53434712  1
  Cl  Cl62  1  0.78956090  0.47099179  0.03434712  1
  Cl  Cl63  1  0.28956090  0.02900821  0.46565288  1
  Cl  Cl64  1  0.37276997  0.25000000  0.86811326  1
  Cl  Cl65  1  0.87276997  0.25000000  0.63188674  1
  Cl  Cl66  1  0.62723003  0.75000000  0.13188674  1
  Cl  Cl67  1  0.12723003  0.75000000  0.36811326  1
  Cl  Cl68  1  0.54232859  0.25000000  0.56859144  1
  Cl  Cl69  1  0.04232859  0.25000000  0.93140856  1
  Cl  Cl70  1  0.45767141  0.75000000  0.43140856  1
  Cl  Cl71  1  0.95767141  0.75000000  0.06859144  1
