# generated using pymatgen
data_H12Cl2O13
_symmetry_space_group_name_H-M   'P 1'
_cell_length_a   11.17431257
_cell_length_b   7.23028894
_cell_length_c   15.69823806
_cell_angle_alpha   90.00000000
_cell_angle_beta   125.29023614
_cell_angle_gamma   90.00000000
_symmetry_Int_Tables_number   1
_chemical_formula_structural   H12Cl2O13
_chemical_formula_sum   'H48 Cl8 O52'
_cell_volume   1035.24502468
_cell_formula_units_Z   4
loop_
 _symmetry_equiv_pos_site_id
 _symmetry_equiv_pos_as_xyz
  1  'x, y, z'
loop_
 _atom_site_type_symbol
 _atom_site_label
 _atom_site_symmetry_multiplicity
 _atom_site_fract_x
 _atom_site_fract_y
 _atom_site_fract_z
 _atom_site_occupancy
  H  H0  1  0.92039447  0.42675312  0.88682056  1
  H  H1  1  0.07960553  0.92675312  0.61317944  1
  H  H2  1  0.07960553  0.57324688  0.11317944  1
  H  H3  1  0.92039447  0.07324688  0.38682056  1
  H  H4  1  0.94778007  0.08274395  0.55890126  1
  H  H5  1  0.05221993  0.58274395  0.94109874  1
  H  H6  1  0.05221993  0.91725605  0.44109874  1
  H  H7  1  0.94778007  0.41725605  0.05890126  1
  H  H8  1  0.07349842  0.08934909  0.69077819  1
  H  H9  1  0.92650158  0.58934909  0.80922181  1
  H  H10  1  0.92650158  0.91065091  0.30922181  1
  H  H11  1  0.07349842  0.41065091  0.19077819  1
  H  H12  1  0.13244396  0.35026535  0.76688268  1
  H  H13  1  0.86755604  0.85026535  0.73311732  1
  H  H14  1  0.86755604  0.64973465  0.23311732  1
  H  H15  1  0.13244396  0.14973465  0.26688268  1
  H  H16  1  0.08515959  0.19853018  0.81450119  1
  H  H17  1  0.91484041  0.69853018  0.68549881  1
  H  H18  1  0.91484041  0.80146982  0.18549881  1
  H  H19  1  0.08515959  0.30146982  0.31450119  1
  H  H20  1  0.32983360  0.17859099  0.87112305  1
  H  H21  1  0.67016640  0.67859099  0.62887695  1
  H  H22  1  0.67016640  0.82140901  0.12887695  1
  H  H23  1  0.32983360  0.32140901  0.37112305  1
  H  H24  1  0.49139884  0.23683176  0.88859828  1
  H  H25  1  0.50860116  0.73683176  0.61140172  1
  H  H26  1  0.50860116  0.76316824  0.11140172  1
  H  H27  1  0.49139884  0.26316824  0.38859828  1
  H  H28  1  0.42362343  0.01568917  0.86895032  1
  H  H29  1  0.57637657  0.51568917  0.63104968  1
  H  H30  1  0.57637657  0.98431083  0.13104968  1
  H  H31  1  0.42362343  0.48431083  0.36895032  1
  H  H32  1  0.50682155  0.40639648  0.79253864  1
  H  H33  1  0.49317845  0.90639648  0.70746136  1
  H  H34  1  0.49317845  0.59360352  0.20746136  1
  H  H35  1  0.50682155  0.09360352  0.29253864  1
  H  H36  1  0.57148647  0.49261477  0.90348515  1
  H  H37  1  0.42851353  0.99261477  0.59651485  1
  H  H38  1  0.42851353  0.50738523  0.09651485  1
  H  H39  1  0.57148647  0.00738523  0.40348515  1
  H  H40  1  0.75287524  0.33214298  0.91795920  1
  H  H41  1  0.24712476  0.83214298  0.58204080  1
  H  H42  1  0.24712476  0.66785702  0.08204080  1
  H  H43  1  0.75287524  0.16785702  0.41795920  1
  H  H44  1  0.88145750  0.18506856  0.96246385  1
  H  H45  1  0.11854250  0.68506856  0.53753615  1
  H  H46  1  0.11854250  0.81493144  0.03753615  1
  H  H47  1  0.88145750  0.31493144  0.46246385  1
  Cl  Cl48  1  0.27677264  0.33266135  0.59479245  1
  Cl  Cl49  1  0.72322736  0.83266135  0.90520755  1
  Cl  Cl50  1  0.72322736  0.66733865  0.40520755  1
  Cl  Cl51  1  0.27677264  0.16733865  0.09479245  1
  Cl  Cl52  1  0.74886181  0.19364826  0.67019454  1
  Cl  Cl53  1  0.25113819  0.69364826  0.82980546  1
  Cl  Cl54  1  0.25113819  0.80635174  0.32980546  1
  Cl  Cl55  1  0.74886181  0.30635174  0.17019454  1
  O  O56  1  0.31805586  0.23853033  0.53318085  1
  O  O57  1  0.68194414  0.73853033  0.96681915  1
  O  O58  1  0.68194414  0.76146967  0.46681915  1
  O  O59  1  0.31805586  0.26146967  0.03318085  1
  O  O60  1  0.13294241  0.41950238  0.52472915  1
  O  O61  1  0.86705759  0.91950238  0.97527085  1
  O  O62  1  0.86705759  0.58049762  0.47527085  1
  O  O63  1  0.13294241  0.08049762  0.02472915  1
  O  O64  1  0.38558752  0.47811011  0.65942179  1
  O  O65  1  0.61441248  0.97811011  0.84057821  1
  O  O66  1  0.61441248  0.52188989  0.34057821  1
  O  O67  1  0.38558752  0.02188989  0.15942179  1
  O  O68  1  0.27317941  0.20128196  0.66352007  1
  O  O69  1  0.72682059  0.70128196  0.83647993  1
  O  O70  1  0.72682059  0.79871804  0.33647993  1
  O  O71  1  0.27317941  0.29871804  0.16352007  1
  O  O72  1  0.64356336  0.06151325  0.59373718  1
  O  O73  1  0.35643664  0.56151325  0.90626282  1
  O  O74  1  0.35643664  0.93848675  0.40626282  1
  O  O75  1  0.64356336  0.43848675  0.09373718  1
  O  O76  1  0.87013837  0.09066242  0.76217651  1
  O  O77  1  0.12986163  0.59066242  0.73782349  1
  O  O78  1  0.12986163  0.90933758  0.23782349  1
  O  O79  1  0.87013837  0.40933758  0.26217651  1
  O  O80  1  0.80870793  0.30773290  0.62707545  1
  O  O81  1  0.19129207  0.80773290  0.87292455  1
  O  O82  1  0.19129207  0.69226710  0.37292455  1
  O  O83  1  0.80870793  0.19226710  0.12707545  1
  O  O84  1  0.67918780  0.31186638  0.70626238  1
  O  O85  1  0.32081220  0.81186638  0.79373762  1
  O  O86  1  0.32081220  0.68813362  0.29373762  1
  O  O87  1  0.67918780  0.18813362  0.20626238  1
  O  O88  1  0.01448695  0.00228706  0.62578022  1
  O  O89  1  0.98551305  0.50228706  0.87421978  1
  O  O90  1  0.98551305  0.99771294  0.37421978  1
  O  O91  1  0.01448695  0.49771294  0.12578022  1
  O  O92  1  0.14231252  0.21672162  0.78568643  1
  O  O93  1  0.85768748  0.71672162  0.71431357  1
  O  O94  1  0.85768748  0.78327838  0.21431357  1
  O  O95  1  0.14231252  0.28327838  0.28568643  1
  O  O96  1  0.43341580  0.13679805  0.90266338  1
  O  O97  1  0.56658420  0.63679805  0.59733662  1
  O  O98  1  0.56658420  0.86320195  0.09733662  1
  O  O99  1  0.43341580  0.36320195  0.40266338  1
  O  O100  1  0.56507690  0.37605549  0.86843926  1
  O  O101  1  0.43492310  0.87605549  0.63156074  1
  O  O102  1  0.43492310  0.62394451  0.13156074  1
  O  O103  1  0.56507690  0.12394451  0.36843926  1
  O  O104  1  0.86073488  0.31925369  0.95317914  1
  O  O105  1  0.13926512  0.81925369  0.54682086  1
  O  O106  1  0.13926512  0.68074631  0.04682086  1
  O  O107  1  0.86073488  0.18074631  0.45317914  1
