# generated using pymatgen
data_Sr20P12Cl(O16F)3
_symmetry_space_group_name_H-M   'P 1'
_cell_length_a   9.90469077
_cell_length_b   19.80700383
_cell_length_c   7.35995192
_cell_angle_alpha   90.00173185
_cell_angle_beta   89.99767866
_cell_angle_gamma   119.99585444
_symmetry_Int_Tables_number   1
_chemical_formula_structural   Sr20P12Cl(O16F)3
_chemical_formula_sum   'Sr20 P12 Cl1 O48 F3'
_cell_volume   1250.49930801
_cell_formula_units_Z   1
loop_
 _symmetry_equiv_pos_site_id
 _symmetry_equiv_pos_as_xyz
  1  'x, y, z'
loop_
 _atom_site_type_symbol
 _atom_site_label
 _atom_site_symmetry_multiplicity
 _atom_site_fract_x
 _atom_site_fract_y
 _atom_site_fract_z
 _atom_site_occupancy
  Sr  Sr0  1  0.26263260  0.99405832  0.24518748  1
  Sr  Sr1  1  0.00944514  0.62568777  0.24945787  1
  Sr  Sr2  1  0.33222886  0.83315241  0.50204268  1
  Sr  Sr3  1  0.33098695  0.83258348  0.99791627  1
  Sr  Sr4  1  0.25160993  0.62078854  0.74986141  1
  Sr  Sr5  1  0.24142827  0.49440213  0.25012057  1
  Sr  Sr6  1  0.72514878  0.86809976  0.24588869  1
  Sr  Sr7  1  0.01298765  0.13798004  0.24623326  1
  Sr  Sr8  1  0.67072675  0.66694375  0.49894080  1
  Sr  Sr9  1  0.33564557  0.33402704  0.99847261  1
  Sr  Sr10  1  0.66748306  0.66531813  0.99894895  1
  Sr  Sr11  1  0.33452773  0.33353520  0.50156466  1
  Sr  Sr12  1  0.99013518  0.87461838  0.74540672  1
  Sr  Sr13  1  0.25047990  0.12067619  0.74551547  1
  Sr  Sr14  1  0.75702954  0.50462969  0.74975665  1
  Sr  Sr15  1  0.74722403  0.37942404  0.24955955  1
  Sr  Sr16  1  0.66585094  0.16811734  0.99722830  1
  Sr  Sr17  1  0.66287972  0.16622831  0.49828313  1
  Sr  Sr18  1  0.99077325  0.37436309  0.74986336  1
  Sr  Sr19  1  0.75994761  0.00495214  0.74599638  1
  P  P20  1  0.03051062  0.69882573  0.74995822  1
  P  P21  1  0.36948245  0.98417292  0.74926390  1
  P  P22  1  0.39459870  0.68148275  0.24983597  1
  P  P23  1  0.59896127  0.81493712  0.74915784  1
  P  P24  1  0.03134756  0.20065067  0.74916953  1
  P  P25  1  0.36768692  0.48491236  0.74981461  1
  P  P26  1  0.63204591  0.51505326  0.25001195  1
  P  P27  1  0.96695757  0.79924084  0.24966037  1
  P  P28  1  0.40121407  0.18436825  0.24963696  1
  P  P29  1  0.60213069  0.31651695  0.74981973  1
  P  P30  1  0.63636387  0.01708440  0.24951148  1
  P  P31  1  0.96888883  0.30280118  0.24977293  1
  Cl  Cl32  1  0.00017842  0.99991361  0.35344287  1
  O  O33  1  0.26438325  0.95725445  0.57675281  1
  O  O34  1  0.26061765  0.95683905  0.91858371  1
  O  O35  1  0.11679686  0.78989539  0.75040638  1
  O  O36  1  0.14792263  0.83518983  0.25104211  1
  O  O37  1  0.08326271  0.67201452  0.57839687  1
  O  O38  1  0.08370067  0.67185461  0.92084189  1
  O  O39  1  0.46531711  0.94114173  0.75154309  1
  O  O40  1  0.33382705  0.74055168  0.24966698  1
  O  O41  1  0.52051798  0.92715647  0.25057555  1
  O  O42  1  0.41697086  0.76721717  0.75078889  1
  O  O43  1  0.33783231  0.62853950  0.42086944  1
  O  O44  1  0.33776744  0.62835895  0.07900443  1
  O  O45  1  0.65309445  0.86898323  0.91910534  1
  O  O46  1  0.65074077  0.86765544  0.57696348  1
  O  O47  1  0.26098222  0.45854964  0.92108870  1
  O  O48  1  0.26065568  0.45843566  0.57886002  1
  O  O49  1  0.11800294  0.29162151  0.75089495  1
  O  O50  1  0.14784164  0.33342763  0.24983808  1
  O  O51  1  0.57672758  0.72609737  0.24942237  1
  O  O52  1  0.47853779  0.57499055  0.74956409  1
  O  O53  1  0.08530351  0.17475806  0.57721185  1
  O  O54  1  0.08553577  0.17351952  0.91885082  1
  O  O55  1  0.66969902  0.76020373  0.75021035  1
  O  O56  1  0.53685128  0.55843650  0.24998134  1
  O  O57  1  0.46299118  0.44147571  0.74983641  1
  O  O58  1  0.32897148  0.23874778  0.25127181  1
  O  O59  1  0.91475962  0.82830856  0.08148264  1
  O  O60  1  0.90814727  0.82019405  0.42504668  1
  O  O61  1  0.52117523  0.42492607  0.25030715  1
  O  O62  1  0.42007776  0.26868223  0.75049166  1
  O  O63  1  0.85028093  0.66372375  0.75007100  1
  O  O64  1  0.88312398  0.70819901  0.24150706  1
  O  O65  1  0.73886503  0.54114602  0.07876922  1
  O  O66  1  0.73938342  0.54151866  0.42083869  1
  O  O67  1  0.34310270  0.12933373  0.08115965  1
  O  O68  1  0.35933901  0.13388727  0.42491473  1
  O  O69  1  0.65568631  0.36989513  0.57856793  1
  O  O70  1  0.65616812  0.37022465  0.92052806  1
  O  O71  1  0.58320680  0.23359716  0.24153341  1
  O  O72  1  0.47806979  0.07428962  0.75039011  1
  O  O73  1  0.67232250  0.26151696  0.74954822  1
  O  O74  1  0.54396241  0.06202746  0.24033476  1
  O  O75  1  0.91968402  0.33123510  0.07872382  1
  O  O76  1  0.91940706  0.33111070  0.42075988  1
  O  O77  1  0.85122388  0.16533822  0.75007570  1
  O  O78  1  0.87627588  0.21175985  0.24935332  1
  O  O79  1  0.74615116  0.04151237  0.08177732  1
  O  O80  1  0.73554072  0.04506545  0.42550570  1
  F  F81  1  0.00046007  0.99994881  0.77820972  1
  F  F82  1  0.99967581  0.50004689  0.24987911  1
  F  F83  1  0.99952031  0.50005281  0.74995252  1
