# generated using pymatgen
data_Ca5DyTi5Fe(SiO5)6
_symmetry_space_group_name_H-M   'P 1'
_cell_length_a   5.49411432
_cell_length_b   16.51439826
_cell_length_c   7.86775678
_cell_angle_alpha   61.03743272
_cell_angle_beta   114.17112750
_cell_angle_gamma   106.10013495
_symmetry_Int_Tables_number   1
_chemical_formula_structural   Ca5DyTi5Fe(SiO5)6
_chemical_formula_sum   'Ca5 Dy1 Ti5 Fe1 Si6 O30'
_cell_volume   567.02023096
_cell_formula_units_Z   1
loop_
 _symmetry_equiv_pos_site_id
 _symmetry_equiv_pos_as_xyz
  1  'x, y, z'
loop_
 _atom_site_type_symbol
 _atom_site_label
 _atom_site_symmetry_multiplicity
 _atom_site_fract_x
 _atom_site_fract_y
 _atom_site_fract_z
 _atom_site_occupancy
  Ca  Ca0  1  0.16919052  0.36136241  0.74470357  1
  Ca  Ca1  1  0.16974678  0.02791694  0.74865905  1
  Ca  Ca2  1  0.83162910  0.97396366  0.25251083  1
  Ca  Ca3  1  0.83248082  0.63656431  0.25640283  1
  Ca  Ca4  1  0.83005161  0.30603328  0.25034730  1
  Dy  Dy5  1  0.16885986  0.69371420  0.74763208  1
  Ti  Ti6  1  0.50517683  0.83254112  0.01011090  1
  Ti  Ti7  1  0.50087990  0.00006011  0.50514605  1
  Ti  Ti8  1  0.50068643  0.49999594  0.99443546  1
  Ti  Ti9  1  0.50029901  0.16624013  0.00160472  1
  Ti  Ti10  1  0.49868242  0.33362543  0.49824477  1
  Fe  Fe11  1  0.49541707  0.66474745  0.49799927  1
  Si  Si12  1  0.17963020  0.85556263  0.25455915  1
  Si  Si13  1  0.17946529  0.52260133  0.24705246  1
  Si  Si14  1  0.81857455  0.81097673  0.74777291  1
  Si  Si15  1  0.18239720  0.18949342  0.24953310  1
  Si  Si16  1  0.82312216  0.47720729  0.75060454  1
  Si  Si17  1  0.81791355  0.14439708  0.75038872  1
  O  O18  1  0.11681679  0.77642962  0.91279860  1
  O  O19  1  0.42594489  0.93984841  0.74944008  1
  O  O20  1  0.12015323  0.44329994  0.91298056  1
  O  O21  1  0.24895148  0.90277078  0.41317537  1
  O  O22  1  0.17497838  0.74186048  0.39430989  1
  O  O23  1  0.59638962  0.76752546  0.87076922  1
  O  O24  1  0.42420796  0.60858779  0.75368286  1
  O  O25  1  0.11787689  0.11324656  0.91093821  1
  O  O26  1  0.24454345  0.56457485  0.41395116  1
  O  O27  1  0.39105327  0.89578361  0.12383007  1
  O  O28  1  0.18415658  0.40864251  0.37434333  1
  O  O29  1  0.81651062  0.92478012  0.62239730  1
  O  O30  1  0.60827738  0.43596239  0.87868951  1
  O  O31  1  0.77001395  0.76617797  0.58757487  1
  O  O32  1  0.43049146  0.27385128  0.74903001  1
  O  O33  1  0.56966081  0.72608396  0.24359060  1
  O  O34  1  0.25121033  0.23596442  0.41038948  1
  O  O35  1  0.38271072  0.56924726  0.10727884  1
  O  O36  1  0.18543909  0.07566857  0.38236372  1
  O  O37  1  0.83520988  0.59190906  0.62836062  1
  O  O38  1  0.60725005  0.10120463  0.88181532  1
  O  O39  1  0.74812571  0.43267362  0.58605459  1
  O  O40  1  0.88195572  0.88794568  0.08777439  1
  O  O41  1  0.57541529  0.39529665  0.25037099  1
  O  O42  1  0.39322695  0.23214329  0.11837620  1
  O  O43  1  0.81468304  0.25832924  0.61759554  1
  O  O44  1  0.74951556  0.09808988  0.58907933  1
  O  O45  1  0.88099568  0.55543020  0.08234098  1
  O  O46  1  0.56840345  0.05969888  0.24973784  1
  O  O47  1  0.88162850  0.21996946  0.08925283  1
