# generated using pymatgen
data_Sr(IO3)2
_symmetry_space_group_name_H-M   'P 1'
_cell_length_a   7.69930523
_cell_length_b   7.69930523
_cell_length_c   7.38755835
_cell_angle_alpha   79.91287353
_cell_angle_beta   65.78750545
_cell_angle_gamma   116.00376346
_symmetry_Int_Tables_number   1
_chemical_formula_structural   Sr(IO3)2
_chemical_formula_sum   'Sr2 I4 O12'
_cell_volume   323.56937302
_cell_formula_units_Z   2
loop_
 _symmetry_equiv_pos_site_id
 _symmetry_equiv_pos_as_xyz
  1  'x, y, z'
loop_
 _atom_site_type_symbol
 _atom_site_label
 _atom_site_symmetry_multiplicity
 _atom_site_fract_x
 _atom_site_fract_y
 _atom_site_fract_z
 _atom_site_occupancy
  Sr  Sr0  1  0.09313873  0.34313873  0.25000000  1
  Sr  Sr1  1  0.90686127  0.65686127  0.75000000  1
  I  I2  1  0.04924731  0.84215416  0.16299677  1
  I  I3  1  0.49484907  0.78775492  0.66299677  1
  I  I4  1  0.50515093  0.21224508  0.33700323  1
  I  I5  1  0.95075269  0.15784584  0.83700323  1
  O  O6  1  0.34064353  0.92243324  0.41578811  1
  O  O7  1  0.20823170  0.71256200  0.87809274  1
  O  O8  1  0.04946142  0.41560855  0.64365185  1
  O  O9  1  0.55925939  0.69311326  0.85634815  1
  O  O10  1  0.16177865  0.24356837  0.91578811  1
  O  O11  1  0.90934526  0.91367556  0.37809274  1
  O  O12  1  0.09065474  0.08632444  0.62190726  1
  O  O13  1  0.83822135  0.75643163  0.08421189  1
  O  O14  1  0.44074061  0.30688674  0.14365185  1
  O  O15  1  0.95053858  0.58439145  0.35634815  1
  O  O16  1  0.79176830  0.28743800  0.12190726  1
  O  O17  1  0.65935647  0.07756676  0.58421189  1
