# generated using pymatgen
data_Ti3N2O3
_symmetry_space_group_name_H-M   'P 1'
_cell_length_a   3.85794674
_cell_length_b   5.24986356
_cell_length_c   9.91043842
_cell_angle_alpha   90.48436359
_cell_angle_beta   90.00000000
_cell_angle_gamma   111.55739943
_symmetry_Int_Tables_number   1
_chemical_formula_structural   Ti3N2O3
_chemical_formula_sum   'Ti6 N4 O6'
_cell_volume   186.67468975
_cell_formula_units_Z   2
loop_
 _symmetry_equiv_pos_site_id
 _symmetry_equiv_pos_as_xyz
  1  'x, y, z'
loop_
 _atom_site_type_symbol
 _atom_site_label
 _atom_site_symmetry_multiplicity
 _atom_site_fract_x
 _atom_site_fract_y
 _atom_site_fract_z
 _atom_site_occupancy
  Ti  Ti0  1  0.14696727  0.29393354  0.56531963  1
  Ti  Ti1  1  0.14661402  0.29322804  0.94111089  1
  Ti  Ti2  1  0.20133567  0.40267135  0.24891942  1
  Ti  Ti3  1  0.79855963  0.59711925  0.75757629  1
  Ti  Ti4  1  0.85834950  0.71669900  0.05559891  1
  Ti  Ti5  1  0.86648422  0.73296845  0.44032709  1
  N  N6  1  0.30638352  0.61276603  0.42771603  1
  N  N7  1  0.30983707  0.61967314  0.07800544  1
  N  N8  1  0.23618086  0.47236171  0.74531319  1
  N  N9  1  0.69214714  0.38429328  0.92687453  1
  O  O10  1  0.04654155  0.09308310  0.11815214  1
  O  O11  1  0.04337543  0.08675085  0.37765022  1
  O  O12  1  0.95320781  0.90641462  0.61544726  1
  O  O13  1  0.95333457  0.90667013  0.88108474  1
  O  O14  1  0.68550852  0.37101703  0.57018066  1
  O  O15  1  0.75517424  0.51034947  0.25072455  1
