# generated using pymatgen
data_K4N2O5
_symmetry_space_group_name_H-M   'P 1'
_cell_length_a   7.40550144
_cell_length_b   8.83709366
_cell_length_c   7.39843215
_cell_angle_alpha   90.00250026
_cell_angle_beta   89.99403280
_cell_angle_gamma   114.77152994
_symmetry_Int_Tables_number   1
_chemical_formula_structural   K4N2O5
_chemical_formula_sum   'K8 N4 O10'
_cell_volume   439.62529574
_cell_formula_units_Z   2
loop_
 _symmetry_equiv_pos_site_id
 _symmetry_equiv_pos_as_xyz
  1  'x, y, z'
loop_
 _atom_site_type_symbol
 _atom_site_label
 _atom_site_symmetry_multiplicity
 _atom_site_fract_x
 _atom_site_fract_y
 _atom_site_fract_z
 _atom_site_occupancy
  K  K0  1  0.66238205  0.32476311  0.00000000  1
  K  K1  1  0.75000000  0.00000000  0.25000000  1
  K  K2  1  0.25000000  0.00000000  0.25000000  1
  K  K3  1  0.83761795  0.67523689  0.50000000  1
  K  K4  1  0.33763013  0.67525926  0.00000000  1
  K  K5  1  0.75000000  0.00000000  0.75000000  1
  K  K6  1  0.25000000  0.00000000  0.75000000  1
  K  K7  1  0.16236987  0.32474074  0.50000000  1
  N  N8  1  0.87950766  0.75901631  0.00000000  1
  N  N9  1  0.12049049  0.24097998  0.00000000  1
  N  N10  1  0.62049234  0.24098369  0.50000000  1
  N  N11  1  0.37950951  0.75902002  0.50000000  1
  O  O12  1  0.94248811  0.67428475  0.10102606  1
  O  O13  1  0.50013552  0.00027205  0.00000000  1
  O  O14  1  0.76820336  0.32571525  0.60102606  1
  O  O15  1  0.55751189  0.32571525  0.39897394  1
  O  O16  1  0.06185195  0.32566785  0.10537607  1
  O  O17  1  0.43814805  0.67433215  0.39462393  1
  O  O18  1  0.99986448  0.99972795  0.50000000  1
  O  O19  1  0.73179664  0.67428475  0.89897394  1
  O  O20  1  0.23618410  0.67433215  0.60537607  1
  O  O21  1  0.26381590  0.32566785  0.89462393  1
