# generated using pymatgen
data_BaSe3
_symmetry_space_group_name_H-M   'P 1'
_cell_length_a   4.29856263
_cell_length_b   7.42079199
_cell_length_c   7.42079199
_cell_angle_alpha   90.00000000
_cell_angle_beta   90.00000000
_cell_angle_gamma   90.00000000
_symmetry_Int_Tables_number   1
_chemical_formula_structural   BaSe3
_chemical_formula_sum   'Ba2 Se6'
_cell_volume   236.71390785
_cell_formula_units_Z   2
loop_
 _symmetry_equiv_pos_site_id
 _symmetry_equiv_pos_as_xyz
  1  'x, y, z'
loop_
 _atom_site_type_symbol
 _atom_site_label
 _atom_site_symmetry_multiplicity
 _atom_site_fract_x
 _atom_site_fract_y
 _atom_site_fract_z
 _atom_site_occupancy
  Se  Se0  1  0.48698671  0.80815073  0.30815073  1
  Se  Se1  1  0.51301329  0.30815073  0.19184927  1
  Se  Se2  1  0.17866881  0.00000000  0.50000000  1
  Se  Se3  1  0.82133119  0.50000000  0.00000000  1
  Se  Se4  1  0.48698671  0.19184927  0.69184927  1
  Se  Se5  1  0.51301329  0.69184927  0.80815073  1
  Ba  Ba6  1  0.00000000  0.50000000  0.50000000  1
  Ba  Ba7  1  0.00000000  0.00000000  0.00000000  1
