# generated using pymatgen
data_CaNdMn2O6
_symmetry_space_group_name_H-M   'P 1'
_cell_length_a   5.45571871
_cell_length_b   5.50210491
_cell_length_c   23.05982696
_cell_angle_alpha   89.95970957
_cell_angle_beta   90.00500488
_cell_angle_gamma   90.02722516
_symmetry_Int_Tables_number   1
_chemical_formula_structural   CaNdMn2O6
_chemical_formula_sum   'Ca6 Nd6 Mn12 O36'
_cell_volume   692.20817363
_cell_formula_units_Z   6
loop_
 _symmetry_equiv_pos_site_id
 _symmetry_equiv_pos_as_xyz
  1  'x, y, z'
loop_
 _atom_site_type_symbol
 _atom_site_label
 _atom_site_symmetry_multiplicity
 _atom_site_fract_x
 _atom_site_fract_y
 _atom_site_fract_z
 _atom_site_occupancy
  Ca  Ca0  1  0.49009669  0.45893178  0.41964416  1
  Ca  Ca1  1  0.51150399  0.53886722  0.58108214  1
  Ca  Ca2  1  0.51165478  0.53950042  0.91566211  1
  Ca  Ca3  1  0.98938488  0.03954261  0.25198666  1
  Ca  Ca4  1  0.98931379  0.04018748  0.58200366  1
  Ca  Ca5  1  0.98797179  0.03946307  0.91600226  1
  Nd  Nd6  1  0.00945924  0.96122495  0.08243834  1
  Nd  Nd7  1  0.00917059  0.96018240  0.41827987  1
  Nd  Nd8  1  0.00797184  0.96007344  0.74919591  1
  Nd  Nd9  1  0.49130563  0.46087127  0.08194449  1
  Nd  Nd10  1  0.49238596  0.46035207  0.74901139  1
  Nd  Nd11  1  0.51128309  0.53900529  0.25261704  1
  Mn  Mn12  1  0.99977846  0.49883448  0.16812044  1
  Mn  Mn13  1  0.99953367  0.49867271  0.50134319  1
  Mn  Mn14  1  0.50042794  0.00041229  0.16823221  1
  Mn  Mn15  1  0.50081643  0.99912143  0.99715258  1
  Mn  Mn16  1  0.50096097  0.00009105  0.50133332  1
  Mn  Mn17  1  0.50064484  0.99935918  0.66384116  1
  Mn  Mn18  1  0.50066828  0.99886908  0.83508999  1
  Mn  Mn19  1  0.49991904  0.00144731  0.33453258  1
  Mn  Mn20  1  0.99881150  0.49930819  0.99713818  1
  Mn  Mn21  1  0.00170071  0.49765115  0.33482283  1
  Mn  Mn22  1  0.99933058  0.49973546  0.66359804  1
  Mn  Mn23  1  0.99920879  0.49860080  0.83495388  1
  O  O24  1  0.08027857  0.47979503  0.25101304  1
  O  O25  1  0.08484863  0.47501129  0.91611241  1
  O  O26  1  0.08404035  0.47685683  0.58283400  1
  O  O27  1  0.21604304  0.21589466  0.34804368  1
  O  O28  1  0.22022342  0.21952849  0.01533087  1
  O  O29  1  0.22154902  0.22056336  0.15097377  1
  O  O30  1  0.21596068  0.21582880  0.48594923  1
  O  O31  1  0.22082927  0.22033427  0.68165069  1
  O  O32  1  0.22115591  0.21925097  0.81728676  1
  O  O33  1  0.27851938  0.72039300  0.01539171  1
  O  O34  1  0.28159852  0.71759819  0.15192962  1
  O  O35  1  0.28046310  0.71988380  0.48455812  1
  O  O36  1  0.28509119  0.71439395  0.34861111  1
  O  O37  1  0.27835724  0.72072398  0.68184329  1
  O  O38  1  0.28008963  0.71985308  0.81727213  1
  O  O39  1  0.41815798  0.98072846  0.25109697  1
  O  O40  1  0.41488508  0.97504361  0.91596284  1
  O  O41  1  0.41709540  0.97515222  0.58286858  1
  O  O42  1  0.57699087  0.01359834  0.08311369  1
  O  O43  1  0.57796678  0.01891120  0.41743079  1
  O  O44  1  0.57536230  0.01372242  0.74952589  1
  O  O45  1  0.71537312  0.28360317  0.51404114  1
  O  O46  1  0.71293957  0.28739759  0.18024667  1
  O  O47  1  0.71856009  0.28220543  0.31953203  1
  O  O48  1  0.71134051  0.28806104  0.65355892  1
  O  O49  1  0.71210816  0.28650127  0.84612547  1
  O  O50  1  0.71131960  0.28814061  0.98685738  1
  O  O51  1  0.78161524  0.78226337  0.18162813  1
  O  O52  1  0.78394024  0.78229556  0.31918430  1
  O  O53  1  0.78920733  0.78823826  0.51311831  1
  O  O54  1  0.78745938  0.78692265  0.84614644  1
  O  O55  1  0.78776568  0.78749106  0.65372685  1
  O  O56  1  0.78770890  0.78791126  0.98697694  1
  O  O57  1  0.92406782  0.51458617  0.08335014  1
  O  O58  1  0.91862209  0.51799400  0.41718867  1
  O  O59  1  0.92516245  0.51301749  0.74949303  1
