# generated using pymatgen
data_Na2Cr2O7
_symmetry_space_group_name_H-M   'P 1'
_cell_length_a   7.87663801
_cell_length_b   7.11592066
_cell_length_c   7.04896267
_cell_angle_alpha   94.92434750
_cell_angle_beta   86.13051567
_cell_angle_gamma   121.63209305
_symmetry_Int_Tables_number   1
_chemical_formula_structural   Na2Cr2O7
_chemical_formula_sum   'Na4 Cr4 O14'
_cell_volume   335.03448431
_cell_formula_units_Z   2
loop_
 _symmetry_equiv_pos_site_id
 _symmetry_equiv_pos_as_xyz
  1  'x, y, z'
loop_
 _atom_site_type_symbol
 _atom_site_label
 _atom_site_symmetry_multiplicity
 _atom_site_fract_x
 _atom_site_fract_y
 _atom_site_fract_z
 _atom_site_occupancy
  Na  Na0  1  0.66115231  0.92933176  0.61612934  1
  Na  Na1  1  0.33884769  0.07066824  0.38387066  1
  Na  Na2  1  0.23529760  0.36801817  0.84474812  1
  Na  Na3  1  0.76470240  0.63198183  0.15525188  1
  Cr  Cr4  1  0.18446698  0.84023463  0.88173761  1
  Cr  Cr5  1  0.81553302  0.15976537  0.11826239  1
  Cr  Cr6  1  0.75919973  0.52208161  0.66073023  1
  Cr  Cr7  1  0.24080027  0.47791839  0.33926977  1
  O  O8  1  0.35666954  0.77688055  0.86577964  1
  O  O9  1  0.64333046  0.22311945  0.13422036  1
  O  O10  1  0.23551638  0.03162764  0.73692631  1
  O  O11  1  0.76448362  0.96837236  0.26307369  1
  O  O12  1  0.15379667  0.91947095  0.09959040  1
  O  O13  1  0.84620333  0.08052905  0.90040960  1
  O  O14  1  0.66507918  0.26654372  0.57675834  1
  O  O15  1  0.33492082  0.73345628  0.42324166  1
  O  O16  1  0.58666281  0.55164620  0.77733460  1
  O  O17  1  0.41333719  0.44835380  0.22266540  1
  O  O18  1  0.84780405  0.68913326  0.48694233  1
  O  O19  1  0.15219595  0.31086674  0.51305767  1
  O  O20  1  0.95125971  0.59424403  0.82279101  1
  O  O21  1  0.04874029  0.40575597  0.17720899  1
