# generated using pymatgen
data_Sm4U2O11
_symmetry_space_group_name_H-M   'P 1'
_cell_length_a   7.59996335
_cell_length_b   6.79122486
_cell_length_c   5.49376320
_cell_angle_alpha   66.14176395
_cell_angle_beta   90.00000000
_cell_angle_gamma   106.05890689
_symmetry_Int_Tables_number   1
_chemical_formula_structural   Sm4U2O11
_chemical_formula_sum   'Sm4 U2 O11'
_cell_volume   247.17329804
_cell_formula_units_Z   1
loop_
 _symmetry_equiv_pos_site_id
 _symmetry_equiv_pos_as_xyz
  1  'x, y, z'
loop_
 _atom_site_type_symbol
 _atom_site_label
 _atom_site_symmetry_multiplicity
 _atom_site_fract_x
 _atom_site_fract_y
 _atom_site_fract_z
 _atom_site_occupancy
  Sm  Sm0  1  0.99603709  0.97452354  0.03941847  1
  Sm  Sm1  1  0.82192710  0.33502275  0.31039282  1
  Sm  Sm2  1  0.34473990  0.33164425  0.31208157  1
  Sm  Sm3  1  0.17062891  0.69214246  0.68060901  1
  U  U4  1  0.50896218  0.01304021  0.98014451  1
  U  U5  1  0.65770482  0.65362679  0.65985072  1
  O  O6  1  0.08333300  0.33333300  0.08409062  1
  O  O7  1  0.28066661  0.99038347  0.23435289  1
  O  O8  1  0.72469503  0.96896874  0.28125049  1
  O  O9  1  0.58333300  0.33333300  0.05455283  1
  O  O10  1  0.75846270  0.03810727  0.75776058  1
  O  O11  1  0.58333300  0.33333300  0.58946157  1
  O  O12  1  0.92268361  0.64487333  0.42516859  1
  O  O13  1  0.40820430  0.62855873  0.46253484  1
  O  O14  1  0.24398239  0.02179367  0.73670792  1
  O  O15  1  0.88600039  0.67628353  0.89140336  1
  O  O16  1  0.44197197  0.69769826  0.91688622  1
