# generated using pymatgen
data_Dy3TaO7
_symmetry_space_group_name_H-M   'P 1'
_cell_length_a   6.48731335
_cell_length_b   6.48731335
_cell_length_c   7.51062544
_cell_angle_alpha   90.00000000
_cell_angle_beta   90.00000000
_cell_angle_gamma   109.16677867
_symmetry_Int_Tables_number   1
_chemical_formula_structural   Dy3TaO7
_chemical_formula_sum   'Dy6 Ta2 O14'
_cell_volume   298.56478059
_cell_formula_units_Z   2
loop_
 _symmetry_equiv_pos_site_id
 _symmetry_equiv_pos_as_xyz
  1  'x, y, z'
loop_
 _atom_site_type_symbol
 _atom_site_label
 _atom_site_symmetry_multiplicity
 _atom_site_fract_x
 _atom_site_fract_y
 _atom_site_fract_z
 _atom_site_occupancy
  Dy  Dy0  1  0.53472818  0.00033434  0.50380200  1
  Dy  Dy1  1  0.99966566  0.46527182  0.49619800  1
  Dy  Dy2  1  0.47543146  0.47543146  0.75000000  1
  Dy  Dy3  1  0.52456854  0.52456854  0.25000000  1
  Dy  Dy4  1  0.46527182  0.99966566  0.00380200  1
  Dy  Dy5  1  0.00033434  0.53472818  0.99619800  1
  Ta  Ta6  1  0.00243381  0.00243381  0.25000000  1
  Ta  Ta7  1  0.99756619  0.99756619  0.75000000  1
  O  O8  1  0.06755736  0.93244264  0.00000000  1
  O  O9  1  0.36176417  0.63823583  0.00000000  1
  O  O10  1  0.06039938  0.31495786  0.21226907  1
  O  O11  1  0.68504214  0.93960062  0.78773093  1
  O  O12  1  0.37076246  0.62923754  0.50000000  1
  O  O13  1  0.67387785  0.91988760  0.22145074  1
  O  O14  1  0.08011240  0.32612215  0.77854926  1
  O  O15  1  0.32612215  0.08011240  0.72145074  1
  O  O16  1  0.91988760  0.67387785  0.27854926  1
  O  O17  1  0.62923754  0.37076246  0.00000000  1
  O  O18  1  0.93960062  0.68504214  0.71226907  1
  O  O19  1  0.31495786  0.06039938  0.28773093  1
  O  O20  1  0.63823583  0.36176417  0.50000000  1
  O  O21  1  0.93244264  0.06755736  0.50000000  1
