# generated using pymatgen
data_Ag2Se
_symmetry_space_group_name_H-M   'P 1'
_cell_length_a   4.67993508
_cell_length_b   7.79719642
_cell_length_c   7.38932843
_cell_angle_alpha   90.00000000
_cell_angle_beta   90.00000000
_cell_angle_gamma   90.00000000
_symmetry_Int_Tables_number   1
_chemical_formula_structural   Ag2Se
_chemical_formula_sum   'Ag8 Se4'
_cell_volume   269.63935101
_cell_formula_units_Z   4
loop_
 _symmetry_equiv_pos_site_id
 _symmetry_equiv_pos_as_xyz
  1  'x, y, z'
loop_
 _atom_site_type_symbol
 _atom_site_label
 _atom_site_symmetry_multiplicity
 _atom_site_fract_x
 _atom_site_fract_y
 _atom_site_fract_z
 _atom_site_occupancy
  Ag  Ag0  1  0.75553254  0.29083767  0.38376665  1
  Ag  Ag1  1  0.23942192  0.46207274  0.91754458  1
  Ag  Ag2  1  0.26057808  0.53792726  0.41754458  1
  Ag  Ag3  1  0.74446746  0.70916233  0.88376665  1
  Ag  Ag4  1  0.25553254  0.20916233  0.61623335  1
  Ag  Ag5  1  0.73942192  0.03792726  0.08245542  1
  Ag  Ag6  1  0.76057808  0.96207274  0.58245542  1
  Ag  Ag7  1  0.24446746  0.79083767  0.11623335  1
  Se  Se8  1  0.24679717  0.73409303  0.70507680  1
  Se  Se9  1  0.25320283  0.26590697  0.20507680  1
  Se  Se10  1  0.74679717  0.76590697  0.29492320  1
  Se  Se11  1  0.75320283  0.23409303  0.79492320  1
