# generated using pymatgen
data_LaZnFeSbO6
_symmetry_space_group_name_H-M   'P 1'
_cell_length_a   5.68776218
_cell_length_b   5.42362929
_cell_length_c   8.09528085
_cell_angle_alpha   89.47969232
_cell_angle_beta   90.00000000
_cell_angle_gamma   90.00000000
_symmetry_Int_Tables_number   1
_chemical_formula_structural   LaZnFeSbO6
_chemical_formula_sum   'La2 Zn2 Fe2 Sb2 O12'
_cell_volume   249.71546521
_cell_formula_units_Z   2
loop_
 _symmetry_equiv_pos_site_id
 _symmetry_equiv_pos_as_xyz
  1  'x, y, z'
loop_
 _atom_site_type_symbol
 _atom_site_label
 _atom_site_symmetry_multiplicity
 _atom_site_fract_x
 _atom_site_fract_y
 _atom_site_fract_z
 _atom_site_occupancy
  La  La0  1  0.04619662  0.98239294  0.25090230  1
  La  La1  1  0.45380338  0.48239294  0.75090230  1
  Zn  Zn2  1  0.53731725  0.52670404  0.24950939  1
  Zn  Zn3  1  0.96268275  0.02670404  0.74950939  1
  Fe  Fe4  1  0.50166765  0.99874343  0.99699726  1
  Fe  Fe5  1  0.99833235  0.49874343  0.49699726  1
  Sb  Sb6  1  0.51041605  0.00122656  0.49868245  1
  Sb  Sb7  1  0.98958395  0.50122656  0.99868245  1
  O  O8  1  0.03099080  0.65092046  0.76763555  1
  O  O9  1  0.18189091  0.19993697  0.93469398  1
  O  O10  1  0.20684771  0.18166531  0.56582267  1
  O  O11  1  0.29315229  0.68166631  0.06582267  1
  O  O12  1  0.31810909  0.69993697  0.43469398  1
  O  O13  1  0.46900920  0.15092046  0.26763455  1
  O  O14  1  0.55115466  0.89601021  0.73612673  1
  O  O15  1  0.72214322  0.27394469  0.56801945  1
  O  O16  1  0.72153929  0.28845439  0.93161021  1
  O  O17  1  0.77846071  0.78845439  0.43161021  1
  O  O18  1  0.77785678  0.77394469  0.06801945  1
  O  O19  1  0.94884534  0.39601021  0.23612673  1
