# generated using pymatgen
data_K3Nb7O19
_symmetry_space_group_name_H-M   'P 1'
_cell_length_a   14.39054092
_cell_length_b   10.11337299
_cell_length_c   6.56703682
_cell_angle_alpha   106.51733698
_cell_angle_beta   95.69439715
_cell_angle_gamma   97.35805611
_symmetry_Int_Tables_number   1
_chemical_formula_structural   K3Nb7O19
_chemical_formula_sum   'K6 Nb14 O38'
_cell_volume   899.46736491
_cell_formula_units_Z   2
loop_
 _symmetry_equiv_pos_site_id
 _symmetry_equiv_pos_as_xyz
  1  'x, y, z'
loop_
 _atom_site_type_symbol
 _atom_site_label
 _atom_site_symmetry_multiplicity
 _atom_site_fract_x
 _atom_site_fract_y
 _atom_site_fract_z
 _atom_site_occupancy
  K  K0  1  0.09565090  0.17633908  0.99375030  1
  K  K1  1  0.21045840  0.59118132  0.41144840  1
  K  K2  1  0.36582512  0.97647261  0.64150564  1
  K  K3  1  0.63417488  0.02352739  0.35849436  1
  K  K4  1  0.78954160  0.40881868  0.58855160  1
  K  K5  1  0.90434910  0.82366092  0.00624970  1
  Nb  Nb6  1  0.03671903  0.47173457  0.77915262  1
  Nb  Nb7  1  0.11093946  0.90884878  0.43554851  1
  Nb  Nb8  1  0.18790666  0.84495257  0.99661350  1
  Nb  Nb9  1  0.25918381  0.29353771  0.61961847  1
  Nb  Nb10  1  0.41947850  0.68346475  0.82912969  1
  Nb  Nb11  1  0.34784371  0.21958145  0.15777799  1
  Nb  Nb12  1  0.49477050  0.37854759  0.63340574  1
  Nb  Nb13  1  0.50522950  0.62145241  0.36659426  1
  Nb  Nb14  1  0.65215629  0.78041855  0.84222201  1
  Nb  Nb15  1  0.58052150  0.31653525  0.17087031  1
  Nb  Nb16  1  0.74081619  0.70646229  0.38038153  1
  Nb  Nb17  1  0.81209334  0.15504743  0.00338650  1
  Nb  Nb18  1  0.88906054  0.09115122  0.56445149  1
  Nb  Nb19  1  0.96328097  0.52826543  0.22084738  1
  O  O20  1  0.00000000  0.50000000  0.50000000  1
  O  O21  1  0.03073375  0.72397575  0.32562298  1
  O  O22  1  0.00000000  0.00000000  0.50000000  1
  O  O23  1  0.08942048  0.93539412  0.11929384  1
  O  O24  1  0.12110979  0.65975918  0.87265264  1
  O  O25  1  0.06685468  0.45225051  0.08705174  1
  O  O26  1  0.15900977  0.88582039  0.70155010  1
  O  O27  1  0.16366415  0.39519509  0.71303426  1
  O  O28  1  0.22227914  0.83424744  0.28818290  1
  O  O29  1  0.19432442  0.10900861  0.53500264  1
  O  O30  1  0.31402132  0.76557278  0.89234254  1
  O  O31  1  0.25345075  0.31452257  0.32691500  1
  O  O32  1  0.31469841  0.27030918  0.90713749  1
  O  O33  1  0.28117663  0.03839100  0.06862696  1
  O  O34  1  0.37369769  0.47441620  0.71312749  1
  O  O35  1  0.40504333  0.69241412  0.52195295  1
  O  O36  1  0.39375265  0.21745743  0.49640149  1
  O  O37  1  0.46028583  0.64799720  0.10878017  1
  O  O38  1  0.45443834  0.41601538  0.31075651  1
  O  O39  1  0.52580117  0.83724222  0.90583073  1
  O  O40  1  0.47419883  0.16275778  0.09416927  1
  O  O41  1  0.54556166  0.58398462  0.68924349  1
  O  O42  1  0.53971417  0.35200280  0.89121983  1
  O  O43  1  0.60624735  0.78254257  0.50359851  1
  O  O44  1  0.59495667  0.30758588  0.47804705  1
  O  O45  1  0.62630231  0.52558380  0.28687251  1
  O  O46  1  0.71882337  0.96160900  0.93137304  1
  O  O47  1  0.68530159  0.72969082  0.09286251  1
  O  O48  1  0.74654925  0.68547743  0.67308500  1
  O  O49  1  0.68597868  0.23442722  0.10765746  1
  O  O50  1  0.80567558  0.89099139  0.46499736  1
  O  O51  1  0.77772086  0.16575256  0.71181710  1
  O  O52  1  0.83633585  0.60480491  0.28696574  1
  O  O53  1  0.84099023  0.11417961  0.29844990  1
  O  O54  1  0.93314532  0.54774949  0.91294826  1
  O  O55  1  0.87889021  0.34024082  0.12734736  1
  O  O56  1  0.91057952  0.06460588  0.88070616  1
  O  O57  1  0.96926625  0.27602425  0.67437702  1
