# generated using pymatgen
data_Li7Y7ZrS16
_symmetry_space_group_name_H-M   'P 1'
_cell_length_a   6.57233304
_cell_length_b   15.54117725
_cell_length_c   6.75088151
_cell_angle_alpha   90.00000335
_cell_angle_beta   70.15200171
_cell_angle_gamma   89.99999936
_symmetry_Int_Tables_number   1
_chemical_formula_structural   Li7Y7ZrS16
_chemical_formula_sum   'Li7 Y7 Zr1 S16'
_cell_volume   648.58574199
_cell_formula_units_Z   1
loop_
 _symmetry_equiv_pos_site_id
 _symmetry_equiv_pos_as_xyz
  1  'x, y, z'
loop_
 _atom_site_type_symbol
 _atom_site_label
 _atom_site_symmetry_multiplicity
 _atom_site_fract_x
 _atom_site_fract_y
 _atom_site_fract_z
 _atom_site_occupancy
  Li  Li0  1  0.00000000  0.25055185  0.00000000  1
  Li  Li1  1  0.00000000  0.12412482  0.50000000  1
  Li  Li2  1  0.00000000  0.50000000  0.00000000  1
  Li  Li3  1  0.00000000  0.74944815  0.00000000  1
  Li  Li4  1  0.00000000  0.37497912  0.50000000  1
  Li  Li5  1  0.00000000  0.62502088  0.50000000  1
  Li  Li6  1  0.00000000  0.87587518  0.50000000  1
  Y  Y7  1  0.50000000  0.12296342  0.00000000  1
  Y  Y8  1  0.50000000  0.37461897  0.00000000  1
  Y  Y9  1  0.50000000  0.24843704  0.50000000  1
  Y  Y10  1  0.50000000  0.62538103  0.00000000  1
  Y  Y11  1  0.50000000  0.87703658  0.00000000  1
  Y  Y12  1  0.50000000  0.50000000  0.50000000  1
  Y  Y13  1  0.50000000  0.75156296  0.50000000  1
  Zr  Zr14  1  0.50000000  0.00000000  0.50000000  1
  S  S15  1  0.26042973  0.00000000  0.26688707  1
  S  S16  1  0.74011154  0.11997116  0.26183837  1
  S  S17  1  0.24732758  0.24913787  0.24817177  1
  S  S18  1  0.24847553  0.50000000  0.25057173  1
  S  S19  1  0.75204323  0.37455517  0.24942323  1
  S  S20  1  0.73957027  0.00000000  0.73311293  1
  S  S21  1  0.25988846  0.11997116  0.73816163  1
  S  S22  1  0.75204323  0.62544483  0.24942323  1
  S  S23  1  0.24795677  0.37455517  0.75057677  1
  S  S24  1  0.24732758  0.75086213  0.24817177  1
  S  S25  1  0.75267242  0.24913787  0.75182823  1
  S  S26  1  0.74011154  0.88002884  0.26183837  1
  S  S27  1  0.24795677  0.62544483  0.75057677  1
  S  S28  1  0.75152447  0.50000000  0.74942827  1
  S  S29  1  0.25988846  0.88002884  0.73816163  1
  S  S30  1  0.75267242  0.75086213  0.75182823  1
