# generated using pymatgen
data_Hf2N2O
_symmetry_space_group_name_H-M   'P 1'
_cell_length_a   8.74192899
_cell_length_b   8.70043130
_cell_length_c   8.73760020
_cell_angle_alpha   109.47249673
_cell_angle_beta   109.43761957
_cell_angle_gamma   109.46272556
_symmetry_Int_Tables_number   1
_chemical_formula_structural   Hf2N2O
_chemical_formula_sum   'Hf16 N16 O8'
_cell_volume   511.84315069
_cell_formula_units_Z   8
loop_
 _symmetry_equiv_pos_site_id
 _symmetry_equiv_pos_as_xyz
  1  'x, y, z'
loop_
 _atom_site_type_symbol
 _atom_site_label
 _atom_site_symmetry_multiplicity
 _atom_site_fract_x
 _atom_site_fract_y
 _atom_site_fract_z
 _atom_site_occupancy
  Hf  Hf0  1  0.78414983  0.24555405  0.04191996  1
  Hf  Hf1  1  0.99047366  0.99701477  0.98685972  1
  Hf  Hf2  1  0.53586737  0.28275778  0.24864204  1
  Hf  Hf3  1  0.48319223  0.99115229  0.49071254  1
  Hf  Hf4  1  0.50230526  0.49099675  0.99973807  1
  Hf  Hf5  1  0.97516606  0.21704841  0.75875986  1
  Hf  Hf6  1  0.74948100  0.96382119  0.21090793  1
  Hf  Hf7  1  0.74489309  0.46144452  0.71435542  1
  Hf  Hf8  1  0.71401831  0.75268126  0.46333248  1
  Hf  Hf9  1  0.29376343  0.25472770  0.54291833  1
  Hf  Hf10  1  0.26005064  0.53795995  0.28122499  1
  Hf  Hf11  1  0.24954821  0.03366306  0.77758600  1
  Hf  Hf12  1  0.03148941  0.78484793  0.24706267  1
  Hf  Hf13  1  0.00462397  0.50145371  0.51189743  1
  Hf  Hf14  1  0.46966387  0.72150960  0.75040170  1
  Hf  Hf15  1  0.20198649  0.74124053  0.95888781  1
  N  N16  1  0.76741656  0.23061876  0.27835123  1
  N  N17  1  0.77536561  0.73300929  0.24108016  1
  N  N18  1  0.49194646  0.22820405  0.45428955  1
  N  N19  1  0.45798683  0.48588332  0.22961464  1
  N  N20  1  0.04256097  0.27391870  0.03355296  1
  N  N21  1  0.96379351  0.94997824  0.72607097  1
  N  N22  1  0.53523839  0.25814392  0.98434040  1
  N  N23  1  0.27553449  0.75840721  0.22437847  1
  N  N24  1  0.54361540  0.51445371  0.77179590  1
  N  N25  1  0.95599662  0.73113490  0.96784546  1
  N  N26  1  0.51157531  0.77429609  0.54699047  1
  N  N27  1  0.22759583  0.27650298  0.76299201  1
  N  N28  1  0.00492140  0.46313555  0.73463865  1
  N  N29  1  0.72903563  0.96495126  0.95992419  1
  N  N30  1  0.25882114  0.98907580  0.52962942  1
  N  N31  1  0.23966489  0.77047075  0.72915891  1
  O  O32  1  0.73807276  0.01271060  0.46761806  1
  O  O33  1  0.27328241  0.03684447  0.04748983  1
  O  O34  1  0.99082795  0.53797044  0.26581470  1
  O  O35  1  0.77625677  0.54769313  0.51067114  1
  O  O36  1  0.46890988  0.74623258  0.01949431  1
  O  O37  1  0.03679858  0.05202464  0.27537412  1
  O  O38  1  0.72589330  0.23863142  0.77210539  1
  O  O39  1  0.21821550  0.44783471  0.48157511  1
