# generated using pymatgen
data_LiCu2F7
_symmetry_space_group_name_H-M   'P 1'
_cell_length_a   5.28644647
_cell_length_b   6.61563052
_cell_length_c   9.27260043
_cell_angle_alpha   65.95923321
_cell_angle_beta   106.27025556
_cell_angle_gamma   66.23107563
_symmetry_Int_Tables_number   1
_chemical_formula_structural   LiCu2F7
_chemical_formula_sum   'Li2 Cu4 F14'
_cell_volume   229.55861244
_cell_formula_units_Z   2
loop_
 _symmetry_equiv_pos_site_id
 _symmetry_equiv_pos_as_xyz
  1  'x, y, z'
loop_
 _atom_site_type_symbol
 _atom_site_label
 _atom_site_symmetry_multiplicity
 _atom_site_fract_x
 _atom_site_fract_y
 _atom_site_fract_z
 _atom_site_occupancy
  Li  Li0  1  0.26289548  0.74972213  0.25078959  1
  Li  Li1  1  0.74288054  0.25172529  0.75948824  1
  Cu  Cu2  1  0.94837341  0.41488797  0.28546550  1
  Cu  Cu3  1  0.57950096  0.08445704  0.21434433  1
  Cu  Cu4  1  0.42705854  0.91690037  0.78503824  1
  Cu  Cu5  1  0.05801824  0.58028817  0.71451778  1
  F  F6  1  0.94261759  0.83296381  0.46699511  1
  F  F7  1  0.80524630  0.66752674  0.03184844  1
  F  F8  1  0.60986188  0.75217913  0.24910456  1
  F  F9  1  0.71832318  0.88004916  0.70184620  1
  F  F10  1  0.83658326  0.04572796  0.11106434  1
  F  F11  1  0.73803950  0.54384261  0.61593578  1
  F  F12  1  0.59072908  0.38421687  0.20051601  1
  F  F13  1  0.39682937  0.61884807  0.79677009  1
  F  F14  1  0.26430507  0.45588850  0.38505570  1
  F  F15  1  0.27519008  0.11378488  0.30004647  1
  F  F16  1  0.16933992  0.95399549  0.88221521  1
  F  F17  1  0.38259000  0.25434686  0.74854927  1
  F  F18  1  0.05909312  0.16742530  0.53335765  1
  F  F19  1  0.19252248  0.33122365  0.96704949  1
