# generated using pymatgen
data_Ce2UO6
_symmetry_space_group_name_H-M   'P 1'
_cell_length_a   3.87184497
_cell_length_b   6.65022333
_cell_length_c   5.46651104
_cell_angle_alpha   65.61471389
_cell_angle_beta   89.75498369
_cell_angle_gamma   72.93105137
_symmetry_Int_Tables_number   1
_chemical_formula_structural   Ce2UO6
_chemical_formula_sum   'Ce2 U1 O6'
_cell_volume   121.44169549
_cell_formula_units_Z   1
loop_
 _symmetry_equiv_pos_site_id
 _symmetry_equiv_pos_as_xyz
  1  'x, y, z'
loop_
 _atom_site_type_symbol
 _atom_site_label
 _atom_site_symmetry_multiplicity
 _atom_site_fract_x
 _atom_site_fract_y
 _atom_site_fract_z
 _atom_site_occupancy
  Ce  Ce0  1  0.67127873  0.66757907  0.66640775  1
  Ce  Ce1  1  0.33837554  0.33248990  0.33291740  1
  U  U2  1  0.00342785  0.00001656  -0.00015208  1
  O  O3  1  0.16381432  0.67978735  0.91426100  1
  O  O4  1  0.50065860  0.99977149  0.76575444  1
  O  O5  1  0.16595307  0.68056171  0.39923532  1
  O  O6  1  0.84089286  0.31958066  0.59887774  1
  O  O7  1  0.50736446  0.00003335  0.23715794  1
  O  O8  1  0.84516557  0.32057591  0.08412249  1
