# generated using pymatgen
data_ZnCr2(PO5)2
_symmetry_space_group_name_H-M   'P 1'
_cell_length_a   6.65791307
_cell_length_b   6.65791256
_cell_length_c   8.79794560
_cell_angle_alpha   102.56304876
_cell_angle_beta   102.56305359
_cell_angle_gamma   115.15969853
_symmetry_Int_Tables_number   1
_chemical_formula_structural   ZnCr2(PO5)2
_chemical_formula_sum   'Zn2 Cr4 P4 O20'
_cell_volume   322.63578300
_cell_formula_units_Z   2
loop_
 _symmetry_equiv_pos_site_id
 _symmetry_equiv_pos_as_xyz
  1  'x, y, z'
loop_
 _atom_site_type_symbol
 _atom_site_label
 _atom_site_symmetry_multiplicity
 _atom_site_fract_x
 _atom_site_fract_y
 _atom_site_fract_z
 _atom_site_occupancy
  Zn  Zn0  1  0.49710623  0.99710623  0.50000000  1
  Zn  Zn1  1  0.24710623  0.24710623  0.00000000  1
  Cr  Cr2  1  0.87172743  0.61975893  0.25142285  1
  Cr  Cr3  1  0.36833508  0.62030258  0.74857715  1
  Cr  Cr4  1  0.87030258  0.11833508  0.24857715  1
  Cr  Cr5  1  0.86975893  0.62172743  0.75142285  1
  P  P6  1  0.03596339  0.03696697  0.58353330  1
  P  P7  1  0.70243109  0.20343368  0.91646670  1
  P  P8  1  0.45343368  0.45243109  0.41646670  1
  P  P9  1  0.28696697  0.78596339  0.08353330  1
  O  O10  1  0.58256109  0.55688999  0.30488433  1
  O  O11  1  0.66216999  0.66489335  0.83734538  1
  O  O12  1  0.31017748  0.58624862  0.96778776  1
  O  O13  1  0.80688999  0.33256109  0.80488433  1
  O  O14  1  0.21433887  0.23639080  0.30080144  1
  O  O15  1  0.42662472  0.65050823  0.53075104  1
  O  O16  1  0.07482361  0.57754697  0.66265462  1
  O  O17  1  0.82754697  0.82482361  0.16265462  1
  O  O18  1  0.91489335  0.41216999  0.33734538  1
  O  O19  1  0.16353742  0.68558936  0.19919856  1
  O  O20  1  0.25200567  0.27767876  0.69511567  1
  O  O21  1  0.48639080  0.96433887  0.80080144  1
  O  O22  1  0.93558936  0.91353742  0.69919856  1
  O  O23  1  0.14587469  0.86975819  0.96924896  1
  O  O24  1  0.11975819  0.89587469  0.46924896  1
  O  O25  1  0.90050823  0.17662472  0.03075104  1
  O  O26  1  0.83624862  0.06017748  0.46778776  1
  O  O27  1  0.61846086  0.34238972  0.03221224  1
  O  O28  1  0.52767876  0.00200567  0.19511567  1
  O  O29  1  0.59238972  0.36846086  0.53221224  1
