# generated using pymatgen
data_Li13Ni15O28
_symmetry_space_group_name_H-M   'P 1'
_cell_length_a   8.15507811
_cell_length_b   8.76603240
_cell_length_c   7.66995532
_cell_angle_alpha   105.16129954
_cell_angle_beta   105.13737363
_cell_angle_gamma   103.33173866
_symmetry_Int_Tables_number   1
_chemical_formula_structural   Li13Ni15O28
_chemical_formula_sum   'Li13 Ni15 O28'
_cell_volume   483.86037447
_cell_formula_units_Z   1
loop_
 _symmetry_equiv_pos_site_id
 _symmetry_equiv_pos_as_xyz
  1  'x, y, z'
loop_
 _atom_site_type_symbol
 _atom_site_label
 _atom_site_symmetry_multiplicity
 _atom_site_fract_x
 _atom_site_fract_y
 _atom_site_fract_z
 _atom_site_occupancy
  Li  Li0  1  0.28787245  0.21308128  0.92871778  1
  Li  Li1  1  0.06975749  0.42797664  0.85990787  1
  Li  Li2  1  0.43010191  0.06954411  0.64162781  1
  Li  Li3  1  0.85752105  0.64228010  0.78325142  1
  Li  Li4  1  0.99846909  0.50188489  0.50122919  1
  Li  Li5  1  0.64276326  0.85933515  0.71717289  1
  Li  Li6  1  0.35881451  0.14345136  0.28294913  1
  Li  Li7  1  0.50142238  0.00106918  0.99966089  1
  Li  Li8  1  0.14069855  0.35834672  0.21413922  1
  Li  Li9  1  0.78580874  0.71209285  0.42568411  1
  Li  Li10  1  0.57105095  0.92914790  0.35960558  1
  Li  Li11  1  0.92714962  0.57035982  0.14319611  1
  Li  Li12  1  0.71428600  0.78571400  0.07142900  1
  Ni  Ni13  1  0.78345031  0.21130144  0.92520339  1
  Ni  Ni14  1  0.57148722  0.42792728  0.85848936  1
  Ni  Ni15  1  0.92932358  0.06873863  0.63970322  1
  Ni  Ni16  1  0.21428600  0.28571400  0.57142900  1
  Ni  Ni17  1  0.35583913  0.64118875  0.79023711  1
  Ni  Ni18  1  0.71428600  0.28571400  0.57142900  1
  Ni  Ni19  1  0.14325336  0.85783610  0.70943325  1
  Ni  Ni20  1  0.49924742  0.50268937  0.50315378  1
  Ni  Ni21  1  0.85708478  0.14350172  0.28436864  1
  Ni  Ni22  1  0.28531764  0.71359290  0.43342375  1
  Ni  Ni23  1  0.64512169  0.36012756  0.21765461  1
  Ni  Ni24  1  0.99781470  0.99959823  0.99618825  1
  Ni  Ni25  1  0.43075730  0.57182977  0.14666875  1
  Ni  Ni26  1  0.07273287  0.93024025  0.35261989  1
  Ni  Ni27  1  0.21428600  0.78571400  0.07142900  1
  O  O28  1  0.01954171  0.19360202  0.91491384  1
  O  O29  1  0.54990631  0.22983075  0.93665321  1
  O  O30  1  0.68170009  0.08928301  0.64380649  1
  O  O31  1  0.80015889  0.42203541  0.84249733  1
  O  O32  1  0.17684924  0.06407189  0.62024527  1
  O  O33  1  0.33812246  0.42512919  0.86009687  1
  O  O34  1  0.58650271  0.62729527  0.77677237  1
  O  O35  1  0.12570802  0.64948054  0.80714189  1
  O  O36  1  0.23185560  0.98973760  0.98144259  1
  O  O37  1  0.96483895  0.26879785  0.57921918  1
  O  O38  1  0.46373205  0.30263015  0.56363782  1
  O  O39  1  0.25172176  0.50735611  0.52261273  1
  O  O40  1  0.62841311  0.14939359  0.30035967  1
  O  O41  1  0.74687091  0.48214499  0.49905051  1
  O  O42  1  0.09044954  0.14629881  0.28276013  1
  O  O43  1  0.37337587  0.84788189  0.70329874  1
  O  O44  1  0.90888853  0.86634426  0.70199390  1
  O  O45  1  0.51968247  0.70508474  0.44086310  1
  O  O46  1  0.05519513  0.72354711  0.43955826  1
  O  O47  1  0.87866469  0.34159725  0.20620379  1
  O  O48  1  0.76215466  0.00072374  0.99925264  1
  O  O49  1  0.40903029  0.37782698  0.22794316  1
  O  O50  1  0.84206929  0.94413273  0.36608463  1
  O  O51  1  0.19671540  0.58169140  0.16141441  1
  O  O52  1  0.30286298  0.92194746  0.33571611  1
  O  O53  1  0.66641634  0.57070426  0.14360436  1
  O  O54  1  0.45246562  0.76647851  0.06603392  1
  O  O55  1  0.97610538  0.80494949  0.07682308  1
