# generated using pymatgen
data_V2OF5
_symmetry_space_group_name_H-M   'P 1'
_cell_length_a   5.27781888
_cell_length_b   11.67832384
_cell_length_c   5.46873275
_cell_angle_alpha   79.41871879
_cell_angle_beta   89.99071697
_cell_angle_gamma   103.15018355
_symmetry_Int_Tables_number   1
_chemical_formula_structural   V2OF5
_chemical_formula_sum   'V6 O3 F15'
_cell_volume   322.34095901
_cell_formula_units_Z   3
loop_
 _symmetry_equiv_pos_site_id
 _symmetry_equiv_pos_as_xyz
  1  'x, y, z'
loop_
 _atom_site_type_symbol
 _atom_site_label
 _atom_site_symmetry_multiplicity
 _atom_site_fract_x
 _atom_site_fract_y
 _atom_site_fract_z
 _atom_site_occupancy
  V  V0  1  0.83054376  0.66260678  0.16859497  1
  V  V1  1  0.66778105  0.31467142  0.34252411  1
  V  V2  1  0.48381468  0.98744239  0.50650572  1
  V  V3  1  0.33299849  0.66761913  0.66644747  1
  V  V4  1  0.00175309  0.00434202  0.99778118  1
  V  V5  1  0.18479364  0.34879553  0.82570775  1
  O  O6  1  0.66340080  0.16859798  0.41478838  1
  O  O7  1  0.32887530  0.49488098  0.75466657  1
  O  O8  1  0.33843080  0.84047626  0.57912757  1
  F  F9  1  0.99616376  0.17530359  0.91217402  1
  F  F10  1  0.98072755  0.36470371  0.11923347  1
  F  F11  1  0.88132297  0.36424671  0.61724126  1
  F  F12  1  0.65463195  0.49120154  0.25500622  1
  F  F13  1  0.78774248  0.97264488  0.70964812  1
  F  F14  1  0.45018343  0.30086231  0.04848724  1
  F  F15  1  0.65251354  0.69726720  0.45011389  1
  F  F16  1  0.31973732  0.03668363  0.78191743  1
  F  F17  1  0.68510106  0.97126516  0.21389928  1
  F  F18  1  0.21633814  0.03550041  0.28645158  1
  F  F19  1  0.54469580  0.69858728  0.95056318  1
  F  F20  1  0.34984226  0.30131495  0.54886773  1
  F  F21  1  0.11992111  0.63246434  0.38545260  1
  F  F22  1  0.01112790  0.63442695  0.88159370  1
  F  F23  1  0.01756012  0.83409387  0.08320256  1
