# generated using pymatgen
data_Li2MnV(PO4)2
_symmetry_space_group_name_H-M   'P 1'
_cell_length_a   10.53086655
_cell_length_b   6.16243942
_cell_length_c   4.78763222
_cell_angle_alpha   90.00000000
_cell_angle_beta   89.96846623
_cell_angle_gamma   90.00000000
_symmetry_Int_Tables_number   1
_chemical_formula_structural   Li2MnV(PO4)2
_chemical_formula_sum   'Li4 Mn2 V2 P4 O16'
_cell_volume   310.69730631
_cell_formula_units_Z   2
loop_
 _symmetry_equiv_pos_site_id
 _symmetry_equiv_pos_as_xyz
  1  'x, y, z'
loop_
 _atom_site_type_symbol
 _atom_site_label
 _atom_site_symmetry_multiplicity
 _atom_site_fract_x
 _atom_site_fract_y
 _atom_site_fract_z
 _atom_site_occupancy
  Li  Li0  1  0.00000000  0.00000000  0.00000000  1
  Li  Li1  1  0.00000000  0.50000000  0.00000000  1
  Li  Li2  1  0.50000000  0.00000000  0.50000000  1
  Li  Li3  1  0.50000000  0.50000000  0.50000000  1
  Mn  Mn4  1  0.27734916  0.25000000  0.97766232  1
  Mn  Mn5  1  0.72265084  0.75000000  0.02233768  1
  V  V6  1  0.22376553  0.75000000  0.48160055  1
  V  V7  1  0.77623447  0.25000000  0.51839945  1
  P  P8  1  0.08972062  0.25000000  0.41437028  1
  P  P9  1  0.40760942  0.75000000  0.91358302  1
  P  P10  1  0.59239058  0.25000000  0.08641698  1
  P  P11  1  0.91027938  0.75000000  0.58562972  1
  O  O12  1  0.04665969  0.75000000  0.70994119  1
  O  O13  1  0.09346222  0.25000000  0.73619709  1
  O  O14  1  0.16004025  0.04923944  0.28236837  1
  O  O15  1  0.16004025  0.45076056  0.28236837  1
  O  O16  1  0.33744794  0.54924824  0.78050064  1
  O  O17  1  0.33744794  0.95075176  0.78050064  1
  O  O18  1  0.40515236  0.75000000  0.23536936  1
  O  O19  1  0.45582115  0.25000000  0.20939081  1
  O  O20  1  0.54417885  0.75000000  0.79060919  1
  O  O21  1  0.59484764  0.25000000  0.76463064  1
  O  O22  1  0.66255206  0.04924824  0.21949936  1
  O  O23  1  0.66255206  0.45075176  0.21949936  1
  O  O24  1  0.83995975  0.54923944  0.71763163  1
  O  O25  1  0.83995975  0.95076056  0.71763163  1
  O  O26  1  0.90653778  0.75000000  0.26380291  1
  O  O27  1  0.95334031  0.25000000  0.29005881  1
