# generated using pymatgen
data_LiCoPO4
_symmetry_space_group_name_H-M   'P 1'
_cell_length_a   10.07740367
_cell_length_b   13.61631139
_cell_length_c   5.05600626
_cell_angle_alpha   90.00000000
_cell_angle_beta   90.00000000
_cell_angle_gamma   90.00000000
_symmetry_Int_Tables_number   1
_chemical_formula_structural   LiCoPO4
_chemical_formula_sum   'Li8 Co8 P8 O32'
_cell_volume   693.77034656
_cell_formula_units_Z   8
loop_
 _symmetry_equiv_pos_site_id
 _symmetry_equiv_pos_as_xyz
  1  'x, y, z'
loop_
 _atom_site_type_symbol
 _atom_site_label
 _atom_site_symmetry_multiplicity
 _atom_site_fract_x
 _atom_site_fract_y
 _atom_site_fract_z
 _atom_site_occupancy
  Li  Li0  1  0.03103665  0.50102792  0.92785859  1
  Li  Li1  1  0.22032200  0.75126483  0.55334127  1
  Li  Li2  1  0.27967800  0.25126483  0.55334127  1
  Li  Li3  1  0.46896335  0.00102792  0.92785859  1
  Li  Li4  1  0.53103665  0.50102792  0.07214141  1
  Li  Li5  1  0.72032200  0.75126483  0.44665873  1
  Li  Li6  1  0.77967800  0.25126483  0.44665873  1
  Li  Li7  1  0.96896335  0.00102792  0.07214141  1
  Co  Co8  1  0.03616980  0.75166731  0.06050224  1
  Co  Co9  1  0.21687647  0.00126984  0.55549503  1
  Co  Co10  1  0.28312353  0.50126984  0.55549503  1
  Co  Co11  1  0.46383020  0.25166731  0.06050224  1
  Co  Co12  1  0.53616980  0.75166731  0.93949776  1
  Co  Co13  1  0.71687647  0.00126984  0.44450497  1
  Co  Co14  1  0.78312353  0.50126984  0.44450497  1
  Co  Co15  1  0.96383020  0.25166731  0.93949776  1
  P  P16  1  0.03061408  0.37630185  0.43492180  1
  P  P17  1  0.21535696  0.12765576  0.05295293  1
  P  P18  1  0.28464304  0.62765576  0.05295293  1
  P  P19  1  0.46938592  0.87630185  0.43492180  1
  P  P20  1  0.53061408  0.37630185  0.56507820  1
  P  P21  1  0.71535696  0.12765576  0.94704707  1
  P  P22  1  0.78464304  0.62765576  0.94704707  1
  P  P23  1  0.96938592  0.87630185  0.56507820  1
  O  O24  1  0.99876870  0.87619060  0.86707414  1
  O  O25  1  0.96823492  0.47046122  0.55768699  1
  O  O26  1  0.03316491  0.78251599  0.44421769  1
  O  O27  1  0.06385105  0.12863111  0.99703378  1
  O  O28  1  0.18183864  0.37729331  0.49209455  1
  O  O29  1  0.22531856  0.53387511  0.92210545  1
  O  O30  1  0.27937291  0.22197461  0.93636769  1
  O  O31  1  0.24518160  0.12547052  0.35479983  1
  O  O32  1  0.25481840  0.62547052  0.35479983  1
  O  O33  1  0.22062709  0.72197461  0.93636769  1
  O  O34  1  0.27468144  0.03387511  0.92210545  1
  O  O35  1  0.31816136  0.87729331  0.49209455  1
  O  O36  1  0.43614895  0.62863111  0.99703378  1
  O  O37  1  0.46683509  0.28251599  0.44421769  1
  O  O38  1  0.53176508  0.97046122  0.55768699  1
  O  O39  1  0.50123130  0.37619060  0.86707414  1
  O  O40  1  0.49876870  0.87619060  0.13292586  1
  O  O41  1  0.46823492  0.47046122  0.44231301  1
  O  O42  1  0.53316491  0.78251599  0.55578231  1
  O  O43  1  0.56385105  0.12863111  0.00296622  1
  O  O44  1  0.68183864  0.37729331  0.50790545  1
  O  O45  1  0.72531856  0.53387511  0.07789455  1
  O  O46  1  0.77937291  0.22197461  0.06363231  1
  O  O47  1  0.74518160  0.12547052  0.64520017  1
  O  O48  1  0.75481840  0.62547052  0.64520017  1
  O  O49  1  0.72062709  0.72197461  0.06363231  1
  O  O50  1  0.77468144  0.03387511  0.07789455  1
  O  O51  1  0.81816136  0.87729331  0.50790545  1
  O  O52  1  0.93614895  0.62863111  0.00296622  1
  O  O53  1  0.96683509  0.28251599  0.55578231  1
  O  O54  1  0.03176508  0.97046122  0.44231301  1
  O  O55  1  0.00123130  0.37619060  0.13292586  1
