# generated using pymatgen
data_Co25Cu11O48
_symmetry_space_group_name_H-M   'P 1'
_cell_length_a   9.92570129
_cell_length_b   9.95099670
_cell_length_c   9.92431667
_cell_angle_alpha   119.91134301
_cell_angle_beta   109.24183505
_cell_angle_gamma   80.54132145
_symmetry_Int_Tables_number   1
_chemical_formula_structural   Co25Cu11O48
_chemical_formula_sum   'Co25 Cu11 O48'
_cell_volume   802.19670672
_cell_formula_units_Z   1
loop_
 _symmetry_equiv_pos_site_id
 _symmetry_equiv_pos_as_xyz
  1  'x, y, z'
loop_
 _atom_site_type_symbol
 _atom_site_label
 _atom_site_symmetry_multiplicity
 _atom_site_fract_x
 _atom_site_fract_y
 _atom_site_fract_z
 _atom_site_occupancy
  Co  Co0  1  0.93768161  0.66666700  0.14617697  1
  Co  Co1  1  0.75130732  0.49987735  0.25103021  1
  Co  Co2  1  0.75017515  0.16671331  0.08475224  1
  Co  Co3  1  0.75130732  0.83345565  0.41781986  1
  Co  Co4  1  0.74967461  0.00102467  0.25165258  1
  Co  Co5  1  0.49971732  0.00061712  0.00078068  1
  Co  Co6  1  0.50067557  0.66666700  0.33205747  1
  Co  Co7  1  0.24982254  0.66666700  0.08141095  1
  Co  Co8  1  0.74931362  0.66666700  0.58373756  1
  Co  Co9  1  0.74827005  0.83352484  0.91743684  1
  Co  Co10  1  0.75017515  0.16662069  0.58470593  1
  Co  Co11  1  0.25005291  0.16616956  0.08290136  1
  Co  Co12  1  0.74827005  0.49980916  0.75057900  1
  Co  Co13  1  0.25104311  0.83394758  0.41618629  1
  Co  Co14  1  0.25104311  0.49938542  0.24890571  1
  Co  Co15  1  0.00076380  0.33190560  0.16672108  1
  Co  Co16  1  0.49971732  0.33271588  0.66683056  1
  Co  Co17  1  0.25068646  0.33207703  0.41548278  1
  Co  Co18  1  0.74967461  0.33230833  0.91729492  1
  Co  Co19  1  0.24899673  0.83304494  0.91453535  1
  Co  Co20  1  0.24899673  0.50028806  0.74815741  1
  Co  Co21  1  0.25005291  0.16716344  0.58339780  1
  Co  Co22  1  0.25068646  0.00125597  0.75007175  1
  Co  Co23  1  0.00076380  0.00142840  0.50148248  1
  Co  Co24  1  0.99830146  0.66666700  0.83200299  1
  Cu  Cu25  1  0.56042288  0.66666700  0.02080848  1
  Cu  Cu26  1  0.93770437  0.33437585  0.48127865  1
  Cu  Cu27  1  0.56292491  0.33459789  0.35520774  1
  Cu  Cu28  1  0.43827246  0.99961777  0.31169660  1
  Cu  Cu29  1  0.93770437  0.99895715  0.81356879  1
  Cu  Cu30  1  0.43586729  0.66666700  0.64467943  1
  Cu  Cu31  1  0.56292491  0.99873511  0.68727684  1
  Cu  Cu32  1  0.06224428  0.99946025  0.18698998  1
  Cu  Cu33  1  0.06520467  0.66666700  0.51948901  1
  Cu  Cu34  1  0.43827246  0.33371523  0.97874482  1
  Cu  Cu35  1  0.06224428  0.33387275  0.85419673  1
  O  O36  1  0.63012624  0.85347293  0.04664454  1
  O  O37  1  0.86929747  0.85357491  0.30921449  1
  O  O38  1  0.86929747  0.47975809  0.12230558  1
  O  O39  1  0.64661495  0.33359064  0.05086149  1
  O  O40  1  0.86869145  0.33338917  0.27201245  1
  O  O41  1  0.85360077  0.99988257  0.11838305  1
  O  O42  1  0.63454547  0.66666700  0.22911877  1
  O  O43  1  0.85570406  0.66666700  0.45248193  1
  O  O44  1  0.63231874  0.81378317  0.52503116  1
  O  O45  1  0.63125256  0.14796292  0.19318227  1
  O  O46  1  0.13053754  0.81433796  0.02309149  1
  O  O47  1  0.63231874  0.51954983  0.37791399  1
  O  O48  1  0.86848585  0.14836151  0.45719023  1
  O  O49  1  0.86611740  0.81468492  0.78987718  1
  O  O50  1  0.36822872  0.51939561  0.13943374  1
  O  O51  1  0.36822872  0.81393839  0.28670513  1
  O  O52  1  0.86611740  0.51864808  0.64185827  1
  O  O53  1  0.86627526  0.66666700  0.93733069  1
  O  O54  1  0.86869145  -0.00005517  0.60529028  1
  O  O55  1  0.36653048  0.99890723  0.10285082  1
  O  O56  1  0.64661495  0.99974236  0.38393785  1
  O  O57  1  0.36743407  0.66666700  0.43608017  1
  O  O58  1  0.64429289  0.66666700  0.71689778  1
  O  O59  1  0.14685365  0.66666700  0.21518235  1
  O  O60  1  0.13301873  0.33211175  0.06190129  1
  O  O61  1  0.35441200  0.33235821  0.28298822  1
  O  O62  1  0.63218262  0.33275200  0.56332491  1
  O  O63  1  0.85360077  0.33345143  0.78516748  1
  O  O64  1  0.13231190  0.18447024  0.21075989  1
  O  O65  1  0.63125256  0.18537008  0.71188535  1
  O  O66  1  0.13313162  0.48000275  0.35812773  1
  O  O67  1  0.63012624  0.47986007  0.85983761  1
  O  O68  1  0.13313162  0.85333025  0.54479198  1
  O  O69  1  0.36858724  0.47990991  0.62064361  1
  O  O70  1  0.36858724  0.85342409  0.80740070  1
  O  O71  1  0.36866592  0.18488243  0.47424819  1
  O  O72  1  0.86848585  0.18497249  0.97549572  1
  O  O73  1  0.36653048  0.33442677  0.77061059  1
  O  O74  1  0.14607692  0.33295678  0.54783533  1
  O  O75  1  0.63218262  0.00058200  0.89723992  1
  O  O76  1  0.13301873  0.00122125  0.39645654  1
  O  O77  1  0.35441200  0.00097479  0.61729601  1
  O  O78  1  0.13092161  0.66666700  0.72725152  1
  O  O79  1  0.35263811  0.66666700  0.94786236  1
  O  O80  1  0.13231190  0.14886276  0.69295665  1
  O  O81  1  0.13053754  0.51899604  0.87542053  1
  O  O82  1  0.36866592  0.14845057  0.95603176  1
  O  O83  1  0.14607692  0.00037622  0.88154555  1
