# generated using pymatgen
data_NaMn(PO3)3
_symmetry_space_group_name_H-M   'P 1'
_cell_length_a   8.79270354
_cell_length_b   8.82746026
_cell_length_c   9.06338389
_cell_angle_alpha   90.00000000
_cell_angle_beta   90.00000000
_cell_angle_gamma   90.00000000
_symmetry_Int_Tables_number   1
_chemical_formula_structural   NaMn(PO3)3
_chemical_formula_sum   'Na4 Mn4 P12 O36'
_cell_volume   703.47485237
_cell_formula_units_Z   4
loop_
 _symmetry_equiv_pos_site_id
 _symmetry_equiv_pos_as_xyz
  1  'x, y, z'
loop_
 _atom_site_type_symbol
 _atom_site_label
 _atom_site_symmetry_multiplicity
 _atom_site_fract_x
 _atom_site_fract_y
 _atom_site_fract_z
 _atom_site_occupancy
  Na  Na0  1  0.15191708  0.13189879  0.39297432  1
  Na  Na1  1  0.34808292  0.86810121  0.89297432  1
  Na  Na2  1  0.65191708  0.36810221  0.60702568  1
  Na  Na3  1  0.84808292  0.63189879  0.10702568  1
  Mn  Mn4  1  0.12660644  0.85612211  0.16267809  1
  Mn  Mn5  1  0.37339356  0.14387789  0.66267809  1
  Mn  Mn6  1  0.62660644  0.64387789  0.83732191  1
  Mn  Mn7  1  0.87339356  0.35612211  0.33732191  1
  P  P8  1  0.03209195  0.32437924  0.68788058  1
  P  P9  1  0.19512879  0.47839149  0.18980981  1
  P  P10  1  0.19654088  0.80699002  0.56177407  1
  P  P11  1  0.30345912  0.19300998  0.06177407  1
  P  P12  1  0.30487121  0.52160851  0.68980981  1
  P  P13  1  0.46790805  0.67562076  0.18788058  1
  P  P14  1  0.53209195  0.17562076  0.31211942  1
  P  P15  1  0.69512879  0.02160851  0.81019019  1
  P  P16  1  0.69654088  0.69300998  0.43822593  1
  P  P17  1  0.80345912  0.30699002  0.93822593  1
  P  P18  1  0.80487121  0.97839149  0.31019019  1
  P  P19  1  0.96790805  0.82437924  0.81211942  1
  O  O20  1  0.04133445  0.78084610  0.65521634  1
  O  O21  1  0.10623161  0.60993646  0.12959583  1
  O  O22  1  0.08826557  0.87517443  0.91851844  1
  O  O23  1  0.12317667  0.38897432  0.31333310  1
  O  O24  1  0.13275339  0.19566182  0.63936905  1
  O  O25  1  0.13777075  0.46610813  0.73983409  1
  O  O26  1  0.15335947  0.85209597  0.40804897  1
  O  O27  1  0.19652631  0.09208610  0.14655539  1
  O  O28  1  0.23605975  0.36378642  0.05525203  1
  O  O29  1  0.26394025  0.63621358  0.55525203  1
  O  O30  1  0.30347369  0.90791390  0.64655539  1
  O  O31  1  0.34664053  0.14790403  0.90804897  1
  O  O32  1  0.36222925  0.53389187  0.23983409  1
  O  O33  1  0.36724661  0.80433818  0.13936905  1
  O  O34  1  0.37682333  0.61102568  0.81333310  1
  O  O35  1  0.41173443  0.12482557  0.41851844  1
  O  O36  1  0.39376839  0.39006354  0.62959583  1
  O  O37  1  0.45866555  0.21915390  0.15521634  1
  O  O38  1  0.54133445  0.71915390  0.34478366  1
  O  O39  1  0.60623161  0.89006354  0.87040417  1
  O  O40  1  0.58826557  0.62482557  0.08148156  1
  O  O41  1  0.62317667  0.11102568  0.68666690  1
  O  O42  1  0.63275339  0.30433818  0.36063095  1
  O  O43  1  0.63777075  0.03389187  0.26016591  1
  O  O44  1  0.65335947  0.64790403  0.59195103  1
  O  O45  1  0.69652631  0.40791390  0.85344461  1
  O  O46  1  0.73605975  0.13621358  0.94474797  1
  O  O47  1  0.76394025  0.86378642  0.44474797  1
  O  O48  1  0.80347369  0.59208610  0.35344461  1
  O  O49  1  0.84664053  0.35209597  0.09195103  1
  O  O50  1  0.86222925  0.96610813  0.76016591  1
  O  O51  1  0.86724661  0.69566182  0.86063095  1
  O  O52  1  0.87682333  0.88897432  0.18666690  1
  O  O53  1  0.91173443  0.37517443  0.58148156  1
  O  O54  1  0.89376839  0.10993646  0.37040417  1
  O  O55  1  0.95866555  0.28084610  0.84478366  1
