# generated using pymatgen
data_VPO5
_symmetry_space_group_name_H-M   'P 1'
_cell_length_a   4.76716428
_cell_length_b   6.09783415
_cell_length_c   6.09783415
_cell_angle_alpha   90.00000000
_cell_angle_beta   90.00000000
_cell_angle_gamma   90.00000000
_symmetry_Int_Tables_number   1
_chemical_formula_structural   VPO5
_chemical_formula_sum   'V2 P2 O10'
_cell_volume   177.26024068
_cell_formula_units_Z   2
loop_
 _symmetry_equiv_pos_site_id
 _symmetry_equiv_pos_as_xyz
  1  'x, y, z'
loop_
 _atom_site_type_symbol
 _atom_site_label
 _atom_site_symmetry_multiplicity
 _atom_site_fract_x
 _atom_site_fract_y
 _atom_site_fract_z
 _atom_site_occupancy
  V  V0  1  0.72644510  0.75000000  0.75000000  1
  V  V1  1  0.27355490  0.25000000  0.25000000  1
  P  P2  1  0.00000000  0.25000000  0.75000000  1
  P  P3  1  0.00000000  0.75000000  0.25000000  1
  O  O4  1  0.81054879  0.44923035  0.70351678  1
  O  O5  1  0.81054879  0.05076965  0.79648322  1
  O  O6  1  0.81054879  0.70351678  0.05076965  1
  O  O7  1  0.81054879  0.79648322  0.44923035  1
  O  O8  1  0.18945121  0.55076965  0.29648322  1
  O  O9  1  0.18945121  0.94923035  0.20351678  1
  O  O10  1  0.18945121  0.29648322  0.94923035  1
  O  O11  1  0.18945121  0.20351678  0.55076965  1
  O  O12  1  0.38895765  0.75000000  0.75000000  1
  O  O13  1  0.61104235  0.25000000  0.25000000  1
