# generated using pymatgen
data_V2O3F
_symmetry_space_group_name_H-M   'P 1'
_cell_length_a   4.69622971
_cell_length_b   4.69622971
_cell_length_c   12.11244187
_cell_angle_alpha   90.00000000
_cell_angle_beta   90.00000000
_cell_angle_gamma   93.84798192
_symmetry_Int_Tables_number   1
_chemical_formula_structural   V2O3F
_chemical_formula_sum   'V8 O12 F4'
_cell_volume   266.53251561
_cell_formula_units_Z   4
loop_
 _symmetry_equiv_pos_site_id
 _symmetry_equiv_pos_as_xyz
  1  'x, y, z'
loop_
 _atom_site_type_symbol
 _atom_site_label
 _atom_site_symmetry_multiplicity
 _atom_site_fract_x
 _atom_site_fract_y
 _atom_site_fract_z
 _atom_site_occupancy
  V  V0  1  0.00344851  0.99655149  0.99965832  1
  V  V1  1  0.00344851  0.99655149  0.25034168  1
  V  V2  1  0.00905226  0.99094774  0.50029105  1
  V  V3  1  0.00905226  0.99094774  0.74970895  1
  V  V4  1  0.54947178  0.45052822  0.12500000  1
  V  V5  1  0.46492043  0.53507957  0.62500000  1
  V  V6  1  0.46107672  0.53892328  0.87556008  1
  V  V7  1  0.46107672  0.53892328  0.37443992  1
  O  O8  1  0.20004674  0.79995326  0.87507462  1
  O  O9  1  0.20004674  0.79995326  0.37492538  1
  O  O10  1  0.20221192  0.79778808  0.62500000  1
  O  O11  1  0.31162981  0.30349401  0.00035107  1
  O  O12  1  0.31162981  0.30349401  0.24964893  1
  O  O13  1  0.30689539  0.30673170  0.49961940  1
  O  O14  1  0.30689539  0.30673170  0.75038060  1
  O  O15  1  0.69650599  0.68837019  0.00035107  1
  O  O16  1  0.69650599  0.68837019  0.24964893  1
  O  O17  1  0.69326830  0.69310461  0.49961940  1
  O  O18  1  0.69326830  0.69310461  0.75038060  1
  O  O19  1  0.80884441  0.19115559  0.12500000  1
  F  F20  1  0.20385030  0.79614970  0.12500000  1
  F  F21  1  0.80230174  0.19769826  0.37560588  1
  F  F22  1  0.80225128  0.19774872  0.62500000  1
  F  F23  1  0.80230174  0.19769826  0.87439412  1
