# generated using pymatgen
data_Na3CuO3
_symmetry_space_group_name_H-M   'P 1'
_cell_length_a   9.37683854
_cell_length_b   9.37683854
_cell_length_c   4.43178584
_cell_angle_alpha   90.00000000
_cell_angle_beta   90.00000000
_cell_angle_gamma   90.00000000
_symmetry_Int_Tables_number   1
_chemical_formula_structural   Na3CuO3
_chemical_formula_sum   'Na12 Cu4 O12'
_cell_volume   389.66521762
_cell_formula_units_Z   4
loop_
 _symmetry_equiv_pos_site_id
 _symmetry_equiv_pos_as_xyz
  1  'x, y, z'
loop_
 _atom_site_type_symbol
 _atom_site_label
 _atom_site_symmetry_multiplicity
 _atom_site_fract_x
 _atom_site_fract_y
 _atom_site_fract_z
 _atom_site_occupancy
  Na  Na0  1  0.12594302  0.36610622  0.50000000  1
  Na  Na1  1  0.13389378  0.62594302  0.00000000  1
  Na  Na2  1  0.15123339  0.15123339  0.00000000  1
  Na  Na3  1  0.34876661  0.65123339  0.50000000  1
  Na  Na4  1  0.36610622  0.12594302  0.50000000  1
  Na  Na5  1  0.37405698  0.86610622  0.00000000  1
  Na  Na6  1  0.62594302  0.13389378  0.00000000  1
  Na  Na7  1  0.63389378  0.87405698  0.50000000  1
  Na  Na8  1  0.65123339  0.34876661  0.50000000  1
  Na  Na9  1  0.84876661  0.84876661  0.00000000  1
  Na  Na10  1  0.86610622  0.37405698  0.00000000  1
  Na  Na11  1  0.87405698  0.63389378  0.50000000  1
  Cu  Cu12  1  0.10882774  0.89117226  0.50000000  1
  Cu  Cu13  1  0.39117226  0.39117226  0.00000000  1
  Cu  Cu14  1  0.60882774  0.60882774  0.00000000  1
  Cu  Cu15  1  0.89117226  0.10882774  0.50000000  1
  O  O16  1  0.09396039  0.09396039  0.50000000  1
  O  O17  1  0.10611124  0.69414199  0.50000000  1
  O  O18  1  0.19414199  0.39388876  0.00000000  1
  O  O19  1  0.30585801  0.89388876  0.50000000  1
  O  O20  1  0.39388876  0.19414199  0.00000000  1
  O  O21  1  0.40603861  0.59396139  0.00000000  1
  O  O22  1  0.59396139  0.40603861  0.00000000  1
  O  O23  1  0.60611124  0.80585801  0.00000000  1
  O  O24  1  0.69414199  0.10611124  0.50000000  1
  O  O25  1  0.80585801  0.60611124  0.00000000  1
  O  O26  1  0.89388876  0.30585801  0.50000000  1
  O  O27  1  0.90603861  0.90603861  0.50000000  1
