# generated using pymatgen
data_Na8SnO6
_symmetry_space_group_name_H-M   'P 1'
_cell_length_a   6.48927370
_cell_length_b   6.48947845
_cell_length_c   12.86983614
_cell_angle_alpha   89.99984104
_cell_angle_beta   89.99988296
_cell_angle_gamma   120.00233318
_symmetry_Int_Tables_number   1
_chemical_formula_structural   Na8SnO6
_chemical_formula_sum   'Na16 Sn2 O12'
_cell_volume   469.35270491
_cell_formula_units_Z   2
loop_
 _symmetry_equiv_pos_site_id
 _symmetry_equiv_pos_as_xyz
  1  'x, y, z'
loop_
 _atom_site_type_symbol
 _atom_site_label
 _atom_site_symmetry_multiplicity
 _atom_site_fract_x
 _atom_site_fract_y
 _atom_site_fract_z
 _atom_site_occupancy
  Na  Na0  1  0.99998391  0.69805155  0.76895451  1
  Na  Na1  1  0.99999248  0.60207742  0.12540221  1
  Na  Na2  1  0.99999199  0.39790967  0.62540148  1
  Na  Na3  1  0.99999721  0.30195023  0.26895628  1
  Na  Na4  1  0.33332347  0.66668048  0.41016966  1
  Na  Na5  1  0.33331924  0.66666346  0.91017073  1
  Na  Na6  1  0.30191896  0.30190376  0.76895979  1
  Na  Na7  1  0.39793114  0.39793672  0.12539776  1
  Na  Na8  1  0.60205923  0.60207450  0.62539744  1
  Na  Na9  1  0.30193122  0.00001501  0.26897141  1
  Na  Na10  1  0.69805882  0.69808452  0.26895861  1
  Na  Na11  1  0.39790375  0.99997800  0.62539483  1
  Na  Na12  1  0.66666369  0.33332462  0.91017140  1
  Na  Na13  1  0.66667447  0.33333835  0.41016999  1
  Na  Na14  1  0.60207180  0.00002507  0.12539816  1
  Na  Na15  1  0.69805849  0.99998719  0.76897315  1
  Sn  Sn16  1  -0.00001339  0.99997932  0.99630523  1
  Sn  Sn17  1  0.00000595  0.00001797  0.49628515  1
  O  O18  1  0.00000268  0.70657898  0.95089636  1
  O  O19  1  0.00000013  0.29343630  0.45089002  1
  O  O20  1  0.33332607  0.66668533  0.21958751  1
  O  O21  1  0.99999091  0.00000956  0.15408522  1
  O  O22  1  0.99998047  0.99998394  0.65406071  1
  O  O23  1  0.33331246  0.66665448  0.71959083  1
  O  O24  1  0.29340050  0.29340803  0.95088611  1
  O  O25  1  0.29341399  -0.00000068  0.45088130  1
  O  O26  1  0.70658998  0.70657946  0.45087709  1
  O  O27  1  0.66665212  0.33331359  0.71958977  1
  O  O28  1  0.66666830  0.33334604  0.21958736  1
  O  O29  1  0.70659096  0.00000410  0.95089193  1
