# generated using pymatgen
data_Sm11Y5O24
_symmetry_space_group_name_H-M   'P 1'
_cell_length_a   9.44477946
_cell_length_b   9.45700041
_cell_length_c   9.45740736
_cell_angle_alpha   109.51594511
_cell_angle_beta   109.46911944
_cell_angle_gamma   109.47620587
_symmetry_Int_Tables_number   1
_chemical_formula_structural   Sm11Y5O24
_chemical_formula_sum   'Sm11 Y5 O24'
_cell_volume   649.89012451
_cell_formula_units_Z   1
loop_
 _symmetry_equiv_pos_site_id
 _symmetry_equiv_pos_as_xyz
  1  'x, y, z'
loop_
 _atom_site_type_symbol
 _atom_site_label
 _atom_site_symmetry_multiplicity
 _atom_site_fract_x
 _atom_site_fract_y
 _atom_site_fract_z
 _atom_site_occupancy
  Sm  Sm0  1  0.50283913  0.00180585  0.99796725  1
  Sm  Sm1  1  0.74925986  0.28050319  0.53062020  1
  Sm  Sm2  1  0.99396981  0.49789848  0.99973941  1
  Sm  Sm3  1  0.50224191  0.50147798  0.50212119  1
  Sm  Sm4  1  0.99958475  0.99950026  0.49938903  1
  Sm  Sm5  1  0.53333095  0.74980350  0.28211373  1
  Sm  Sm6  1  0.24925045  0.71801505  0.46805253  1
  Sm  Sm7  1  0.25008319  0.21923776  0.96844920  1
  Sm  Sm8  1  0.28267581  0.53119675  0.74977823  1
  Sm  Sm9  1  0.21689306  0.96980629  0.25066650  1
  Sm  Sm10  1  0.02958298  0.75014337  0.78133384  1
  Y  Y11  1  0.96576794  0.24878232  0.21561475  1
  Y  Y12  1  0.78162425  0.03251863  0.75137913  1
  Y  Y13  1  0.71794244  0.46709181  0.24784543  1
  Y  Y14  1  0.75012040  0.78299445  0.03231110  1
  Y  Y15  1  0.46953219  0.25160815  0.71965950  1
  O  O16  1  0.76063986  0.02980448  0.49204985  1
  O  O17  1  0.74271321  0.23086657  0.26892822  1
  O  O18  1  0.96601333  0.50737339  0.24019075  1
  O  O19  1  0.27323317  0.01310151  0.04235323  1
  O  O20  1  0.47013064  0.23177957  0.46368281  1
  O  O21  1  0.77235111  0.72520593  0.25499993  1
  O  O22  1  0.46236961  0.47021711  0.23112320  1
  O  O23  1  0.03781960  0.26915269  0.01168241  1
  O  O24  1  0.00524305  0.04151176  0.26808716  1
  O  O25  1  0.49461709  0.76261131  0.03092567  1
  O  O26  1  0.77077039  0.54050683  0.52429118  1
  O  O27  1  0.72409132  0.25352536  0.76970144  1
  O  O28  1  0.22618911  0.45374391  0.46531829  1
  O  O29  1  0.26868050  0.73933269  0.22742179  1
  O  O30  1  0.98423802  0.95941359  0.72935631  1
  O  O31  1  0.51576231  0.24522207  0.97005951  1
  O  O32  1  0.54616484  0.53085092  0.77495088  1
  O  O33  1  0.95413777  0.72923415  0.98846122  1
  O  O34  1  0.53300499  0.77385711  0.54621543  1
  O  O35  1  0.23216974  0.26947880  0.73924328  1
  O  O36  1  0.73269089  0.98821197  0.95750363  1
  O  O37  1  0.02896844  0.48750557  0.76102866  1
  O  O38  1  0.24428114  0.97422554  0.51543313  1
  O  O39  1  0.25901975  0.77088334  0.72995297  1
