# generated using pymatgen
data_LiVF5
_symmetry_space_group_name_H-M   'P 1'
_cell_length_a   5.72976470
_cell_length_b   7.70916823
_cell_length_c   16.81361516
_cell_angle_alpha   89.99903504
_cell_angle_beta   90.00015547
_cell_angle_gamma   90.00001201
_symmetry_Int_Tables_number   1
_chemical_formula_structural   LiVF5
_chemical_formula_sum   'Li8 V8 F40'
_cell_volume   742.68630083
_cell_formula_units_Z   8
loop_
 _symmetry_equiv_pos_site_id
 _symmetry_equiv_pos_as_xyz
  1  'x, y, z'
loop_
 _atom_site_type_symbol
 _atom_site_label
 _atom_site_symmetry_multiplicity
 _atom_site_fract_x
 _atom_site_fract_y
 _atom_site_fract_z
 _atom_site_occupancy
  Li  Li0  1  0.25000147  0.81557944  0.91626818  1
  Li  Li1  1  0.24999973  0.31558597  0.58372961  1
  Li  Li2  1  0.24999835  0.27995026  0.06936254  1
  Li  Li3  1  0.25000407  0.77995572  0.43064131  1
  Li  Li4  1  0.75000028  0.72004016  0.93063912  1
  Li  Li5  1  0.74999925  0.22005211  0.56936220  1
  Li  Li6  1  0.75000517  0.68441066  0.41626368  1
  Li  Li7  1  0.75000109  0.18441717  0.08373017  1
  V  V8  1  0.25000096  0.94242280  0.64218562  1
  V  V9  1  0.24999746  0.44241375  0.85781697  1
  V  V10  1  0.24999915  0.88787467  0.12388466  1
  V  V11  1  0.25000644  0.38788162  0.37611271  1
  V  V12  1  0.74999822  0.61212789  0.62388338  1
  V  V13  1  0.74999838  0.55758096  0.14218716  1
  V  V14  1  0.75000050  0.05758483  0.35781141  1
  V  V15  1  0.75000089  0.11210579  0.87611244  1
  F  F16  1  0.00106545  0.72904326  0.16021987  1
  F  F17  1  0.00106482  0.22904951  0.33978194  1
  F  F18  1  0.02737972  0.61637418  0.88151935  1
  F  F19  1  0.02738663  0.11638233  0.61847981  1
  F  F20  1  0.02877573  0.04718654  0.08389224  1
  F  F21  1  0.02878386  0.54718672  0.41610323  1
  F  F22  1  0.24999773  0.47750347  0.75380344  1
  F  F23  1  0.24999502  0.98247872  0.21965296  1
  F  F24  1  0.25000194  0.97750260  0.74620021  1
  F  F25  1  0.25000152  0.86679295  0.53814692  1
  F  F26  1  0.25000244  0.36678828  0.96185850  1
  F  F27  1  0.25000040  0.48247835  0.28034892  1
  F  F28  1  0.25000152  0.76333676  0.03045456  1
  F  F29  1  0.25000613  0.26332594  0.46954869  1
  F  F30  1  0.47122700  0.54718893  0.41610500  1
  F  F31  1  0.47122532  0.04718600  0.08389581  1
  F  F32  1  0.47261072  0.61637553  0.88152066  1
  F  F33  1  0.47261604  0.11638332  0.61848366  1
  F  F34  1  0.49893462  0.72904767  0.16022104  1
  F  F35  1  0.49894304  0.22905239  0.33977794  1
  F  F36  1  0.50106602  0.77095827  0.66021815  1
  F  F37  1  0.50107254  0.27095366  0.83978243  1
  F  F38  1  0.52738601  0.88362734  0.38151355  1
  F  F39  1  0.52738283  0.38362336  0.11847482  1
  F  F40  1  0.52877053  0.95280426  0.91610691  1
  F  F41  1  0.52878042  0.45281356  0.58389272  1
  F  F42  1  0.74999627  0.52249793  0.24619668  1
  F  F43  1  0.74999994  0.51751813  0.71965410  1
  F  F44  1  0.74999696  0.63321692  0.03814328  1
  F  F45  1  0.75000087  0.01751913  0.78034974  1
  F  F46  1  0.75000309  0.23665886  0.96954775  1
  F  F47  1  0.75000381  0.73665382  0.53044943  1
  F  F48  1  0.74999818  0.13320207  0.46185334  1
  F  F49  1  0.75000189  0.02248725  0.25379876  1
  F  F50  1  0.97122115  0.45281520  0.58389551  1
  F  F51  1  0.97123076  0.95280307  0.91610912  1
  F  F52  1  0.97261433  0.88362856  0.38151671  1
  F  F53  1  0.97261607  0.38362062  0.11847843  1
  F  F54  1  0.99892616  0.77096404  0.66021802  1
  F  F55  1  0.99894011  0.27094469  0.83978166  1
