# generated using pymatgen
data_Li2CoSiO4
_symmetry_space_group_name_H-M   'P 1'
_cell_length_a   4.99386179
_cell_length_b   5.45892363
_cell_length_c   6.18243321
_cell_angle_alpha   89.92783966
_cell_angle_beta   90.02021731
_cell_angle_gamma   89.95725884
_symmetry_Int_Tables_number   1
_chemical_formula_structural   Li2CoSiO4
_chemical_formula_sum   'Li4 Co2 Si2 O8'
_cell_volume   168.53980173
_cell_formula_units_Z   2
loop_
 _symmetry_equiv_pos_site_id
 _symmetry_equiv_pos_as_xyz
  1  'x, y, z'
loop_
 _atom_site_type_symbol
 _atom_site_label
 _atom_site_symmetry_multiplicity
 _atom_site_fract_x
 _atom_site_fract_y
 _atom_site_fract_z
 _atom_site_occupancy
  Li  Li0  1  0.49339920  0.33098181  0.25103392  1
  Li  Li1  1  0.99315310  0.66843768  0.24916664  1
  Li  Li2  1  0.49141804  0.33147253  0.74755474  1
  Li  Li3  1  0.99242992  0.66896882  0.75269772  1
  Co  Co4  1  0.99279911  0.16057713  0.49954698  1
  Co  Co5  1  0.49365015  0.83909741  0.00123244  1
  Si  Si6  1  0.49932476  0.82753934  0.50072681  1
  Si  Si7  1  0.99949287  0.17239246  -0.00037518  1
  O  O8  1  0.89246869  0.31887722  0.21767197  1
  O  O9  1  0.39252003  0.68070609  0.28278718  1
  O  O10  1  0.39341594  0.11524331  0.49931327  1
  O  O11  1  0.83011174  0.82873775  0.50069310  1
  O  O12  1  0.39214988  0.68203580  0.71944148  1
  O  O13  1  0.89196393  0.31840819  0.78110788  1
  O  O14  1  0.89394868  0.88469739  0.00065581  1
  O  O15  1  0.33025595  0.17098008  0.99959824  1
