# generated using pymatgen
data_Ce4ThO10
_symmetry_space_group_name_H-M   'P 1'
_cell_length_a   3.89105933
_cell_length_b   6.73582232
_cell_length_c   16.02674944
_cell_angle_alpha   94.00188669
_cell_angle_beta   96.97213575
_cell_angle_gamma   90.00015987
_symmetry_Int_Tables_number   1
_chemical_formula_structural   Ce4ThO10
_chemical_formula_sum   'Ce8 Th2 O20'
_cell_volume   415.91482209
_cell_formula_units_Z   2
loop_
 _symmetry_equiv_pos_site_id
 _symmetry_equiv_pos_as_xyz
  1  'x, y, z'
loop_
 _atom_site_type_symbol
 _atom_site_label
 _atom_site_symmetry_multiplicity
 _atom_site_fract_x
 _atom_site_fract_y
 _atom_site_fract_z
 _atom_site_occupancy
  Ce  Ce0  1  0.40000000  0.80000000  0.80000000  1
  Ce  Ce1  1  0.69962762  0.90056347  0.39925878  1
  Ce  Ce2  1  0.90000000  0.30000000  0.80000000  1
  Ce  Ce3  1  0.10037238  0.69943653  0.20074122  1
  Ce  Ce4  1  0.29999096  0.10008531  0.59997664  1
  Ce  Ce5  1  0.19937578  0.39908722  0.39875574  1
  Ce  Ce6  1  0.60062422  0.20091278  0.20124426  1
  Ce  Ce7  1  0.50000904  0.49991469  0.00002336  1
  Th  Th8  1  0.79985272  0.59980789  0.59969971  1
  Th  Th9  1  0.00014728  0.00019211  0.00030029  1
  O  O10  1  0.92414619  0.97532977  0.84830513  1
  O  O11  1  0.47449839  0.82115608  0.94899331  1
  O  O12  1  0.32550161  0.77884392  0.65100669  1
  O  O13  1  0.42490082  0.47415577  0.84980691  1
  O  O14  1  0.97459149  0.32855497  0.94917527  1
  O  O15  1  0.87585381  0.62467023  0.75169487  1
  O  O16  1  0.77440881  0.92853907  0.54880775  1
  O  O17  1  0.17492073  0.72502695  0.34981300  1
  O  O18  1  0.72383267  0.57473599  0.44769190  1
  O  O19  1  0.62507927  0.87497305  0.25018700  1
  O  O20  1  0.27432285  0.42088581  0.54863627  1
  O  O21  1  0.37509918  0.12584423  0.75019309  1
  O  O22  1  0.82540851  0.27144503  0.65082473  1
  O  O23  1  0.67485393  0.22485333  0.34968422  1
  O  O24  1  0.22459134  0.07450820  0.44919944  1
  O  O25  1  0.12514607  0.37514667  0.25031578  1
  O  O26  1  0.57540866  0.52549180  0.15080056  1
  O  O27  1  0.02559119  0.67146093  0.05119225  1
  O  O28  1  0.52567715  0.17911419  0.05136373  1
  O  O29  1  0.07616733  0.02526401  0.15230810  1
