# generated using pymatgen
data_SrP2(H2O3)2
_symmetry_space_group_name_H-M   'P 1'
_cell_length_a   5.87750842
_cell_length_b   7.24755955
_cell_length_c   8.24920113
_cell_angle_alpha   98.02089090
_cell_angle_beta   104.28319592
_cell_angle_gamma   106.39942941
_symmetry_Int_Tables_number   1
_chemical_formula_structural   SrP2(H2O3)2
_chemical_formula_sum   'Sr2 P4 H8 O12'
_cell_volume   318.30205154
_cell_formula_units_Z   2
loop_
 _symmetry_equiv_pos_site_id
 _symmetry_equiv_pos_as_xyz
  1  'x, y, z'
loop_
 _atom_site_type_symbol
 _atom_site_label
 _atom_site_symmetry_multiplicity
 _atom_site_fract_x
 _atom_site_fract_y
 _atom_site_fract_z
 _atom_site_occupancy
  Sr  Sr0  1  0.33736604  0.71386387  0.54312172  1
  Sr  Sr1  1  0.66263396  0.28613613  0.45687828  1
  P  P2  1  0.04837377  0.26869468  0.17187286  1
  P  P3  1  0.32452589  0.24227419  0.71931893  1
  P  P4  1  0.67547411  0.75772581  0.28068107  1
  P  P5  1  0.95162623  0.73130532  0.82812714  1
  H  H6  1  0.05565166  0.94083444  0.29216285  1
  H  H7  1  0.22961963  0.95581678  0.05377726  1
  H  H8  1  0.15666596  0.39355509  0.07545977  1
  H  H9  1  0.40920865  0.28186577  0.90009158  1
  H  H10  1  0.59079135  0.71813423  0.09990842  1
  H  H11  1  0.84333404  0.60644491  0.92454023  1
  H  H12  1  0.77038037  0.04418322  0.94622274  1
  H  H13  1  0.94434834  0.05916556  0.70783715  1
  O  O14  1  0.22284483  0.85536842  0.95472876  1
  O  O15  1  0.02708247  0.18516357  0.67540488  1
  O  O16  1  0.01133695  0.38969217  0.32248292  1
  O  O17  1  0.42156691  0.42789605  0.65730743  1
  O  O18  1  0.20256509  0.13261979  0.21645767  1
  O  O19  1  0.59891602  0.92629509  0.35408584  1
  O  O20  1  0.40108398  0.07370491  0.64591416  1
  O  O21  1  0.79743491  0.86738021  0.78354233  1
  O  O22  1  0.57843309  0.57210395  0.34269257  1
  O  O23  1  0.98866305  0.61030783  0.67751708  1
  O  O24  1  0.97291753  0.81483643  0.32459512  1
  O  O25  1  0.77715517  0.14463158  0.04527124  1
