# generated using pymatgen
data_Li4V2SiGeO10
_symmetry_space_group_name_H-M   'P 1'
_cell_length_a   9.20922179
_cell_length_b   9.21028711
_cell_length_c   4.56157977
_cell_angle_alpha   90.00000000
_cell_angle_beta   90.00000000
_cell_angle_gamma   90.00000000
_symmetry_Int_Tables_number   1
_chemical_formula_structural   Li4V2SiGeO10
_chemical_formula_sum   'Li8 V4 Si2 Ge2 O20'
_cell_volume   386.91126542
_cell_formula_units_Z   2
loop_
 _symmetry_equiv_pos_site_id
 _symmetry_equiv_pos_as_xyz
  1  'x, y, z'
loop_
 _atom_site_type_symbol
 _atom_site_label
 _atom_site_symmetry_multiplicity
 _atom_site_fract_x
 _atom_site_fract_y
 _atom_site_fract_z
 _atom_site_occupancy
  Li  Li0  1  0.00000000  0.00000000  0.00000000  1
  Li  Li1  1  0.50000000  0.00000000  0.00000000  1
  Li  Li2  1  0.25000000  0.25289966  0.00000000  1
  Li  Li3  1  0.00000000  0.50000000  0.00000000  1
  Li  Li4  1  0.75000000  0.25289966  0.00000000  1
  Li  Li5  1  0.50000000  0.50000000  0.00000000  1
  Li  Li6  1  0.25000000  0.74710034  0.00000000  1
  Li  Li7  1  0.75000000  0.74710034  0.00000000  1
  V  V8  1  0.00000000  0.25412724  0.59093035  1
  V  V9  1  0.50000000  0.25412724  0.40906965  1
  V  V10  1  0.00000000  0.74587276  0.40906965  1
  V  V11  1  0.50000000  0.74587276  0.59093035  1
  Si  Si12  1  0.25000000  0.50000000  0.50000000  1
  Si  Si13  1  0.75000000  0.50000000  0.50000000  1
  Ge  Ge14  1  0.25000000  0.00000000  0.50000000  1
  Ge  Ge15  1  0.75000000  0.00000000  0.50000000  1
  O  O16  1  0.00000000  0.25086915  0.22321583  1
  O  O17  1  0.14312388  0.10894540  0.73480712  1
  O  O18  1  0.35687612  0.10894540  0.26519288  1
  O  O19  1  0.14759268  0.39937129  0.71667152  1
  O  O20  1  0.64312388  0.10894540  0.26519288  1
  O  O21  1  0.50000000  0.25086915  0.77678417  1
  O  O22  1  0.35240732  0.39937129  0.28332848  1
  O  O23  1  0.14759268  0.60062871  0.28332848  1
  O  O24  1  0.00000000  0.74913085  0.77678417  1
  O  O25  1  0.85687612  0.10894540  0.73480712  1
  O  O26  1  0.35240732  0.60062871  0.71667152  1
  O  O27  1  0.64759268  0.39937129  0.28332848  1
  O  O28  1  0.14312388  0.89105460  0.26519288  1
  O  O29  1  0.85240732  0.39937129  0.71667152  1
  O  O30  1  0.64759268  0.60062871  0.71667152  1
  O  O31  1  0.50000000  0.74913085  0.22321583  1
  O  O32  1  0.35687612  0.89105460  0.73480712  1
  O  O33  1  0.85240732  0.60062871  0.28332848  1
  O  O34  1  0.64312388  0.89105460  0.73480712  1
  O  O35  1  0.85687612  0.89105460  0.26519288  1
