# generated using pymatgen
data_Zr2N2O
_symmetry_space_group_name_H-M   'P 1'
_cell_length_a   8.88836411
_cell_length_b   8.85358170
_cell_length_c   8.88288976
_cell_angle_alpha   109.47042113
_cell_angle_beta   109.43537254
_cell_angle_gamma   109.47410267
_symmetry_Int_Tables_number   1
_chemical_formula_structural   Zr2N2O
_chemical_formula_sum   'Zr16 N16 O8'
_cell_volume   538.33673510
_cell_formula_units_Z   8
loop_
 _symmetry_equiv_pos_site_id
 _symmetry_equiv_pos_as_xyz
  1  'x, y, z'
loop_
 _atom_site_type_symbol
 _atom_site_label
 _atom_site_symmetry_multiplicity
 _atom_site_fract_x
 _atom_site_fract_y
 _atom_site_fract_z
 _atom_site_occupancy
  Zr  Zr0  1  0.78361098  0.24512912  0.04173576  1
  Zr  Zr1  1  0.99084019  0.99781196  0.98724941  1
  Zr  Zr2  1  0.48344006  0.99151682  0.49099472  1
  Zr  Zr3  1  0.50205706  0.49120657  0.99995033  1
  Zr  Zr4  1  0.53585507  0.28319115  0.24890729  1
  Zr  Zr5  1  0.97484003  0.21636931  0.75890251  1
  Zr  Zr6  1  0.74504323  0.46131990  0.71414679  1
  Zr  Zr7  1  0.74950366  0.96388946  0.21063067  1
  Zr  Zr8  1  0.29409719  0.25446750  0.54257448  1
  Zr  Zr9  1  0.71385199  0.75298635  0.46303071  1
  Zr  Zr10  1  0.24966505  0.03466510  0.77846934  1
  Zr  Zr11  1  0.25999398  0.53910620  0.28198916  1
  Zr  Zr12  1  0.03141439  0.78458705  0.24693840  1
  Zr  Zr13  1  0.00507625  0.50213794  0.51247193  1
  Zr  Zr14  1  0.46847843  0.72031307  0.74950723  1
  Zr  Zr15  1  0.20182383  0.74104058  0.95875184  1
  N  N16  1  0.76608971  0.23001192  0.27695824  1
  N  N17  1  0.77478213  0.73270971  0.24126972  1
  N  N18  1  0.49158878  0.22845589  0.45477721  1
  N  N19  1  0.45771070  0.48628722  0.22975695  1
  N  N20  1  0.04228715  0.27280969  0.03266729  1
  N  N21  1  0.96395764  0.95036768  0.72707161  1
  N  N22  1  0.53502091  0.25955858  0.98502117  1
  N  N23  1  0.27613467  0.75927735  0.22553694  1
  N  N24  1  0.95698027  0.73098543  0.96872274  1
  N  N25  1  0.54344659  0.51381971  0.77175442  1
  N  N26  1  0.51146649  0.77416826  0.54688229  1
  N  N27  1  0.22748390  0.27564137  0.76283407  1
  N  N28  1  0.00604511  0.46443975  0.73462064  1
  N  N29  1  0.72928387  0.96540642  0.96000474  1
  N  N30  1  0.25985285  0.98957507  0.53046049  1
  N  N31  1  0.23900928  0.76986249  0.72820483  1
  O  O32  1  0.73840693  0.01240119  0.46776141  1
  O  O33  1  0.27342954  0.03649346  0.04684051  1
  O  O34  1  0.99079180  0.53680655  0.26462280  1
  O  O35  1  0.77553606  0.54681382  0.51054784  1
  O  O36  1  0.46922735  0.74553487  0.01811992  1
  O  O37  1  0.03592539  0.05056376  0.27508382  1
  O  O38  1  0.72686270  0.23939770  0.77166627  1
  O  O39  1  0.21908978  0.44887505  0.48256150  1
