# generated using pymatgen
data_MgMnBiO5
_symmetry_space_group_name_H-M   'P 1'
_cell_length_a   5.38738777
_cell_length_b   7.65037294
_cell_length_c   11.63133117
_cell_angle_alpha   90.00000000
_cell_angle_beta   90.00000000
_cell_angle_gamma   107.63580763
_symmetry_Int_Tables_number   1
_chemical_formula_structural   MgMnBiO5
_chemical_formula_sum   'Mg4 Mn4 Bi4 O20'
_cell_volume   456.86075586
_cell_formula_units_Z   4
loop_
 _symmetry_equiv_pos_site_id
 _symmetry_equiv_pos_as_xyz
  1  'x, y, z'
loop_
 _atom_site_type_symbol
 _atom_site_label
 _atom_site_symmetry_multiplicity
 _atom_site_fract_x
 _atom_site_fract_y
 _atom_site_fract_z
 _atom_site_occupancy
  Mg  Mg0  1  0.62486918  0.17749159  0.92027128  1
  Mg  Mg1  1  0.37513082  0.82250841  0.07972872  1
  Mg  Mg2  1  0.87513082  0.32250841  0.42027128  1
  Mg  Mg3  1  0.12486918  0.67749159  0.57972872  1
  Mn  Mn4  1  0.78258116  0.97144723  0.64705321  1
  Mn  Mn5  1  0.21741884  0.02855277  0.35294679  1
  Mn  Mn6  1  0.71741884  0.52855277  0.14705321  1
  Mn  Mn7  1  0.28258116  0.47144723  0.85294679  1
  Bi  Bi8  1  0.11542471  0.17472627  0.10041323  1
  Bi  Bi9  1  0.88457529  0.82527373  0.89958677  1
  Bi  Bi10  1  0.61542471  0.67472627  0.39958677  1
  Bi  Bi11  1  0.38457529  0.32527373  0.60041323  1
  O  O12  1  0.57702421  0.32981474  0.07239601  1
  O  O13  1  0.02939258  0.32794199  0.92920509  1
  O  O14  1  0.48944071  0.63764637  0.17935796  1
  O  O15  1  0.75619933  0.51310055  0.52586755  1
  O  O16  1  0.80327773  0.48790212  0.28657712  1
  O  O17  1  0.30327773  0.98790212  0.21342288  1
  O  O18  1  0.52939258  0.82794199  0.57079491  1
  O  O19  1  0.47060742  0.17205801  0.42920509  1
  O  O20  1  0.24380067  0.48689945  0.47413245  1
  O  O21  1  0.92297579  0.17018526  0.57239601  1
  O  O22  1  0.19672227  0.51209788  0.71342288  1
  O  O23  1  0.42297579  0.67018526  0.92760399  1
  O  O24  1  0.07702421  0.82981474  0.42760399  1
  O  O25  1  0.69672227  0.01209788  0.78657712  1
  O  O26  1  0.74380067  0.98689945  0.02586755  1
  O  O27  1  0.25619933  0.01310055  0.97413245  1
  O  O28  1  0.51055929  0.36235363  0.82064204  1
  O  O29  1  0.97060742  0.67205801  0.07079491  1
  O  O30  1  0.01055929  0.86235363  0.67935796  1
  O  O31  1  0.98944071  0.13764637  0.32064204  1
