# generated using pymatgen
data_Li2CoSiO4
_symmetry_space_group_name_H-M   'P 1'
_cell_length_a   5.03420278
_cell_length_b   6.30714145
_cell_length_c   10.84456238
_cell_angle_alpha   90.07003173
_cell_angle_beta   90.00018181
_cell_angle_gamma   89.99988129
_symmetry_Int_Tables_number   1
_chemical_formula_structural   Li2CoSiO4
_chemical_formula_sum   'Li8 Co4 Si4 O16'
_cell_volume   344.33009547
_cell_formula_units_Z   4
loop_
 _symmetry_equiv_pos_site_id
 _symmetry_equiv_pos_as_xyz
  1  'x, y, z'
loop_
 _atom_site_type_symbol
 _atom_site_label
 _atom_site_symmetry_multiplicity
 _atom_site_fract_x
 _atom_site_fract_y
 _atom_site_fract_z
 _atom_site_occupancy
  Li  Li0  1  0.69667183  0.86784555  0.09237705  1
  Li  Li1  1  0.19378935  0.11590811  0.17236161  1
  Li  Li2  1  0.69901037  0.61502276  0.33006596  1
  Li  Li3  1  0.20577654  0.36786072  0.40972460  1
  Li  Li4  1  0.80333046  0.86783610  0.59237270  1
  Li  Li5  1  0.30621194  0.11590087  0.67236502  1
  Li  Li6  1  0.80099034  0.61503151  0.83006253  1
  Li  Li7  1  0.29421981  0.36785700  0.90972044  1
  Co  Co8  1  0.20008496  0.86096831  0.41360562  1
  Co  Co9  1  0.29992303  0.86095904  0.91360883  1
  Co  Co10  1  0.69200864  0.36099529  0.08849156  1
  Co  Co11  1  0.80799029  0.36098558  0.58849704  1
  Si  Si12  1  0.18720216  0.61491298  0.16441983  1
  Si  Si13  1  0.69246359  0.11478291  0.33735530  1
  Si  Si14  1  0.31279165  0.61491051  0.66442844  1
  Si  Si15  1  0.80754021  0.11477814  0.83736438  1
  O  O16  1  0.29466070  0.83204239  0.09537359  1
  O  O17  1  0.29147359  0.39823944  0.09375745  1
  O  O18  1  0.85860306  0.61368813  0.16189362  1
  O  O19  1  0.79655185  0.11657493  0.19244599  1
  O  O20  1  0.29794016  0.61612405  0.30843648  1
  O  O21  1  0.36375569  0.11356124  0.34025368  1
  O  O22  1  0.79883362  0.89836451  0.40739344  1
  O  O23  1  0.80161634  0.33158939  0.40647964  1
  O  O24  1  0.20533031  0.83203725  0.59536938  1
  O  O25  1  0.20852072  0.39822728  0.59376318  1
  O  O26  1  0.64139607  0.61368376  0.66189159  1
  O  O27  1  0.70344300  0.11656113  0.69244265  1
  O  O28  1  0.20206377  0.61612336  0.80843156  1
  O  O29  1  0.13624646  0.11354743  0.84025145  1
  O  O30  1  0.70116896  0.89836894  0.90739946  1
  O  O31  1  0.69840054  0.33159038  0.90647394  1
