# generated using pymatgen
data_Al4Cu13Si2(SbO14)2
_symmetry_space_group_name_H-M   'P 1'
_cell_length_a   5.47602634
_cell_length_b   8.55388393
_cell_length_c   11.81730493
_cell_angle_alpha   87.63934584
_cell_angle_beta   76.58011760
_cell_angle_gamma   79.85809850
_symmetry_Int_Tables_number   1
_chemical_formula_structural   Al4Cu13Si2(SbO14)2
_chemical_formula_sum   'Al4 Cu13 Si2 Sb2 O28'
_cell_volume   530.01064187
_cell_formula_units_Z   1
loop_
 _symmetry_equiv_pos_site_id
 _symmetry_equiv_pos_as_xyz
  1  'x, y, z'
loop_
 _atom_site_type_symbol
 _atom_site_label
 _atom_site_symmetry_multiplicity
 _atom_site_fract_x
 _atom_site_fract_y
 _atom_site_fract_z
 _atom_site_occupancy
  Al  Al0  1  0.07171983  0.66687233  0.42884615  1
  Al  Al1  1  0.50058539  0.33152156  0.42888410  1
  Al  Al2  1  0.92870695  0.33259610  0.57186099  1
  Al  Al3  1  0.49987907  0.66731051  0.57147763  1
  Cu  Cu4  1  0.92267470  0.63859194  0.71241070  1
  Cu  Cu5  1  0.66065044  0.35391692  0.13897090  1
  Cu  Cu6  1  0.36855602  0.36112525  0.71264187  1
  Cu  Cu7  1  0.08021658  0.36021892  0.28790595  1
  Cu  Cu8  1  0.34157221  0.64496239  0.86163909  1
  Cu  Cu9  1  0.29099119  0.99923970  0.41852659  1
  Cu  Cu10  1  0.20232578  0.64416681  0.13891538  1
  Cu  Cu11  1  0.00115850  0.99917506  0.99987260  1
  Cu  Cu12  1  0.42908298  0.99844281  0.14510707  1
  Cu  Cu13  1  0.80140365  0.35474443  0.86125018  1
  Cu  Cu14  1  0.63599977  0.63718111  0.28773796  1
  Cu  Cu15  1  0.57353895  0.99937861  0.85462657  1
  Cu  Cu16  1  0.70873028  0.00017286  0.58117394  1
  Si  Si17  1  0.22912963  0.31330935  0.00038917  1
  Si  Si18  1  0.77317093  0.68460546  0.00036581  1
  Sb  Sb19  1  0.86066750  0.99906811  0.28050165  1
  Sb  Sb20  1  0.14083233  0.99977206  0.71944878  1
  O  O21  1  0.67482230  0.40291993  0.29807026  1
  O  O22  1  0.16693798  0.36535818  0.44916365  1
  O  O23  1  0.92602631  0.35043627  0.00040211  1
  O  O24  1  0.30558079  0.11546069  0.00017141  1
  O  O25  1  0.83334296  0.63411279  0.55149716  1
  O  O26  1  0.32745912  0.59541360  0.70266062  1
  O  O27  1  0.99645817  0.11699103  0.58914512  1
  O  O28  1  0.00216289  0.88256470  0.41201471  1
  O  O29  1  0.69706708  0.88246901  0.00040834  1
  O  O30  1  0.12900214  0.87952676  0.14983547  1
  O  O31  1  0.28190031  0.38537200  0.11848748  1
  O  O32  1  0.02994070  0.59509719  0.29782115  1
  O  O33  1  0.41433219  0.88323672  0.58781701  1
  O  O34  1  0.72380273  0.11831666  0.14988050  1
  O  O35  1  0.60181945  0.61201492  0.11819886  1
  O  O36  1  0.07631834  0.64723664  0.00020310  1
  O  O37  1  0.27851542  0.87978075  0.85013168  1
  O  O38  1  0.87385629  0.11910876  0.85044521  1
  O  O39  1  0.58605937  0.11622913  0.41111162  1
  O  O40  1  0.13531211  0.12830106  0.28184113  1
  O  O41  1  0.86642356  0.87002738  0.71863441  1
  O  O42  1  0.39998117  0.38554759  0.88240550  1
  O  O43  1  0.41778388  0.12911921  0.71812696  1
  O  O44  1  0.61492875  0.36499683  0.55180711  1
  O  O45  1  0.71955650  0.61267558  0.88239795  1
  O  O46  1  0.58630742  0.86883690  0.28121764  1
  O  O47  1  0.97256195  0.40380241  0.70253445  1
  O  O48  1  0.38491947  0.63382001  0.44897032  1
