# generated using pymatgen
data_Na5Mn2P2(CO7)2
_symmetry_space_group_name_H-M   'P 1'
_cell_length_a   9.07357044
_cell_length_b   6.61776557
_cell_length_c   10.59050314
_cell_angle_alpha   90.00000000
_cell_angle_beta   89.25064445
_cell_angle_gamma   90.00000000
_symmetry_Int_Tables_number   1
_chemical_formula_structural   Na5Mn2P2(CO7)2
_chemical_formula_sum   'Na10 Mn4 P4 C4 O28'
_cell_volume   635.87103454
_cell_formula_units_Z   2
loop_
 _symmetry_equiv_pos_site_id
 _symmetry_equiv_pos_as_xyz
  1  'x, y, z'
loop_
 _atom_site_type_symbol
 _atom_site_label
 _atom_site_symmetry_multiplicity
 _atom_site_fract_x
 _atom_site_fract_y
 _atom_site_fract_z
 _atom_site_occupancy
  Na  Na0  1  0.07850521  0.25000000  0.38088157  1
  Na  Na1  1  0.25580127  0.00650869  0.63145757  1
  Na  Na2  1  0.25580127  0.49349131  0.63145757  1
  Na  Na3  1  0.23758012  0.99937639  0.11381684  1
  Na  Na4  1  0.23758012  0.50062361  0.11381684  1
  Na  Na5  1  0.76241988  0.49937639  0.88618316  1
  Na  Na6  1  0.76241988  0.00062361  0.88618316  1
  Na  Na7  1  0.74419873  0.50650869  0.36854243  1
  Na  Na8  1  0.74419873  0.99349131  0.36854243  1
  Na  Na9  1  0.92149479  0.75000000  0.61911843  1
  Mn  Mn10  1  0.35802706  0.75000000  0.88931126  1
  Mn  Mn11  1  0.35510355  0.75000000  0.38805777  1
  Mn  Mn12  1  0.64489645  0.25000000  0.61194223  1
  Mn  Mn13  1  0.64197294  0.25000000  0.11068874  1
  P  P14  1  0.42392595  0.25000000  0.85153325  1
  P  P15  1  0.41950170  0.25000000  0.34993247  1
  P  P16  1  0.58049830  0.75000000  0.65006753  1
  P  P17  1  0.57607405  0.75000000  0.14846675  1
  C  C18  1  0.07017580  0.75000000  0.85876839  1
  C  C19  1  0.06586537  0.75000000  0.37008068  1
  C  C20  1  0.93413463  0.25000000  0.62991932  1
  C  C21  1  0.92982420  0.25000000  0.14123161  1
  O  O22  1  0.07547338  0.25000000  0.62522925  1
  O  O23  1  0.07010885  0.25000000  0.14550482  1
  O  O24  1  0.14210256  0.75000000  0.96592037  1
  O  O25  1  0.13748726  0.75000000  0.47806684  1
  O  O26  1  0.15096366  0.75000000  0.75603140  1
  O  O27  1  0.14404178  0.75000000  0.26699305  1
  O  O28  1  0.33291615  0.06041184  0.89069608  1
  O  O29  1  0.33291615  0.43958816  0.89069608  1
  O  O30  1  0.32371596  0.06506060  0.38654823  1
  O  O31  1  0.32371596  0.43493940  0.38654823  1
  O  O32  1  0.44236809  0.25000000  0.70440179  1
  O  O33  1  0.42990398  0.75000000  0.58418930  1
  O  O34  1  0.44510738  0.25000000  0.20205585  1
  O  O35  1  0.42222030  0.75000000  0.08691505  1
  O  O36  1  0.57777970  0.25000000  0.91308495  1
  O  O37  1  0.55489262  0.75000000  0.79794415  1
  O  O38  1  0.57009602  0.25000000  0.41581070  1
  O  O39  1  0.55763191  0.75000000  0.29559821  1
  O  O40  1  0.67628404  0.56506060  0.61345177  1
  O  O41  1  0.67628404  0.93493940  0.61345177  1
  O  O42  1  0.66708385  0.56041184  0.10930392  1
  O  O43  1  0.66708385  0.93958816  0.10930392  1
  O  O44  1  0.85595822  0.25000000  0.73300695  1
  O  O45  1  0.84903634  0.25000000  0.24396860  1
  O  O46  1  0.86251274  0.25000000  0.52193316  1
  O  O47  1  0.85789744  0.25000000  0.03407963  1
  O  O48  1  0.92989115  0.75000000  0.85449518  1
  O  O49  1  0.92452662  0.75000000  0.37477075  1
