# generated using pymatgen
data_Na3Mn2P2(CO7)2
_symmetry_space_group_name_H-M   'P 1'
_cell_length_a   9.01112823
_cell_length_b   8.37384555
_cell_length_c   8.42750162
_cell_angle_alpha   103.28920191
_cell_angle_beta   88.94690197
_cell_angle_gamma   88.93409417
_symmetry_Int_Tables_number   1
_chemical_formula_structural   Na3Mn2P2(CO7)2
_chemical_formula_sum   'Na6 Mn4 P4 C4 O28'
_cell_volume   618.61731850
_cell_formula_units_Z   2
loop_
 _symmetry_equiv_pos_site_id
 _symmetry_equiv_pos_as_xyz
  1  'x, y, z'
loop_
 _atom_site_type_symbol
 _atom_site_label
 _atom_site_symmetry_multiplicity
 _atom_site_fract_x
 _atom_site_fract_y
 _atom_site_fract_z
 _atom_site_occupancy
  Na  Na0  1  0.75785371  0.38091027  0.37089620  1
  Na  Na1  1  0.75534911  0.11327614  0.65082770  1
  Na  Na2  1  0.76571591  0.62628779  0.12540597  1
  Na  Na3  1  0.24476888  0.10573474  0.14278807  1
  Na  Na4  1  0.24203037  0.38424235  0.87524954  1
  Na  Na5  1  0.23460202  0.61680370  0.61744116  1
  Mn  Mn6  1  0.65562181  0.48868223  0.72919111  1
  Mn  Mn7  1  0.64905055  0.98288336  0.23044404  1
  Mn  Mn8  1  0.34237716  0.52844338  0.26435052  1
  Mn  Mn9  1  0.35346904  0.01678524  0.76326356  1
  P  P10  1  0.57409361  0.26757419  0.02211478  1
  P  P11  1  0.57115717  0.76765523  0.50893356  1
  P  P12  1  0.42770641  0.23023196  0.48916634  1
  P  P13  1  0.42596109  0.73668019  0.97372456  1
  C  C14  1  0.91825891  0.00852807  0.26349033  1
  C  C15  1  0.92327979  0.50875949  0.75775954  1
  C  C16  1  0.07572440  0.48755944  0.24162197  1
  C  C17  1  0.08360930  0.99217108  0.74205320  1
  O  O18  1  0.93922104  0.47223799  0.22543974  1
  O  O19  1  0.94871664  0.97794934  0.72897325  1
  O  O20  1  0.85619794  0.39844576  0.64472908  1
  O  O21  1  0.85379420  0.89816082  0.15119883  1
  O  O22  1  0.81562083  0.10276290  0.36049610  1
  O  O23  1  0.82712828  0.60554220  0.85446564  1
  O  O24  1  0.66727360  0.14328759  0.09241148  1
  O  O25  1  0.67174407  0.64108831  0.56130448  1
  O  O26  1  0.67066313  0.32304452  0.89453141  1
  O  O27  1  0.66560216  0.82817709  0.37769947  1
  O  O28  1  0.53191789  0.41858852  0.16495816  1
  O  O29  1  0.57735371  0.30291722  0.55791350  1
  O  O30  1  0.56986945  0.80601767  0.05855412  1
  O  O31  1  0.53452588  0.91783489  0.65545203  1
  O  O32  1  0.46666864  0.08468850  0.33967004  1
  O  O33  1  0.42638319  0.19191551  0.94807865  1
  O  O34  1  0.42264933  0.69473660  0.44302516  1
  O  O35  1  0.46849694  0.59471781  0.82191894  1
  O  O36  1  0.33946050  0.17125872  0.62620842  1
  O  O37  1  0.32621112  0.35416998  0.43549844  1
  O  O38  1  0.32067200  0.66761412  0.08234549  1
  O  O39  1  0.33745298  0.87286213  0.91288754  1
  O  O40  1  0.17630220  0.39158058  0.14622350  1
  O  O41  1  0.18391681  0.89626574  0.64689186  1
  O  O42  1  0.15043448  0.10482509  0.85258056  1
  O  O43  1  0.13789584  0.60043601  0.35252649  1
  O  O44  1  0.05274906  0.02637037  0.27872142  1
  O  O45  1  0.06044986  0.51719617  0.76867408  1
