# generated using pymatgen
data_Ca4Ta2O9
_symmetry_space_group_name_H-M   'P 1'
_cell_length_a   5.66773625
_cell_length_b   5.66772874
_cell_length_c   14.92344975
_cell_angle_alpha   89.99992646
_cell_angle_beta   90.00003904
_cell_angle_gamma   120.00008152
_symmetry_Int_Tables_number   1
_chemical_formula_structural   Ca4Ta2O9
_chemical_formula_sum   'Ca8 Ta4 O18'
_cell_volume   415.16256908
_cell_formula_units_Z   2
loop_
 _symmetry_equiv_pos_site_id
 _symmetry_equiv_pos_as_xyz
  1  'x, y, z'
loop_
 _atom_site_type_symbol
 _atom_site_label
 _atom_site_symmetry_multiplicity
 _atom_site_fract_x
 _atom_site_fract_y
 _atom_site_fract_z
 _atom_site_occupancy
  Ca  Ca0  1  0.33331195  0.66666736  0.02304230  1
  Ca  Ca1  1  0.33332457  0.66667270  0.30455837  1
  Ca  Ca2  1  0.33333049  0.66666890  0.80455783  1
  Ca  Ca3  1  0.33333678  0.66666521  0.52304330  1
  Ca  Ca4  1  0.66665189  0.33333305  0.19544233  1
  Ca  Ca5  1  0.66666974  0.33333054  0.69544263  1
  Ca  Ca6  1  0.66665264  0.33333951  0.47695786  1
  Ca  Ca7  1  0.66666662  0.33333041  0.97695648  1
  Ta  Ta8  1  0.99999219  0.00000122  0.14721621  1
  Ta  Ta9  1  0.99999083  0.00000362  0.35278389  1
  Ta  Ta10  1  0.00000183  0.99999813  0.64721752  1
  Ta  Ta11  1  0.99999406  0.99999858  0.85278483  1
  O  O12  1  0.99999957  0.73825492  0.75000126  1
  O  O13  1  0.03640523  0.71414023  0.41036009  1
  O  O14  1  0.28586421  0.96358975  0.91035859  1
  O  O15  1  0.03639933  0.32227110  0.91035974  1
  O  O16  1  0.99998995  0.26174733  0.24999927  1
  O  O17  1  0.26174193  0.26174209  0.75000060  1
  O  O18  1  0.28585631  0.32227282  0.41035740  1
  O  O19  1  0.67772444  0.96359761  0.41036053  1
  O  O20  1  0.32226289  0.28586291  0.08963746  1
  O  O21  1  0.26172584  0.00000018  0.24999886  1
  O  O22  1  0.67772098  0.71413262  0.91036166  1
  O  O23  1  0.32226903  0.03640436  0.58964171  1
  O  O24  1  0.71412971  0.67772327  0.58964178  1
  O  O25  1  0.73824349  0.73825708  0.24999907  1
  O  O26  1  0.96357811  0.67772435  0.08963984  1
  O  O27  1  0.71411687  0.03640478  0.08964080  1
  O  O28  1  0.73825592  0.99999598  0.75000009  1
  O  O29  1  0.96359161  0.28586838  0.58964069  1
