# generated using pymatgen
data_FePO4
_symmetry_space_group_name_H-M   'P 1'
_cell_length_a   10.49857678
_cell_length_b   14.26928720
_cell_length_c   5.25792678
_cell_angle_alpha   90.00000000
_cell_angle_beta   90.00000000
_cell_angle_gamma   90.00000000
_symmetry_Int_Tables_number   1
_chemical_formula_structural   FePO4
_chemical_formula_sum   'Fe8 P8 O32'
_cell_volume   787.67532692
_cell_formula_units_Z   8
loop_
 _symmetry_equiv_pos_site_id
 _symmetry_equiv_pos_as_xyz
  1  'x, y, z'
loop_
 _atom_site_type_symbol
 _atom_site_label
 _atom_site_symmetry_multiplicity
 _atom_site_fract_x
 _atom_site_fract_y
 _atom_site_fract_z
 _atom_site_occupancy
  Fe  Fe0  1  0.03251482  0.50294230  0.92887209  1
  Fe  Fe1  1  0.21677266  0.75051829  0.55019438  1
  Fe  Fe2  1  0.28322734  0.25051829  0.55019438  1
  Fe  Fe3  1  0.46748518  0.00294230  0.92887209  1
  Fe  Fe4  1  0.53251482  0.50294230  0.07112791  1
  Fe  Fe5  1  0.71677266  0.75051829  0.44980562  1
  Fe  Fe6  1  0.78322734  0.25051829  0.44980562  1
  Fe  Fe7  1  0.96748518  0.00294230  0.07112791  1
  P  P8  1  0.03469181  0.37570484  0.43120948  1
  P  P9  1  0.21905136  0.12804720  0.05088546  1
  P  P10  1  0.28094864  0.62804720  0.05088546  1
  P  P11  1  0.46530819  0.87570484  0.43120948  1
  P  P12  1  0.53469181  0.37570484  0.56879052  1
  P  P13  1  0.71905136  0.12804720  0.94911454  1
  P  P14  1  0.78094864  0.62804720  0.94911454  1
  P  P15  1  0.96530819  0.87570484  0.56879052  1
  O  O16  1  0.01046026  0.39971852  0.14865233  1
  O  O17  1  0.04582601  0.78869743  0.49792840  1
  O  O18  1  0.00252389  0.96179679  0.40530119  1
  O  O19  1  0.07580168  0.10648013  0.01002019  1
  O  O20  1  0.17715319  0.35355927  0.47734252  1
  O  O21  1  0.24269758  0.71497740  0.89320251  1
  O  O22  1  0.20359503  0.54089265  0.96742404  1
  O  O23  1  0.24498022  0.14835718  0.33544420  1
  O  O24  1  0.25501978  0.64835718  0.33544420  1
  O  O25  1  0.29640497  0.04089265  0.96742404  1
  O  O26  1  0.25730242  0.21497740  0.89320251  1
  O  O27  1  0.32284681  0.85355927  0.47734252  1
  O  O28  1  0.42419832  0.60648013  0.01002019  1
  O  O29  1  0.49747611  0.46179679  0.40530119  1
  O  O30  1  0.45417399  0.28869743  0.49792840  1
  O  O31  1  0.48953974  0.89971852  0.14865233  1
  O  O32  1  0.51046026  0.39971852  0.85134767  1
  O  O33  1  0.54582601  0.78869743  0.50207160  1
  O  O34  1  0.50252389  0.96179679  0.59469881  1
  O  O35  1  0.57580168  0.10648013  0.98997981  1
  O  O36  1  0.67715319  0.35355927  0.52265748  1
  O  O37  1  0.74269758  0.71497740  0.10679749  1
  O  O38  1  0.70359503  0.54089265  0.03257596  1
  O  O39  1  0.74498022  0.14835718  0.66455580  1
  O  O40  1  0.75501978  0.64835718  0.66455580  1
  O  O41  1  0.79640497  0.04089265  0.03257596  1
  O  O42  1  0.75730242  0.21497740  0.10679749  1
  O  O43  1  0.82284681  0.85355927  0.52265748  1
  O  O44  1  0.92419832  0.60648013  0.98997981  1
  O  O45  1  0.99747611  0.46179679  0.59469881  1
  O  O46  1  0.95417399  0.28869743  0.50207160  1
  O  O47  1  0.98953974  0.89971852  0.85134767  1
