# generated using pymatgen
data_DyInO3
_symmetry_space_group_name_H-M   'P 1'
_cell_length_a   6.37212096
_cell_length_b   6.37232646
_cell_length_c   12.34008985
_cell_angle_alpha   89.99971095
_cell_angle_beta   90.00049494
_cell_angle_gamma   120.00242366
_symmetry_Int_Tables_number   1
_chemical_formula_structural   DyInO3
_chemical_formula_sum   'Dy6 In6 O18'
_cell_volume   433.93069798
_cell_formula_units_Z   6
loop_
 _symmetry_equiv_pos_site_id
 _symmetry_equiv_pos_as_xyz
  1  'x, y, z'
loop_
 _atom_site_type_symbol
 _atom_site_label
 _atom_site_symmetry_multiplicity
 _atom_site_fract_x
 _atom_site_fract_y
 _atom_site_fract_z
 _atom_site_occupancy
  Dy  Dy0  1  0.33333639  0.66667731  0.23013439  1
  Dy  Dy1  1  0.00000258  0.00000820  0.26555925  1
  Dy  Dy2  1  0.99998349  0.99999222  0.76555455  1
  Dy  Dy3  1  0.33332201  0.66666123  0.73013786  1
  Dy  Dy4  1  0.66666034  0.33331889  0.73013411  1
  Dy  Dy5  1  0.66665711  0.33334531  0.23014133  1
  In  In6  1  -0.00000067  0.66643189  0.49590374  1
  In  In7  1  0.99999501  0.33354799  0.99588016  1
  In  In8  1  0.33353927  0.33368765  0.49589140  1
  In  In9  1  0.66646310  0.66633715  0.99584606  1
  In  In10  1  0.33357110  0.00014145  0.99585076  1
  In  In11  1  0.66640802  0.99986149  0.49588071  1
  O  O12  1  0.99998971  0.69443105  0.66835959  1
  O  O13  1  0.99999548  0.63697046  0.32549497  1
  O  O14  1  0.99998763  0.36300871  0.82552616  1
  O  O15  1  0.99998899  0.30556809  0.16838790  1
  O  O16  1  0.33334754  0.66669040  0.02707865  1
  O  O17  1  0.99999334  0.99998870  0.46202439  1
  O  O18  1  0.33332642  0.66667068  0.52709562  1
  O  O19  1  -0.00000312  0.00001229  0.96200851  1
  O  O20  1  0.30555482  0.30556027  0.66837382  1
  O  O21  1  0.36301490  0.36304054  0.32550211  1
  O  O22  1  0.30557065  0.00001335  0.16838411  1
  O  O23  1  0.63697814  0.63697108  0.82551470  1
  O  O24  1  0.69443585  0.69444332  0.16838367  1
  O  O25  1  0.36299259  0.99997951  0.82551706  1
  O  O26  1  0.66664161  0.33330468  0.52709233  1
  O  O27  1  0.66666048  0.33333545  0.02708041  1
  O  O28  1  0.63696901  0.00001285  0.32549315  1
  O  O29  1  0.69441821  0.99999079  0.66836152  1
