# generated using pymatgen
data_VPO4
_symmetry_space_group_name_H-M   'P 1'
_cell_length_a   8.77262942
_cell_length_b   6.59259967
_cell_length_c   4.76465931
_cell_angle_alpha   90.00000000
_cell_angle_beta   90.00000000
_cell_angle_gamma   90.00000000
_symmetry_Int_Tables_number   1
_chemical_formula_structural   VPO4
_chemical_formula_sum   'V4 P4 O16'
_cell_volume   275.56137354
_cell_formula_units_Z   4
loop_
 _symmetry_equiv_pos_site_id
 _symmetry_equiv_pos_as_xyz
  1  'x, y, z'
loop_
 _atom_site_type_symbol
 _atom_site_label
 _atom_site_symmetry_multiplicity
 _atom_site_fract_x
 _atom_site_fract_y
 _atom_site_fract_z
 _atom_site_occupancy
  V  V0  1  0.00000000  0.00000000  0.00000000  1
  V  V1  1  0.00000000  0.50000000  0.00000000  1
  V  V2  1  0.50000000  0.00000000  0.50000000  1
  V  V3  1  0.50000000  0.50000000  0.50000000  1
  P  P4  1  0.17602085  0.25000000  0.47787352  1
  P  P5  1  0.32397915  0.75000000  0.97787352  1
  P  P6  1  0.67602085  0.25000000  0.02212648  1
  P  P7  1  0.82397915  0.75000000  0.52212648  1
  O  O8  1  0.12048988  0.05462459  0.33550866  1
  O  O9  1  0.12048988  0.44537541  0.33550866  1
  O  O10  1  0.11862759  0.25000000  0.78962942  1
  O  O11  1  0.14497152  0.75000000  0.94640915  1
  O  O12  1  0.35502848  0.25000000  0.44640915  1
  O  O13  1  0.38137241  0.75000000  0.28962942  1
  O  O14  1  0.37951012  0.55462459  0.83550866  1
  O  O15  1  0.37951012  0.94537541  0.83550866  1
  O  O16  1  0.62048988  0.05462459  0.16449134  1
  O  O17  1  0.62048988  0.44537541  0.16449134  1
  O  O18  1  0.61862759  0.25000000  0.71037058  1
  O  O19  1  0.64497152  0.75000000  0.55359085  1
  O  O20  1  0.85502848  0.25000000  0.05359085  1
  O  O21  1  0.88137241  0.75000000  0.21037058  1
  O  O22  1  0.87951012  0.55462459  0.66449134  1
  O  O23  1  0.87951012  0.94537541  0.66449134  1
