# generated using pymatgen
data_Li9Mn15O32
_symmetry_space_group_name_H-M   'P 1'
_cell_length_a   8.40519247
_cell_length_b   10.23122205
_cell_length_c   8.36423390
_cell_angle_alpha   66.03187440
_cell_angle_beta   90.16416571
_cell_angle_gamma   114.20369615
_symmetry_Int_Tables_number   1
_chemical_formula_structural   Li9Mn15O32
_chemical_formula_sum   'Li9 Mn15 O32'
_cell_volume   587.81059755
_cell_formula_units_Z   1
loop_
 _symmetry_equiv_pos_site_id
 _symmetry_equiv_pos_as_xyz
  1  'x, y, z'
loop_
 _atom_site_type_symbol
 _atom_site_label
 _atom_site_symmetry_multiplicity
 _atom_site_fract_x
 _atom_site_fract_y
 _atom_site_fract_z
 _atom_site_occupancy
  Li  Li0  1  0.99845454  0.99861747  0.50076402  1
  Li  Li1  1  0.43447466  0.12012617  0.31777300  1
  Li  Li2  1  0.93836362  0.11837906  0.81267456  1
  Li  Li3  1  0.30625530  0.37392390  0.43759254  1
  Li  Li4  1  0.80754596  0.37780288  0.93183581  1
  Li  Li5  1  0.19273117  0.62088742  0.07082612  1
  Li  Li6  1  0.69229945  0.62705180  0.56548343  1
  Li  Li7  1  0.56789699  0.87899442  0.68109838  1
  Li  Li8  1  0.05862083  0.87791771  0.19013399  1
  Mn  Mn9  1  0.24135181  0.99329505  0.75412338  1
  Mn  Mn10  1  0.75463593  0.00510384  0.25177524  1
  Mn  Mn11  1  0.50068052  0.00019444  0.00235629  1
  Mn  Mn12  1  0.36598114  0.24840691  0.86835314  1
  Mn  Mn13  1  0.62018609  0.25104978  0.62188217  1
  Mn  Mn14  1  0.12092881  0.25017270  0.12501185  1
  Mn  Mn15  1  0.88150654  0.25221742  0.37147841  1
  Mn  Mn16  1  0.00084224  0.49949035  0.50004812  1
  Mn  Mn17  1  0.75149966  0.50079378  0.25082837  1
  Mn  Mn18  1  0.24716917  0.49743467  0.74914536  1
  Mn  Mn19  1  0.50229055  0.50000866  0.99687644  1
  Mn  Mn20  1  0.38368910  0.74963834  0.38110474  1
  Mn  Mn21  1  0.87656914  0.74633180  0.87390537  1
  Mn  Mn22  1  0.12196702  0.74877484  0.62866307  1
  Mn  Mn23  1  0.62850396  0.74728681  0.13474395  1
  O  O24  1  0.48817745  0.01321802  0.75917499  1
  O  O25  1  0.26856177  0.01466600  0.98125170  1
  O  O26  1  0.76504059  0.02890313  0.46765518  1
  O  O27  1  0.99194892  0.02590089  0.23677573  1
  O  O28  1  0.34673408  0.22243092  0.65267536  1
  O  O29  1  0.10884576  0.25751410  0.34610981  1
  O  O30  1  0.59844324  0.25945460  0.84887051  1
  O  O31  1  0.88469994  0.24421927  0.13913533  1
  O  O32  1  0.14029527  0.26384964  0.88105070  1
  O  O33  1  0.36326532  0.26326865  0.09899912  1
  O  O34  1  0.65050850  0.26695260  0.37764950  1
  O  O35  1  0.88991074  0.26860575  0.59380072  1
  O  O36  1  0.98090004  0.49140240  0.27033813  1
  O  O37  1  0.46467387  0.47885282  0.75057744  1
  O  O38  1  0.76157336  0.48839756  0.48965764  1
  O  O39  1  0.25577551  0.48889909  0.98416397  1
  O  O40  1  0.23531977  0.50744994  0.51366929  1
  O  O41  1  0.02012047  0.50896811  0.73039728  1
  O  O42  1  0.74642926  0.50886808  0.01571811  1
  O  O43  1  0.53017508  0.51093564  0.24873267  1
  O  O44  1  0.63960273  0.73050705  0.87955068  1
  O  O45  1  0.11707407  0.73177265  0.40630972  1
  O  O46  1  0.35090928  0.73120276  0.62470065  1
  O  O47  1  0.85760894  0.73268333  0.11825009  1
  O  O48  1  0.39465922  0.74086027  0.15717926  1
  O  O49  1  0.11889825  0.75758343  0.86117199  1
  O  O50  1  0.89554655  0.74171162  0.65142510  1
  O  O51  1  0.64409155  0.78191725  0.37243048  1
  O  O52  1  0.23761695  0.97452301  0.53567642  1
  O  O53  1  0.00529848  0.97128061  0.76529217  1
  O  O54  1  0.72954269  0.98653127  0.02333934  1
  O  O55  1  0.51456815  0.99502534  0.23853616  1
