# generated using pymatgen
data_ZnCr3(SO4)6
_symmetry_space_group_name_H-M   'P 1'
_cell_length_a   8.31743685
_cell_length_b   8.88010274
_cell_length_c   8.31743653
_cell_angle_alpha   117.92521185
_cell_angle_beta   60.00000275
_cell_angle_gamma   117.92521318
_symmetry_Int_Tables_number   1
_chemical_formula_structural   ZnCr3(SO4)6
_chemical_formula_sum   'Zn1 Cr3 S6 O24'
_cell_volume   447.51994800
_cell_formula_units_Z   1
loop_
 _symmetry_equiv_pos_site_id
 _symmetry_equiv_pos_as_xyz
  1  'x, y, z'
loop_
 _atom_site_type_symbol
 _atom_site_label
 _atom_site_symmetry_multiplicity
 _atom_site_fract_x
 _atom_site_fract_y
 _atom_site_fract_z
 _atom_site_occupancy
  Zn  Zn0  1  0.14874595  0.44623786  0.14874595  1
  Cr  Cr1  1  0.35530163  0.06590390  0.35530163  1
  Cr  Cr2  1  0.64449030  0.93346991  0.64449030  1
  Cr  Cr3  1  0.84946956  0.54840869  0.84946956  1
  S  S4  1  0.03885913  0.25051872  0.46583959  1
  S  S5  1  0.53861092  0.74933314  0.25377252  1
  S  S6  1  0.25377252  0.74933314  0.95694870  1
  S  S7  1  0.74582000  0.25051872  0.03885913  1
  S  S8  1  0.46583959  0.25051872  0.74582000  1
  S  S9  1  0.95694870  0.74933314  0.53861092  1
  O  O10  1  0.29797069  0.92219826  0.10847115  1
  O  O11  1  0.10847115  0.92219826  0.51575642  1
  O  O12  1  0.00839873  0.28989940  0.33281385  1
  O  O13  1  0.02366768  0.39511963  0.65753736  1
  O  O14  1  0.35084703  0.60715531  0.28846469  1
  O  O15  1  0.04866279  0.70557593  0.98165662  1
  O  O16  1  0.51575642  0.92219826  0.29797069  1
  O  O17  1  0.23567734  0.23220075  0.38278059  1
  O  O18  1  0.67525752  0.70557593  0.04866279  1
  O  O19  1  0.38275976  0.77291222  0.76044910  1
  O  O20  1  0.62970336  0.77291222  0.38275976  1
  O  O21  1  0.28846469  0.60715531  0.96784360  1
  O  O22  1  0.71391358  0.39511963  0.02366768  1
  O  O23  1  0.38278059  0.23220075  0.61374381  1
  O  O24  1  0.61374381  0.23220075  0.23567734  1
  O  O25  1  0.33281385  0.28989940  0.94868682  1
  O  O26  1  0.76044910  0.77291222  0.62970336  1
  O  O27  1  0.49471755  0.07708019  0.68971380  1
  O  O28  1  0.94868682  0.28989940  0.00839873  1
  O  O29  1  0.65753736  0.39511963  0.71391358  1
  O  O30  1  0.96784360  0.60715531  0.35084703  1
  O  O31  1  0.98165662  0.70557593  0.67525752  1
  O  O32  1  0.89264884  0.07708019  0.49471755  1
  O  O33  1  0.68971380  0.07708019  0.89264884  1
