# generated using pymatgen
data_Li4MnCr3(PO4)4
_symmetry_space_group_name_H-M   'P 1'
_cell_length_a   4.77923627
_cell_length_b   10.32667475
_cell_length_c   6.31625327
_cell_angle_alpha   90.00000000
_cell_angle_beta   90.00000000
_cell_angle_gamma   89.35086769
_symmetry_Int_Tables_number   1
_chemical_formula_structural   Li4MnCr3(PO4)4
_chemical_formula_sum   'Li4 Mn1 Cr3 P4 O16'
_cell_volume   311.70994796
_cell_formula_units_Z   1
loop_
 _symmetry_equiv_pos_site_id
 _symmetry_equiv_pos_as_xyz
  1  'x, y, z'
loop_
 _atom_site_type_symbol
 _atom_site_label
 _atom_site_symmetry_multiplicity
 _atom_site_fract_x
 _atom_site_fract_y
 _atom_site_fract_z
 _atom_site_occupancy
  Li  Li0  1  0.00354815  0.00204610  0.99919901  1
  Li  Li1  1  0.00354815  0.00204610  0.50080099  1
  Li  Li2  1  0.49974278  0.49871495  0.50161315  1
  Li  Li3  1  0.49974278  0.49871495  0.99838685  1
  Mn  Mn4  1  0.03049432  0.71804957  0.75000000  1
  Cr  Cr5  1  0.45134228  0.21553083  0.75000000  1
  Cr  Cr6  1  0.55047863  0.78454057  0.25000000  1
  Cr  Cr7  1  0.94920628  0.28499885  0.25000000  1
  P  P8  1  0.08428863  0.59374198  0.25000000  1
  P  P9  1  0.41989359  0.09423678  0.25000000  1
  P  P10  1  0.58283986  0.90909865  0.75000000  1
  P  P11  1  0.91381398  0.40380664  0.75000000  1
  O  O12  1  0.19325526  0.45048267  0.25000000  1
  O  O13  1  0.21519492  0.65956131  0.05109856  1
  O  O14  1  0.21519492  0.65956131  0.44890144  1
  O  O15  1  0.23865306  0.39832057  0.75000000  1
  O  O16  1  0.26039993  0.90629511  0.75000000  1
  O  O17  1  0.28675491  0.16068648  0.05238712  1
  O  O18  1  0.28675491  0.16068648  0.44761288  1
  O  O19  1  0.31105465  0.95181482  0.25000000  1
  O  O20  1  0.70041353  0.04962662  0.75000000  1
  O  O21  1  0.71701766  0.83888694  0.55460485  1
  O  O22  1  0.71701766  0.83888694  0.94539515  1
  O  O23  1  0.74421677  0.10096747  0.25000000  1
  O  O24  1  0.75997588  0.60224787  0.25000000  1
  O  O25  1  0.78620440  0.33595260  0.55245655  1
  O  O26  1  0.78620440  0.33595260  0.94754345  1
  O  O27  1  0.79274469  0.54454323  0.75000000  1
