# generated using pymatgen
data_Na5Ni2P2(CO7)2
_symmetry_space_group_name_H-M   'P 1'
_cell_length_a   8.88374184
_cell_length_b   5.17569966
_cell_length_c   13.32133581
_cell_angle_alpha   90.02358514
_cell_angle_beta   90.16177073
_cell_angle_gamma   88.40679200
_symmetry_Int_Tables_number   1
_chemical_formula_structural   Na5Ni2P2(CO7)2
_chemical_formula_sum   'Na10 Ni4 P4 C4 O28'
_cell_volume   612.27016028
_cell_formula_units_Z   2
loop_
 _symmetry_equiv_pos_site_id
 _symmetry_equiv_pos_as_xyz
  1  'x, y, z'
loop_
 _atom_site_type_symbol
 _atom_site_label
 _atom_site_symmetry_multiplicity
 _atom_site_fract_x
 _atom_site_fract_y
 _atom_site_fract_z
 _atom_site_occupancy
  Na  Na0  1  0.08098602  0.77427612  0.62447489  1
  Na  Na1  1  0.26309070  0.24900489  0.00650207  1
  Na  Na2  1  0.25362505  0.24258114  0.24250120  1
  Na  Na3  1  0.26598198  0.25078567  0.50483358  1
  Na  Na4  1  0.27190133  0.25449778  0.74665622  1
  Na  Na5  1  0.74637495  0.75741886  0.25749880  1
  Na  Na6  1  0.73690930  0.75099511  0.49349793  1
  Na  Na7  1  0.72809867  0.74550222  0.75334378  1
  Na  Na8  1  0.73401802  0.74921433  0.99516642  1
  Na  Na9  1  0.91901398  0.22572388  0.87552511  1
  Ni  Ni10  1  0.34874948  0.77669409  0.37325266  1
  Ni  Ni11  1  0.34742770  0.77785193  0.87592490  1
  Ni  Ni12  1  0.65125052  0.22330591  0.12674734  1
  Ni  Ni13  1  0.65257230  0.22214807  0.62407510  1
  P  P14  1  0.42245354  0.71894274  0.12523950  1
  P  P15  1  0.41659829  0.71620186  0.62472511  1
  P  P16  1  0.57754646  0.28105726  0.37476050  1
  P  P17  1  0.58340171  0.28379814  0.87527489  1
  C  C18  1  0.07702493  0.71388746  0.37424369  1
  C  C19  1  0.06464971  0.71452639  0.87513230  1
  C  C20  1  0.93535029  0.28547361  0.62486770  1
  C  C21  1  0.92297507  0.28611254  0.12575631  1
  O  O22  1  0.06331608  0.30644395  0.12240262  1
  O  O23  1  0.07909109  0.31093140  0.62661594  1
  O  O24  1  0.14112428  0.93815454  0.37362790  1
  O  O25  1  0.12375681  0.94165292  0.87435425  1
  O  O26  1  0.17281122  0.51829856  0.37357524  1
  O  O27  1  0.15678784  0.51407879  0.87579181  1
  O  O28  1  0.31628404  0.78860103  0.53232546  1
  O  O29  1  0.32847774  0.78369643  0.03073874  1
  O  O30  1  0.32590858  0.78469158  0.21806393  1
  O  O31  1  0.31875700  0.79016095  0.71793868  1
  O  O32  1  0.42625235  0.13862029  0.37335749  1
  O  O33  1  0.43252609  0.14358206  0.87669831  1
  O  O34  1  0.46055685  0.41871413  0.12476756  1
  O  O35  1  0.44944736  0.41827060  0.62540596  1
  O  O36  1  0.53944315  0.58128587  0.37523244  1
  O  O37  1  0.55055264  0.58172940  0.87459404  1
  O  O38  1  0.56747391  0.85641794  0.62330169  1
  O  O39  1  0.57374765  0.86137971  0.12664251  1
  O  O40  1  0.68124300  0.20983905  0.78206132  1
  O  O41  1  0.68371596  0.21139897  0.96767454  1
  O  O42  1  0.67409142  0.21530842  0.28193607  1
  O  O43  1  0.67152226  0.21630357  0.46926126  1
  O  O44  1  0.82718878  0.48170144  0.12642476  1
  O  O45  1  0.84321216  0.48592121  0.62420819  1
  O  O46  1  0.87624319  0.05834708  0.62564575  1
  O  O47  1  0.85887572  0.06184546  0.12637210  1
  O  O48  1  0.92090891  0.68906860  0.87338406  1
  O  O49  1  0.93668392  0.69355605  0.37759738  1
