# generated using pymatgen
data_Sr3WO6
_symmetry_space_group_name_H-M   'P 1'
_cell_length_a   5.89359681
_cell_length_b   6.14842730
_cell_length_c   8.46298573
_cell_angle_alpha   90.00000000
_cell_angle_beta   90.04487661
_cell_angle_gamma   90.00000000
_symmetry_Int_Tables_number   1
_chemical_formula_structural   Sr3WO6
_chemical_formula_sum   'Sr6 W2 O12'
_cell_volume   306.66763210
_cell_formula_units_Z   2
loop_
 _symmetry_equiv_pos_site_id
 _symmetry_equiv_pos_as_xyz
  1  'x, y, z'
loop_
 _atom_site_type_symbol
 _atom_site_label
 _atom_site_symmetry_multiplicity
 _atom_site_fract_x
 _atom_site_fract_y
 _atom_site_fract_z
 _atom_site_occupancy
  Sr  Sr0  1  0.00000000  0.50000000  0.50000000  1
  Sr  Sr1  1  0.01410154  0.94898755  0.74455668  1
  Sr  Sr2  1  0.48589846  0.44898755  0.75544332  1
  Sr  Sr3  1  0.50000000  0.00000000  0.00000000  1
  Sr  Sr4  1  0.51410154  0.55101245  0.24455668  1
  Sr  Sr5  1  0.98589846  0.05101245  0.25544332  1
  W  W6  1  0.00000000  0.50000000  0.00000000  1
  W  W7  1  0.50000000  0.00000000  0.50000000  1
  O  O8  1  0.10600077  0.44901788  0.21767235  1
  O  O9  1  0.16568788  0.23630596  0.93209083  1
  O  O10  1  0.22892515  0.17411514  0.54555120  1
  O  O11  1  0.27107485  0.67411514  0.95444880  1
  O  O12  1  0.33431212  0.73630596  0.56790917  1
  O  O13  1  0.39399923  0.94901788  0.28232765  1
  O  O14  1  0.60600077  0.05098212  0.71767235  1
  O  O15  1  0.66568788  0.26369404  0.43209083  1
  O  O16  1  0.72892515  0.32588486  0.04555120  1
  O  O17  1  0.77107485  0.82588486  0.45444880  1
  O  O18  1  0.83431212  0.76369404  0.06790917  1
  O  O19  1  0.89399923  0.55098212  0.78232765  1
