# generated using pymatgen
data_Na3Mn2P2(CO7)2
_symmetry_space_group_name_H-M   'P 1'
_cell_length_a   9.03269650
_cell_length_b   13.16790799
_cell_length_c   5.22652090
_cell_angle_alpha   89.74588532
_cell_angle_beta   88.12316913
_cell_angle_gamma   91.05701155
_symmetry_Int_Tables_number   1
_chemical_formula_structural   Na3Mn2P2(CO7)2
_chemical_formula_sum   'Na6 Mn4 P4 C4 O28'
_cell_volume   621.20425077
_cell_formula_units_Z   2
loop_
 _symmetry_equiv_pos_site_id
 _symmetry_equiv_pos_as_xyz
  1  'x, y, z'
loop_
 _atom_site_type_symbol
 _atom_site_label
 _atom_site_symmetry_multiplicity
 _atom_site_fract_x
 _atom_site_fract_y
 _atom_site_fract_z
 _atom_site_occupancy
  Na  Na0  1  0.23578910  0.99813576  0.24424584  1
  Na  Na1  1  0.23582248  0.24418963  0.24722370  1
  Na  Na2  1  0.24490942  0.51837591  0.24147821  1
  Na  Na3  1  0.75509058  0.48162409  0.75852179  1
  Na  Na4  1  0.76417752  0.75581037  0.75277630  1
  Na  Na5  1  0.76421090  0.00186424  0.75575416  1
  Mn  Mn6  1  0.34925583  0.37457301  0.78425795  1
  Mn  Mn7  1  0.34648162  0.86927768  0.78478673  1
  Mn  Mn8  1  0.65351838  0.13072232  0.21521327  1
  Mn  Mn9  1  0.65074417  0.62542699  0.21574205  1
  P  P10  1  0.42717798  0.12205623  0.71941666  1
  P  P11  1  0.42733193  0.62586565  0.71595554  1
  P  P12  1  0.57266807  0.37413435  0.28404446  1
  P  P13  1  0.57282202  0.87794377  0.28058334  1
  C  C14  1  0.08067421  0.37421518  0.72947634  1
  C  C15  1  0.07915904  0.87484048  0.73152278  1
  C  C16  1  0.91932579  0.62578482  0.27052366  1
  C  C17  1  0.92084096  0.12515952  0.26847722  1
  O  O18  1  0.05679323  0.11984378  0.29756867  1
  O  O19  1  0.05344022  0.62357433  0.29852633  1
  O  O20  1  0.14645807  0.37179589  0.95271249  1
  O  O21  1  0.14217822  0.87235195  0.95395975  1
  O  O22  1  0.17828239  0.87144473  0.54146269  1
  O  O23  1  0.18180457  0.37462816  0.53731467  1
  O  O24  1  0.32737545  0.02677468  0.77918122  1
  O  O25  1  0.33154159  0.21416760  0.78730940  1
  O  O26  1  0.32808789  0.53350506  0.79149134  1
  O  O27  1  0.33414903  0.71949238  0.78177283  1
  O  O28  1  0.46678372  0.12378500  0.42345802  1
  O  O29  1  0.46778549  0.62032878  0.42349479  1
  O  O30  1  0.42424767  0.37407527  0.14012680  1
  O  O31  1  0.42775174  0.88039171  0.13229690  1
  O  O32  1  0.57224826  0.11960829  0.86770310  1
  O  O33  1  0.57575233  0.62592473  0.85987320  1
  O  O34  1  0.53221451  0.37967122  0.57650521  1
  O  O35  1  0.53321628  0.87621500  0.57654198  1
  O  O36  1  0.66585097  0.28050662  0.21822717  1
  O  O37  1  0.67191211  0.46649494  0.20850866  1
  O  O38  1  0.66845841  0.78583240  0.21269060  1
  O  O39  1  0.67262455  0.97322532  0.22081878  1
  O  O40  1  0.82171761  0.12855527  0.45853731  1
  O  O41  1  0.81819543  0.62537184  0.46268533  1
  O  O42  1  0.85782178  0.12764805  0.04604025  1
  O  O43  1  0.85354193  0.62820411  0.04728751  1
  O  O44  1  0.94655978  0.37642567  0.70147367  1
  O  O45  1  0.94320677  0.88015622  0.70243133  1
