# generated using pymatgen
data_V3Sb(PO4)6
_symmetry_space_group_name_H-M   'P 1'
_cell_length_a   8.77827643
_cell_length_b   8.77827682
_cell_length_c   8.77827716
_cell_angle_alpha   58.48146727
_cell_angle_beta   58.48146266
_cell_angle_gamma   58.48146517
_symmetry_Int_Tables_number   1
_chemical_formula_structural   V3Sb(PO4)6
_chemical_formula_sum   'V3 Sb1 P6 O24'
_cell_volume   461.69640638
_cell_formula_units_Z   1
loop_
 _symmetry_equiv_pos_site_id
 _symmetry_equiv_pos_as_xyz
  1  'x, y, z'
loop_
 _atom_site_type_symbol
 _atom_site_label
 _atom_site_symmetry_multiplicity
 _atom_site_fract_x
 _atom_site_fract_y
 _atom_site_fract_z
 _atom_site_occupancy
  V  V0  1  0.14195293  0.14195293  0.14195293  1
  V  V1  1  0.35850636  0.35850636  0.35850636  1
  V  V2  1  0.64072312  0.64072312  0.64072312  1
  Sb  Sb3  1  0.85750174  0.85750174  0.85750174  1
  P  P4  1  0.03346828  0.75051792  0.46088239  1
  P  P5  1  0.46088239  0.03346828  0.75051792  1
  P  P6  1  0.75051792  0.46088239  0.03346828  1
  P  P7  1  0.25266340  0.53146932  0.96617885  1
  P  P8  1  0.53146932  0.96617885  0.25266340  1
  P  P9  1  0.96617885  0.25266340  0.53146932  1
  O  O10  1  0.14025625  0.28311201  0.50049475  1
  O  O11  1  0.28311201  0.50049475  0.14025625  1
  O  O12  1  0.06143903  0.92476213  0.28374996  1
  O  O13  1  0.50049475  0.14025625  0.28311201  1
  O  O14  1  0.21636010  0.57447725  0.43141401  1
  O  O15  1  0.02015445  0.76820955  0.63650332  1
  O  O16  1  0.28374996  0.06143903  0.92476213  1
  O  O17  1  0.43141401  0.21636010  0.57447725  1
  O  O18  1  0.57447725  0.43141401  0.21636010  1
  O  O19  1  0.21731301  0.36417876  0.99421099  1
  O  O20  1  0.07685510  0.71858797  0.94535224  1
  O  O21  1  0.36417876  0.99421099  0.21731301  1
  O  O22  1  0.63650332  0.02015445  0.76820955  1
  O  O23  1  0.92476213  0.28374996  0.06143903  1
  O  O24  1  0.76820955  0.63650332  0.02015445  1
  O  O25  1  0.42481266  0.55938562  0.78612126  1
  O  O26  1  0.55938562  0.78612126  0.42481266  1
  O  O27  1  0.71858797  0.94535224  0.07685510  1
  O  O28  1  0.99421099  0.21731301  0.36417876  1
  O  O29  1  0.78612126  0.42481266  0.55938562  1
  O  O30  1  0.49498346  0.85992590  0.72347492  1
  O  O31  1  0.94535224  0.07685510  0.71858797  1
  O  O32  1  0.72347492  0.49498346  0.85992590  1
  O  O33  1  0.85992590  0.72347492  0.49498346  1
