# generated using pymatgen
data_Li13Mg(Ni6O13)2
_symmetry_space_group_name_H-M   'P 1'
_cell_length_a   7.59645584
_cell_length_b   7.73107755
_cell_length_c   8.01934421
_cell_angle_alpha   75.38065542
_cell_angle_beta   75.82847809
_cell_angle_gamma   89.09087293
_symmetry_Int_Tables_number   1
_chemical_formula_structural   Li13Mg(Ni6O13)2
_chemical_formula_sum   'Li13 Mg1 Ni12 O26'
_cell_volume   441.31982957
_cell_formula_units_Z   1
loop_
 _symmetry_equiv_pos_site_id
 _symmetry_equiv_pos_as_xyz
  1  'x, y, z'
loop_
 _atom_site_type_symbol
 _atom_site_label
 _atom_site_symmetry_multiplicity
 _atom_site_fract_x
 _atom_site_fract_y
 _atom_site_fract_z
 _atom_site_occupancy
  Li  Li0  1  0.91921771  0.61498244  0.11518146  1
  Li  Li1  1  0.84601815  0.22863764  0.72896490  1
  Li  Li2  1  0.61537444  0.07615540  0.57666786  1
  Li  Li3  1  0.77084845  0.84692595  0.34551677  1
  Li  Li4  1  0.69375157  0.45661854  0.96236724  1
  Li  Li5  1  0.45892700  0.30569638  0.80979995  1
  Li  Li6  1  0.54107300  0.69430362  0.19020005  1
  Li  Li7  1  0.30624843  0.54338146  0.03763276  1
  Li  Li8  1  0.38462556  0.92384460  0.42333214  1
  Li  Li9  1  0.22915155  0.15307405  0.65448323  1
  Li  Li10  1  0.00000000  0.00000000  0.50000000  1
  Li  Li11  1  0.15398185  0.77136236  0.27103510  1
  Li  Li12  1  0.08078229  0.38501756  0.88481854  1
  Mg  Mg13  1  0.00000000  0.00000000  0.00000000  1
  Ni  Ni14  1  0.84850348  0.22847578  0.23134970  1
  Ni  Ni15  1  0.92221774  0.61495902  0.61575620  1
  Ni  Ni16  1  0.61675670  0.07364321  0.07776372  1
  Ni  Ni17  1  0.76732858  0.84492864  0.84567170  1
  Ni  Ni18  1  0.69244887  0.46190331  0.46101196  1
  Ni  Ni19  1  0.46332810  0.30753372  0.30760781  1
  Ni  Ni20  1  0.53667190  0.69246628  0.69239219  1
  Ni  Ni21  1  0.30755113  0.53809669  0.53898804  1
  Ni  Ni22  1  0.23267142  0.15507136  0.15432830  1
  Ni  Ni23  1  0.38324330  0.92635679  0.92223628  1
  Ni  Ni24  1  0.15149652  0.77152422  0.76865030  1
  Ni  Ni25  1  0.07778226  0.38504098  0.38424380  1
  O  O26  1  0.98670120  0.98783098  0.75447479  1
  O  O27  1  0.85626825  0.24216423  0.46220021  1
  O  O28  1  0.91207640  0.60757187  0.38248705  1
  O  O29  1  0.93240043  0.62202060  0.84865726  1
  O  O30  1  0.83482797  0.22170273  0.99901090  1
  O  O31  1  0.68348084  0.45036960  0.22867335  1
  O  O32  1  0.76663440  0.84731535  0.08177757  1
  O  O33  1  0.62704409  0.08341615  0.31139912  1
  O  O34  1  0.70246642  0.46929598  0.69418587  1
  O  O35  1  0.75559798  0.83517923  0.61295698  1
  O  O36  1  0.60484157  0.06724692  0.84332778  1
  O  O37  1  0.47365834  0.31684214  0.54004894  1
  O  O38  1  0.54516693  0.70193720  0.92426909  1
  O  O39  1  0.45483307  0.29806280  0.07573091  1
  O  O40  1  0.52634166  0.68315786  0.45995106  1
  O  O41  1  0.23336560  0.15268465  0.91822243  1
  O  O42  1  0.39515843  0.93275308  0.15667222  1
  O  O43  1  0.24440202  0.16482077  0.38704302  1
  O  O44  1  0.31651916  0.54963040  0.77132665  1
  O  O45  1  0.29753358  0.53070402  0.30581413  1
  O  O46  1  0.37295591  0.91658385  0.68860088  1
  O  O47  1  0.08792360  0.39242813  0.61751295  1
  O  O48  1  0.14373175  0.75783577  0.53779979  1
  O  O49  1  0.06759957  0.37797940  0.15134274  1
  O  O50  1  0.16517203  0.77829727  0.00098910  1
  O  O51  1  0.01329880  0.01216902  0.24552521  1
