# generated using pymatgen
data_Li10Fe3Ni7O20
_symmetry_space_group_name_H-M   'P 1'
_cell_length_a   5.16103051
_cell_length_b   2.84887384
_cell_length_c   24.04624637
_cell_angle_alpha   89.99999880
_cell_angle_beta   91.95645515
_cell_angle_gamma   90.00000051
_symmetry_Int_Tables_number   1
_chemical_formula_structural   Li10Fe3Ni7O20
_chemical_formula_sum   'Li10 Fe3 Ni7 O20'
_cell_volume   353.34886068
_cell_formula_units_Z   1
loop_
 _symmetry_equiv_pos_site_id
 _symmetry_equiv_pos_as_xyz
  1  'x, y, z'
loop_
 _atom_site_type_symbol
 _atom_site_label
 _atom_site_symmetry_multiplicity
 _atom_site_fract_x
 _atom_site_fract_y
 _atom_site_fract_z
 _atom_site_occupancy
  Li  Li0  1  0.29716349  1.00000000  0.90041965  1
  Li  Li1  1  0.90283651  0.00000000  0.69958035  1
  Li  Li2  1  0.10000000  0.50000000  0.80000000  1
  Li  Li3  1  0.70432881  0.50000000  0.59928790  1
  Li  Li4  1  0.50171595  1.00000000  0.49924569  1
  Li  Li5  1  0.30225916  0.50000000  0.39934845  1
  Li  Li6  1  0.10000000  0.00000000  0.30000000  1
  Li  Li7  1  0.89774084  0.50000000  0.20065155  1
  Li  Li8  1  0.69828405  0.00000000  0.10075431  1
  Li  Li9  1  0.49567119  0.50000000  0.00071210  1
  Fe  Fe10  1  0.79137613  0.50000000  0.90297565  1
  Fe  Fe11  1  0.60000000  0.00000000  0.80000000  1
  Fe  Fe12  1  0.40862387  0.50000000  0.69702435  1
  Ni  Ni13  1  0.20148744  1.00000000  0.59762960  1
  Ni  Ni14  1  0.99950897  0.50000000  0.49856148  1
  Ni  Ni15  1  0.80222666  1.00000000  0.39919152  1
  Ni  Ni16  1  0.60000000  0.50000000  0.30000000  1
  Ni  Ni17  1  0.39777334  0.00000000  0.20080848  1
  Ni  Ni18  1  0.20049103  0.50000000  0.10143852  1
  Ni  Ni19  1  0.99851256  0.00000000  0.00237040  1
  O  O20  1  0.64949889  0.00000000  0.95071878  1
  O  O21  1  0.93144436  1.00000000  0.85226290  1
  O  O22  1  0.12145028  0.50000000  0.95612228  1
  O  O23  1  0.46016305  0.50000000  0.84988793  1
  O  O24  1  0.26855564  0.00000000  0.74773710  1
  O  O25  1  0.73983695  0.50000000  0.75011207  1
  O  O26  1  0.55050111  1.00000000  0.64928122  1
  O  O27  1  0.86380024  1.00000000  0.54308049  1
  O  O28  1  0.07854972  0.50000000  0.64387772  1
  O  O29  1  0.32965280  0.50000000  0.55323176  1
  O  O30  1  0.13693369  0.00000000  0.45432157  1
  O  O31  1  0.66509461  0.50000000  0.44288318  1
  O  O32  1  0.93767103  0.50000000  0.35538719  1
  O  O33  1  0.46660508  1.00000000  0.34404532  1
  O  O34  1  0.73339492  0.00000000  0.25595468  1
  O  O35  1  0.26232897  0.50000000  0.24461281  1
  O  O36  1  0.06306631  0.00000000  0.14567843  1
  O  O37  1  0.53490539  0.50000000  0.15711682  1
  O  O38  1  0.87034720  0.50000000  0.04676824  1
  O  O39  1  0.33619976  0.00000000  0.05691951  1
