# generated using pymatgen
data_Rb4FeO4
_symmetry_space_group_name_H-M   'P 1'
_cell_length_a   6.74297502
_cell_length_b   6.73424521
_cell_length_c   9.98278333
_cell_angle_alpha   70.09185979
_cell_angle_beta   78.26921564
_cell_angle_gamma   67.37537305
_symmetry_Int_Tables_number   1
_chemical_formula_structural   Rb4FeO4
_chemical_formula_sum   'Rb8 Fe2 O8'
_cell_volume   392.04911955
_cell_formula_units_Z   2
loop_
 _symmetry_equiv_pos_site_id
 _symmetry_equiv_pos_as_xyz
  1  'x, y, z'
loop_
 _atom_site_type_symbol
 _atom_site_label
 _atom_site_symmetry_multiplicity
 _atom_site_fract_x
 _atom_site_fract_y
 _atom_site_fract_z
 _atom_site_occupancy
  Rb  Rb0  1  0.24714720  0.76782762  0.02995737  1
  Rb  Rb1  1  0.27636844  0.51484035  0.43569893  1
  Rb  Rb2  1  0.24729148  0.40014588  0.84662404  1
  Rb  Rb3  1  0.21492791  0.96573827  0.62457767  1
  Rb  Rb4  1  0.78507209  0.03426173  0.37542233  1
  Rb  Rb5  1  0.75270852  0.59985412  0.15337596  1
  Rb  Rb6  1  0.72363156  0.48515965  0.56430107  1
  Rb  Rb7  1  0.75285280  0.23217238  0.97004263  1
  Fe  Fe8  1  0.26762615  0.16073041  0.24804509  1
  Fe  Fe9  1  0.73237385  0.83926959  0.75195491  1
  O  O10  1  0.11323344  0.14589337  0.12205470  1
  O  O11  1  0.04577572  0.31601494  0.35955083  1
  O  O12  1  0.44871520  0.32968486  0.19622568  1
  O  O13  1  0.55271483  0.12836221  0.66958575  1
  O  O14  1  0.44728517  0.87163779  0.33041425  1
  O  O15  1  0.55128480  0.67031514  0.80377432  1
  O  O16  1  0.95422428  0.68398506  0.64044917  1
  O  O17  1  0.88676656  0.85410663  0.87794530  1
