# generated using pymatgen
data_TiVO3
_symmetry_space_group_name_H-M   'P 1'
_cell_length_a   5.62146203
_cell_length_b   5.62146192
_cell_length_c   5.62146139
_cell_angle_alpha   54.79710363
_cell_angle_beta   54.79711290
_cell_angle_gamma   54.79710504
_symmetry_Int_Tables_number   1
_chemical_formula_structural   TiVO3
_chemical_formula_sum   'Ti2 V2 O6'
_cell_volume   110.39387698
_cell_formula_units_Z   2
loop_
 _symmetry_equiv_pos_site_id
 _symmetry_equiv_pos_as_xyz
  1  'x, y, z'
loop_
 _atom_site_type_symbol
 _atom_site_label
 _atom_site_symmetry_multiplicity
 _atom_site_fract_x
 _atom_site_fract_y
 _atom_site_fract_z
 _atom_site_occupancy
  Ti  Ti0  1  0.14452400  0.14452400  0.14452400  1
  Ti  Ti1  1  0.85547600  0.85547600  0.85547600  1
  V  V2  1  0.34897732  0.34897732  0.34897732  1
  V  V3  1  0.65102268  0.65102268  0.65102268  1
  O  O4  1  0.04891235  0.77826080  0.43669995  1
  O  O5  1  0.43669995  0.04891235  0.77826080  1
  O  O6  1  0.77826080  0.43669995  0.04891235  1
  O  O7  1  0.22173920  0.56330005  0.95108765  1
  O  O8  1  0.56330005  0.95108765  0.22173920  1
  O  O9  1  0.95108765  0.22173920  0.56330005  1
