# generated using pymatgen
data_Ho2WO6
_symmetry_space_group_name_H-M   'P 1'
_cell_length_a   5.26505853
_cell_length_b   9.12001221
_cell_length_c   9.97647724
_cell_angle_alpha   90.00000000
_cell_angle_beta   90.00000000
_cell_angle_gamma   90.00000000
_symmetry_Int_Tables_number   1
_chemical_formula_structural   Ho2WO6
_chemical_formula_sum   'Ho8 W4 O24'
_cell_volume   479.04447907
_cell_formula_units_Z   4
loop_
 _symmetry_equiv_pos_site_id
 _symmetry_equiv_pos_as_xyz
  1  'x, y, z'
loop_
 _atom_site_type_symbol
 _atom_site_label
 _atom_site_symmetry_multiplicity
 _atom_site_fract_x
 _atom_site_fract_y
 _atom_site_fract_z
 _atom_site_occupancy
  Ho  Ho0  1  0.01954026  0.39692033  0.03456552  1
  Ho  Ho1  1  0.03775482  0.28060763  0.62811956  1
  Ho  Ho2  1  0.46224518  0.71939237  0.12811956  1
  Ho  Ho3  1  0.48045974  0.60307967  0.53456552  1
  Ho  Ho4  1  0.51954026  0.10307967  0.96543448  1
  Ho  Ho5  1  0.53775482  0.21939237  0.37188044  1
  Ho  Ho6  1  0.96224518  0.78060763  0.87188044  1
  Ho  Ho7  1  0.98045974  0.89692033  0.46543448  1
  W  W8  1  0.03949195  0.00500828  0.15223368  1
  W  W9  1  0.46050805  0.99499172  0.65223368  1
  W  W10  1  0.53949195  0.49499172  0.84776632  1
  W  W11  1  0.96050805  0.50500828  0.34776632  1
  O  O12  1  0.08610271  0.65748105  0.46986434  1
  O  O13  1  0.17679572  0.54734405  0.20116397  1
  O  O14  1  0.17971476  0.86111709  0.68107327  1
  O  O15  1  0.19372361  0.85904146  0.26484019  1
  O  O16  1  0.23228958  0.38537176  0.43285278  1
  O  O17  1  0.25075117  0.09004147  0.50570319  1
  O  O18  1  0.24924883  0.90995853  0.00570319  1
  O  O19  1  0.26771042  0.61462824  0.93285278  1
  O  O20  1  0.30627639  0.14095854  0.76484019  1
  O  O21  1  0.32028524  0.13888291  0.18107327  1
  O  O22  1  0.32320428  0.45265595  0.70116397  1
  O  O23  1  0.41389729  0.34251895  0.96986434  1
  O  O24  1  0.58610271  0.84251895  0.53013566  1
  O  O25  1  0.67679572  0.95265595  0.79883603  1
  O  O26  1  0.67971476  0.63888291  0.31892673  1
  O  O27  1  0.69372361  0.64095854  0.73515981  1
  O  O28  1  0.73228958  0.11462824  0.56714722  1
  O  O29  1  0.75075117  0.40995853  0.49429681  1
  O  O30  1  0.74924883  0.59004147  0.99429681  1
  O  O31  1  0.76771042  0.88537176  0.06714722  1
  O  O32  1  0.80627639  0.35904146  0.23515981  1
  O  O33  1  0.82028524  0.36111709  0.81892673  1
  O  O34  1  0.82320428  0.04734405  0.29883603  1
  O  O35  1  0.91389729  0.15748105  0.03013566  1
