# generated using pymatgen
data_Li8Mn7Fe(BO3)8
_symmetry_space_group_name_H-M   'P 1'
_cell_length_a   5.25692559
_cell_length_b   9.11683301
_cell_length_c   11.60155674
_cell_angle_alpha   68.57569813
_cell_angle_beta   77.70384754
_cell_angle_gamma   89.87933694
_symmetry_Int_Tables_number   1
_chemical_formula_structural   Li8Mn7Fe(BO3)8
_chemical_formula_sum   'Li8 Mn7 Fe1 B8 O24'
_cell_volume   503.97384280
_cell_formula_units_Z   1
loop_
 _symmetry_equiv_pos_site_id
 _symmetry_equiv_pos_as_xyz
  1  'x, y, z'
loop_
 _atom_site_type_symbol
 _atom_site_label
 _atom_site_symmetry_multiplicity
 _atom_site_fract_x
 _atom_site_fract_y
 _atom_site_fract_z
 _atom_site_occupancy
  Li  Li0  1  0.96985115  0.95991194  0.41829977  1
  Li  Li1  1  0.70370688  0.71507087  0.91787720  1
  Li  Li2  1  0.51876689  0.49284703  0.66747749  1
  Li  Li3  1  0.72773910  0.75517430  0.16800147  1
  Li  Li4  1  0.47068647  0.46025079  0.41760276  1
  Li  Li5  1  0.20329247  0.21556620  0.91782050  1
  Li  Li6  1  0.01951644  0.99153613  0.66784059  1
  Li  Li7  1  0.22773754  0.25578533  0.16783987  1
  Mn  Mn8  1  0.97692941  0.64391190  0.38311075  1
  Mn  Mn9  1  0.72664019  0.06011682  0.88331041  1
  Mn  Mn10  1  0.52269310  0.84313277  0.63532289  1
  Mn  Mn11  1  0.75839936  0.43550358  0.13164263  1
  Mn  Mn12  1  0.47705335  0.14372604  0.38340764  1
  Mn  Mn13  1  0.25540926  0.93438442  0.13332748  1
  Mn  Mn14  1  0.02436500  0.34511196  0.63281143  1
  Fe  Fe15  1  0.23343073  0.55858492  0.88308667  1
  B  B16  1  0.97555453  0.31434079  0.37574965  1
  B  B17  1  0.73617158  0.39782163  0.87559370  1
  B  B18  1  0.76370065  0.10785793  0.12557244  1
  B  B19  1  0.52959742  0.18544897  0.62613774  1
  B  B20  1  0.47567946  0.81447634  0.37572398  1
  B  B21  1  0.23163375  0.89362746  0.87639728  1
  B  B22  1  0.26478856  0.60786001  0.12455075  1
  B  B23  1  0.02879450  0.68515629  0.62665104  1
  O  O24  1  0.97809545  0.89014292  0.86128424  1
  O  O25  1  0.89903764  0.28863891  0.84572515  1
  O  O26  1  0.83197993  0.50907185  0.91531582  1
  O  O27  1  0.92799920  0.82987644  0.61172878  1
  O  O28  1  0.89823155  0.57505894  0.59603188  1
  O  O29  1  0.76192604  0.15014522  0.66683154  1
  O  O30  1  0.73155345  0.34597460  0.34524663  1
  O  O31  1  0.47871986  0.39414658  0.86311216  1
  O  O32  1  0.39747763  0.78502081  0.84723710  1
  O  O33  1  0.59724494  0.91480775  0.41773855  1
  O  O34  1  0.59519290  0.68486252  0.36118079  1
  O  O35  1  0.32366896  0.00569682  0.91702060  1
  O  O36  1  0.66350648  0.98700140  0.09572524  1
  O  O37  1  0.42859098  0.32994030  0.61218931  1
  O  O38  1  0.39929628  0.07487297  0.59614260  1
  O  O39  1  0.59484192  0.20665983  0.16615952  1
  O  O40  1  0.53168997  0.62943790  0.11097740  1
  O  O41  1  0.26020656  0.64945306  0.66784620  1
  O  O42  1  0.23135207  0.84590937  0.34520438  1
  O  O43  1  0.09733611  0.41477470  0.41786569  1
  O  O44  1  0.09547835  0.18505257  0.36097658  1
  O  O45  1  0.16539056  0.48794485  0.09359844  1
  O  O46  1  0.09472170  0.70566380  0.16624880  1
  O  O47  1  0.03112366  0.12944648  0.11105243  1
