# generated using pymatgen
data_Ti(SO4)2
_symmetry_space_group_name_H-M   'P 1'
_cell_length_a   8.88581882
_cell_length_b   8.88581875
_cell_length_c   8.88581886
_cell_angle_alpha   56.11035203
_cell_angle_beta   56.11035634
_cell_angle_gamma   56.11035596
_symmetry_Int_Tables_number   1
_chemical_formula_structural   Ti(SO4)2
_chemical_formula_sum   'Ti3 S6 O24'
_cell_volume   451.42645310
_cell_formula_units_Z   3
loop_
 _symmetry_equiv_pos_site_id
 _symmetry_equiv_pos_as_xyz
  1  'x, y, z'
loop_
 _atom_site_type_symbol
 _atom_site_label
 _atom_site_symmetry_multiplicity
 _atom_site_fract_x
 _atom_site_fract_y
 _atom_site_fract_z
 _atom_site_occupancy
  Ti  Ti0  1  0.14729040  0.14729040  0.14729040  1
  Ti  Ti1  1  0.64425788  0.64425788  0.64425788  1
  Ti  Ti2  1  0.85068763  0.85068763  0.85068763  1
  S  S3  1  0.04659470  0.74784879  0.45854942  1
  S  S4  1  0.45854942  0.04659470  0.74784879  1
  S  S5  1  0.74784879  0.45854942  0.04659470  1
  S  S6  1  0.25493142  0.53392615  0.96470470  1
  S  S7  1  0.53392615  0.96470470  0.25493142  1
  S  S8  1  0.96470470  0.25493142  0.53392615  1
  O  O9  1  0.11632422  0.28320975  0.51789158  1
  O  O10  1  0.28320975  0.51789158  0.11632422  1
  O  O11  1  0.01263196  0.96158351  0.32668779  1
  O  O12  1  0.51789158  0.11632422  0.28320975  1
  O  O13  1  0.01390270  0.73053450  0.65271076  1
  O  O14  1  0.23434493  0.62394191  0.37869104  1
  O  O15  1  0.37869104  0.23434493  0.62394191  1
  O  O16  1  0.32668779  0.01263196  0.96158351  1
  O  O17  1  0.62394191  0.37869104  0.23434493  1
  O  O18  1  0.05572187  0.67933241  0.95660069  1
  O  O19  1  0.27327375  0.34611919  0.98106154  1
  O  O20  1  0.34611919  0.98106154  0.27327375  1
  O  O21  1  0.65271076  0.01390270  0.73053450  1
  O  O22  1  0.73053450  0.65271076  0.01390270  1
  O  O23  1  0.96158351  0.32668779  0.01263196  1
  O  O24  1  0.39827781  0.60394391  0.76553336  1
  O  O25  1  0.67933241  0.95660069  0.05572187  1
  O  O26  1  0.60394391  0.76553336  0.39827781  1
  O  O27  1  0.76553336  0.39827781  0.60394391  1
  O  O28  1  0.98106154  0.27327375  0.34611919  1
  O  O29  1  0.49168179  0.88091312  0.71125584  1
  O  O30  1  0.95660069  0.05572187  0.67933241  1
  O  O31  1  0.71125584  0.49168179  0.88091312  1
  O  O32  1  0.88091312  0.71125584  0.49168179  1
