# generated using pymatgen
data_Li6MnFe5(BO3)6
_symmetry_space_group_name_H-M   'P 1'
_cell_length_a   8.25559531
_cell_length_b   8.26014705
_cell_length_c   12.54398251
_cell_angle_alpha   90.00000000
_cell_angle_beta   90.00000000
_cell_angle_gamma   120.02012466
_symmetry_Int_Tables_number   1
_chemical_formula_structural   Li6MnFe5(BO3)6
_chemical_formula_sum   'Li12 Mn2 Fe10 B12 O36'
_cell_volume   740.65189813
_cell_formula_units_Z   2
loop_
 _symmetry_equiv_pos_site_id
 _symmetry_equiv_pos_as_xyz
  1  'x, y, z'
loop_
 _atom_site_type_symbol
 _atom_site_label
 _atom_site_symmetry_multiplicity
 _atom_site_fract_x
 _atom_site_fract_y
 _atom_site_fract_z
 _atom_site_occupancy
  Li  Li0  1  0.28506637  0.98359499  0.12596603  1
  Li  Li1  1  0.28506637  0.98359499  0.87403397  1
  Li  Li2  1  0.28545707  0.98341046  0.62486292  1
  Li  Li3  1  0.28545707  0.98341046  0.37513708  1
  Li  Li4  1  0.01672985  0.30131799  0.12543177  1
  Li  Li5  1  0.01647364  0.30216239  0.37515248  1
  Li  Li6  1  0.01647364  0.30216239  0.62484752  1
  Li  Li7  1  0.01672985  0.30131799  0.87456823  1
  Li  Li8  1  0.69841392  0.71456704  0.37500558  1
  Li  Li9  1  0.69841392  0.71456704  0.62499442  1
  Li  Li10  1  0.69840710  0.71414765  0.12557551  1
  Li  Li11  1  0.69840710  0.71414765  0.87442449  1
  Mn  Mn12  1  0.37159686  0.35944686  0.00000000  1
  Mn  Mn13  1  0.64082656  0.01197189  0.00000000  1
  Fe  Fe14  1  0.36795496  0.36024927  0.50000000  1
  Fe  Fe15  1  0.36839235  0.36079795  0.25143324  1
  Fe  Fe16  1  0.36839235  0.36079795  0.74856676  1
  Fe  Fe17  1  0.64021019  0.00771034  0.50000000  1
  Fe  Fe18  1  0.63943985  0.00779224  0.25136284  1
  Fe  Fe19  1  0.63943985  0.00779224  0.74863716  1
  Fe  Fe20  1  0.99219962  0.63258137  0.50000000  1
  Fe  Fe21  1  0.99265567  0.63448607  0.00000000  1
  Fe  Fe22  1  0.99211095  0.63232806  0.24975803  1
  Fe  Fe23  1  0.99211095  0.63232806  0.75024197  1
  B  B24  1  0.99839612  0.99780651  0.00000000  1
  B  B25  1  0.00005581  -0.00006986  0.25050431  1
  B  B26  1  0.00012459  0.00015459  0.50000000  1
  B  B27  1  0.00005581  -0.00006986  0.74949569  1
  B  B28  1  0.33208726  0.66663118  0.87225458  1
  B  B29  1  0.33208726  0.66663118  0.12774542  1
  B  B30  1  0.33305787  0.66658544  0.37582936  1
  B  B31  1  0.33305787  0.66658544  0.62417064  1
  B  B32  1  0.66800863  0.33402979  0.12677084  1
  B  B33  1  0.66666836  0.33346691  0.37519540  1
  B  B34  1  0.66666836  0.33346691  0.62480460  1
  B  B35  1  0.66800863  0.33402979  0.87322916  1
  O  O36  1  0.10922910  0.91482094  0.25059808  1
  O  O37  1  0.11296144  0.91766862  0.00000000  1
  O  O38  1  0.10951885  0.91506953  0.50000000  1
  O  O39  1  0.10922910  0.91482094  0.74940192  1
  O  O40  1  0.13789512  0.58024915  0.87485991  1
  O  O41  1  0.13789512  0.58024915  0.12514009  1
  O  O42  1  0.13877481  0.58081017  0.37508623  1
  O  O43  1  0.13877481  0.58081017  0.62491377  1
  O  O44  1  0.07809445  0.19145746  0.00000000  1
  O  O45  1  0.08515854  0.19434920  0.50000000  1
  O  O46  1  0.08522996  0.19430993  0.74911753  1
  O  O47  1  0.08522996  0.19430993  0.25088247  1
  O  O48  1  0.44012162  0.86064225  0.87168256  1
  O  O49  1  0.44158956  0.86081988  0.62388450  1
  O  O50  1  0.44012162  0.86064225  0.12831744  1
  O  O51  1  0.44158956  0.86081988  0.37611550  1
  O  O52  1  0.41850865  0.55890725  0.87191851  1
  O  O53  1  0.41850865  0.55890725  0.12808149  1
  O  O54  1  0.41929210  0.55847954  0.62397544  1
  O  O55  1  0.41929210  0.55847954  0.37602456  1
  O  O56  1  0.47376699  0.25339255  0.12721471  1
  O  O57  1  0.47255782  0.25460559  0.62458868  1
  O  O58  1  0.47255782  0.25460559  0.37541132  1
  O  O59  1  0.47376699  0.25339255  0.87278529  1
  O  O60  1  0.80495571  0.88285433  0.00000000  1
  O  O61  1  0.80558969  0.89067401  0.25071524  1
  O  O62  1  0.80586486  0.89075997  0.50000000  1
  O  O63  1  0.80558969  0.89067401  0.74928476  1
  O  O64  1  0.78173633  0.52770475  0.12493060  1
  O  O65  1  0.78188534  0.52720304  0.37474614  1
  O  O66  1  0.78188534  0.52720304  0.62525386  1
  O  O67  1  0.78173633  0.52770475  0.87506940  1
  O  O68  1  0.74530962  0.21819158  0.37552054  1
  O  O69  1  0.74788555  0.22014464  0.12710746  1
  O  O70  1  0.74530962  0.21819158  0.62447946  1
  O  O71  1  0.74788555  0.22014464  0.87289254  1
