# generated using pymatgen
data_Li3MnFe2(BO3)3
_symmetry_space_group_name_H-M   'P 1'
_cell_length_a   8.26020776
_cell_length_b   14.30411983
_cell_length_c   3.14897988
_cell_angle_alpha   90.00000000
_cell_angle_beta   90.00000000
_cell_angle_gamma   90.11243794
_symmetry_Int_Tables_number   1
_chemical_formula_structural   Li3MnFe2(BO3)3
_chemical_formula_sum   'Li6 Mn2 Fe4 B6 O18'
_cell_volume   372.06700622
_cell_formula_units_Z   2
loop_
 _symmetry_equiv_pos_site_id
 _symmetry_equiv_pos_as_xyz
  1  'x, y, z'
loop_
 _atom_site_type_symbol
 _atom_site_label
 _atom_site_symmetry_multiplicity
 _atom_site_fract_x
 _atom_site_fract_y
 _atom_site_fract_z
 _atom_site_occupancy
  Li  Li0  1  0.29270810  0.99266204  0.50000000  1
  Li  Li1  1  0.33940826  0.35794366  0.50000000  1
  Li  Li2  1  0.36502536  0.64983772  0.50000000  1
  Li  Li3  1  0.79308613  0.49014848  0.50000000  1
  Li  Li4  1  0.84323031  0.85683075  0.50000000  1
  Li  Li5  1  0.86797369  0.15166356  0.50000000  1
  Mn  Mn6  1  0.63353413  0.00596626  0.00000000  1
  Mn  Mn7  1  0.69205164  0.67987884  0.00000000  1
  Fe  Fe8  1  0.13665423  0.50375509  0.00000000  1
  Fe  Fe9  1  0.17598557  0.81659371  0.00000000  1
  Fe  Fe10  1  0.18782936  0.18016160  0.00000000  1
  Fe  Fe11  1  0.67535058  0.31651146  0.00000000  1
  B  B12  1  0.00282496  0.66591919  0.50000000  1
  B  B13  1  0.00122749  0.99929155  0.00000000  1
  B  B14  1  0.99982152  0.33333433  0.50000000  1
  B  B15  1  0.49930407  0.16856634  0.50000000  1
  B  B16  1  0.49793130  0.49981164  0.00000000  1
  B  B17  1  0.49744607  0.83318491  0.50000000  1
  O  O18  1  0.01228765  0.43037787  0.50000000  1
  O  O19  1  0.01880028  0.76266039  0.50000000  1
  O  O20  1  0.13852030  0.60835146  0.50000000  1
  O  O21  1  0.13888258  0.27843806  0.50000000  1
  O  O22  1  0.15429030  0.95823062  0.00000000  1
  O  O23  1  0.34590001  0.12799875  0.50000000  1
  O  O24  1  0.34740034  0.78936283  0.50000000  1
  O  O25  1  0.35950257  0.44370234  0.00000000  1
  O  O26  1  0.48360377  0.59619360  0.00000000  1
  O  O27  1  0.50741790  0.93038494  0.50000000  1
  O  O28  1  0.51688268  0.26538888  0.50000000  1
  O  O29  1  0.63747396  0.11204884  0.50000000  1
  O  O30  1  0.63915956  0.78043995  0.50000000  1
  O  O31  1  0.65105135  0.45780885  0.00000000  1
  O  O32  1  0.84843052  0.62513462  0.50000000  1
  O  O33  1  0.84753985  0.29103673  0.50000000  1
  O  O34  1  0.86356345  0.94355073  0.00000000  1
  O  O35  1  0.98789916  0.09682743  0.00000000  1
