# generated using pymatgen
data_PrMgCr2O6
_symmetry_space_group_name_H-M   'P 1'
_cell_length_a   5.28559051
_cell_length_b   5.43502340
_cell_length_c   7.71840071
_cell_angle_alpha   90.00399426
_cell_angle_beta   89.69431170
_cell_angle_gamma   90.00634347
_symmetry_Int_Tables_number   1
_chemical_formula_structural   PrMgCr2O6
_chemical_formula_sum   'Pr2 Mg2 Cr4 O12'
_cell_volume   221.72571757
_cell_formula_units_Z   2
loop_
 _symmetry_equiv_pos_site_id
 _symmetry_equiv_pos_as_xyz
  1  'x, y, z'
loop_
 _atom_site_type_symbol
 _atom_site_label
 _atom_site_symmetry_multiplicity
 _atom_site_fract_x
 _atom_site_fract_y
 _atom_site_fract_z
 _atom_site_occupancy
  Pr  Pr0  1  0.00844545  0.95110740  0.75010839  1
  Pr  Pr1  1  0.50828518  0.54888780  0.25008971  1
  Mg  Mg2  1  0.48012748  0.44445572  0.75152699  1
  Mg  Mg3  1  0.98011813  0.05535371  0.25142853  1
  Cr  Cr4  1  0.99647366  0.49297846  0.00045255  1
  Cr  Cr5  1  0.99781145  0.49671285  0.50033752  1
  Cr  Cr6  1  0.49659324  0.00704452  0.50045160  1
  Cr  Cr7  1  0.49777358  0.00325003  0.00030712  1
  O  O8  1  0.08351259  0.44444879  0.24869892  1
  O  O9  1  0.21193534  0.22489934  0.94319691  1
  O  O10  1  0.22513720  0.21681849  0.55527390  1
  O  O11  1  0.31822823  0.69974070  0.55672674  1
  O  O12  1  0.30612955  0.69064232  0.94157877  1
  O  O13  1  0.37225657  0.97604450  0.25226224  1
  O  O14  1  0.58372994  0.05546537  0.74866548  1
  O  O15  1  0.72502781  0.28329049  0.05513929  1
  O  O16  1  0.71181017  0.27525848  0.44314059  1
  O  O17  1  0.81823543  0.80037239  0.05673808  1
  O  O18  1  0.80603626  0.80933584  0.44156739  1
  O  O19  1  0.87233075  0.52389179  0.75230729  1
