# generated using pymatgen
data_Li4MnFe3(BO3)4
_symmetry_space_group_name_H-M   'P 1'
_cell_length_a   6.00452980
_cell_length_b   9.12871758
_cell_length_c   5.18081326
_cell_angle_alpha   89.83055566
_cell_angle_beta   113.33714396
_cell_angle_gamma   104.74440586
_symmetry_Int_Tables_number   1
_chemical_formula_structural   Li4MnFe3(BO3)4
_chemical_formula_sum   'Li4 Mn1 Fe3 B4 O12'
_cell_volume   250.62457063
_cell_formula_units_Z   1
loop_
 _symmetry_equiv_pos_site_id
 _symmetry_equiv_pos_as_xyz
  1  'x, y, z'
loop_
 _atom_site_type_symbol
 _atom_site_label
 _atom_site_symmetry_multiplicity
 _atom_site_fract_x
 _atom_site_fract_y
 _atom_site_fract_z
 _atom_site_occupancy
  Li  Li0  1  0.67196445  0.18367142  0.25005731  1
  Li  Li1  1  0.67985594  0.68717131  0.75577514  1
  Li  Li2  1  0.32340286  0.31338900  0.24366927  1
  Li  Li3  1  0.32562377  0.81451774  0.74725965  1
  Mn  Mn4  1  0.76709487  0.37604506  0.78736014  1
  Fe  Fe5  1  0.76634893  0.87662114  0.29267429  1
  Fe  Fe6  1  0.23360591  0.12767812  0.71237112  1
  Fe  Fe7  1  0.24394252  0.62939193  0.21253619  1
  B  B8  1  0.73800795  0.03601132  0.77595897  1
  B  B9  1  0.74203417  0.53965953  0.27330030  1
  B  B10  1  0.26035894  0.46252318  0.72602264  1
  B  B11  1  0.25664323  0.96137976  0.22594904  1
  O  O12  1  0.82097285  0.06028404  0.55568774  1
  O  O13  1  0.82986079  0.56713909  0.05952060  1
  O  O14  1  0.70254686  0.39508326  0.36246277  1
  O  O15  1  0.67898565  0.15354107  0.88253685  1
  O  O16  1  0.68189585  0.65566061  0.38366360  1
  O  O17  1  0.29001637  0.10194552  0.12596087  1
  O  O18  1  0.70649312  0.89445056  0.87339127  1
  O  O19  1  0.30927120  0.34117573  0.61208695  1
  O  O20  1  0.31667628  0.84354877  0.11769580  1
  O  O21  1  0.29768319  0.60343354  0.63034278  1
  O  O22  1  0.18137494  0.43901080  0.94841877  1
  O  O23  1  0.17533837  0.93666850  0.44529693  1
