# generated using pymatgen
data_Li4MnFe3(BO3)4
_symmetry_space_group_name_H-M   'P 1'
_cell_length_a   6.02598780
_cell_length_b   5.24212324
_cell_length_c   16.13566786
_cell_angle_alpha   90.48439428
_cell_angle_beta   98.40511601
_cell_angle_gamma   88.72642106
_symmetry_Int_Tables_number   1
_chemical_formula_structural   Li4MnFe3(BO3)4
_chemical_formula_sum   'Li8 Mn2 Fe6 B8 O24'
_cell_volume   504.10295283
_cell_formula_units_Z   2
loop_
 _symmetry_equiv_pos_site_id
 _symmetry_equiv_pos_as_xyz
  1  'x, y, z'
loop_
 _atom_site_type_symbol
 _atom_site_label
 _atom_site_symmetry_multiplicity
 _atom_site_fract_x
 _atom_site_fract_y
 _atom_site_fract_z
 _atom_site_occupancy
  Li  Li0  1  0.06590057  0.84265015  0.61169951  1
  Li  Li1  1  0.43409943  0.15734985  0.88830049  1
  Li  Li2  1  0.18482089  0.65161949  0.13717563  1
  Li  Li3  1  0.31517911  0.34838051  0.36282437  1
  Li  Li4  1  0.68879470  0.65546283  0.64172218  1
  Li  Li5  1  0.81120530  0.34453717  0.85827782  1
  Li  Li6  1  0.56695813  0.84793486  0.11023703  1
  Li  Li7  1  0.93304187  0.15206514  0.38976297  1
  Mn  Mn8  1  0.77030521  0.67046952  0.45835791  1
  Mn  Mn9  1  0.72969479  0.32953048  0.04164209  1
  Fe  Fe10  1  0.27287341  0.66296343  0.95764203  1
  Fe  Fe11  1  0.03085223  0.17040805  0.21316394  1
  Fe  Fe12  1  0.22712659  0.33703657  0.54235797  1
  Fe  Fe13  1  0.52361938  0.16263015  0.70739725  1
  Fe  Fe14  1  0.46914777  0.82959195  0.28683606  1
  Fe  Fe15  1  0.97638062  0.83736985  0.79260275  1
  B  B16  1  0.03980887  0.32710554  0.70408707  1
  B  B17  1  0.28611228  0.83013654  0.45361338  1
  B  B18  1  0.46019113  0.67289446  0.79591293  1
  B  B19  1  0.21388772  0.16986346  0.04638662  1
  B  B20  1  0.78553540  0.82928126  0.95218161  1
  B  B21  1  0.53688496  0.32774725  0.20536652  1
  B  B22  1  0.71446460  0.17071874  0.54781839  1
  B  B23  1  0.96311504  0.67225275  0.29463348  1
  O  O24  1  0.01296932  0.58708434  0.69408014  1
  O  O25  1  0.16777501  0.18226314  0.65398993  1
  O  O26  1  0.17800552  0.70411230  0.51176657  1
  O  O27  1  0.32199448  0.29588770  0.98823343  1
  O  O28  1  0.07821478  0.79178208  0.23717816  1
  O  O29  1  0.33222499  0.81773686  0.84601007  1
  O  O30  1  0.08526070  0.31360100  0.09630216  1
  O  O31  1  0.25904706  0.08950710  0.44317124  1
  O  O32  1  0.48703068  0.41291566  0.80591986  1
  O  O33  1  0.24095294  0.91049290  0.05682876  1
  O  O34  1  0.41473930  0.68639900  0.40369784  1
  O  O35  1  0.42178522  0.20821792  0.26282184  1
  O  O36  1  0.56942472  0.79712481  0.73797246  1
  O  O37  1  0.58452472  0.32014242  0.59633793  1
  O  O38  1  0.76111774  0.08871843  0.93916895  1
  O  O39  1  0.51325355  0.58749575  0.19226501  1
  O  O40  1  0.73888226  0.91128157  0.56083105  1
  O  O41  1  0.91547528  0.67985758  0.90366207  1
  O  O42  1  0.67008781  0.18149221  0.15801579  1
  O  O43  1  0.93057528  0.20287519  0.76202754  1
  O  O44  1  0.67642708  0.71148798  0.01142771  1
  O  O45  1  0.82357292  0.28851202  0.48857229  1
  O  O46  1  0.82991219  0.81850779  0.34198421  1
  O  O47  1  0.98674645  0.41250425  0.30773499  1
