# generated using pymatgen
data_Li8Mn7Fe(BO3)8
_symmetry_space_group_name_H-M   'P 1'
_cell_length_a   5.25063158
_cell_length_b   5.24491546
_cell_length_c   21.00507919
_cell_angle_alpha   89.04522073
_cell_angle_beta   91.04202581
_cell_angle_gamma   60.19773651
_symmetry_Int_Tables_number   1
_chemical_formula_structural   Li8Mn7Fe(BO3)8
_chemical_formula_sum   'Li8 Mn7 Fe1 B8 O24'
_cell_volume   501.65415952
_cell_formula_units_Z   1
loop_
 _symmetry_equiv_pos_site_id
 _symmetry_equiv_pos_as_xyz
  1  'x, y, z'
loop_
 _atom_site_type_symbol
 _atom_site_label
 _atom_site_symmetry_multiplicity
 _atom_site_fract_x
 _atom_site_fract_y
 _atom_site_fract_z
 _atom_site_occupancy
  Li  Li0  1  0.32197250  0.65164696  0.66591126  1
  Li  Li1  1  0.34869282  0.67908922  0.91588980  1
  Li  Li2  1  0.32101617  0.65089389  0.16607605  1
  Li  Li3  1  0.34912544  0.67888537  0.41609307  1
  Li  Li4  1  0.65311204  0.33823724  0.79154292  1
  Li  Li5  1  0.66196623  0.34915310  0.54133376  1
  Li  Li6  1  0.65146928  0.33819058  0.29116236  1
  Li  Li7  1  0.66180376  0.34862416  0.04117213  1
  Mn  Mn8  1  0.32617698  0.00670807  0.55913841  1
  Mn  Mn9  1  0.32942608  0.00373573  0.05845288  1
  Mn  Mn10  1  0.67683756  0.00251116  0.93336629  1
  Mn  Mn11  1  0.67666256  0.00243650  0.43370853  1
  Mn  Mn12  1  0.99725956  0.32296539  0.18347549  1
  Mn  Mn13  1  0.99582096  0.66941365  0.80755961  1
  Mn  Mn14  1  0.99621107  0.67097028  0.30847680  1
  Fe  Fe15  1  0.99446832  0.31816710  0.68380223  1
  B  B16  1  0.00283018  0.34160324  0.93700664  1
  B  B17  1  0.00290698  0.34147564  0.43712197  1
  B  B18  1  0.33430782  0.00372576  0.81143617  1
  B  B19  1  0.33442099  0.00437500  0.31209728  1
  B  B20  1  0.66140863  0.99635108  0.68685153  1
  B  B21  1  0.65852072  0.99740906  0.18709997  1
  B  B22  1  0.99417930  0.66625077  0.56290639  1
  B  B23  1  0.99542769  0.66560646  0.06208530  1
  O  O24  1  0.07065597  0.24648161  0.79028739  1
  O  O25  1  0.06997955  0.24733006  0.29097543  1
  O  O26  1  0.25368615  0.07003726  0.95209402  1
  O  O27  1  0.03313306  0.57920411  0.91628359  1
  O  O28  1  0.25352892  0.07010511  0.45226697  1
  O  O29  1  0.03328287  0.57923627  0.41644306  1
  O  O30  1  0.57790631  0.03686447  0.82679507  1
  O  O31  1  0.26797082  0.64231158  0.56986201  1
  O  O32  1  0.57775108  0.03782590  0.32736119  1
  O  O33  1  0.26906075  0.64113761  0.06941753  1
  O  O34  1  0.35809523  0.73044642  0.81906383  1
  O  O35  1  0.35882856  0.73082572  0.31946659  1
  O  O36  1  0.64065222  0.26969947  0.69373181  1
  O  O37  1  0.62914820  0.27224678  0.19435717  1
  O  O38  1  0.72797628  0.37070925  0.94422339  1
  O  O39  1  0.41481943  0.97807670  0.66797491  1
  O  O40  1  0.72803836  0.37079767  0.44446656  1
  O  O41  1  0.42097167  0.96650027  0.16643283  1
  O  O42  1  0.96181082  0.42278262  0.57837918  1
  O  O43  1  0.96233640  0.42211344  0.07735556  1
  O  O44  1  0.75122566  0.93011782  0.54145203  1
  O  O45  1  0.75259708  0.93008249  0.04095423  1
  O  O46  1  0.92929101  0.74133432  0.70065792  1
  O  O47  1  0.93002493  0.74650561  0.20213389  1
