# generated using pymatgen
data_Li4V2SiGeO10
_symmetry_space_group_name_H-M   'P 1'
_cell_length_a   6.50582511
_cell_length_b   6.50582511
_cell_length_c   4.57095652
_cell_angle_alpha   90.00000000
_cell_angle_beta   90.00000000
_cell_angle_gamma   90.00000000
_symmetry_Int_Tables_number   1
_chemical_formula_structural   Li4V2SiGeO10
_chemical_formula_sum   'Li4 V2 Si1 Ge1 O10'
_cell_volume   193.46921029
_cell_formula_units_Z   1
loop_
 _symmetry_equiv_pos_site_id
 _symmetry_equiv_pos_as_xyz
  1  'x, y, z'
loop_
 _atom_site_type_symbol
 _atom_site_label
 _atom_site_symmetry_multiplicity
 _atom_site_fract_x
 _atom_site_fract_y
 _atom_site_fract_z
 _atom_site_occupancy
  Li  Li0  1  0.00436447  0.99563553  0.00000000  1
  Li  Li1  1  0.00436447  0.50436447  0.00000000  1
  Li  Li2  1  0.49563553  0.99563553  0.00000000  1
  Li  Li3  1  0.49563553  0.50436447  0.00000000  1
  V  V4  1  0.25000000  0.25000000  0.59027743  1
  V  V5  1  0.75000000  0.75000000  0.40972257  1
  Si  Si6  1  0.25000000  0.75000000  0.50000000  1
  Ge  Ge7  1  0.75000000  0.25000000  0.50000000  1
  O  O8  1  0.04598457  0.75000000  0.28517735  1
  O  O9  1  0.25000000  0.25000000  0.22333933  1
  O  O10  1  0.25000000  0.54598457  0.71482265  1
  O  O11  1  0.25000000  0.95401543  0.71482265  1
  O  O12  1  0.45401543  0.75000000  0.28517735  1
  O  O13  1  0.53520523  0.25000000  0.73655996  1
  O  O14  1  0.75000000  0.03520523  0.26344004  1
  O  O15  1  0.75000000  0.46479477  0.26344004  1
  O  O16  1  0.75000000  0.75000000  0.77666067  1
  O  O17  1  0.96479477  0.25000000  0.73655996  1
