# generated using pymatgen
data_Li8Mn3Fe5(BO3)8
_symmetry_space_group_name_H-M   'P 1'
_cell_length_a   6.03397489
_cell_length_b   5.23600674
_cell_length_c   16.16268610
_cell_angle_alpha   90.77558764
_cell_angle_beta   98.14539382
_cell_angle_gamma   88.96823848
_symmetry_Int_Tables_number   1
_chemical_formula_structural   Li8Mn3Fe5(BO3)8
_chemical_formula_sum   'Li8 Mn3 Fe5 B8 O24'
_cell_volume   505.37822889
_cell_formula_units_Z   1
loop_
 _symmetry_equiv_pos_site_id
 _symmetry_equiv_pos_as_xyz
  1  'x, y, z'
loop_
 _atom_site_type_symbol
 _atom_site_label
 _atom_site_symmetry_multiplicity
 _atom_site_fract_x
 _atom_site_fract_y
 _atom_site_fract_z
 _atom_site_occupancy
  Li  Li0  1  0.06443652  0.84659637  0.61092773  1
  Li  Li1  1  0.43794181  0.15342820  0.89194852  1
  Li  Li2  1  0.18439355  0.65244867  0.13872693  1
  Li  Li3  1  0.31405334  0.34562288  0.36032639  1
  Li  Li4  1  0.68410622  0.65307810  0.64021453  1
  Li  Li5  1  0.81707278  0.34736042  0.86173436  1
  Li  Li6  1  0.56179093  0.84708447  0.10972824  1
  Li  Li7  1  0.93645402  0.15216246  0.39014565  1
  Mn  Mn8  1  0.02005900  0.16938755  0.20844554  1
  Mn  Mn9  1  0.52460275  0.16940400  0.70880295  1
  Mn  Mn10  1  0.77298586  0.66908663  0.45856144  1
  Fe  Fe11  1  0.27181060  0.67284131  0.95694054  1
  Fe  Fe12  1  0.22287921  0.33606107  0.53957801  1
  Fe  Fe13  1  0.47233095  0.83679115  0.28955718  1
  Fe  Fe14  1  0.97255753  0.82985422  0.78833367  1
  Fe  Fe15  1  0.72053842  0.33836899  0.03970092  1
  B  B16  1  0.03771882  0.32561125  0.70366000  1
  B  B17  1  0.28739405  0.82734623  0.45299605  1
  B  B18  1  0.46585164  0.66904044  0.79807926  1
  B  B19  1  0.21274747  0.17181239  0.04593226  1
  B  B20  1  0.78896114  0.82826988  0.95355134  1
  B  B21  1  0.53546932  0.32898932  0.20243616  1
  B  B22  1  0.71491158  0.17177520  0.54723980  1
  B  B23  1  0.96399865  0.67185565  0.29693944  1
  O  O24  1  0.01279162  0.58714206  0.69284129  1
  O  O25  1  0.16696064  0.18261296  0.65394796  1
  O  O26  1  0.17672387  0.70583757  0.51126340  1
  O  O27  1  0.32956511  0.29732024  0.99045896  1
  O  O28  1  0.08009056  0.78790061  0.23954748  1
  O  O29  1  0.33129185  0.81660614  0.84555650  1
  O  O30  1  0.07733375  0.31762410  0.09322325  1
  O  O31  1  0.26322041  0.08695209  0.44153954  1
  O  O32  1  0.48943428  0.40963698  0.81081460  1
  O  O33  1  0.23718019  0.91134646  0.05805721  1
  O  O34  1  0.41761490  0.68044501  0.40396353  1
  O  O35  1  0.42550095  0.20638009  0.26092467  1
  O  O36  1  0.57810830  0.78835865  0.74021070  1
  O  O37  1  0.57942482  0.32160207  0.59320654  1
  O  O38  1  0.76273571  0.08815405  0.94176771  1
  O  O39  1  0.51110333  0.58828950  0.19112524  1
  O  O40  1  0.73843594  0.91170228  0.56131277  1
  O  O41  1  0.92012162  0.68316960  0.90450051  1
  O  O42  1  0.66511469  0.18164588  0.15359342  1
  O  O43  1  0.92633933  0.20404533  0.76169245  1
  O  O44  1  0.67709767  0.70704082  0.01125625  1
  O  O45  1  0.83198460  0.28806773  0.49028658  1
  O  O46  1  0.82912405  0.82180521  0.34318851  1
  O  O47  1  0.98763566  0.41203974  0.31121500  1
