# generated using pymatgen
data_Hf2N2O
_symmetry_space_group_name_H-M   'P 1'
_cell_length_a   8.73081038
_cell_length_b   8.74603621
_cell_length_c   8.75013391
_cell_angle_alpha   109.60291578
_cell_angle_beta   109.54360509
_cell_angle_gamma   109.51806957
_symmetry_Int_Tables_number   1
_chemical_formula_structural   Hf2N2O
_chemical_formula_sum   'Hf16 N16 O8'
_cell_volume   512.75062937
_cell_formula_units_Z   8
loop_
 _symmetry_equiv_pos_site_id
 _symmetry_equiv_pos_as_xyz
  1  'x, y, z'
loop_
 _atom_site_type_symbol
 _atom_site_label
 _atom_site_symmetry_multiplicity
 _atom_site_fract_x
 _atom_site_fract_y
 _atom_site_fract_z
 _atom_site_occupancy
  Hf  Hf0  1  0.96003597  0.24158270  0.21883068  1
  Hf  Hf1  1  0.50706192  0.00453329  0.99584203  1
  Hf  Hf2  1  0.78094986  0.03180333  0.75318570  1
  Hf  Hf3  1  0.71300152  0.46134257  0.24469318  1
  Hf  Hf4  1  0.75478833  0.28637115  0.53848881  1
  Hf  Hf5  1  0.75655860  0.78571177  0.03877929  1
  Hf  Hf6  1  0.49277219  0.50653222  0.51219184  1
  Hf  Hf7  1  0.46699435  0.25224655  0.72246905  1
  Hf  Hf8  1  0.00939696  0.99771958  0.49952903  1
  Hf  Hf9  1  0.53537705  0.74744866  0.28912696  1
  Hf  Hf10  1  0.99864875  0.50578543  0.98896514  1
  Hf  Hf11  1  0.25642615  0.71839836  0.46663630  1
  Hf  Hf12  1  0.24264392  0.21149923  0.95168932  1
  Hf  Hf13  1  0.21152529  0.95854224  0.25096778  1
  Hf  Hf14  1  0.28180780  0.53443875  0.74335317  1
  Hf  Hf15  1  0.03869000  0.75392003  0.78575121  1
  N  N16  1  0.74098072  0.22832063  0.27649074  1
  N  N17  1  0.76855030  0.72342602  0.26086947  1
  N  N18  1  0.72632504  0.25687913  0.76997588  1
  N  N19  1  0.01351701  0.04672224  0.27551187  1
  N  N20  1  0.22748055  0.45688948  0.46404013  1
  N  N21  1  0.50921482  0.24024056  0.97007653  1
  N  N22  1  0.27315051  0.73399912  0.22317446  1
  N  N23  1  0.98733674  0.95495646  0.72999208  1
  N  N24  1  0.54473658  0.53428520  0.77125541  1
  N  N25  1  0.95734958  0.72859888  0.98972463  1
  N  N26  1  0.53763632  0.77077018  0.54222754  1
  N  N27  1  0.22324453  0.27436190  0.74143016  1
  N  N28  1  0.02934329  0.48624691  0.75628185  1
  N  N29  1  0.72648678  0.98911361  0.95415418  1
  N  N30  1  0.24162482  0.96865034  0.51116533  1
  N  N31  1  0.26316902  0.77726249  0.73098443  1
  O  O32  1  0.75480234  0.03154201  0.48173741  1
  O  O33  1  0.27519427  0.01243242  0.05004713  1
  O  O34  1  0.96260098  0.50917208  0.23523367  1
  O  O35  1  0.46638468  0.22948398  0.44760115  1
  O  O36  1  0.45288389  0.46204578  0.22861066  1
  O  O37  1  0.05302753  0.27929385  0.01980276  1
  O  O38  1  0.76882385  0.54273739  0.53189968  1
  O  O39  1  0.48946020  0.76469648  0.03721036  1
