# generated using pymatgen
data_Hf2N2O
_symmetry_space_group_name_H-M   'P 1'
_cell_length_a   8.71845661
_cell_length_b   8.75085227
_cell_length_c   8.72425409
_cell_angle_alpha   109.36892464
_cell_angle_beta   109.48997427
_cell_angle_gamma   109.57823139
_symmetry_Int_Tables_number   1
_chemical_formula_structural   Hf2N2O
_chemical_formula_sum   'Hf16 N16 O8'
_cell_volume   512.23521645
_cell_formula_units_Z   8
loop_
 _symmetry_equiv_pos_site_id
 _symmetry_equiv_pos_as_xyz
  1  'x, y, z'
loop_
 _atom_site_type_symbol
 _atom_site_label
 _atom_site_symmetry_multiplicity
 _atom_site_fract_x
 _atom_site_fract_y
 _atom_site_fract_z
 _atom_site_occupancy
  Hf  Hf0  1  0.97034460  0.24410107  0.21294397  1
  Hf  Hf1  1  0.01169974  0.50103157  0.00115835  1
  Hf  Hf2  1  0.71228713  0.47031969  0.24954165  1
  Hf  Hf3  1  0.78730445  0.03218909  0.75411674  1
  Hf  Hf4  1  0.74250263  0.78662136  0.03685697  1
  Hf  Hf5  1  0.75743085  0.29527006  0.53804313  1
  Hf  Hf6  1  0.49658482  0.99064461  0.98652694  1
  Hf  Hf7  1  0.53585966  0.74988832  0.28419836  1
  Hf  Hf8  1  0.45887537  0.25231795  0.72513829  1
  Hf  Hf9  1  0.50210661  0.51207730  0.51387318  1
  Hf  Hf10  1  0.24044782  0.21018687  0.95402640  1
  Hf  Hf11  1  0.25701785  0.71554692  0.46762949  1
  Hf  Hf12  1  0.21496774  0.96359633  0.25631391  1
  Hf  Hf13  1  0.28549512  0.53602965  0.75014595  1
  Hf  Hf14  1  0.00920267  0.99709803  0.49908573  1
  Hf  Hf15  1  0.03104622  0.74483977  0.77604458  1
  N  N16  1  0.77089857  0.72541999  0.26415854  1
  N  N17  1  0.72503704  0.99186856  0.95371738  1
  N  N18  1  0.76901632  0.53916067  0.52850835  1
  N  N19  1  0.04896229  0.27984395  0.01481498  1
  N  N20  1  0.01281599  0.04309926  0.27060433  1
  N  N21  1  0.48971538  0.76675628  0.03729022  1
  N  N22  1  0.22818194  0.45653708  0.46540564  1
  N  N23  1  0.26681675  0.73339709  0.22317745  1
  N  N24  1  0.51365420  0.24146095  0.97099838  1
  N  N25  1  0.22404814  0.27216092  0.73858454  1
  N  N26  1  0.53678248  0.77252751  0.54360379  1
  N  N27  1  0.55274944  0.53459567  0.77444539  1
  N  N28  1  0.25838602  0.77627480  0.72776735  1
  N  N29  1  0.24198535  0.96864213  0.51265497  1
  N  N30  1  0.02913829  0.48497538  0.76172958  1
  N  N31  1  0.98631672  0.95410588  0.72947262  1
  O  O32  1  0.75640501  0.03612376  0.48402735  1
  O  O33  1  0.74456635  0.22709961  0.27809183  1
  O  O34  1  0.27440086  0.01276847  0.05134979  1
  O  O35  1  0.95759019  0.50551322  0.23376223  1
  O  O36  1  0.95865364  0.73012790  0.99072531  1
  O  O37  1  0.46597411  0.22386368  0.44951363  1
  O  O38  1  0.72335538  0.25743799  0.76354386  1
  O  O39  1  0.45137828  0.46448265  0.22641186  1
