# generated using pymatgen
data_Zr2N2O
_symmetry_space_group_name_H-M   'P 1'
_cell_length_a   8.87594852
_cell_length_b   8.87635665
_cell_length_c   8.88518347
_cell_angle_alpha   109.65461279
_cell_angle_beta   109.49908736
_cell_angle_gamma   109.36482699
_symmetry_Int_Tables_number   1
_chemical_formula_structural   Zr2N2O
_chemical_formula_sum   'Zr16 N16 O8'
_cell_volume   538.18131085
_cell_formula_units_Z   8
loop_
 _symmetry_equiv_pos_site_id
 _symmetry_equiv_pos_as_xyz
  1  'x, y, z'
loop_
 _atom_site_type_symbol
 _atom_site_label
 _atom_site_symmetry_multiplicity
 _atom_site_fract_x
 _atom_site_fract_y
 _atom_site_fract_z
 _atom_site_occupancy
  Zr  Zr0  1  0.96340020  0.25005500  0.21192948  1
  Zr  Zr1  1  0.50886018  0.00609699  0.99723825  1
  Zr  Zr2  1  0.78591715  0.03854406  0.75397865  1
  Zr  Zr3  1  0.71136853  0.46188199  0.24253479  1
  Zr  Zr4  1  0.74701767  0.27804936  0.52649175  1
  Zr  Zr5  1  0.74919142  0.77826564  0.03078166  1
  Zr  Zr6  1  0.01026597  0.50894240  0.99846171  1
  Zr  Zr7  1  0.99918475  0.99853596  0.49707301  1
  Zr  Zr8  1  0.49127450  0.49643316  0.50920361  1
  Zr  Zr9  1  0.45568884  0.24793411  0.71349364  1
  Zr  Zr10  1  0.54311240  0.75856670  0.29767846  1
  Zr  Zr11  1  0.25931642  0.71750813  0.47077302  1
  Zr  Zr12  1  0.24787219  0.21822517  0.96095948  1
  Zr  Zr13  1  0.22180977  0.96134630  0.25859960  1
  Zr  Zr14  1  0.28022116  0.53426271  0.74447064  1
  Zr  Zr15  1  0.03600266  0.74283185  0.78508122  1
  N  N16  1  0.74157398  0.23228720  0.27394619  1
  N  N17  1  0.76243171  0.03500880  0.49289945  1
  N  N18  1  0.46877932  0.22717915  0.45120332  1
  N  N19  1  0.77272739  0.72641532  0.25993044  1
  N  N20  1  0.04676546  0.27364521  0.01108562  1
  N  N21  1  0.22526485  0.45093351  0.46330086  1
  N  N22  1  0.27393369  0.73662195  0.22402266  1
  N  N23  1  0.51398025  0.24048208  0.96824756  1
  N  N24  1  0.54211526  0.53433281  0.77262312  1
  N  N25  1  0.95842808  0.73202976  0.99197036  1
  N  N26  1  0.53502251  0.76992611  0.54461900  1
  N  N27  1  0.22330911  0.27056496  0.74056243  1
  N  N28  1  0.02738078  0.48662811  0.75919365  1
  N  N29  1  0.72569669  0.98551952  0.95487869  1
  N  N30  1  0.23350056  0.96446030  0.50721238  1
  N  N31  1  0.26145082  0.77423064  0.73061963  1
  O  O32  1  0.26729354  0.01129830  0.03964869  1
  O  O33  1  0.96433582  0.50960376  0.23620422  1
  O  O34  1  0.45815830  0.46336989  0.22826473  1
  O  O35  1  0.72509246  0.25853781  0.77644021  1
  O  O36  1  0.48738922  0.76378175  0.03679630  1
  O  O37  1  0.01086155  0.04885772  0.27703100  1
  O  O38  1  0.77489593  0.55424479  0.53423064  1
  O  O39  1  0.98911193  0.95256001  0.72631987  1
