# generated using pymatgen
data_Li3Mn5Cr3O16
_symmetry_space_group_name_H-M   'P 1'
_cell_length_a   5.84065172
_cell_length_b   5.91244266
_cell_length_c   10.22378497
_cell_angle_alpha   89.28026094
_cell_angle_beta   73.46783341
_cell_angle_gamma   119.62591619
_symmetry_Int_Tables_number   1
_chemical_formula_structural   Li3Mn5Cr3O16
_chemical_formula_sum   'Li3 Mn5 Cr3 O16'
_cell_volume   289.19555988
_cell_formula_units_Z   1
loop_
 _symmetry_equiv_pos_site_id
 _symmetry_equiv_pos_as_xyz
  1  'x, y, z'
loop_
 _atom_site_type_symbol
 _atom_site_label
 _atom_site_symmetry_multiplicity
 _atom_site_fract_x
 _atom_site_fract_y
 _atom_site_fract_z
 _atom_site_occupancy
  Li  Li0  1  0.88102366  0.19428216  0.43203217  1
  Li  Li1  1  0.87882267  0.69134956  0.93905315  1
  Li  Li2  1  0.12062427  0.80143150  0.56297658  1
  Mn  Mn3  1  0.49849465  0.99841680  0.00161407  1
  Mn  Mn4  1  0.50211203  0.75119074  0.24717884  1
  Mn  Mn5  1  0.49923719  0.24938480  0.75029179  1
  Mn  Mn6  1  0.00084891  0.74845002  0.24758723  1
  Mn  Mn7  1  0.00241460  0.25061842  0.75140779  1
  Cr  Cr8  1  0.49968605  0.24977681  0.24685852  1
  Cr  Cr9  1  0.50022665  0.50000588  0.49870724  1
  Cr  Cr10  1  0.50078651  0.74736789  0.75156795  1
  O  O11  1  0.70315032  0.09337435  0.12850282  1
  O  O12  1  0.25843181  0.09025244  0.12815434  1
  O  O13  1  0.74190146  0.12580318  0.64564007  1
  O  O14  1  0.74164233  0.62766427  0.14375359  1
  O  O15  1  0.74680749  0.40198385  0.36415522  1
  O  O16  1  0.73633812  0.33965144  0.86821162  1
  O  O17  1  0.29023740  0.40445109  0.36370695  1
  O  O18  1  0.74321672  0.84661031  0.36173232  1
  O  O19  1  0.25740511  0.15148212  0.63672317  1
  O  O20  1  0.26721862  0.66450074  0.13104008  1
  O  O21  1  0.71169839  0.59493448  0.63449745  1
  O  O22  1  0.26179935  0.37035452  0.85169840  1
  O  O23  1  0.25170926  0.59637546  0.63544847  1
  O  O24  1  0.25928369  0.87176145  0.35350420  1
  O  O25  1  0.74369620  0.90351149  0.87081524  1
  O  O26  1  0.29234454  0.90187925  0.86959672  1
