# generated using pymatgen
data_Zr2N2O
_symmetry_space_group_name_H-M   'P 1'
_cell_length_a   8.87770151
_cell_length_b   8.87546078
_cell_length_c   8.86647702
_cell_angle_alpha   109.46636410
_cell_angle_beta   109.46045959
_cell_angle_gamma   109.45060705
_symmetry_Int_Tables_number   1
_chemical_formula_structural   Zr2N2O
_chemical_formula_sum   'Zr16 N16 O8'
_cell_volume   538.04014712
_cell_formula_units_Z   8
loop_
 _symmetry_equiv_pos_site_id
 _symmetry_equiv_pos_as_xyz
  1  'x, y, z'
loop_
 _atom_site_type_symbol
 _atom_site_label
 _atom_site_symmetry_multiplicity
 _atom_site_fract_x
 _atom_site_fract_y
 _atom_site_fract_z
 _atom_site_occupancy
  Zr  Zr0  1  0.49000457  0.99852620  0.98858624  1
  Zr  Zr1  1  0.96605400  0.24848900  0.20774383  1
  Zr  Zr2  1  0.71477765  0.47377497  0.25239431  1
  Zr  Zr3  1  0.78568500  0.03819512  0.75356456  1
  Zr  Zr4  1  0.74625429  0.77994680  0.02876227  1
  Zr  Zr5  1  0.75460276  0.28906599  0.53706235  1
  Zr  Zr6  1  0.54375314  0.76145479  0.29627380  1
  Zr  Zr7  1  0.01071245  0.50793762  0.99965636  1
  Zr  Zr8  1  0.00253394  0.00040138  0.49929029  1
  Zr  Zr9  1  0.50268024  0.50797263  0.51213753  1
  Zr  Zr10  1  0.45279581  0.24682165  0.71909062  1
  Zr  Zr11  1  0.25015375  0.21498521  0.96666670  1
  Zr  Zr12  1  0.25699259  0.71644398  0.46859098  1
  Zr  Zr13  1  0.21288388  0.95354206  0.24293764  1
  Zr  Zr14  1  0.28196540  0.53044265  0.74169866  1
  Zr  Zr15  1  0.03411755  0.74251018  0.78414483  1
  N  N16  1  0.76190332  0.03685818  0.48863366  1
  N  N17  1  0.27545155  0.01598907  0.04899675  1
  N  N18  1  0.77196792  0.72656605  0.25994382  1
  N  N19  1  0.04499907  0.27316102  0.01170130  1
  N  N20  1  0.77063750  0.54528676  0.52991134  1
  N  N21  1  0.27243561  0.73493394  0.22288677  1
  N  N22  1  0.22514768  0.44884131  0.46137389  1
  N  N23  1  0.51721627  0.24140954  0.96911934  1
  N  N24  1  0.54326103  0.53334825  0.77170965  1
  N  N25  1  0.95592526  0.72818293  0.99357507  1
  N  N26  1  0.53526081  0.77073575  0.54525389  1
  N  N27  1  0.22278174  0.26914774  0.73883625  1
  N  N28  1  0.72743927  0.98765676  0.95723035  1
  N  N29  1  0.02990484  0.48562828  0.76071156  1
  N  N30  1  0.23589276  0.96576354  0.50832026  1
  N  N31  1  0.26311740  0.77324327  0.72945381  1
  O  O32  1  0.74396548  0.23054670  0.27593586  1
  O  O33  1  0.96253235  0.50595871  0.23714828  1
  O  O34  1  0.47036114  0.22756281  0.45828577  1
  O  O35  1  0.45379663  0.46497909  0.22617563  1
  O  O36  1  0.72511823  0.25965260  0.76950400  1
  O  O37  1  0.01128439  0.04800810  0.27540726  1
  O  O38  1  0.48690964  0.76161732  0.03511597  1
  O  O39  1  0.98672610  0.95441207  0.72616653  1
