# generated using pymatgen
data_LaMgMnCrO6
_symmetry_space_group_name_H-M   'P 1'
_cell_length_a   5.33163649
_cell_length_b   5.46601275
_cell_length_c   7.63585314
_cell_angle_alpha   90.00000000
_cell_angle_beta   90.24945986
_cell_angle_gamma   90.00000000
_symmetry_Int_Tables_number   1
_chemical_formula_structural   LaMgMnCrO6
_chemical_formula_sum   'La2 Mg2 Mn2 Cr2 O12'
_cell_volume   222.52797832
_cell_formula_units_Z   2
loop_
 _symmetry_equiv_pos_site_id
 _symmetry_equiv_pos_as_xyz
  1  'x, y, z'
loop_
 _atom_site_type_symbol
 _atom_site_label
 _atom_site_symmetry_multiplicity
 _atom_site_fract_x
 _atom_site_fract_y
 _atom_site_fract_z
 _atom_site_occupancy
  La  La0  1  0.00764428  0.96611454  0.74964276  1
  La  La1  1  0.50764428  0.53388546  0.24964276  1
  Mg  Mg2  1  0.47515826  0.44187327  0.74846084  1
  Mg  Mg3  1  0.97515826  0.05812673  0.24846084  1
  Mn  Mn4  1  0.49985524  0.00168868  0.00095745  1
  Mn  Mn5  1  0.99985524  0.49831132  0.50095745  1
  Cr  Cr6  1  0.49861553  0.99817708  0.49789660  1
  Cr  Cr7  1  0.99861553  0.50182292  0.99789660  1
  O  O8  1  0.07719969  0.45243648  0.25490860  1
  O  O9  1  0.22964235  0.22369629  0.94816663  1
  O  O10  1  0.22159231  0.23106730  0.55557538  1
  O  O11  1  0.31366112  0.70116478  0.94264679  1
  O  O12  1  0.30217298  0.69256702  0.55697746  1
  O  O13  1  0.37445523  0.98069059  0.24476749  1
  O  O14  1  0.57719969  0.04756352  0.75490860  1
  O  O15  1  0.72964235  0.27630371  0.44816663  1
  O  O16  1  0.72159231  0.26893270  0.05557538  1
  O  O17  1  0.81366112  0.79883522  0.44264679  1
  O  O18  1  0.80217298  0.80743298  0.05697746  1
  O  O19  1  0.87445523  0.51930941  0.74476749  1
