# generated using pymatgen
data_Zr2N2O
_symmetry_space_group_name_H-M   'P 1'
_cell_length_a   8.87256325
_cell_length_b   8.90305413
_cell_length_c   8.87519497
_cell_angle_alpha   109.54384024
_cell_angle_beta   109.49942023
_cell_angle_gamma   109.54923242
_symmetry_Int_Tables_number   1
_chemical_formula_structural   Zr2N2O
_chemical_formula_sum   'Zr16 N16 O8'
_cell_volume   538.49521226
_cell_formula_units_Z   8
loop_
 _symmetry_equiv_pos_site_id
 _symmetry_equiv_pos_as_xyz
  1  'x, y, z'
loop_
 _atom_site_type_symbol
 _atom_site_label
 _atom_site_symmetry_multiplicity
 _atom_site_fract_x
 _atom_site_fract_y
 _atom_site_fract_z
 _atom_site_occupancy
  Zr  Zr0  1  0.49266013  0.01206965  0.00174625  1
  Zr  Zr1  1  0.96201059  0.23999770  0.21435270  1
  Zr  Zr2  1  0.71599783  0.46499364  0.25127762  1
  Zr  Zr3  1  0.78478437  0.03692186  0.74971291  1
  Zr  Zr4  1  0.75104639  0.78187277  0.04252058  1
  Zr  Zr5  1  0.75742964  0.29578366  0.53923418  1
  Zr  Zr6  1  0.53309323  0.74782925  0.29082146  1
  Zr  Zr7  1  0.00052354  0.48766278  0.98981850  1
  Zr  Zr8  1  0.01104104  0.00045633  0.50260482  1
  Zr  Zr9  1  0.51365313  0.51141598  0.51444591  1
  Zr  Zr10  1  0.46472733  0.25375236  0.72231848  1
  Zr  Zr11  1  0.23672829  0.20580297  0.95418642  1
  Zr  Zr12  1  0.25660904  0.72540979  0.46623242  1
  Zr  Zr13  1  0.21418235  0.96153725  0.24803510  1
  Zr  Zr14  1  0.28673473  0.53761602  0.74941925  1
  Zr  Zr15  1  0.04299833  0.75280316  0.78277393  1
  N  N16  1  0.01098074  0.04352333  0.26807111  1
  N  N17  1  0.74212439  0.22402758  0.27314676  1
  N  N18  1  0.76733115  0.72322021  0.25614549  1
  N  N19  1  0.72714733  0.25943582  0.76808676  1
  N  N20  1  0.76666247  0.54149063  0.53204968  1
  N  N21  1  0.51172475  0.24159565  0.96955160  1
  N  N22  1  0.27367744  0.73718444  0.22264659  1
  N  N23  1  0.53411795  0.76980419  0.54449576  1
  N  N24  1  0.22283567  0.27322224  0.73537661  1
  N  N25  1  0.27217325  0.00968209  0.04620829  1
  N  N26  1  0.54658212  0.53779987  0.77160822  1
  N  N27  1  0.24127625  0.96800703  0.51203692  1
  N  N28  1  0.04502663  0.27389861  0.01635014  1
  N  N29  1  0.26332774  0.77211684  0.72750786  1
  N  N30  1  0.03444451  0.48998533  0.76292778  1
  N  N31  1  0.98491495  0.95287204  0.72319851  1
  O  O32  1  0.96891958  0.51461535  0.24387340  1
  O  O33  1  0.95279270  0.72434807  0.99237978  1
  O  O34  1  0.75450608  0.02925810  0.48438745  1
  O  O35  1  0.45339466  0.46622042  0.22903713  1
  O  O36  1  0.72435720  0.98613527  0.95215058  1
  O  O37  1  0.46084435  0.22900560  0.45196591  1
  O  O38  1  0.49186599  0.76318244  0.03381199  1
  O  O39  1  0.22475413  0.45344370  0.46348517  1
