# generated using pymatgen
data_Hf2N2O
_symmetry_space_group_name_H-M   'P 1'
_cell_length_a   8.72992534
_cell_length_b   8.75165067
_cell_length_c   8.71071908
_cell_angle_alpha   109.30713356
_cell_angle_beta   109.55878022
_cell_angle_gamma   109.59061251
_symmetry_Int_Tables_number   1
_chemical_formula_structural   Hf2N2O
_chemical_formula_sum   'Hf16 N16 O8'
_cell_volume   512.03573776
_cell_formula_units_Z   8
loop_
 _symmetry_equiv_pos_site_id
 _symmetry_equiv_pos_as_xyz
  1  'x, y, z'
loop_
 _atom_site_type_symbol
 _atom_site_label
 _atom_site_symmetry_multiplicity
 _atom_site_fract_x
 _atom_site_fract_y
 _atom_site_fract_z
 _atom_site_occupancy
  Hf  Hf0  1  0.97679243  0.25124375  0.22215123  1
  Hf  Hf1  1  0.00196661  0.49120832  0.99245530  1
  Hf  Hf2  1  0.71251262  0.46832686  0.24956058  1
  Hf  Hf3  1  0.78526298  0.03658338  0.74924218  1
  Hf  Hf4  1  0.74333082  0.78208968  0.04157757  1
  Hf  Hf5  1  0.75734342  0.29367935  0.54336049  1
  Hf  Hf6  1  0.48950527  0.99214439  0.98806707  1
  Hf  Hf7  1  0.53259164  0.74866966  0.28380863  1
  Hf  Hf8  1  0.46643996  0.25253365  0.72522670  1
  Hf  Hf9  1  0.50363700  0.51107321  0.51394386  1
  Hf  Hf10  1  0.23960791  0.21084509  0.95260675  1
  Hf  Hf11  1  0.25794290  0.71799630  0.46656492  1
  Hf  Hf12  1  0.21373677  0.96142978  0.25498141  1
  Hf  Hf13  1  0.28727607  0.53701358  0.75159745  1
  Hf  Hf14  1  0.01170593  0.99962149  0.50183840  1
  Hf  Hf15  1  0.02988870  0.74314146  0.77380722  1
  N  N16  1  0.77085688  0.72365908  0.26186904  1
  N  N17  1  0.76803904  0.53779911  0.52819731  1
  N  N18  1  0.72569896  0.25899661  0.76631834  1
  N  N19  1  0.04812902  0.27615409  0.01836217  1
  N  N20  1  0.00784648  0.04023838  0.26561573  1
  N  N21  1  0.49393273  0.77032947  0.03806004  1
  N  N22  1  0.22856919  0.45707559  0.46582127  1
  N  N23  1  0.26847499  0.73493266  0.22418333  1
  N  N24  1  0.51106626  0.23997359  0.97235510  1
  N  N25  1  0.22327122  0.27339745  0.73888997  1
  N  N26  1  0.53871660  0.77397787  0.54783721  1
  N  N27  1  0.55274756  0.53582510  0.77492159  1
  N  N28  1  0.26035333  0.77792371  0.72794648  1
  N  N29  1  0.24180509  0.96935898  0.51198203  1
  N  N30  1  0.03240026  0.48779553  0.76172452  1
  N  N31  1  0.98774784  0.95488409  0.72856208  1
  O  O32  1  0.75753547  0.03386290  0.48358046  1
  O  O33  1  0.74516815  0.22434715  0.27484017  1
  O  O34  1  0.27643825  0.00907520  0.04986408  1
  O  O35  1  0.95956591  0.50792220  0.23726156  1
  O  O36  1  0.95835091  0.73056110  0.98888178  1
  O  O37  1  0.72185710  0.99313287  0.95200407  1
  O  O38  1  0.46025754  0.22451083  0.44360545  1
  O  O39  1  0.45163018  0.46666851  0.22652648  1
