# generated using pymatgen
data_Na5Ni2P2(CO7)2
_symmetry_space_group_name_H-M   'P 1'
_cell_length_a   10.25069220
_cell_length_b   10.48173733
_cell_length_c   6.62726654
_cell_angle_alpha   90.00000000
_cell_angle_beta   90.00000000
_cell_angle_gamma   60.46291739
_symmetry_Int_Tables_number   1
_chemical_formula_structural   Na5Ni2P2(CO7)2
_chemical_formula_sum   'Na10 Ni4 P4 C4 O28'
_cell_volume   619.52456394
_cell_formula_units_Z   2
loop_
 _symmetry_equiv_pos_site_id
 _symmetry_equiv_pos_as_xyz
  1  'x, y, z'
loop_
 _atom_site_type_symbol
 _atom_site_label
 _atom_site_symmetry_multiplicity
 _atom_site_fract_x
 _atom_site_fract_y
 _atom_site_fract_z
 _atom_site_occupancy
  Na  Na0  1  0.01530431  0.24597309  0.48622253  1
  Na  Na1  1  0.01530431  0.24597309  0.01377747  1
  Na  Na2  1  0.48469569  0.25402691  0.98622253  1
  Na  Na3  1  0.48469569  0.25402691  0.51377747  1
  Na  Na4  1  0.85134991  0.06466971  0.75000000  1
  Na  Na5  1  0.64865009  0.43533029  0.25000000  1
  Na  Na6  1  0.49470746  0.76029611  0.00553599  1
  Na  Na7  1  0.49470746  0.76029611  0.49446401  1
  Na  Na8  1  0.00529254  0.73970389  0.99446401  1
  Na  Na9  1  0.00529254  0.73970389  0.50553599  1
  Ni  Ni10  1  0.28547477  0.06756302  0.75000000  1
  Ni  Ni11  1  0.21452523  0.43243698  0.25000000  1
  Ni  Ni12  1  0.78461318  0.56484682  0.75000000  1
  Ni  Ni13  1  0.71538682  0.93515318  0.25000000  1
  P  P14  1  0.35544255  0.06593746  0.25000000  1
  P  P15  1  0.14455745  0.43406254  0.75000000  1
  P  P16  1  0.85264306  0.56755460  0.25000000  1
  P  P17  1  0.64735694  0.93244540  0.75000000  1
  C  C18  1  0.81839240  0.11232626  0.25000000  1
  C  C19  1  0.32873158  0.59930880  0.25000000  1
  C  C20  1  0.68160760  0.38767374  0.75000000  1
  C  C21  1  0.17126842  0.90069120  0.75000000  1
  O  O22  1  0.09382326  0.04470060  0.75000000  1
  O  O23  1  0.27058761  0.05597900  0.06160854  1
  O  O24  1  0.27058761  0.05597900  0.43839146  1
  O  O25  1  0.13878548  0.28902596  0.75000000  1
  O  O26  1  0.01695355  0.43384962  0.25000000  1
  O  O27  1  0.48304645  0.06615038  0.75000000  1
  O  O28  1  0.36121452  0.21097404  0.25000000  1
  O  O29  1  0.22941239  0.44402100  0.93839146  1
  O  O30  1  0.22941239  0.44402100  0.56160854  1
  O  O31  1  0.67313456  0.16375798  0.25000000  1
  O  O32  1  0.18439688  0.65547004  0.25000000  1
  O  O33  1  0.40617674  0.45529940  0.25000000  1
  O  O34  1  0.62737720  0.30060302  0.75000000  1
  O  O35  1  0.10260528  0.82747143  0.75000000  1
  O  O36  1  0.87262280  0.19939698  0.25000000  1
  O  O37  1  0.39739472  0.67252857  0.25000000  1
  O  O38  1  0.59884803  0.52936011  0.75000000  1
  O  O39  1  0.82686544  0.33624202  0.75000000  1
  O  O40  1  0.31560312  0.84452996  0.75000000  1
  O  O41  1  0.76693240  0.55429509  0.06358663  1
  O  O42  1  0.76693240  0.55429509  0.43641337  1
  O  O43  1  0.63938462  0.78878024  0.75000000  1
  O  O44  1  0.51951885  0.93225690  0.25000000  1
  O  O45  1  0.98048115  0.56774310  0.75000000  1
  O  O46  1  0.86061538  0.71121976  0.25000000  1
  O  O47  1  0.73306760  0.94570491  0.56358663  1
  O  O48  1  0.73306760  0.94570491  0.93641337  1
  O  O49  1  0.90115197  0.97063989  0.25000000  1
