# generated using pymatgen
data_Zr2N2O
_symmetry_space_group_name_H-M   'P 1'
_cell_length_a   8.88725489
_cell_length_b   8.88092440
_cell_length_c   8.88243861
_cell_angle_alpha   109.38652214
_cell_angle_beta   109.52119980
_cell_angle_gamma   109.67385773
_symmetry_Int_Tables_number   1
_chemical_formula_structural   Zr2N2O
_chemical_formula_sum   'Zr16 N16 O8'
_cell_volume   538.55592370
_cell_formula_units_Z   8
loop_
 _symmetry_equiv_pos_site_id
 _symmetry_equiv_pos_as_xyz
  1  'x, y, z'
loop_
 _atom_site_type_symbol
 _atom_site_label
 _atom_site_symmetry_multiplicity
 _atom_site_fract_x
 _atom_site_fract_y
 _atom_site_fract_z
 _atom_site_occupancy
  Zr  Zr0  1  0.96551816  0.25873851  0.21791679  1
  Zr  Zr1  1  0.99691775  0.50021233  0.99796994  1
  Zr  Zr2  1  0.71814538  0.47013492  0.25089939  1
  Zr  Zr3  1  0.77858788  0.02997016  0.74976798  1
  Zr  Zr4  1  0.73725358  0.78213955  0.03386148  1
  Zr  Zr5  1  0.75936458  0.29514836  0.54700916  1
  Zr  Zr6  1  0.49823360  0.99115542  0.98644101  1
  Zr  Zr7  1  0.53601533  0.74970696  0.28370004  1
  Zr  Zr8  1  0.46482478  0.25057742  0.72248786  1
  Zr  Zr9  1  0.50376055  0.51171478  0.51278191  1
  Zr  Zr10  1  0.25023055  0.21384496  0.95504256  1
  Zr  Zr11  1  0.24964000  0.71170869  0.46090240  1
  Zr  Zr12  1  0.21841764  0.96007527  0.25676951  1
  Zr  Zr13  1  0.28553400  0.53547395  0.74861642  1
  Zr  Zr14  1  0.00746526  0.99554693  0.50811061  1
  Zr  Zr15  1  0.03428257  0.74424136  0.77582826  1
  N  N16  1  0.96094255  0.50328432  0.23286200  1
  N  N17  1  0.76971104  0.72714421  0.26294561  1
  N  N18  1  0.73164191  0.99515670  0.95926841  1
  N  N19  1  0.76989493  0.53968907  0.53010174  1
  N  N20  1  0.72714752  0.25817713  0.76887112  1
  N  N21  1  0.48919968  0.76537931  0.03473067  1
  N  N22  1  0.22741276  0.44840896  0.46190718  1
  N  N23  1  0.27096645  0.74007866  0.22377004  1
  N  N24  1  0.50913939  0.23975908  0.97115056  1
  N  N25  1  0.22432178  0.27227365  0.73954981  1
  N  N26  1  0.53658144  0.77167221  0.54195381  1
  N  N27  1  0.55237610  0.53605294  0.77374959  1
  N  N28  1  0.26023152  0.77643243  0.72641573  1
  N  N29  1  0.23709315  0.96833097  0.50898280  1
  N  N30  1  0.03272300  0.48909694  0.76333623  1
  N  N31  1  0.98944748  0.95825915  0.73093166  1
  O  O32  1  0.76131390  0.03564394  0.48286567  1
  O  O33  1  0.74170027  0.22269349  0.27680808  1
  O  O34  1  0.27279427  0.01022919  0.04886283  1
  O  O35  1  0.95956619  0.73180339  0.99439396  1
  O  O36  1  0.46210267  0.22405373  0.44771242  1
  O  O37  1  0.44682415  0.46453656  0.22457715  1
  O  O38  1  0.05261485  0.28063612  0.01694964  1
  O  O39  1  0.01006139  0.04081927  0.26919896  1
