# generated using pymatgen
data_Mn2Fe3Sb(PO4)6
_symmetry_space_group_name_H-M   'P 1'
_cell_length_a   8.70139334
_cell_length_b   8.70139305
_cell_length_c   8.70139329
_cell_angle_alpha   59.81437179
_cell_angle_beta   59.81437305
_cell_angle_gamma   59.81437320
_symmetry_Int_Tables_number   1
_chemical_formula_structural   Mn2Fe3Sb(PO4)6
_chemical_formula_sum   'Mn2 Fe3 Sb1 P6 O24'
_cell_volume   463.89277927
_cell_formula_units_Z   1
loop_
 _symmetry_equiv_pos_site_id
 _symmetry_equiv_pos_as_xyz
  1  'x, y, z'
loop_
 _atom_site_type_symbol
 _atom_site_label
 _atom_site_symmetry_multiplicity
 _atom_site_fract_x
 _atom_site_fract_y
 _atom_site_fract_z
 _atom_site_occupancy
  Mn  Mn0  1  0.00673140  0.00673140  0.00673140  1
  Mn  Mn1  1  0.49947305  0.49947305  0.49947305  1
  Fe  Fe2  1  0.14687945  0.14687945  0.14687945  1
  Fe  Fe3  1  0.35387060  0.35387060  0.35387060  1
  Fe  Fe4  1  0.64491355  0.64491355  0.64491355  1
  Sb  Sb5  1  0.85578972  0.85578972  0.85578972  1
  P  P6  1  0.04499402  0.74649760  0.45408336  1
  P  P7  1  0.45408336  0.04499402  0.74649760  1
  P  P8  1  0.74649760  0.45408336  0.04499402  1
  P  P9  1  0.25236764  0.53940575  0.95575367  1
  P  P10  1  0.53940575  0.95575367  0.25236764  1
  P  P11  1  0.95575367  0.25236764  0.53940575  1
  O  O12  1  0.11543219  0.30154740  0.51062065  1
  O  O13  1  0.30154740  0.51062065  0.11543219  1
  O  O14  1  0.05751049  0.91378351  0.26568173  1
  O  O15  1  0.51062065  0.11543219  0.30154740  1
  O  O16  1  0.01162784  0.80555197  0.61610624  1
  O  O17  1  0.23669536  0.58544004  0.44265911  1
  O  O18  1  0.26568173  0.05751049  0.91378351  1
  O  O19  1  0.44265911  0.23669536  0.58544004  1
  O  O20  1  0.18775412  0.38656603  0.99417689  1
  O  O21  1  0.58544004  0.44265911  0.23669536  1
  O  O22  1  0.08160388  0.73906954  0.94033037  1
  O  O23  1  0.38656603  0.99417689  0.18775412  1
  O  O24  1  0.61610624  0.01162784  0.80555197  1
  O  O25  1  0.91378351  0.26568173  0.05751049  1
  O  O26  1  0.41043602  0.56208231  0.76151868  1
  O  O27  1  0.80555197  0.61610624  0.01162784  1
  O  O28  1  0.56208231  0.76151868  0.41043602  1
  O  O29  1  0.73906954  0.94033037  0.08160388  1
  O  O30  1  0.76151868  0.41043602  0.56208231  1
  O  O31  1  0.99417689  0.18775412  0.38656603  1
  O  O32  1  0.49917102  0.88363415  0.69024166  1
  O  O33  1  0.94033037  0.08160388  0.73906954  1
  O  O34  1  0.69024166  0.49917102  0.88363415  1
  O  O35  1  0.88363415  0.69024166  0.49917102  1
