# generated using pymatgen
data_Ac3Zn
_symmetry_space_group_name_H-M   'P 1'
_cell_length_a   6.65528901
_cell_length_b   6.65528901
_cell_length_c   6.65528901
_cell_angle_alpha   134.46611181
_cell_angle_beta   134.46611181
_cell_angle_gamma   66.36088264
_symmetry_Int_Tables_number   1
_chemical_formula_structural   Ac3Zn
_chemical_formula_sum   'Ac3 Zn1'
_cell_volume   147.79037483
_cell_formula_units_Z   1
loop_
 _symmetry_equiv_pos_site_id
 _symmetry_equiv_pos_as_xyz
  1  'x, y, z'
loop_
 _atom_site_type_symbol
 _atom_site_label
 _atom_site_symmetry_multiplicity
 _atom_site_fract_x
 _atom_site_fract_y
 _atom_site_fract_z
 _atom_site_occupancy
  Ac  Ac0  1  0.74999900  0.25000000  0.49999900  1
  Ac  Ac1  1  0.25000000  0.74999900  0.49999900  1
  Ac  Ac2  1  0.50000000  0.50000000  0.00000000  1
  Zn  Zn3  1  -0.00000000  0.00000000  0.00000000  1
