# generated using pymatgen
data_Li2Mn2(SO4)3
_symmetry_space_group_name_H-M   'P 1'
_cell_length_a   12.60576608
_cell_length_b   8.77032872
_cell_length_c   9.02385036
_cell_angle_alpha   90.00000000
_cell_angle_beta   90.00000000
_cell_angle_gamma   90.00000000
_symmetry_Int_Tables_number   1
_chemical_formula_structural   Li2Mn2(SO4)3
_chemical_formula_sum   'Li8 Mn8 S12 O48'
_cell_volume   997.64722799
_cell_formula_units_Z   4
loop_
 _symmetry_equiv_pos_site_id
 _symmetry_equiv_pos_as_xyz
  1  'x, y, z'
loop_
 _atom_site_type_symbol
 _atom_site_label
 _atom_site_symmetry_multiplicity
 _atom_site_fract_x
 _atom_site_fract_y
 _atom_site_fract_z
 _atom_site_occupancy
  Li  Li0  1  0.18121845  0.21592738  0.27774411  1
  Li  Li1  1  0.18121845  0.78407262  0.77774411  1
  Li  Li2  1  0.31878155  0.28407262  0.77774411  1
  Li  Li3  1  0.31878155  0.71592738  0.27774411  1
  Li  Li4  1  0.68121845  0.28407262  0.72225589  1
  Li  Li5  1  0.68121845  0.71592738  0.22225589  1
  Li  Li6  1  0.81878155  0.21592738  0.22225589  1
  Li  Li7  1  0.81878155  0.78407262  0.72225589  1
  Mn  Mn8  1  0.10923796  0.25246781  0.95894262  1
  Mn  Mn9  1  0.10923796  0.74753219  0.45894262  1
  Mn  Mn10  1  0.39076204  0.75246781  0.95894262  1
  Mn  Mn11  1  0.39076204  0.24753219  0.45894262  1
  Mn  Mn12  1  0.60923796  0.24753219  0.04105738  1
  Mn  Mn13  1  0.60923796  0.75246781  0.54105738  1
  Mn  Mn14  1  0.89076204  0.25246781  0.54105738  1
  Mn  Mn15  1  0.89076204  0.74753219  0.04105738  1
  S  S16  1  0.00000000  0.45267688  0.25000000  1
  S  S17  1  0.00000000  0.54732312  0.75000000  1
  S  S18  1  0.14751852  0.10236000  0.60571477  1
  S  S19  1  0.14751852  0.89764000  0.10571477  1
  S  S20  1  0.35248148  0.39764000  0.10571477  1
  S  S21  1  0.35248148  0.60236000  0.60571477  1
  S  S22  1  0.50000000  0.04732312  0.75000000  1
  S  S23  1  0.50000000  0.95267688  0.25000000  1
  S  S24  1  0.64751852  0.39764000  0.39428523  1
  S  S25  1  0.64751852  0.60236000  0.89428523  1
  S  S26  1  0.85248148  0.10236000  0.89428523  1
  S  S27  1  0.85248148  0.89764000  0.39428523  1
  O  O28  1  0.03546221  0.13605532  0.57861017  1
  O  O29  1  0.03546221  0.86394468  0.07861017  1
  O  O30  1  0.05507038  0.54472116  0.36189764  1
  O  O31  1  0.05507038  0.45527884  0.86189764  1
  O  O32  1  0.08020896  0.35123337  0.17675922  1
  O  O33  1  0.08020896  0.64876663  0.67675922  1
  O  O34  1  0.16300494  0.06670495  0.11432755  1
  O  O35  1  0.16300494  0.93329505  0.61432755  1
  O  O36  1  0.18349702  0.17165655  0.74900902  1
  O  O37  1  0.18349702  0.82834345  0.24900902  1
  O  O38  1  0.21444149  0.83538259  0.98263529  1
  O  O39  1  0.21444149  0.16461741  0.48263529  1
  O  O40  1  0.28555851  0.33538259  0.98263529  1
  O  O41  1  0.28555851  0.66461741  0.48263529  1
  O  O42  1  0.31650298  0.67165655  0.74900902  1
  O  O43  1  0.31650298  0.32834345  0.24900902  1
  O  O44  1  0.33699506  0.43329505  0.61432755  1
  O  O45  1  0.33699506  0.56670495  0.11432755  1
  O  O46  1  0.41979104  0.14876663  0.67675922  1
  O  O47  1  0.41979104  0.85123337  0.17675922  1
  O  O48  1  0.44492962  0.04472116  0.36189764  1
  O  O49  1  0.44492962  0.95527884  0.86189764  1
  O  O50  1  0.46453779  0.63605532  0.57861017  1
  O  O51  1  0.46453779  0.36394468  0.07861017  1
  O  O52  1  0.53546221  0.36394468  0.42138983  1
  O  O53  1  0.53546221  0.63605532  0.92138983  1
  O  O54  1  0.55507038  0.04472116  0.13810236  1
  O  O55  1  0.55507038  0.95527884  0.63810236  1
  O  O56  1  0.58020896  0.14876663  0.82324078  1
  O  O57  1  0.58020896  0.85123337  0.32324078  1
  O  O58  1  0.66300494  0.43329505  0.88567245  1
  O  O59  1  0.66300494  0.56670495  0.38567245  1
  O  O60  1  0.68349702  0.32834345  0.25099098  1
  O  O61  1  0.68349702  0.67165655  0.75099098  1
  O  O62  1  0.71444149  0.33538259  0.51736471  1
  O  O63  1  0.71444149  0.66461741  0.01736471  1
  O  O64  1  0.78555851  0.16461741  0.01736471  1
  O  O65  1  0.78555851  0.83538259  0.51736471  1
  O  O66  1  0.81650298  0.17165655  0.75099098  1
  O  O67  1  0.81650298  0.82834345  0.25099098  1
  O  O68  1  0.83699506  0.06670495  0.38567245  1
  O  O69  1  0.83699506  0.93329505  0.88567245  1
  O  O70  1  0.91979104  0.35123337  0.32324078  1
  O  O71  1  0.91979104  0.64876663  0.82324078  1
  O  O72  1  0.94492962  0.45527884  0.63810236  1
  O  O73  1  0.94492962  0.54472116  0.13810236  1
  O  O74  1  0.96453779  0.13605532  0.92138983  1
  O  O75  1  0.96453779  0.86394468  0.42138983  1
