# generated using pymatgen
data_V2O3F
_symmetry_space_group_name_H-M   'P 1'
_cell_length_a   4.69325064
_cell_length_b   4.69325064
_cell_length_c   12.12989063
_cell_angle_alpha   90.00000000
_cell_angle_beta   90.00000000
_cell_angle_gamma   93.78300793
_symmetry_Int_Tables_number   1
_chemical_formula_structural   V2O3F
_chemical_formula_sum   'V8 O12 F4'
_cell_volume   266.59810357
_cell_formula_units_Z   4
loop_
 _symmetry_equiv_pos_site_id
 _symmetry_equiv_pos_as_xyz
  1  'x, y, z'
loop_
 _atom_site_type_symbol
 _atom_site_label
 _atom_site_symmetry_multiplicity
 _atom_site_fract_x
 _atom_site_fract_y
 _atom_site_fract_z
 _atom_site_occupancy
  V  V0  1  0.00000000  0.00000000  0.00000000  1
  V  V1  1  0.99358293  0.00641707  0.25000000  1
  V  V2  1  0.00000000  0.00000000  0.50000000  1
  V  V3  1  0.00641707  0.99358293  0.75000000  1
  V  V4  1  0.54173258  0.45826742  0.12478190  1
  V  V5  1  0.45826742  0.54173258  0.62478190  1
  V  V6  1  0.45826742  0.54173258  0.87521810  1
  V  V7  1  0.54173258  0.45826742  0.37521810  1
  O  O8  1  0.19711397  0.80288603  0.87558931  1
  O  O9  1  0.19711397  0.80288603  0.62441069  1
  O  O10  1  0.30731899  0.30731899  0.00000000  1
  O  O11  1  0.31053247  0.30351568  0.25000000  1
  O  O12  1  0.30731899  0.30731899  0.50000000  1
  O  O13  1  0.30351568  0.31053247  0.75000000  1
  O  O14  1  0.69268101  0.69268101  0.00000000  1
  O  O15  1  0.69648432  0.68946753  0.25000000  1
  O  O16  1  0.69268101  0.69268101  0.50000000  1
  O  O17  1  0.68946753  0.69648432  0.75000000  1
  O  O18  1  0.80288603  0.19711397  0.12441069  1
  O  O19  1  0.80288603  0.19711397  0.37558931  1
  F  F20  1  0.20025960  0.79974040  0.12560741  1
  F  F21  1  0.20025960  0.79974040  0.37439259  1
  F  F22  1  0.79974040  0.20025960  0.62560741  1
  F  F23  1  0.79974040  0.20025960  0.87439259  1
