# generated using pymatgen
data_Li8Mn3Fe5(BO3)8
_symmetry_space_group_name_H-M   'P 1'
_cell_length_a   6.00731164
_cell_length_b   9.76905269
_cell_length_c   9.72835135
_cell_angle_alpha   64.98357722
_cell_angle_beta   78.59927498
_cell_angle_gamma   79.56472581
_symmetry_Int_Tables_number   1
_chemical_formula_structural   Li8Mn3Fe5(BO3)8
_chemical_formula_sum   'Li8 Mn3 Fe5 B8 O24'
_cell_volume   504.08162756
_cell_formula_units_Z   1
loop_
 _symmetry_equiv_pos_site_id
 _symmetry_equiv_pos_as_xyz
  1  'x, y, z'
loop_
 _atom_site_type_symbol
 _atom_site_label
 _atom_site_symmetry_multiplicity
 _atom_site_fract_x
 _atom_site_fract_y
 _atom_site_fract_z
 _atom_site_occupancy
  Li  Li0  1  0.95306045  0.18468277  0.53423426  1
  Li  Li1  1  0.95708955  0.68859365  0.03531091  1
  Li  Li2  1  0.54390885  0.81229550  0.96567994  1
  Li  Li3  1  0.45737522  0.68774132  0.53323314  1
  Li  Li4  1  0.54491183  0.31285996  0.46603648  1
  Li  Li5  1  0.45565108  0.18593156  0.03371272  1
  Li  Li6  1  0.04568726  0.31452033  0.96452474  1
  Li  Li7  1  0.04404796  0.81148812  0.46550674  1
  Mn  Mn8  1  0.68511566  0.37673868  0.70539849  1
  Mn  Mn9  1  0.31410661  0.12213419  0.79466086  1
  Mn  Mn10  1  0.18585638  0.37706634  0.20575811  1
  Fe  Fe11  1  0.81783674  0.62772283  0.79725411  1
  Fe  Fe12  1  0.68316703  0.87760379  0.20887310  1
  Fe  Fe13  1  0.81779216  0.12824915  0.29290032  1
  Fe  Fe14  1  0.18270999  0.87058027  0.70405996  1
  Fe  Fe15  1  0.31892729  0.63104404  0.29203871  1
  B  B16  1  0.66679830  0.95834458  0.63174843  1
  B  B17  1  0.83060125  0.03513852  0.86927309  1
  B  B18  1  0.83516266  0.54022462  0.36553818  1
  B  B19  1  0.66607305  0.46081690  0.13298609  1
  B  B20  1  0.33431455  0.54035877  0.86718409  1
  B  B21  1  0.16916738  0.46290910  0.63155500  1
  B  B22  1  0.16215435  0.96243233  0.13392427  1
  B  B23  1  0.33219048  0.03779152  0.36863143  1
  O  O24  1  0.81913185  0.89337808  0.98834969  1
  O  O25  1  0.98919628  0.43882718  0.75258584  1
  O  O26  1  0.98386129  0.93626178  0.25625035  1
  O  O27  1  0.84098103  0.84150758  0.63468370  1
  O  O28  1  0.82454579  0.39675318  0.48175022  1
  O  O29  1  0.48718723  0.93157141  0.75271445  1
  O  O30  1  0.83405628  0.34113015  0.13543150  1
  O  O31  1  0.66045384  0.15349356  0.86583273  1
  O  O32  1  0.66166591  0.65737335  0.36133902  1
  O  O33  1  0.51417103  0.56836283  0.74667087  1
  O  O34  1  0.67603922  0.10082216  0.51365469  1
  O  O35  1  0.68122296  0.60177023  0.01366679  1
  O  O36  1  0.32455634  0.39665463  0.98347306  1
  O  O37  1  0.32143910  0.89603021  0.48732433  1
  O  O38  1  0.48806932  0.43880590  0.25433338  1
  O  O39  1  0.33993118  0.34486907  0.63468921  1
  O  O40  1  0.33272904  0.84428719  0.13481318  1
  O  O41  1  0.16085767  0.65701323  0.86631935  1
  O  O42  1  0.51333692  0.06156722  0.24758968  1
  O  O43  1  0.18092188  0.60458394  0.51306655  1
  O  O44  1  0.16108874  0.15501594  0.36480195  1
  O  O45  1  0.01015685  0.05987950  0.74770315  1
  O  O46  1  0.01678298  0.56782759  0.24563578  1
  O  O47  1  0.17391019  0.10494827  0.01729836  1
