# generated using pymatgen
data_Na5CoO4
_symmetry_space_group_name_H-M   'P 1'
_cell_length_a   5.92145515
_cell_length_b   7.67072122
_cell_length_c   6.07293639
_cell_angle_alpha   90.00000000
_cell_angle_beta   90.00000000
_cell_angle_gamma   90.00000000
_symmetry_Int_Tables_number   1
_chemical_formula_structural   Na5CoO4
_chemical_formula_sum   'Na10 Co2 O8'
_cell_volume   275.84389446
_cell_formula_units_Z   2
loop_
 _symmetry_equiv_pos_site_id
 _symmetry_equiv_pos_as_xyz
  1  'x, y, z'
loop_
 _atom_site_type_symbol
 _atom_site_label
 _atom_site_symmetry_multiplicity
 _atom_site_fract_x
 _atom_site_fract_y
 _atom_site_fract_z
 _atom_site_occupancy
  Na  Na0  1  0.06758642  0.31639984  0.93170126  1
  Na  Na1  1  0.06758642  0.68360016  0.93170126  1
  Na  Na2  1  0.25134375  0.69916754  0.38858958  1
  Na  Na3  1  0.25134375  0.30083246  0.38858958  1
  Na  Na4  1  0.25383033  0.00000000  0.67468174  1
  Na  Na5  1  0.56758642  0.81639984  0.06829874  1
  Na  Na6  1  0.56758642  0.18360016  0.06829874  1
  Na  Na7  1  0.75134375  0.80083246  0.61141042  1
  Na  Na8  1  0.75134375  0.19916754  0.61141042  1
  Na  Na9  1  0.75383033  0.50000000  0.32531826  1
  Co  Co10  1  0.00497233  0.00000000  0.17409024  1
  Co  Co11  1  0.50497233  0.50000000  0.82590976  1
  O  O12  1  0.31093551  0.00000000  0.25901703  1
  O  O13  1  0.40313800  0.50000000  0.12849988  1
  O  O14  1  0.39861075  0.27906040  0.73263757  1
  O  O15  1  0.39861075  0.72093960  0.73263757  1
  O  O16  1  0.81093551  0.50000000  0.74098297  1
  O  O17  1  0.90313800  0.00000000  0.87150012  1
  O  O18  1  0.89861075  0.77906040  0.26736243  1
  O  O19  1  0.89861075  0.22093960  0.26736243  1
