# generated using pymatgen
data_V2O3F
_symmetry_space_group_name_H-M   'P 1'
_cell_length_a   4.67878343
_cell_length_b   4.67878343
_cell_length_c   15.17475210
_cell_angle_alpha   90.00000000
_cell_angle_beta   90.00000000
_cell_angle_gamma   93.43689507
_symmetry_Int_Tables_number   1
_chemical_formula_structural   V2O3F
_chemical_formula_sum   'V10 O15 F5'
_cell_volume   331.59324888
_cell_formula_units_Z   5
loop_
 _symmetry_equiv_pos_site_id
 _symmetry_equiv_pos_as_xyz
  1  'x, y, z'
loop_
 _atom_site_type_symbol
 _atom_site_label
 _atom_site_symmetry_multiplicity
 _atom_site_fract_x
 _atom_site_fract_y
 _atom_site_fract_z
 _atom_site_occupancy
  V  V0  1  0.00931810  0.99068190  0.40025551  1
  V  V1  1  0.00332490  0.99667510  0.20022678  1
  V  V2  1  0.00332490  0.99667510  0.99977322  1
  V  V3  1  0.01151920  0.98848080  0.60000000  1
  V  V4  1  0.00931810  0.99068190  0.79974449  1
  V  V5  1  0.54651159  0.45348841  0.10000000  1
  V  V6  1  0.46741357  0.53258643  0.49981618  1
  V  V7  1  0.46741357  0.53258643  0.70018382  1
  V  V8  1  0.46296207  0.53703793  0.90053450  1
  V  V9  1  0.46296207  0.53703793  0.29946550  1
  O  O10  1  0.20027461  0.79972539  0.90015027  1
  O  O11  1  0.20360198  0.79639802  0.70011956  1
  O  O12  1  0.20027461  0.79972539  0.29984973  1
  O  O13  1  0.20360198  0.79639802  0.49988044  1
  O  O14  1  0.31183577  0.30382242  0.00017833  1
  O  O15  1  0.31183577  0.30382242  0.19982167  1
  O  O16  1  0.30778012  0.30602765  0.39969644  1
  O  O17  1  0.31074596  0.30322697  0.60000000  1
  O  O18  1  0.30778012  0.30602765  0.80030356  1
  O  O19  1  0.69617758  0.68816423  0.00017833  1
  O  O20  1  0.69617758  0.68816423  0.19982167  1
  O  O21  1  0.69397235  0.69221988  0.39969644  1
  O  O22  1  0.69677303  0.68925404  0.60000000  1
  O  O23  1  0.69397235  0.69221988  0.80030356  1
  O  O24  1  0.80811497  0.19188503  0.10000000  1
  F  F25  1  0.20600816  0.79399184  0.10000000  1
  F  F26  1  0.80075146  0.19924854  0.30081294  1
  F  F27  1  0.80275052  0.19724948  0.50040412  1
  F  F28  1  0.80075146  0.19924854  0.89918706  1
  F  F29  1  0.80275052  0.19724948  0.69959588  1
