# generated using pymatgen
data_Zr2N2O
_symmetry_space_group_name_H-M   'P 1'
_cell_length_a   8.88664349
_cell_length_b   8.86917951
_cell_length_c   8.86138871
_cell_angle_alpha   109.31487378
_cell_angle_beta   109.41995798
_cell_angle_gamma   109.58025823
_symmetry_Int_Tables_number   1
_chemical_formula_structural   Zr2N2O
_chemical_formula_sum   'Zr16 N16 O8'
_cell_volume   538.30266115
_cell_formula_units_Z   8
loop_
 _symmetry_equiv_pos_site_id
 _symmetry_equiv_pos_as_xyz
  1  'x, y, z'
loop_
 _atom_site_type_symbol
 _atom_site_label
 _atom_site_symmetry_multiplicity
 _atom_site_fract_x
 _atom_site_fract_y
 _atom_site_fract_z
 _atom_site_occupancy
  Zr  Zr0  1  0.49949063  0.99901464  0.98781178  1
  Zr  Zr1  1  0.74951737  0.29146872  0.54181911  1
  Zr  Zr2  1  0.72015132  0.47220220  0.24906599  1
  Zr  Zr3  1  0.21704278  0.96052755  0.24913429  1
  Zr  Zr4  1  0.24966864  0.21315573  0.95359043  1
  Zr  Zr5  1  0.99759069  0.50815135  0.99605122  1
  Zr  Zr6  1  0.96601808  0.25884693  0.21803049  1
  Zr  Zr7  1  0.99836611  0.99854011  0.50809481  1
  Zr  Zr8  1  0.50293423  0.49880705  0.50984798  1
  Zr  Zr9  1  0.53328191  0.74948405  0.29183959  1
  Zr  Zr10  1  0.02925238  0.74132116  0.77590433  1
  Zr  Zr11  1  0.46935798  0.25534655  0.71666536  1
  Zr  Zr12  1  0.75214537  0.78261041  0.03431899  1
  Zr  Zr13  1  0.28236325  0.53381466  0.74502166  1
  Zr  Zr14  1  0.77992337  0.03060628  0.75471853  1
  Zr  Zr15  1  0.25041495  0.70653100  0.46357429  1
  N  N16  1  0.73044809  0.99260457  0.96195391  1
  N  N17  1  0.51032048  0.23722542  0.97147484  1
  N  N18  1  0.77025380  0.54210444  0.52768270  1
  N  N19  1  0.76961614  0.73017122  0.26221659  1
  N  N20  1  0.72908319  0.25734882  0.77306581  1
  N  N21  1  0.46220110  0.22459319  0.45286042  1
  N  N22  1  0.96400118  0.50553372  0.23660173  1
  N  N23  1  0.22650339  0.45151458  0.46492887  1
  N  N24  1  0.95668895  0.73081007  0.98970428  1
  N  N25  1  0.27543603  0.74308413  0.22687286  1
  N  N26  1  0.53732727  0.77268288  0.54254336  1
  N  N27  1  0.98971238  0.95955379  0.72899482  1
  N  N28  1  0.22623735  0.26932521  0.73649108  1
  N  N29  1  0.54709381  0.53505074  0.77496182  1
  N  N30  1  0.03414332  0.48797380  0.76095670  1
  N  N31  1  0.26717559  0.77995745  0.72960751  1
  O  O32  1  0.74034070  0.22076408  0.27626370  1
  O  O33  1  0.76263501  0.03592720  0.48292198  1
  O  O34  1  0.27379517  0.01022451  0.04670825  1
  O  O35  1  0.05320291  0.27476888  0.01966099  1
  O  O36  1  0.44620424  0.46621670  0.22149578  1
  O  O37  1  0.48774107  0.76375592  0.03566114  1
  O  O38  1  0.22799332  0.96126061  0.50422642  1
  O  O39  1  0.01432643  0.04712067  0.27665559  1
