# generated using pymatgen
data_Li3MnFe2(BO3)3
_symmetry_space_group_name_H-M   'P 1'
_cell_length_a   8.25993020
_cell_length_b   14.28893815
_cell_length_c   3.15082488
_cell_angle_alpha   90.00000000
_cell_angle_beta   90.00000000
_cell_angle_gamma   90.01503384
_symmetry_Int_Tables_number   1
_chemical_formula_structural   Li3MnFe2(BO3)3
_chemical_formula_sum   'Li6 Mn2 Fe4 B6 O18'
_cell_volume   371.87808415
_cell_formula_units_Z   2
loop_
 _symmetry_equiv_pos_site_id
 _symmetry_equiv_pos_as_xyz
  1  'x, y, z'
loop_
 _atom_site_type_symbol
 _atom_site_label
 _atom_site_symmetry_multiplicity
 _atom_site_fract_x
 _atom_site_fract_y
 _atom_site_fract_z
 _atom_site_occupancy
  Li  Li0  1  0.29179630  0.99116961  0.50000000  1
  Li  Li1  1  0.33998431  0.35762839  0.50000000  1
  Li  Li2  1  0.36472741  0.65082760  0.50000000  1
  Li  Li3  1  0.79399603  0.49149412  0.50000000  1
  Li  Li4  1  0.84096571  0.85817320  0.50000000  1
  Li  Li5  1  0.86657836  0.15039710  0.50000000  1
  Mn  Mn6  1  0.67416550  0.31400657  0.00000000  1
  Mn  Mn7  1  0.69144859  0.68005244  0.00000000  1
  Fe  Fe8  1  0.13904872  0.50371869  0.00000000  1
  Fe  Fe9  1  0.17612298  0.81515436  0.00000000  1
  Fe  Fe10  1  0.18879953  0.18012717  0.00000000  1
  Fe  Fe11  1  0.63573579  0.00407307  0.00000000  1
  B  B12  1  0.00235714  0.66674870  0.50000000  1
  B  B13  1  0.99962077  0.00010267  0.00000000  1
  B  B14  1  0.00221973  0.33310375  0.50000000  1
  B  B15  1  0.49774046  0.16539988  0.50000000  1
  B  B16  1  0.49893571  0.50061150  0.00000000  1
  B  B17  1  0.49884179  0.83478560  0.50000000  1
  O  O18  1  0.01362862  0.43033569  0.50000000  1
  O  O19  1  0.01891879  0.76378708  0.50000000  1
  O  O20  1  0.13825706  0.60917471  0.50000000  1
  O  O21  1  0.14168165  0.27862207  0.50000000  1
  O  O22  1  0.15111078  0.95742676  0.00000000  1
  O  O23  1  0.34374815  0.12587393  0.50000000  1
  O  O24  1  0.34754177  0.79155755  0.50000000  1
  O  O25  1  0.36179313  0.44376913  0.00000000  1
  O  O26  1  0.48159192  0.59743250  0.00000000  1
  O  O27  1  0.51010565  0.93194238  0.50000000  1
  O  O28  1  0.51412996  0.26261988  0.50000000  1
  O  O29  1  0.63549933  0.10901507  0.50000000  1
  O  O30  1  0.63859888  0.78091187  0.50000000  1
  O  O31  1  0.65292394  0.46054496  0.00000000  1
  O  O32  1  0.84872720  0.62636802  0.50000000  1
  O  O33  1  0.85137596  0.29026050  0.50000000  1
  O  O34  1  0.85974306  0.94545988  0.00000000  1
  O  O35  1  0.98754131  0.09732661  0.00000000  1
