# generated using pymatgen
data_Li8Mn3Fe5(BO3)8
_symmetry_space_group_name_H-M   'P 1'
_cell_length_a   6.02856350
_cell_length_b   5.22858558
_cell_length_c   16.20040504
_cell_angle_alpha   90.82002739
_cell_angle_beta   98.38560665
_cell_angle_gamma   88.92713585
_symmetry_Int_Tables_number   1
_chemical_formula_structural   Li8Mn3Fe5(BO3)8
_chemical_formula_sum   'Li8 Mn3 Fe5 B8 O24'
_cell_volume   505.06814999
_cell_formula_units_Z   1
loop_
 _symmetry_equiv_pos_site_id
 _symmetry_equiv_pos_as_xyz
  1  'x, y, z'
loop_
 _atom_site_type_symbol
 _atom_site_label
 _atom_site_symmetry_multiplicity
 _atom_site_fract_x
 _atom_site_fract_y
 _atom_site_fract_z
 _atom_site_occupancy
  Li  Li0  1  0.06307846  0.84797746  0.60938866  1
  Li  Li1  1  0.43392515  0.15218956  0.89025985  1
  Li  Li2  1  0.18783609  0.65255401  0.14304186  1
  Li  Li3  1  0.31465511  0.34786539  0.35912758  1
  Li  Li4  1  0.68612197  0.65219601  0.63981350  1
  Li  Li5  1  0.81341502  0.34762109  0.85843855  1
  Li  Li6  1  0.56701386  0.84656087  0.11112320  1
  Li  Li7  1  0.93448711  0.15036797  0.38971928  1
  Mn  Mn8  1  0.27428830  0.67004162  0.95890268  1
  Mn  Mn9  1  0.51951315  0.16888093  0.70867217  1
  Mn  Mn10  1  0.72477773  0.32965871  0.04050256  1
  Fe  Fe11  1  0.02894466  0.16627681  0.20827760  1
  Fe  Fe12  1  0.22226985  0.33117895  0.53764278  1
  Fe  Fe13  1  0.47573671  0.83429372  0.29313238  1
  Fe  Fe14  1  0.77539794  0.66401373  0.46061349  1
  Fe  Fe15  1  0.97251529  0.83839767  0.79075382  1
  B  B16  1  0.03625484  0.33110699  0.70197906  1
  B  B17  1  0.28799676  0.82972204  0.45360812  1
  B  B18  1  0.46227231  0.67119428  0.79670854  1
  B  B19  1  0.21550009  0.16765972  0.04906563  1
  B  B20  1  0.78520663  0.83034140  0.95095021  1
  B  B21  1  0.53953624  0.32912738  0.20409767  1
  B  B22  1  0.71209077  0.17183490  0.54572947  1
  B  B23  1  0.96246978  0.66888944  0.29805603  1
  O  O24  1  0.01210118  0.59177025  0.69116011  1
  O  O25  1  0.16576065  0.18551940  0.65280074  1
  O  O26  1  0.17563316  0.70911840  0.51093976  1
  O  O27  1  0.32919841  0.28733588  0.99190401  1
  O  O28  1  0.07754381  0.79428030  0.24216727  1
  O  O29  1  0.32763545  0.82133695  0.84282768  1
  O  O30  1  0.08257825  0.31650015  0.09689466  1
  O  O31  1  0.26405090  0.09253162  0.44218100  1
  O  O32  1  0.48520210  0.41039893  0.81069326  1
  O  O33  1  0.23676984  0.90699313  0.06155824  1
  O  O34  1  0.41933779  0.68583099  0.40459560  1
  O  O35  1  0.42307861  0.20415792  0.25977913  1
  O  O36  1  0.58029934  0.78730601  0.74009656  1
  O  O37  1  0.57971235  0.31708349  0.59342008  1
  O  O38  1  0.76424641  0.09127614  0.93827668  1
  O  O39  1  0.51412046  0.58960223  0.19219438  1
  O  O40  1  0.73698425  0.91043985  0.55680748  1
  O  O41  1  0.91778257  0.68094875  0.90336489  1
  O  O42  1  0.67296162  0.18160795  0.15648696  1
  O  O43  1  0.92516311  0.20669359  0.75948326  1
  O  O44  1  0.67026891  0.71250327  0.00820045  1
  O  O45  1  0.82687858  0.29425984  0.48868770  1
  O  O46  1  0.82933938  0.81483711  0.34628667  1
  O  O47  1  0.98805005  0.40772219  0.30959073  1
