# generated using pymatgen
data_Sr2Y2Ni2O7
_symmetry_space_group_name_H-M   'P 1'
_cell_length_a   12.62709540
_cell_length_b   12.62709540
_cell_length_c   12.62709540
_cell_angle_alpha   36.01397767
_cell_angle_beta   154.69546603
_cell_angle_gamma   154.79970328
_symmetry_Int_Tables_number   1
_chemical_formula_structural   Sr2Y2Ni2O7
_chemical_formula_sum   'Sr4 Y4 Ni4 O14'
_cell_volume   365.94569943
_cell_formula_units_Z   2
loop_
 _symmetry_equiv_pos_site_id
 _symmetry_equiv_pos_as_xyz
  1  'x, y, z'
loop_
 _atom_site_type_symbol
 _atom_site_label
 _atom_site_symmetry_multiplicity
 _atom_site_fract_x
 _atom_site_fract_y
 _atom_site_fract_z
 _atom_site_occupancy
  Sr  Sr0  1  0.03489794  0.88717772  0.87039889  1
  Sr  Sr1  1  0.01677883  0.16449905  0.12960111  1
  Sr  Sr2  1  0.03489794  0.66449905  0.64772122  1
  Sr  Sr3  1  0.01677883  0.38717772  0.35227878  1
  Y  Y4  1  0.02805808  0.52805808  0.50000000  1
  Y  Y5  1  0.02805808  0.02805808  0.00000000  1
  Y  Y6  1  0.52802356  0.73235538  0.29566819  1
  Y  Y7  1  0.43668619  0.23235538  0.70433181  1
  Ni  Ni8  1  0.53009532  0.45297887  0.92285959  1
  Ni  Ni9  1  0.53011729  0.60723574  0.07714041  1
  Ni  Ni10  1  0.53009532  0.10723574  0.57711745  1
  Ni  Ni11  1  0.53011729  0.95297887  0.42288255  1
  O  O12  1  0.01181849  0.83137829  0.68044020  1
  O  O13  1  0.15093809  0.33137829  0.31955980  1
  O  O14  1  0.50760049  0.20977094  0.17877803  1
  O  O15  1  0.03099391  0.32882346  0.82122197  1
  O  O16  1  0.50760049  0.82882346  0.79782955  1
  O  O17  1  0.03099391  0.70977094  0.20217045  1
  O  O18  1  0.55232859  0.72971586  0.69876449  1
  O  O19  1  0.03095137  0.85356411  0.30123551  1
  O  O20  1  0.55232859  0.35356411  0.32261374  1
  O  O21  1  0.03095137  0.22971586  0.67738626  1
  O  O22  1  0.52285025  0.88428560  0.31269034  1
  O  O23  1  0.57159527  0.21015891  0.68730966  1
  O  O24  1  0.52285025  0.71015891  0.13856464  1
  O  O25  1  0.57159527  0.38428560  0.86143536  1
