# generated using pymatgen
data_Li8Mn7Fe(BO3)8
_symmetry_space_group_name_H-M   'P 1'
_cell_length_a   5.25732730
_cell_length_b   9.10981418
_cell_length_c   10.52142668
_cell_angle_alpha   91.59460831
_cell_angle_beta   91.07107032
_cell_angle_gamma   89.84107947
_symmetry_Int_Tables_number   1
_chemical_formula_structural   Li8Mn7Fe(BO3)8
_chemical_formula_sum   'Li8 Mn7 Fe1 B8 O24'
_cell_volume   503.62114652
_cell_formula_units_Z   1
loop_
 _symmetry_equiv_pos_site_id
 _symmetry_equiv_pos_as_xyz
  1  'x, y, z'
loop_
 _atom_site_type_symbol
 _atom_site_label
 _atom_site_symmetry_multiplicity
 _atom_site_fract_x
 _atom_site_fract_y
 _atom_site_fract_z
 _atom_site_occupancy
  Li  Li0  1  0.85344196  0.82544601  0.66780759  1
  Li  Li1  1  0.81333856  0.83929060  0.16757128  1
  Li  Li2  1  0.67888185  0.66856624  0.41779319  1
  Li  Li3  1  0.66358253  0.67422888  0.91760738  1
  Li  Li4  1  0.35338456  0.32575342  0.66793173  1
  Li  Li5  1  0.31171473  0.33966063  0.16794897  1
  Li  Li6  1  0.18039976  0.16805733  0.41799810  1
  Li  Li7  1  0.16408706  0.17408776  0.91802413  1
  Mn  Mn8  1  0.82204744  0.50156907  0.13321839  1
  Mn  Mn9  1  0.84142205  0.16172868  0.63374444  1
  Mn  Mn10  1  0.66873982  0.33604514  0.38357186  1
  Mn  Mn11  1  0.66830089  0.00181912  0.88346129  1
  Mn  Mn12  1  0.33932263  0.66257493  0.63070315  1
  Mn  Mn13  1  0.32111784  0.00030271  0.13433572  1
  Mn  Mn14  1  0.16908989  0.50217339  0.88319638  1
  Fe  Fe15  1  0.16480292  0.83809464  0.38225493  1
  B  B16  1  0.82628599  0.17051944  0.12624782  1
  B  B17  1  0.84253473  0.49861569  0.62564732  1
  B  B18  1  0.66616356  0.00069845  0.37734132  1
  B  B19  1  0.67179318  0.33286278  0.87578899  1
  B  B20  1  0.32664997  0.67051050  0.12672632  1
  B  B21  1  0.34210216  0.99870180  0.62453372  1
  B  B22  1  0.16332103  0.50420126  0.37492586  1
  B  B23  1  0.17179206  0.83282369  0.87564671  1
  O  O24  1  0.90308019  0.51876288  0.34514790  1
  O  O25  1  0.91035722  0.82083370  0.86107735  1
  O  O26  1  0.82594296  0.21113242  0.84539441  1
  O  O27  1  0.80521374  0.12389235  0.41698171  1
  O  O28  1  0.78309746  0.86464883  0.36285135  1
  O  O29  1  0.78283421  0.46483023  0.91777163  1
  O  O30  1  0.73358793  0.63582423  0.61097106  1
  O  O31  1  0.71032345  0.03502815  0.09645179  1
  O  O32  1  0.69708928  0.37301283  0.59572025  1
  O  O33  1  0.67759867  0.28938143  0.16695451  1
  O  O34  1  0.58655630  0.68539308  0.11185389  1
  O  O35  1  0.59457039  0.98343923  0.66605766  1
  O  O36  1  0.40517716  0.01204703  0.34823304  1
  O  O37  1  0.41057209  0.32069722  0.86118215  1
  O  O38  1  0.32579981  0.71134586  0.84500388  1
  O  O39  1  0.30375621  0.62697904  0.41532944  1
  O  O40  1  0.27660583  0.36712770  0.36177713  1
  O  O41  1  0.28244830  0.96487073  0.91782756  1
  O  O42  1  0.21141748  0.53508653  0.09594695  1
  O  O43  1  0.23428380  0.13645984  0.61084788  1
  O  O44  1  0.19633922  0.87369500  0.59377918  1
  O  O45  1  0.17786285  0.78911157  0.16787631  1
  O  O46  1  0.08653509  0.18477599  0.11197619  1
  O  O47  1  0.09523421  0.48388798  0.66655622  1
