# generated using pymatgen
data_Mn2AlS4
_symmetry_space_group_name_H-M   'P 1'
_cell_length_a   7.17596366
_cell_length_b   6.99282420
_cell_length_c   7.03428574
_cell_angle_alpha   88.89086759
_cell_angle_beta   121.04159013
_cell_angle_gamma   120.50615634
_symmetry_Int_Tables_number   1
_chemical_formula_structural   Mn2AlS4
_chemical_formula_sum   'Mn4 Al2 S8'
_cell_volume   246.11865083
_cell_formula_units_Z   2
loop_
 _symmetry_equiv_pos_site_id
 _symmetry_equiv_pos_as_xyz
  1  'x, y, z'
loop_
 _atom_site_type_symbol
 _atom_site_label
 _atom_site_symmetry_multiplicity
 _atom_site_fract_x
 _atom_site_fract_y
 _atom_site_fract_z
 _atom_site_occupancy
  Mn  Mn0  1  0.49996696  0.00001085  0.49998540  1
  Mn  Mn1  1  0.50011323  0.49994620  0.50006478  1
  Mn  Mn2  1  0.00000659  0.50001856  -0.00003955  1
  Mn  Mn3  1  -0.00003083  0.50003155  0.49998080  1
  Al  Al4  1  -0.00002078  -0.00000420  -0.00000469  1
  Al  Al5  1  0.50004203  0.00000296  0.00002887  1
  S  S6  1  0.02783010  0.75696406  0.24397267  1
  S  S7  1  0.51012289  0.76988085  0.74946791  1
  S  S8  1  0.47206639  0.75600109  0.24392262  1
  S  S9  1  0.00960567  0.74990501  0.76995485  1
  S  S10  1  0.52791766  0.24398880  0.75609376  1
  S  S11  1  0.48986427  0.23010864  0.25052837  1
  S  S12  1  0.99044490  0.25009818  0.23008910  1
  S  S13  1  0.97212091  0.24301146  0.75599412  1
