# generated using pymatgen
data_Li8Mn7Fe(BO3)8
_symmetry_space_group_name_H-M   'P 1'
_cell_length_a   5.25851706
_cell_length_b   9.11341435
_cell_length_c   11.59420215
_cell_angle_alpha   68.48784417
_cell_angle_beta   77.86803799
_cell_angle_gamma   89.81938485
_symmetry_Int_Tables_number   1
_chemical_formula_structural   Li8Mn7Fe(BO3)8
_chemical_formula_sum   'Li8 Mn7 Fe1 B8 O24'
_cell_volume   503.70781659
_cell_formula_units_Z   1
loop_
 _symmetry_equiv_pos_site_id
 _symmetry_equiv_pos_as_xyz
  1  'x, y, z'
loop_
 _atom_site_type_symbol
 _atom_site_label
 _atom_site_symmetry_multiplicity
 _atom_site_fract_x
 _atom_site_fract_y
 _atom_site_fract_z
 _atom_site_occupancy
  Li  Li0  1  0.97029580  0.95969402  0.41788317  1
  Li  Li1  1  0.70527764  0.71527126  0.91781418  1
  Li  Li2  1  0.51947221  0.49178692  0.66795836  1
  Li  Li3  1  0.72772008  0.75567648  0.16789032  1
  Li  Li4  1  0.47156347  0.45917083  0.41794897  1
  Li  Li5  1  0.20505508  0.21543696  0.91786966  1
  Li  Li6  1  0.01963396  0.99152125  0.66780920  1
  Li  Li7  1  0.22938856  0.25557552  0.16746387  1
  Mn  Mn8  1  0.97700284  0.64455284  0.38314358  1
  Mn  Mn9  1  0.72743140  0.06026711  0.88306608  1
  Mn  Mn10  1  0.52399627  0.84689187  0.63095080  1
  Mn  Mn11  1  0.75345192  0.43300850  0.13453271  1
  Mn  Mn12  1  0.22757541  0.56056580  0.88312204  1
  Mn  Mn13  1  0.25532263  0.93496068  0.13306437  1
  Mn  Mn14  1  0.02468898  0.34486348  0.63351674  1
  Fe  Fe15  1  0.47071690  0.14553916  0.38282051  1
  B  B16  1  0.97701666  0.31256098  0.37712304  1
  B  B17  1  0.73400401  0.39495410  0.87578471  1
  B  B18  1  0.76318032  0.10711723  0.12669114  1
  B  B19  1  0.52980829  0.18632006  0.62462971  1
  B  B20  1  0.47581657  0.81676553  0.37500093  1
  B  B21  1  0.23413142  0.89492454  0.87576201  1
  B  B22  1  0.26315974  0.60733235  0.12618396  1
  B  B23  1  0.02950759  0.68572515  0.62577200  1
  O  O24  1  0.98010916  0.89010235  0.86109947  1
  O  O25  1  0.90349989  0.28853041  0.84520107  1
  O  O26  1  0.82373407  0.50600561  0.91778541  1
  O  O27  1  0.92793375  0.83015372  0.61126951  1
  O  O28  1  0.89899298  0.57528934  0.59563026  1
  O  O29  1  0.76166799  0.15026321  0.66613303  1
  O  O30  1  0.73160330  0.33897106  0.34766708  1
  O  O31  1  0.47987609  0.38980586  0.86137680  1
  O  O32  1  0.40358486  0.78871133  0.84513615  1
  O  O33  1  0.59676944  0.91960756  0.41522609  1
  O  O34  1  0.59545318  0.68620226  0.36191635  1
  O  O35  1  0.32365678  0.00613883  0.91779091  1
  O  O36  1  0.66379427  0.98695420  0.09584436  1
  O  O37  1  0.42878521  0.33079035  0.61111982  1
  O  O38  1  0.39920721  0.07687627  0.59368098  1
  O  O39  1  0.59378824  0.20509773  0.16785128  1
  O  O40  1  0.53039334  0.62885543  0.11206457  1
  O  O41  1  0.26207600  0.65050940  0.66657328  1
  O  O42  1  0.23054559  0.84618870  0.34520382  1
  O  O43  1  0.09710082  0.41545581  0.41713882  1
  O  O44  1  0.10205607  0.18374401  0.36281042  1
  O  O45  1  0.16256075  0.48669552  0.09632731  1
  O  O46  1  0.09400420  0.70592382  0.16692464  1
  O  O47  1  0.03038603  0.12944357  0.11202448  1
