# generated using pymatgen
data_Li8Mn7Fe(BO3)8
_symmetry_space_group_name_H-M   'P 1'
_cell_length_a   5.25051375
_cell_length_b   9.13094243
_cell_length_c   11.60981099
_cell_angle_alpha   68.51199570
_cell_angle_beta   77.71194890
_cell_angle_gamma   89.82138734
_symmetry_Int_Tables_number   1
_chemical_formula_structural   Li8Mn7Fe(BO3)8
_chemical_formula_sum   'Li8 Mn7 Fe1 B8 O24'
_cell_volume   504.32946053
_cell_formula_units_Z   1
loop_
 _symmetry_equiv_pos_site_id
 _symmetry_equiv_pos_as_xyz
  1  'x, y, z'
loop_
 _atom_site_type_symbol
 _atom_site_label
 _atom_site_symmetry_multiplicity
 _atom_site_fract_x
 _atom_site_fract_y
 _atom_site_fract_z
 _atom_site_occupancy
  Li  Li0  1  0.97110540  0.96011748  0.41723094  1
  Li  Li1  1  0.70531833  0.71553669  0.91760729  1
  Li  Li2  1  0.51954183  0.49167325  0.66771358  1
  Li  Li3  1  0.72744224  0.75611239  0.16801152  1
  Li  Li4  1  0.47087733  0.46046215  0.41790057  1
  Li  Li5  1  0.20627951  0.21494146  0.91693962  1
  Li  Li6  1  0.01884432  0.99150251  0.66832638  1
  Li  Li7  1  0.22850718  0.25446285  0.16817824  1
  Mn  Mn8  1  0.97926766  0.64628296  0.38133754  1
  Mn  Mn9  1  0.72481162  0.05929980  0.88531059  1
  Mn  Mn10  1  0.52460377  0.84520695  0.63291943  1
  Mn  Mn11  1  0.75536382  0.43502335  0.13327013  1
  Mn  Mn12  1  0.47681414  0.14374484  0.38354692  1
  Mn  Mn13  1  0.22788539  0.56078686  0.88276904  1
  Mn  Mn14  1  0.02404889  0.34516132  0.63290075  1
  Fe  Fe15  1  0.24835920  0.93532841  0.13235664  1
  B  B16  1  0.97558975  0.31497066  0.37546721  1
  B  B17  1  0.73389524  0.39451502  0.87614225  1
  B  B18  1  0.76188108  0.10467401  0.12718606  1
  B  B19  1  0.52999418  0.18573247  0.62592730  1
  B  B20  1  0.47581463  0.81517963  0.37461012  1
  B  B21  1  0.23238276  0.89452012  0.87654721  1
  B  B22  1  0.26630754  0.60929636  0.12489536  1
  B  B23  1  0.02982739  0.68562314  0.62587161  1
  O  O24  1  0.97855343  0.89019507  0.86145528  1
  O  O25  1  0.90288203  0.28765069  0.84621125  1
  O  O26  1  0.82388522  0.50579253  0.91779452  1
  O  O27  1  0.92924848  0.83028616  0.61117977  1
  O  O28  1  0.89930731  0.57551093  0.59582175  1
  O  O29  1  0.76193407  0.15016196  0.66709155  1
  O  O30  1  0.73072913  0.34594924  0.34520861  1
  O  O31  1  0.47954910  0.39002023  0.86152240  1
  O  O32  1  0.40263552  0.78860676  0.84560104  1
  O  O33  1  0.59684360  0.91484237  0.41757188  1
  O  O34  1  0.59554017  0.68533706  0.36087086  1
  O  O35  1  0.32165211  0.00475018  0.91920255  1
  O  O36  1  0.65643054  0.98548817  0.09816895  1
  O  O37  1  0.42870651  0.33006711  0.61150645  1
  O  O38  1  0.39927585  0.07550852  0.59577181  1
  O  O39  1  0.59856757  0.20649284  0.16631468  1
  O  O40  1  0.53376865  0.62970858  0.11081630  1
  O  O41  1  0.26211764  0.65018684  0.66703997  1
  O  O42  1  0.23221732  0.84718281  0.34347660  1
  O  O43  1  0.09672603  0.41566510  0.41719860  1
  O  O44  1  0.09561853  0.18555884  0.36079540  1
  O  O45  1  0.16363029  0.48808952  0.09657340  1
  O  O46  1  0.10027530  0.71018677  0.16439702  1
  O  O47  1  0.03194241  0.12340506  0.11304206  1
