# generated using pymatgen
data_Li32Mn13Cr3O48
_symmetry_space_group_name_H-M   'P 1'
_cell_length_a   4.99965470
_cell_length_b   8.67740721
_cell_length_c   19.46287144
_cell_angle_alpha   98.24454852
_cell_angle_beta   94.78860432
_cell_angle_gamma   89.75367714
_symmetry_Int_Tables_number   1
_chemical_formula_structural   Li32Mn13Cr3O48
_chemical_formula_sum   'Li32 Mn13 Cr3 O48'
_cell_volume   832.70931893
_cell_formula_units_Z   1
loop_
 _symmetry_equiv_pos_site_id
 _symmetry_equiv_pos_as_xyz
  1  'x, y, z'
loop_
 _atom_site_type_symbol
 _atom_site_label
 _atom_site_symmetry_multiplicity
 _atom_site_fract_x
 _atom_site_fract_y
 _atom_site_fract_z
 _atom_site_occupancy
  Li  Li0  1  0.99158452  0.16844806  0.24944302  1
  Li  Li1  1  0.87548590  0.37457937  0.37512185  1
  Li  Li2  1  0.74971029  0.25003613  0.00007269  1
  Li  Li3  1  0.74574689  0.92039796  0.00054000  1
  Li  Li4  1  0.99147468  0.16825915  0.75017691  1
  Li  Li5  1  0.75554159  0.57977380  0.49993053  1
  Li  Li6  1  0.87463336  0.37464774  0.87481751  1
  Li  Li7  1  0.75135942  0.25026327  0.49996126  1
  Li  Li8  1  0.74480074  0.92055821  0.50088372  1
  Li  Li9  1  0.62476353  0.12508754  0.12501615  1
  Li  Li10  1  0.75615603  0.57988756  0.00011132  1
  Li  Li11  1  0.50711527  0.33158948  0.25043299  1
  Li  Li12  1  0.62713353  0.12443297  0.62483124  1
  Li  Li13  1  0.50033001  0.00027260  0.24996735  1
  Li  Li14  1  0.49398126  0.66845911  0.24990717  1
  Li  Li15  1  0.50867751  0.33433840  0.75057588  1
  Li  Li16  1  0.37699598  0.87430686  0.37485065  1
  Li  Li17  1  0.50014229  0.00006773  0.75004713  1
  Li  Li18  1  0.25006372  0.75017341  0.00007736  1
  Li  Li19  1  0.49021678  0.66561033  0.74922728  1
  Li  Li20  1  0.24497192  0.41999089  0.00019621  1
  Li  Li21  1  0.37285210  0.87560375  0.87518362  1
  Li  Li22  1  0.25506717  0.08083126  0.49949098  1
  Li  Li23  1  0.24972626  0.74966978  0.50002285  1
  Li  Li24  1  0.12488201  0.62504699  0.12502659  1
  Li  Li25  1  0.24229865  0.41923864  0.49964634  1
  Li  Li26  1  0.00613530  0.83138509  0.24995061  1
  Li  Li27  1  0.25411790  0.07967649  0.99948547  1
  Li  Li28  1  0.12521359  0.62445260  0.62513084  1
  Li  Li29  1  0.00014862  0.49986813  0.24993195  1
  Li  Li30  1  0.00874943  0.83160379  0.74992609  1
  Li  Li31  1  0.00078356  0.50010537  0.74987929  1
  Mn  Mn32  1  0.87281211  0.70715467  0.37436508  1
  Mn  Mn33  1  0.87701435  0.04278194  0.87572136  1
  Mn  Mn34  1  0.62569951  0.79141097  0.12502000  1
  Mn  Mn35  1  0.62458504  0.45844955  0.12500395  1
  Mn  Mn36  1  0.62508993  0.79152643  0.62510647  1
  Mn  Mn37  1  0.62614144  0.46015336  0.62569607  1
  Mn  Mn38  1  0.37490052  0.54165042  0.37500076  1
  Mn  Mn39  1  0.37548148  0.21014522  0.37557915  1
  Mn  Mn40  1  0.37348001  0.54002846  0.87434413  1
  Mn  Mn41  1  0.37492711  0.20845255  0.87495655  1
  Mn  Mn42  1  0.12462708  0.95848605  0.12495508  1
  Mn  Mn43  1  0.12578108  0.29142826  0.12495012  1
  Mn  Mn44  1  0.12285266  0.95707674  0.62435591  1
  Cr  Cr45  1  0.88091709  0.04023773  0.37491399  1
  Cr  Cr46  1  0.86816497  0.70902549  0.87513662  1
  Cr  Cr47  1  0.13198060  0.29016174  0.62492712  1
  O  O48  1  0.96359248  0.10697703  0.06909438  1
  O  O49  1  0.92837882  0.78519956  0.06899715  1
  O  O50  1  0.92755998  0.42747580  0.06795859  1
  O  O51  1  0.96190688  0.10269943  0.56817549  1
  O  O52  1  0.82183795  0.96474091  0.18098999  1
  O  O53  1  0.82270353  0.32249371  0.18195968  1
  O  O54  1  0.92830172  0.78429483  0.56909371  1
  O  O55  1  0.92602054  0.42652300  0.56808638  1
  O  O56  1  0.78649370  0.64293311  0.18084872  1
  O  O57  1  0.71176276  0.85340974  0.31833946  1
  O  O58  1  0.82116572  0.96491498  0.68105230  1
  O  O59  1  0.82201644  0.32327011  0.68197253  1
  O  O60  1  0.67804216  0.53434404  0.31897611  1
  O  O61  1  0.67572411  0.17655453  0.31782096  1
  O  O62  1  0.78766541  0.64413434  0.68114589  1
  O  O63  1  0.71957718  0.85660846  0.81924421  1
  O  O64  1  0.46385709  0.60676035  0.06900575  1
  O  O65  1  0.57089110  0.71478356  0.43093990  1
  O  O66  1  0.57168500  0.07369868  0.43209120  1
  O  O67  1  0.67441900  0.53318429  0.81871242  1
  O  O68  1  0.67715945  0.17751267  0.81800866  1
  O  O69  1  0.42781119  0.92741771  0.06807770  1
  O  O70  1  0.42854454  0.28528789  0.06904285  1
  O  O71  1  0.53732656  0.39405173  0.43104379  1
  O  O72  1  0.46350583  0.60745380  0.56910031  1
  O  O73  1  0.57187637  0.71280378  0.93099144  1
  O  O74  1  0.57255425  0.07244337  0.93192792  1
  O  O75  1  0.32246484  0.82258196  0.18192262  1
  O  O76  1  0.32178082  0.46469696  0.18093413  1
  O  O77  1  0.42751320  0.92768285  0.56806786  1
  O  O78  1  0.42631133  0.28730704  0.56923712  1
  O  O79  1  0.53638313  0.39272987  0.93094464  1
  O  O80  1  0.28613336  0.14308999  0.18090899  1
  O  O81  1  0.21325891  0.35739252  0.31903145  1
  O  O82  1  0.32297010  0.82251185  0.68205950  1
  O  O83  1  0.32618374  0.46725171  0.68155944  1
  O  O84  1  0.17726868  0.67767700  0.31800258  1
  O  O85  1  0.17605343  0.03727797  0.31899038  1
  O  O86  1  0.28154779  0.14336253  0.68085728  1
  O  O87  1  0.21208797  0.35592276  0.81889834  1
  O  O88  1  0.07263484  0.57236525  0.43197039  1
  O  O89  1  0.07586219  0.21712275  0.43159961  1
  O  O90  1  0.17936141  0.67681260  0.81786011  1
  O  O91  1  0.17903335  0.03522557  0.81903521  1
  O  O92  1  0.03204745  0.89315461  0.43082012  1
  O  O93  1  0.07365326  0.57429767  0.93199160  1
  O  O94  1  0.07179816  0.21580192  0.93092754  1
  O  O95  1  0.03795454  0.89692617  0.93178839  1
