# generated using pymatgen
data_Li8Mn7Fe(BO3)8
_symmetry_space_group_name_H-M   'P 1'
_cell_length_a   5.25229740
_cell_length_b   5.24615129
_cell_length_c   21.00563887
_cell_angle_alpha   89.10951780
_cell_angle_beta   91.15033643
_cell_angle_gamma   60.18231061
_symmetry_Int_Tables_number   1
_chemical_formula_structural   Li8Mn7Fe(BO3)8
_chemical_formula_sum   'Li8 Mn7 Fe1 B8 O24'
_cell_volume   501.85231502
_cell_formula_units_Z   1
loop_
 _symmetry_equiv_pos_site_id
 _symmetry_equiv_pos_as_xyz
  1  'x, y, z'
loop_
 _atom_site_type_symbol
 _atom_site_label
 _atom_site_symmetry_multiplicity
 _atom_site_fract_x
 _atom_site_fract_y
 _atom_site_fract_z
 _atom_site_occupancy
  Li  Li0  1  0.32110808  0.65090205  0.66616955  1
  Li  Li1  1  0.34742249  0.67885291  0.91629103  1
  Li  Li2  1  0.32103342  0.65088337  0.16600856  1
  Li  Li3  1  0.34917060  0.67879719  0.41599431  1
  Li  Li4  1  0.65199170  0.33524627  0.79106937  1
  Li  Li5  1  0.66172376  0.34869744  0.54119612  1
  Li  Li6  1  0.65136295  0.33834020  0.29110031  1
  Li  Li7  1  0.66164756  0.34837335  0.04101010  1
  Mn  Mn8  1  0.32896123  0.00387583  0.55858971  1
  Mn  Mn9  1  0.32933474  0.00378770  0.05824326  1
  Mn  Mn10  1  0.67893818  0.00068232  0.93267953  1
  Mn  Mn11  1  0.67662039  0.00288705  0.43348375  1
  Mn  Mn12  1  0.99798755  0.32477690  0.68428509  1
  Mn  Mn13  1  0.99708061  0.32279699  0.18340952  1
  Mn  Mn14  1  0.99623224  0.67118822  0.30843911  1
  Fe  Fe15  1  0.00010972  0.67507947  0.80851778  1
  B  B16  1  0.00351784  0.34092074  0.93637353  1
  B  B17  1  0.00294363  0.34138920  0.43711440  1
  B  B18  1  0.33140977  0.00617681  0.81186701  1
  B  B19  1  0.33438178  0.00468035  0.31207758  1
  B  B20  1  0.65951446  0.99723421  0.68786465  1
  B  B21  1  0.65844618  0.99719424  0.18702345  1
  B  B22  1  0.99516935  0.66549825  0.56222523  1
  B  B23  1  0.99513993  0.66567828  0.06201519  1
  O  O24  1  0.06875091  0.25480159  0.79267680  1
  O  O25  1  0.07002326  0.24713650  0.29099412  1
  O  O26  1  0.25425274  0.06989020  0.95173890  1
  O  O27  1  0.03334206  0.57836465  0.91588302  1
  O  O28  1  0.25341053  0.07008303  0.45217853  1
  O  O29  1  0.03333334  0.57896660  0.41652053  1
  O  O30  1  0.58194343  0.02630567  0.82630456  1
  O  O31  1  0.26888171  0.64101184  0.56951668  1
  O  O32  1  0.57746558  0.03801828  0.32736334  1
  O  O33  1  0.26894497  0.64086714  0.06926811  1
  O  O34  1  0.34867573  0.73362740  0.81823664  1
  O  O35  1  0.35911694  0.73086942  0.31944344  1
  O  O36  1  0.63046415  0.27229334  0.69469196  1
  O  O37  1  0.62907824  0.27214501  0.19428486  1
  O  O38  1  0.72869020  0.37016871  0.94368114  1
  O  O39  1  0.42169356  0.96700736  0.66706471  1
  O  O40  1  0.72823197  0.37100083  0.44435331  1
  O  O41  1  0.42106674  0.96648613  0.16650507  1
  O  O42  1  0.96240904  0.42241051  0.57763869  1
  O  O43  1  0.96230932  0.42228555  0.07735424  1
  O  O44  1  0.75254535  0.92989275  0.54112534  1
  O  O45  1  0.75270053  0.92987610  0.04094271  1
  O  O46  1  0.93021911  0.74709215  0.70327660  1
  O  O47  1  0.93000644  0.74665590  0.20210857  1
