# generated using pymatgen
data_Li8Mn7Fe(BO3)8
_symmetry_space_group_name_H-M   'P 1'
_cell_length_a   5.26278892
_cell_length_b   9.11645462
_cell_length_c   11.62481487
_cell_angle_alpha   68.43311028
_cell_angle_beta   77.76755392
_cell_angle_gamma   89.79162804
_symmetry_Int_Tables_number   1
_chemical_formula_structural   Li8Mn7Fe(BO3)8
_chemical_formula_sum   'Li8 Mn7 Fe1 B8 O24'
_cell_volume   505.21703803
_cell_formula_units_Z   1
loop_
 _symmetry_equiv_pos_site_id
 _symmetry_equiv_pos_as_xyz
  1  'x, y, z'
loop_
 _atom_site_type_symbol
 _atom_site_label
 _atom_site_symmetry_multiplicity
 _atom_site_fract_x
 _atom_site_fract_y
 _atom_site_fract_z
 _atom_site_occupancy
  Li  Li0  1  0.96887750  0.96103188  0.41672312  1
  Li  Li1  1  0.70486531  0.71550500  0.91714157  1
  Li  Li2  1  0.51854533  0.49237936  0.66738276  1
  Li  Li3  1  0.72755222  0.75550245  0.16799893  1
  Li  Li4  1  0.47040774  0.45927076  0.41786466  1
  Li  Li5  1  0.20473923  0.21565396  0.91794314  1
  Li  Li6  1  0.01914872  0.99108495  0.66883791  1
  Li  Li7  1  0.22817773  0.25542200  0.16836336  1
  Mn  Mn8  1  0.97660251  0.64345899  0.38306117  1
  Mn  Mn9  1  0.72725447  0.05963254  0.88363985  1
  Mn  Mn10  1  0.75534733  0.43469102  0.13320422  1
  Mn  Mn11  1  0.47624189  0.14149391  0.38623276  1
  Mn  Mn12  1  0.22941659  0.56278846  0.88198526  1
  Mn  Mn13  1  0.25530866  0.93486219  0.13323976  1
  Mn  Mn14  1  0.02463347  0.34422331  0.63344955  1
  Fe  Fe15  1  0.52861077  0.84268267  0.63269679  1
  B  B16  1  0.97590546  0.31395322  0.37597659  1
  B  B17  1  0.73482496  0.39560936  0.87504886  1
  B  B18  1  0.76344724  0.10796627  0.12582485  1
  B  B19  1  0.52979688  0.18340165  0.62679315  1
  B  B20  1  0.47527806  0.81320345  0.37679491  1
  B  B21  1  0.23515757  0.89575445  0.87454386  1
  B  B22  1  0.26372128  0.60806695  0.12564538  1
  B  B23  1  0.02661613  0.68853797  0.62494294  1
  O  O24  1  0.98091647  0.89069620  0.86065490  1
  O  O25  1  0.90256755  0.28835391  0.84512288  1
  O  O26  1  0.82619039  0.50603075  0.91700467  1
  O  O27  1  0.91815056  0.83050664  0.61219535  1
  O  O28  1  0.90040021  0.57513912  0.59657872  1
  O  O29  1  0.76284623  0.15029792  0.66707567  1
  O  O30  1  0.73133127  0.34463275  0.34563924  1
  O  O31  1  0.48070052  0.39209673  0.85999792  1
  O  O32  1  0.40423876  0.78976988  0.84366309  1
  O  O33  1  0.59594057  0.91317732  0.41903570  1
  O  O34  1  0.59552052  0.68463389  0.36116693  1
  O  O35  1  0.32412588  0.00587887  0.91763403  1
  O  O36  1  0.66284249  0.98752205  0.09593188  1
  O  O37  1  0.42805519  0.32849545  0.61094331  1
  O  O38  1  0.40089962  0.07108053  0.59849216  1
  O  O39  1  0.59504343  0.20603962  0.16707530  1
  O  O40  1  0.53114355  0.62983755  0.11058500  1
  O  O41  1  0.26240318  0.65854261  0.66346636  1
  O  O42  1  0.23044088  0.84478909  0.34661025  1
  O  O43  1  0.09613305  0.41465102  0.41808823  1
  O  O44  1  0.09725949  0.18524512  0.36134434  1
  O  O45  1  0.16307242  0.48776443  0.09568244  1
  O  O46  1  0.09512097  0.70605050  0.16713625  1
  O  O47  1  0.03098174  0.12939227  0.11114003  1
