# generated using pymatgen
data_Li3MnFe2(BO3)3
_symmetry_space_group_name_H-M   'P 1'
_cell_length_a   8.25182474
_cell_length_b   14.31751411
_cell_length_c   3.14540573
_cell_angle_alpha   90.00000000
_cell_angle_beta   90.00000000
_cell_angle_gamma   89.97877901
_symmetry_Int_Tables_number   1
_chemical_formula_structural   Li3MnFe2(BO3)3
_chemical_formula_sum   'Li6 Mn2 Fe4 B6 O18'
_cell_volume   371.61587557
_cell_formula_units_Z   2
loop_
 _symmetry_equiv_pos_site_id
 _symmetry_equiv_pos_as_xyz
  1  'x, y, z'
loop_
 _atom_site_type_symbol
 _atom_site_label
 _atom_site_symmetry_multiplicity
 _atom_site_fract_x
 _atom_site_fract_y
 _atom_site_fract_z
 _atom_site_occupancy
  Li  Li0  1  0.29291773  0.99104202  0.50000000  1
  Li  Li1  1  0.34138210  0.35721973  0.50000000  1
  Li  Li2  1  0.36704812  0.65196256  0.50000000  1
  Li  Li3  1  0.79412753  0.49309551  0.50000000  1
  Li  Li4  1  0.83982436  0.85791599  0.50000000  1
  Li  Li5  1  0.86551158  0.14991807  0.50000000  1
  Mn  Mn6  1  0.13503031  0.50603072  0.00000000  1
  Mn  Mn7  1  0.67423773  0.31431567  0.00000000  1
  Fe  Fe8  1  0.17589540  0.81647455  0.00000000  1
  Fe  Fe9  1  0.18760984  0.17933935  0.00000000  1
  Fe  Fe10  1  0.63594671  0.00380901  0.00000000  1
  Fe  Fe11  1  0.68672055  0.67950559  0.00000000  1
  B  B12  1  0.99928939  0.66864036  0.50000000  1
  B  B13  1  0.99952334  0.99987043  0.00000000  1
  B  B14  1  0.00122478  0.33190743  0.50000000  1
  B  B15  1  0.49797082  0.16520760  0.50000000  1
  B  B16  1  0.50217991  0.50006789  0.00000000  1
  B  B17  1  0.50011108  0.83359135  0.50000000  1
  O  O18  1  0.01092779  0.42907873  0.50000000  1
  O  O19  1  0.01754490  0.76536458  0.50000000  1
  O  O20  1  0.13735365  0.61177488  0.50000000  1
  O  O21  1  0.14220086  0.27845969  0.50000000  1
  O  O22  1  0.15147535  0.95744124  0.00000000  1
  O  O23  1  0.34371746  0.12568163  0.50000000  1
  O  O24  1  0.34799444  0.79138800  0.50000000  1
  O  O25  1  0.36502647  0.44350104  0.00000000  1
  O  O26  1  0.48557200  0.59752668  0.00000000  1
  O  O27  1  0.51226518  0.93043019  0.50000000  1
  O  O28  1  0.51424939  0.26224888  0.50000000  1
  O  O29  1  0.63530000  0.10859306  0.50000000  1
  O  O30  1  0.63934285  0.77877309  0.50000000  1
  O  O31  1  0.65568176  0.46068320  0.00000000  1
  O  O32  1  0.84616181  0.62844768  0.50000000  1
  O  O33  1  0.85131651  0.28858546  0.50000000  1
  O  O34  1  0.85999688  0.94530787  0.00000000  1
  O  O35  1  0.98732245  0.09680029  0.00000000  1
