# generated using pymatgen
data_Li2MnV(P2O7)2
_symmetry_space_group_name_H-M   'P 1'
_cell_length_a   9.70222632
_cell_length_b   8.33652569
_cell_length_c   7.06888390
_cell_angle_alpha   90.00000000
_cell_angle_beta   108.76028335
_cell_angle_gamma   90.00000000
_symmetry_Int_Tables_number   1
_chemical_formula_structural   Li2MnV(P2O7)2
_chemical_formula_sum   'Li4 Mn2 V2 P8 O28'
_cell_volume   541.37576587
_cell_formula_units_Z   2
loop_
 _symmetry_equiv_pos_site_id
 _symmetry_equiv_pos_as_xyz
  1  'x, y, z'
loop_
 _atom_site_type_symbol
 _atom_site_label
 _atom_site_symmetry_multiplicity
 _atom_site_fract_x
 _atom_site_fract_y
 _atom_site_fract_z
 _atom_site_occupancy
  Li  Li0  1  0.08529388  0.85886837  0.66895638  1
  Li  Li1  1  0.40938131  0.35759145  0.32692241  1
  Li  Li2  1  0.59061869  0.85759145  0.67307759  1
  Li  Li3  1  0.91470612  0.35886837  0.33104362  1
  Mn  Mn4  1  0.10806621  0.50066930  0.73068687  1
  Mn  Mn5  1  0.89193379  0.00066930  0.26931313  1
  V  V6  1  0.39482890  0.99811684  0.27344854  1
  V  V7  1  0.60517110  0.49811684  0.72655146  1
  P  P8  1  0.19905327  0.17862706  0.51798754  1
  P  P9  1  0.10527278  0.78918264  0.08882034  1
  P  P10  1  0.39039260  0.28285365  0.91175863  1
  P  P11  1  0.29903564  0.67964256  0.47703251  1
  P  P12  1  0.70096436  0.17964256  0.52296749  1
  P  P13  1  0.60960740  0.78285365  0.08824137  1
  P  P14  1  0.89472722  0.28918264  0.91117966  1
  P  P15  1  0.80094673  0.67862706  0.48201246  1
  O  O16  1  0.02931905  0.32953518  0.85206297  1
  O  O17  1  0.06716280  0.70680635  0.88816948  1
  O  O18  1  0.09264360  0.03566437  0.47869382  1
  O  O19  1  0.12438553  0.34046668  0.49572533  1
  O  O20  1  0.19970400  0.67683559  0.60845489  1
  O  O21  1  0.29789400  0.43309553  0.91329126  1
  O  O22  1  0.29572289  0.15374488  0.75020179  1
  O  O23  1  0.19855717  0.65566943  0.24789413  1
  O  O24  1  0.20058098  0.93770740  0.09527287  1
  O  O25  1  0.30646701  0.17154623  0.39862077  1
  O  O26  1  0.37821355  0.84018550  0.49290752  1
  O  O27  1  0.40516607  0.53746620  0.51462850  1
  O  O28  1  0.52323756  0.32609188  0.85190471  1
  O  O29  1  0.56901882  0.69521090  0.88896486  1
  O  O30  1  0.43098218  0.19521090  0.11103514  1
  O  O31  1  0.47676244  0.82609188  0.14809529  1
  O  O32  1  0.59483393  0.03746620  0.48537150  1
  O  O33  1  0.62178645  0.34018550  0.50709248  1
  O  O34  1  0.69353299  0.67154623  0.60137923  1
  O  O35  1  0.79941902  0.43770740  0.90472713  1
  O  O36  1  0.80144283  0.15566943  0.75210587  1
  O  O37  1  0.70427711  0.65374488  0.24979821  1
  O  O38  1  0.70210600  0.93309553  0.08670874  1
  O  O39  1  0.80029600  0.17683559  0.39154511  1
  O  O40  1  0.87561447  0.84046668  0.50427467  1
  O  O41  1  0.90735640  0.53566437  0.52130618  1
  O  O42  1  0.93283720  0.20680635  0.11183052  1
  O  O43  1  0.97068095  0.82953518  0.14793703  1
