# generated using pymatgen
data_Li4MnFe3(BO3)4
_symmetry_space_group_name_H-M   'P 1'
_cell_length_a   11.07065497
_cell_length_b   5.22160391
_cell_length_c   5.16697773
_cell_angle_alpha   60.78937130
_cell_angle_beta   87.72610403
_cell_angle_gamma   75.54323678
_symmetry_Int_Tables_number   1
_chemical_formula_structural   Li4MnFe3(BO3)4
_chemical_formula_sum   'Li4 Mn1 Fe3 B4 O12'
_cell_volume   251.25164895
_cell_formula_units_Z   1
loop_
 _symmetry_equiv_pos_site_id
 _symmetry_equiv_pos_as_xyz
  1  'x, y, z'
loop_
 _atom_site_type_symbol
 _atom_site_label
 _atom_site_symmetry_multiplicity
 _atom_site_fract_x
 _atom_site_fract_y
 _atom_site_fract_z
 _atom_site_occupancy
  Li  Li0  1  0.16429796  0.36761801  0.40084904  1
  Li  Li1  1  0.33791735  0.62690213  0.10320030  1
  Li  Li2  1  0.66156686  0.37272452  0.89753522  1
  Li  Li3  1  0.83467682  0.63366662  0.59625532  1
  Mn  Mn4  1  0.11754285  0.74875105  0.72177829  1
  Fe  Fe5  1  0.38401805  0.25081148  0.78570343  1
  Fe  Fe6  1  0.61796838  0.74338691  0.21739027  1
  Fe  Fe7  1  0.88201303  0.24483585  0.28381917  1
  B  B8  1  0.13083649  0.07450272  0.06035128  1
  B  B9  1  0.37190221  0.92381225  0.43985581  1
  B  B10  1  0.62926896  0.07502177  0.56002906  1
  B  B11  1  0.86777843  0.92903890  0.94073410  1
  O  O12  1  0.16214849  0.30367201  0.80343654  1
  O  O13  1  0.08566461  0.13405612  0.28842347  1
  O  O14  1  0.14930906  0.78603678  0.09739758  1
  O  O15  1  0.34283002  0.68581279  0.69543949  1
  O  O16  1  0.35370103  0.20676841  0.41233182  1
  O  O17  1  0.41357364  0.87324332  0.20363459  1
  O  O18  1  0.58814610  0.12530680  0.79615135  1
  O  O19  1  0.64691979  0.79257720  0.58654303  1
  O  O20  1  0.65806734  0.31296079  0.30361026  1
  O  O21  1  0.85130945  0.21440973  0.91042508  1
  O  O22  1  0.91011515  0.88152123  0.70243520  1
  O  O23  1  0.83842994  0.69256162  0.19267230  1
