# generated using pymatgen
data_Li3MnFe2(BO3)3
_symmetry_space_group_name_H-M   'P 1'
_cell_length_a   8.25420898
_cell_length_b   14.30723964
_cell_length_c   3.15172671
_cell_angle_alpha   90.00000000
_cell_angle_beta   90.00000000
_cell_angle_gamma   89.93600396
_symmetry_Int_Tables_number   1
_chemical_formula_structural   Li3MnFe2(BO3)3
_chemical_formula_sum   'Li6 Mn2 Fe4 B6 O18'
_cell_volume   372.20276335
_cell_formula_units_Z   2
loop_
 _symmetry_equiv_pos_site_id
 _symmetry_equiv_pos_as_xyz
  1  'x, y, z'
loop_
 _atom_site_type_symbol
 _atom_site_label
 _atom_site_symmetry_multiplicity
 _atom_site_fract_x
 _atom_site_fract_y
 _atom_site_fract_z
 _atom_site_occupancy
  Li  Li0  1  0.29281288  0.99095103  0.50000000  1
  Li  Li1  1  0.33901546  0.35888336  0.50000000  1
  Li  Li2  1  0.36577491  0.65052976  0.50000000  1
  Li  Li3  1  0.79344933  0.49268866  0.50000000  1
  Li  Li4  1  0.84213323  0.85691732  0.50000000  1
  Li  Li5  1  0.86771300  0.15114688  0.50000000  1
  Mn  Mn6  1  0.63320105  0.00564860  0.00000000  1
  Mn  Mn7  1  0.67437308  0.31431396  0.00000000  1
  Fe  Fe8  1  0.13663257  0.50449707  0.00000000  1
  Fe  Fe9  1  0.17585946  0.81553020  0.00000000  1
  Fe  Fe10  1  0.18690259  0.17929312  0.00000000  1
  Fe  Fe11  1  0.68759545  0.67969875  0.00000000  1
  B  B12  1  0.00001124  0.66669691  0.50000000  1
  B  B13  1  0.00140405  0.99895417  0.00000000  1
  B  B14  1  0.00224813  0.33332532  0.50000000  1
  B  B15  1  0.49762206  0.16735505  0.50000000  1
  B  B16  1  0.50039498  0.50122807  0.00000000  1
  B  B17  1  0.49898349  0.83228434  0.50000000  1
  O  O18  1  0.01352266  0.43035881  0.50000000  1
  O  O19  1  0.01851628  0.76342385  0.50000000  1
  O  O20  1  0.13620112  0.60881604  0.50000000  1
  O  O21  1  0.14178005  0.27852644  0.50000000  1
  O  O22  1  0.15394713  0.95746436  0.00000000  1
  O  O23  1  0.34486180  0.12623924  0.50000000  1
  O  O24  1  0.34765929  0.78957823  0.50000000  1
  O  O25  1  0.36147029  0.44584832  0.00000000  1
  O  O26  1  0.48607073  0.59812696  0.00000000  1
  O  O27  1  0.50985996  0.92919339  0.50000000  1
  O  O28  1  0.51264609  0.26424294  0.50000000  1
  O  O29  1  0.63686015  0.11198685  0.50000000  1
  O  O30  1  0.63949668  0.77843735  0.50000000  1
  O  O31  1  0.65331932  0.46018267  0.00000000  1
  O  O32  1  0.84541786  0.62755774  0.50000000  1
  O  O33  1  0.85141946  0.29056057  0.50000000  1
  O  O34  1  0.86328544  0.94332989  0.00000000  1
  O  O35  1  0.98753774  0.09618779  0.00000000  1
