# generated using pymatgen
data_Li32Mn13Cr3O48
_symmetry_space_group_name_H-M   'P 1'
_cell_length_a   4.99821326
_cell_length_b   8.67651358
_cell_length_c   19.44913153
_cell_angle_alpha   98.25828459
_cell_angle_beta   94.75983581
_cell_angle_gamma   89.75294495
_symmetry_Int_Tables_number   1
_chemical_formula_structural   Li32Mn13Cr3O48
_chemical_formula_sum   'Li32 Mn13 Cr3 O48'
_cell_volume   831.80227340
_cell_formula_units_Z   1
loop_
 _symmetry_equiv_pos_site_id
 _symmetry_equiv_pos_as_xyz
  1  'x, y, z'
loop_
 _atom_site_type_symbol
 _atom_site_label
 _atom_site_symmetry_multiplicity
 _atom_site_fract_x
 _atom_site_fract_y
 _atom_site_fract_z
 _atom_site_occupancy
  Li  Li0  1  0.99265176  0.16796380  0.24972444  1
  Li  Li1  1  0.87440076  0.37475573  0.37472170  1
  Li  Li2  1  0.74949919  0.24976083  0.00012191  1
  Li  Li3  1  0.74349613  0.91829641  0.99989613  1
  Li  Li4  1  0.99247337  0.16901289  0.75047120  1
  Li  Li5  1  0.75625152  0.57928867  0.50034650  1
  Li  Li6  1  0.87708864  0.37444036  0.87488350  1
  Li  Li7  1  0.75032312  0.25015950  0.49999068  1
  Li  Li8  1  0.74741429  0.92115546  0.50075575  1
  Li  Li9  1  0.62485907  0.12504632  0.12498433  1
  Li  Li10  1  0.75623197  0.58195499  0.99975175  1
  Li  Li11  1  0.50779478  0.33286695  0.25048401  1
  Li  Li12  1  0.62764537  0.12414665  0.62481541  1
  Li  Li13  1  0.50050466  0.00056084  0.24982839  1
  Li  Li14  1  0.49083674  0.66654535  0.24956968  1
  Li  Li15  1  0.50744283  0.33297541  0.75011922  1
  Li  Li16  1  0.37211943  0.87550694  0.37520007  1
  Li  Li17  1  0.49980850  0.99935071  0.75007864  1
  Li  Li18  1  0.25131524  0.74999218  0.99991714  1
  Li  Li19  1  0.49018973  0.66744361  0.74913443  1
  Li  Li20  1  0.24353894  0.41994095  0.00073449  1
  Li  Li21  1  0.37549050  0.87400853  0.87514381  1
  Li  Li22  1  0.25250605  0.07847778  0.49906376  1
  Li  Li23  1  0.25003016  0.75022026  0.49995293  1
  Li  Li24  1  0.12484287  0.62505193  0.12498299  1
  Li  Li25  1  0.24337984  0.42080044  0.49974630  1
  Li  Li26  1  0.00898844  0.83140954  0.24981358  1
  Li  Li27  1  0.25566818  0.08032385  0.99980528  1
  Li  Li28  1  0.12541667  0.62481118  0.62523207  1
  Li  Li29  1  -0.00006598  0.50026259  0.25000717  1
  Li  Li30  1  0.00750528  0.83128984  0.75049708  1
  Li  Li31  1  0.00145980  0.50053532  0.75001435  1
  Mn  Mn32  1  0.87745331  0.04282112  0.37576601  1
  Mn  Mn33  1  0.87560926  0.71025008  0.87559401  1
  Mn  Mn34  1  0.87495092  0.04164480  0.87504244  1
  Mn  Mn35  1  0.62583052  0.79147909  0.12503013  1
  Mn  Mn36  1  0.62470406  0.45841584  0.12497694  1
  Mn  Mn37  1  0.62503216  0.79164366  0.62505093  1
  Mn  Mn38  1  0.62630957  0.46029681  0.62573899  1
  Mn  Mn39  1  0.37307395  0.53982935  0.37413253  1
  Mn  Mn40  1  0.37505088  0.20841155  0.37493365  1
  Mn  Mn41  1  0.37290679  0.20693536  0.87441080  1
  Mn  Mn42  1  0.12463165  0.95853268  0.12501985  1
  Mn  Mn43  1  0.12574498  0.29134523  0.12497404  1
  Mn  Mn44  1  0.12262261  0.95695854  0.62430148  1
  Cr  Cr45  1  0.86754849  0.70962684  0.37522037  1
  Cr  Cr46  1  0.38058906  0.53992538  0.87497409  1
  Cr  Cr47  1  0.13187708  0.28993449  0.62492725  1
  O  O48  1  0.96385905  0.10674506  0.06896867  1
  O  O49  1  0.92888536  0.78532631  0.06915800  1
  O  O50  1  0.92776103  0.42743969  0.06786882  1
  O  O51  1  0.96122427  0.10277722  0.56826031  1
  O  O52  1  0.82157813  0.96474831  0.18112364  1
  O  O53  1  0.82274297  0.32246626  0.18193644  1
  O  O54  1  0.92823701  0.78396609  0.56890033  1
  O  O55  1  0.92625287  0.42636283  0.56791224  1
  O  O56  1  0.78621275  0.64314238  0.18106239  1
  O  O57  1  0.72022992  0.85627437  0.31918193  1
  O  O58  1  0.82089726  0.96482235  0.68105803  1
  O  O59  1  0.82190217  0.32359386  0.68210716  1
  O  O60  1  0.67362172  0.53239909  0.31832693  1
  O  O61  1  0.67733620  0.17748736  0.31800225  1
  O  O62  1  0.78784588  0.64416115  0.68111053  1
  O  O63  1  0.71315066  0.85757257  0.81908044  1
  O  O64  1  0.46389376  0.60671541  0.06891265  1
  O  O65  1  0.57247156  0.71270474  0.43092611  1
  O  O66  1  0.57214640  0.07232725  0.43192847  1
  O  O67  1  0.67569338  0.53742129  0.81921609  1
  O  O68  1  0.67742124  0.17782425  0.81794235  1
  O  O69  1  0.42761364  0.92752991  0.06807311  1
  O  O70  1  0.42878509  0.28518998  0.06892312  1
  O  O71  1  0.53613890  0.39276966  0.43094663  1
  O  O72  1  0.46353982  0.60737772  0.56899215  1
  O  O73  1  0.57553035  0.71726646  0.93166640  1
  O  O74  1  0.57251224  0.07227502  0.93197995  1
  O  O75  1  0.32272908  0.82257631  0.18214286  1
  O  O76  1  0.32151188  0.46461270  0.18085106  1
  O  O77  1  0.42782648  0.92777638  0.56807269  1
  O  O78  1  0.42578142  0.28753758  0.56906781  1
  O  O79  1  0.53244615  0.39298365  0.93098206  1
  O  O80  1  0.28631048  0.14313465  0.18101617  1
  O  O81  1  0.21166426  0.35592062  0.31883427  1
  O  O82  1  0.32273858  0.82244382  0.68203385  1
  O  O83  1  0.32687262  0.46768076  0.68189158  1
  O  O84  1  0.17916455  0.67673914  0.31775688  1
  O  O85  1  0.17925670  0.03517016  0.31901600  1
  O  O86  1  0.28117064  0.14332950  0.68081019  1
  O  O87  1  0.21177393  0.35325384  0.81833705  1
  O  O88  1  0.07342921  0.57430858  0.43195966  1
  O  O89  1  0.07170223  0.21608190  0.43105976  1
  O  O90  1  0.17547931  0.67713217  0.81790920  1
  O  O91  1  0.17824187  0.03434571  0.81892889  1
  O  O92  1  0.03854042  0.89704892  0.43180203  1
  O  O93  1  0.07248407  0.57366762  0.93204974  1
  O  O94  1  0.07083413  0.21500309  0.93096344  1
  O  O95  1  0.03751421  0.89416072  0.93106645  1
