# generated using pymatgen
data_Li32Mn13Cr3O48
_symmetry_space_group_name_H-M   'P 1'
_cell_length_a   5.01457647
_cell_length_b   8.68471898
_cell_length_c   19.47352656
_cell_angle_alpha   98.27872966
_cell_angle_beta   94.83223188
_cell_angle_gamma   89.85001387
_symmetry_Int_Tables_number   1
_chemical_formula_structural   Li32Mn13Cr3O48
_chemical_formula_sum   'Li32 Mn13 Cr3 O48'
_cell_volume   836.21632828
_cell_formula_units_Z   1
loop_
 _symmetry_equiv_pos_site_id
 _symmetry_equiv_pos_as_xyz
  1  'x, y, z'
loop_
 _atom_site_type_symbol
 _atom_site_label
 _atom_site_symmetry_multiplicity
 _atom_site_fract_x
 _atom_site_fract_y
 _atom_site_fract_z
 _atom_site_occupancy
  Li  Li0  1  0.99283906  0.16815804  0.24980625  1
  Li  Li1  1  0.87515736  0.37275984  0.37499010  1
  Li  Li2  1  0.75160883  0.24971737  0.99972478  1
  Li  Li3  1  0.74372455  0.92009786  0.00044302  1
  Li  Li4  1  0.98840815  0.16879287  0.75037196  1
  Li  Li5  1  0.75332492  0.58050170  0.50017906  1
  Li  Li6  1  0.87545525  0.37340884  0.87515611  1
  Li  Li7  1  0.74947176  0.24949873  0.49969546  1
  Li  Li8  1  0.74488115  0.92024816  0.50051119  1
  Li  Li9  1  0.62486050  0.12506995  0.12498232  1
  Li  Li10  1  0.75609848  0.58030480  0.99982365  1
  Li  Li11  1  0.50633061  0.33146548  0.25007376  1
  Li  Li12  1  0.62795153  0.12385539  0.62481396  1
  Li  Li13  1  0.50104660  0.99975240  0.25027184  1
  Li  Li14  1  0.48991546  0.66891430  0.24944740  1
  Li  Li15  1  0.51035750  0.33246855  0.75097327  1
  Li  Li16  1  0.37535107  0.87491243  0.37495048  1
  Li  Li17  1  0.50040390  0.00012260  0.75045164  1
  Li  Li18  1  0.24916682  0.74998256  -0.00001673  1
  Li  Li19  1  0.49326733  0.66801245  0.74967665  1
  Li  Li20  1  0.24301001  0.41810906  0.99977053  1
  Li  Li21  1  0.37619641  0.87511630  0.87489872  1
  Li  Li22  1  0.25345446  0.07886886  0.49907327  1
  Li  Li23  1  0.25326440  0.75060907  0.50013015  1
  Li  Li24  1  0.12485456  0.62501663  0.12493689  1
  Li  Li25  1  0.24427036  0.42034479  0.49978251  1
  Li  Li26  1  0.00780834  0.83177429  0.25032120  1
  Li  Li27  1  0.25594197  0.08174683  0.99941701  1
  Li  Li28  1  0.12555160  0.62587512  0.62527147  1
  Li  Li29  1  0.00223957  0.50000425  0.24960228  1
  Li  Li30  1  0.00636482  0.83140062  0.75007224  1
  Li  Li31  1  0.00035771  0.50013760  0.75007826  1
  Mn  Mn32  1  0.87529167  0.04174329  0.37490733  1
  Mn  Mn33  1  0.87391631  0.70695507  0.87480621  1
  Mn  Mn34  1  0.62583430  0.79144321  0.12492749  1
  Mn  Mn35  1  0.62461018  0.45844311  0.12494690  1
  Mn  Mn36  1  0.62473763  0.79156956  0.62515988  1
  Mn  Mn37  1  0.62679336  0.45983575  0.62577840  1
  Mn  Mn38  1  0.37539531  0.54165133  0.37490189  1
  Mn  Mn39  1  0.37412178  0.20852708  0.37489117  1
  Mn  Mn40  1  0.37501620  0.54187501  0.87513894  1
  Mn  Mn41  1  0.37459776  0.21019408  0.87538916  1
  Mn  Mn42  1  0.12470240  0.95842267  0.12489663  1
  Mn  Mn43  1  0.12574885  0.29144591  0.12492426  1
  Mn  Mn44  1  0.12281685  0.95726895  0.62432422  1
  Cr  Cr45  1  0.87393748  0.70520272  0.37490943  1
  Cr  Cr46  1  0.87924297  0.03983169  0.87507066  1
  Cr  Cr47  1  0.13225615  0.29104881  0.62496193  1
  O  O48  1  0.96396898  0.10659505  0.06878716  1
  O  O49  1  0.92817058  0.78525064  0.06900455  1
  O  O50  1  0.92734852  0.42740714  0.06807291  1
  O  O51  1  0.96247134  0.10265391  0.56824389  1
  O  O52  1  0.82243365  0.96473159  0.18085312  1
  O  O53  1  0.82287712  0.32262332  0.18196779  1
  O  O54  1  0.92749934  0.78381240  0.56896479  1
  O  O55  1  0.92633526  0.42545916  0.56807270  1
  O  O56  1  0.78583475  0.64324826  0.18104450  1
  O  O57  1  0.71670968  0.85756428  0.31902244  1
  O  O58  1  0.82110747  0.96471498  0.68120413  1
  O  O59  1  0.82080350  0.32386948  0.68242789  1
  O  O60  1  0.67806800  0.53763093  0.31913406  1
  O  O61  1  0.67707945  0.17837051  0.31805794  1
  O  O62  1  0.78832204  0.64449170  0.68117043  1
  O  O63  1  0.71232144  0.85449713  0.81875310  1
  O  O64  1  0.46409267  0.60668509  0.06900808  1
  O  O65  1  0.56530172  0.71335945  0.43148688  1
  O  O66  1  0.57198052  0.07272764  0.43160415  1
  O  O67  1  0.67797662  0.53473768  0.81935190  1
  O  O68  1  0.67530832  0.17737842  0.81776419  1
  O  O69  1  0.42757677  0.92743234  0.06790978  1
  O  O70  1  0.42834209  0.28525293  0.06908590  1
  O  O71  1  0.53710617  0.39299665  0.43080799  1
  O  O72  1  0.46345726  0.60741264  0.56917701  1
  O  O73  1  0.57125530  0.71518374  0.93098331  1
  O  O74  1  0.57269863  0.07378759  0.93205134  1
  O  O75  1  0.32295645  0.82272779  0.18185298  1
  O  O76  1  0.32211803  0.46449696  0.18091062  1
  O  O77  1  0.42713113  0.92760878  0.56823301  1
  O  O78  1  0.42784059  0.28782197  0.56896940  1
  O  O79  1  0.53725599  0.39372154  0.93094861  1
  O  O80  1  0.28600452  0.14321791  0.18090925  1
  O  O81  1  0.21258342  0.35642062  0.31904434  1
  O  O82  1  0.32298246  0.82255081  0.68214689  1
  O  O83  1  0.32645746  0.46673898  0.68166599  1
  O  O84  1  0.18320929  0.67578736  0.31733339  1
  O  O85  1  0.17809194  0.03554597  0.31909998  1
  O  O86  1  0.27928080  0.14328961  0.68087839  1
  O  O87  1  0.21337704  0.35705650  0.81922574  1
  O  O88  1  0.07246681  0.57451125  0.43174019  1
  O  O89  1  0.07214596  0.21545048  0.43082463  1
  O  O90  1  0.17706395  0.67807965  0.81830952  1
  O  O91  1  0.17636017  0.03724557  0.81910054  1
  O  O92  1  0.03277231  0.89365306  0.43075835  1
  O  O93  1  0.07250334  0.57219726  0.93193823  1
  O  O94  1  0.07521986  0.21667097  0.93140622  1
  O  O95  1  0.03377507  0.89282735  0.93107754  1
