# generated using pymatgen
data_Mg(WO3)2
_symmetry_space_group_name_H-M   'P 1'
_cell_length_a   5.28008492
_cell_length_b   5.41927205
_cell_length_c   7.71895542
_cell_angle_alpha   90.07195242
_cell_angle_beta   90.01803370
_cell_angle_gamma   90.00549629
_symmetry_Int_Tables_number   1
_chemical_formula_structural   Mg(WO3)2
_chemical_formula_sum   'Mg2 W4 O12'
_cell_volume   220.87167656
_cell_formula_units_Z   2
loop_
 _symmetry_equiv_pos_site_id
 _symmetry_equiv_pos_as_xyz
  1  'x, y, z'
loop_
 _atom_site_type_symbol
 _atom_site_label
 _atom_site_symmetry_multiplicity
 _atom_site_fract_x
 _atom_site_fract_y
 _atom_site_fract_z
 _atom_site_occupancy
  Mg  Mg0  1  0.51033325  0.56036150  0.24975649  1
  Mg  Mg1  1  0.01025317  0.93967774  0.74955820  1
  W  W2  1  0.50591772  0.00668823  0.99967855  1
  W  W3  1  0.00588121  0.49321929  0.00025634  1
  W  W4  1  0.00652120  0.49308105  0.49977467  1
  W  W5  1  0.50639442  0.00704721  0.50024167  1
  O  O6  1  0.66581678  0.31440041  0.43578651  1
  O  O7  1  0.16579074  0.18569534  0.56386706  1
  O  O8  1  0.80237928  0.78453048  0.05018226  1
  O  O9  1  0.30236502  0.71526430  0.95012793  1
  O  O10  1  0.30207589  0.71611542  0.55051192  1
  O  O11  1  0.80217644  0.78418893  0.45026373  1
  O  O12  1  0.16542136  0.18504703  0.93631721  1
  O  O13  1  0.66543833  0.31495136  0.06340544  1
  O  O14  1  0.13621341  0.46734942  0.25002223  1
  O  O15  1  0.63618015  0.03271833  0.75009327  1
  O  O16  1  0.41663478  0.94116317  0.24997288  1
  O  O17  1  0.91638684  0.55856279  0.75007766  1
