# generated using pymatgen
data_Li4Mn3Fe(BO3)4
_symmetry_space_group_name_H-M   'P 1'
_cell_length_a   5.24608464
_cell_length_b   5.24863069
_cell_length_c   20.97367541
_cell_angle_alpha   89.36534612
_cell_angle_beta   90.99490376
_cell_angle_gamma   60.20276876
_symmetry_Int_Tables_number   1
_chemical_formula_structural   Li4Mn3Fe(BO3)4
_chemical_formula_sum   'Li8 Mn6 Fe2 B8 O24'
_cell_volume   500.94808647
_cell_formula_units_Z   2
loop_
 _symmetry_equiv_pos_site_id
 _symmetry_equiv_pos_as_xyz
  1  'x, y, z'
loop_
 _atom_site_type_symbol
 _atom_site_label
 _atom_site_symmetry_multiplicity
 _atom_site_fract_x
 _atom_site_fract_y
 _atom_site_fract_z
 _atom_site_occupancy
  Li  Li0  1  0.32118935  0.65101722  0.66671518  1
  Li  Li1  1  0.34761710  0.67585540  0.91562972  1
  Li  Li2  1  0.32096115  0.65164835  0.16568312  1
  Li  Li3  1  0.34906616  0.67856426  0.41597314  1
  Li  Li4  1  0.64800824  0.34116232  0.79152110  1
  Li  Li5  1  0.66233315  0.34836029  0.54123664  1
  Li  Li6  1  0.65210048  0.33774350  0.29110352  1
  Li  Li7  1  0.66319769  0.34476316  0.04087340  1
  Mn  Mn8  1  0.32980665  0.00343977  0.55842155  1
  Mn  Mn9  1  0.33268217  0.00333450  0.05677522  1
  Mn  Mn10  1  0.67688423  0.00310530  0.43326991  1
  Mn  Mn11  1  0.99736353  0.32551298  0.68376351  1
  Mn  Mn12  1  0.99703827  0.32254372  0.18280000  1
  Mn  Mn13  1  0.99655515  0.67084906  0.30809330  1
  Fe  Fe14  1  0.68443045  0.99778840  0.93179300  1
  Fe  Fe15  1  0.98907056  0.67039191  0.81021126  1
  B  B16  1  0.00488639  0.33477929  0.93614599  1
  B  B17  1  0.00256999  0.34202960  0.43721630  1
  B  B18  1  0.33060517  0.00928924  0.81307159  1
  B  B19  1  0.33410624  0.00475054  0.31214969  1
  B  B20  1  0.66052778  0.99657416  0.68843758  1
  B  B21  1  0.65812459  0.99761148  0.18705866  1
  B  B22  1  0.99532792  0.66594725  0.56232661  1
  B  B23  1  0.99685919  0.66587518  0.06120946  1
  O  O24  1  0.06856481  0.26083365  0.79380289  1
  O  O25  1  0.07058983  0.24714435  0.29092966  1
  O  O26  1  0.26154395  0.06930858  0.94987252  1
  O  O27  1  0.02238393  0.58223620  0.91791383  1
  O  O28  1  0.25374729  0.07119766  0.45214754  1
  O  O29  1  0.03241428  0.57944821  0.41648881  1
  O  O30  1  0.58215919  0.03216146  0.82677409  1
  O  O31  1  0.26860290  0.64299826  0.56979187  1
  O  O32  1  0.57830551  0.03697934  0.32724017  1
  O  O33  1  0.27008736  0.64331253  0.06878089  1
  O  O34  1  0.34253801  0.74172173  0.81979820  1
  O  O35  1  0.35737477  0.73148482  0.31972805  1
  O  O36  1  0.63278198  0.27203601  0.69550435  1
  O  O37  1  0.62967480  0.27280476  0.19448865  1
  O  O38  1  0.73194718  0.35356741  0.94249793  1
  O  O39  1  0.42122046  0.96873553  0.66749410  1
  O  O40  1  0.72766684  0.37063618  0.44471702  1
  O  O41  1  0.42047698  0.96783865  0.16616703  1
  O  O42  1  0.96341988  0.42212927  0.57764294  1
  O  O43  1  0.96518177  0.42135561  0.07629133  1
  O  O44  1  0.75248874  0.92918500  0.54109823  1
  O  O45  1  0.75436780  0.92866469  0.04007514  1
  O  O46  1  0.93085253  0.74612920  0.70350163  1
  O  O47  1  0.92909563  0.74635302  0.20197165  1
