# generated using pymatgen
data_Li32Mn13Cr3O48
_symmetry_space_group_name_H-M   'P 1'
_cell_length_a   5.00938948
_cell_length_b   8.67195738
_cell_length_c   19.46779400
_cell_angle_alpha   98.25280132
_cell_angle_beta   94.84679426
_cell_angle_gamma   89.79676792
_symmetry_Int_Tables_number   1
_chemical_formula_structural   Li32Mn13Cr3O48
_chemical_formula_sum   'Li32 Mn13 Cr3 O48'
_cell_volume   833.92242310
_cell_formula_units_Z   1
loop_
 _symmetry_equiv_pos_site_id
 _symmetry_equiv_pos_as_xyz
  1  'x, y, z'
loop_
 _atom_site_type_symbol
 _atom_site_label
 _atom_site_symmetry_multiplicity
 _atom_site_fract_x
 _atom_site_fract_y
 _atom_site_fract_z
 _atom_site_occupancy
  Li  Li0  1  0.99433820  0.16931061  0.25010309  1
  Li  Li1  1  0.87846123  0.37421821  0.37471181  1
  Li  Li2  1  0.74945660  0.24970170  0.00020018  1
  Li  Li3  1  0.74215752  0.92024765  0.00056050  1
  Li  Li4  1  0.99231333  0.16884285  0.74912584  1
  Li  Li5  1  0.75730571  0.58196839  0.49965299  1
  Li  Li6  1  0.87591546  0.37579025  0.87530676  1
  Li  Li7  1  0.74663151  0.24866117  0.49996670  1
  Li  Li8  1  0.74422950  0.91889829  0.49992239  1
  Li  Li9  1  0.62489008  0.12508501  0.12503672  1
  Li  Li10  1  0.75616561  0.58049655  0.99989122  1
  Li  Li11  1  0.50568152  0.33078829  0.24997470  1
  Li  Li12  1  0.62462976  0.12541582  0.62499510  1
  Li  Li13  1  0.50035815  0.99992215  0.24993276  1
  Li  Li14  1  0.49160841  0.66887661  0.24924739  1
  Li  Li15  1  0.50896631  0.33082891  0.75046834  1
  Li  Li16  1  0.37597521  0.87507595  0.37530413  1
  Li  Li17  1  0.49821696  0.99965012  0.74977856  1
  Li  Li18  1  0.24927700  0.74953285  0.00016933  1
  Li  Li19  1  0.49517664  0.66949598  0.75030573  1
  Li  Li20  1  0.24353432  0.41904349  0.00012648  1
  Li  Li21  1  0.37803178  0.87462792  0.87475219  1
  Li  Li22  1  0.25645834  0.08063638  0.49975625  1
  Li  Li23  1  0.25038383  0.74985843  0.49981173  1
  Li  Li24  1  0.12474049  0.62500881  0.12498778  1
  Li  Li25  1  0.24366724  0.41962812  0.50033969  1
  Li  Li26  1  0.00687607  0.83123725  0.25038967  1
  Li  Li27  1  0.25862280  0.08139837  0.00013383  1
  Li  Li28  1  0.12497793  0.62689494  0.62500262  1
  Li  Li29  1  0.00005446  0.49969138  0.25001028  1
  Li  Li30  1  0.00587332  0.83125661  0.75016547  1
  Li  Li31  1  0.99838365  0.49964443  0.75028514  1
  Mn  Mn32  1  0.87667211  0.70996707  0.37572913  1
  Mn  Mn33  1  0.87481443  0.04137980  0.37501090  1
  Mn  Mn34  1  0.87205390  0.70763736  0.87431117  1
  Mn  Mn35  1  0.62601291  0.79134928  0.12506147  1
  Mn  Mn36  1  0.62433003  0.45856905  0.12513218  1
  Mn  Mn37  1  0.62608391  0.79143403  0.62496007  1
  Mn  Mn38  1  0.62371993  0.45896477  0.62481294  1
  Mn  Mn39  1  0.37225478  0.20732534  0.37423376  1
  Mn  Mn40  1  0.37491174  0.54155316  0.87517958  1
  Mn  Mn41  1  0.37652629  0.21013021  0.87592317  1
  Mn  Mn42  1  0.12423309  0.95850381  0.12505606  1
  Mn  Mn43  1  0.12586038  0.29150161  0.12510266  1
  Mn  Mn44  1  0.12396215  0.95801460  0.62500522  1
  Cr  Cr45  1  0.88202896  0.04144945  0.87492692  1
  Cr  Cr46  1  0.38249984  0.54100308  0.37471298  1
  Cr  Cr47  1  0.12491343  0.29452874  0.62503084  1
  O  O48  1  0.96369699  0.10678264  0.06885535  1
  O  O49  1  0.92804218  0.78511676  0.06896298  1
  O  O50  1  0.92722921  0.42769723  0.06805318  1
  O  O51  1  0.96685696  0.10629866  0.56882111  1
  O  O52  1  0.82195120  0.96480906  0.18100976  1
  O  O53  1  0.82252578  0.32229934  0.18201297  1
  O  O54  1  0.92811173  0.78451103  0.56906959  1
  O  O55  1  0.92715244  0.42586782  0.56785446  1
  O  O56  1  0.78651407  0.64319336  0.18109422  1
  O  O57  1  0.71316539  0.85732590  0.31898241  1
  O  O58  1  0.82167468  0.96481458  0.68099681  1
  O  O59  1  0.81761197  0.32367377  0.68276833  1
  O  O60  1  0.67778245  0.53698811  0.31879365  1
  O  O61  1  0.67695670  0.17800590  0.31795480  1
  O  O62  1  0.78805156  0.64309254  0.68090752  1
  O  O63  1  0.71166169  0.85338307  0.81806519  1
  O  O64  1  0.46344648  0.60682631  0.06892671  1
  O  O65  1  0.57638842  0.71776317  0.43169525  1
  O  O66  1  0.57261475  0.07204610  0.43188994  1
  O  O67  1  0.67767729  0.53391136  0.81899283  1
  O  O68  1  0.67643477  0.17520912  0.81808050  1
  O  O69  1  0.42714773  0.92752268  0.06789724  1
  O  O70  1  0.42828967  0.28532673  0.06915639  1
  O  O71  1  0.53050465  0.39346074  0.43092179  1
  O  O72  1  0.46254989  0.60697878  0.56882120  1
  O  O73  1  0.57079151  0.71494018  0.93093534  1
  O  O74  1  0.56975918  0.07313838  0.93250846  1
  O  O75  1  0.32281242  0.82222628  0.18207600  1
  O  O76  1  0.32198953  0.46496270  0.18114772  1
  O  O77  1  0.42742912  0.92765202  0.56809817  1
  O  O78  1  0.43421190  0.28617065  0.56827157  1
  O  O79  1  0.53841366  0.39411733  0.93124568  1
  O  O80  1  0.28669677  0.14283974  0.18094666  1
  O  O81  1  0.21091911  0.35259659  0.31782591  1
  O  O82  1  0.32257388  0.82147792  0.68195235  1
  O  O83  1  0.32204046  0.46265447  0.68096618  1
  O  O84  1  0.17587644  0.67602588  0.31788879  1
  O  O85  1  0.17763858  0.03378728  0.31888767  1
  O  O86  1  0.28425428  0.14221508  0.68109861  1
  O  O87  1  0.21331982  0.35722537  0.81897007  1
  O  O88  1  0.07030668  0.57312338  0.43244601  1
  O  O89  1  0.07082590  0.21502131  0.43094184  1
  O  O90  1  0.17701583  0.67785634  0.81797973  1
  O  O91  1  0.17869809  0.03689686  0.81900248  1
  O  O92  1  0.03861223  0.89407828  0.43112583  1
  O  O93  1  0.07268076  0.57226822  0.93202396  1
  O  O94  1  0.07551797  0.21695455  0.93149952  1
  O  O95  1  0.02933843  0.89382262  0.93097291  1
