# generated using pymatgen
data_Li32Mn13Cr3O48
_symmetry_space_group_name_H-M   'P 1'
_cell_length_a   5.00961083
_cell_length_b   8.67749534
_cell_length_c   19.50782228
_cell_angle_alpha   98.36092128
_cell_angle_beta   94.84640322
_cell_angle_gamma   89.90475324
_symmetry_Int_Tables_number   1
_chemical_formula_structural   Li32Mn13Cr3O48
_chemical_formula_sum   'Li32 Mn13 Cr3 O48'
_cell_volume   835.96090776
_cell_formula_units_Z   1
loop_
 _symmetry_equiv_pos_site_id
 _symmetry_equiv_pos_as_xyz
  1  'x, y, z'
loop_
 _atom_site_type_symbol
 _atom_site_label
 _atom_site_symmetry_multiplicity
 _atom_site_fract_x
 _atom_site_fract_y
 _atom_site_fract_z
 _atom_site_occupancy
  Li  Li0  1  0.99361334  0.16841607  0.24988760  1
  Li  Li1  1  0.87524435  0.37510472  0.37493920  1
  Li  Li2  1  0.75020674  0.25012235  0.00005337  1
  Li  Li3  1  0.74264830  0.91940066  0.00051739  1
  Li  Li4  1  0.99111003  0.16837415  0.75017063  1
  Li  Li5  1  0.75794135  0.57960361  0.50016346  1
  Li  Li6  1  0.87557861  0.37557390  0.87523995  1
  Li  Li7  1  0.74952539  0.25029708  0.49980363  1
  Li  Li8  1  0.74631844  0.92032469  0.50052761  1
  Li  Li9  1  0.62487706  0.12506880  0.12501678  1
  Li  Li10  1  0.75600342  0.58065973  0.99957060  1
  Li  Li11  1  0.50772025  0.33209608  0.25025497  1
  Li  Li12  1  0.62757458  0.12415972  0.62485117  1
  Li  Li13  1  0.50014854  0.99996214  0.24993899  1
  Li  Li14  1  0.49422968  0.66786723  0.24947388  1
  Li  Li15  1  0.50886608  0.33427031  0.75050813  1
  Li  Li16  1  0.37520129  0.87625803  0.37500505  1
  Li  Li17  1  0.50071949  0.99876691  0.75037526  1
  Li  Li18  1  0.25157089  0.74894257  0.99994113  1
  Li  Li19  1  0.49246280  0.66714533  0.74952622  1
  Li  Li20  1  0.24373203  0.42020001  0.00009190  1
  Li  Li21  1  0.37774999  0.87496577  0.87476940  1
  Li  Li22  1  0.25424486  0.07931716  0.49939867  1
  Li  Li23  1  0.24851487  0.74984181  0.50018411  1
  Li  Li24  1  0.12483793  0.62505714  0.12495235  1
  Li  Li25  1  0.24229737  0.42066661  0.49992828  1
  Li  Li26  1  0.00647473  0.83190534  0.25015345  1
  Li  Li27  1  0.25544718  0.08074601  0.99989523  1
  Li  Li28  1  0.12539266  0.62486206  0.62523332  1
  Li  Li29  1  0.99773368  0.49952784  0.24993886  1
  Li  Li30  1  0.00617951  0.83227368  0.75019404  1
  Li  Li31  1  0.00002038  0.49959375  0.74973720  1
  Mn  Mn32  1  0.87387729  0.70880712  0.37487224  1
  Mn  Mn33  1  0.87524287  0.04147339  0.37496258  1
  Mn  Mn34  1  0.87378332  0.04224317  0.87435773  1
  Mn  Mn35  1  0.62585279  0.79140725  0.12499670  1
  Mn  Mn36  1  0.62458604  0.45846673  0.12503578  1
  Mn  Mn37  1  0.62493574  0.79162239  0.62503668  1
  Mn  Mn38  1  0.62645289  0.46021646  0.62569786  1
  Mn  Mn39  1  0.37409043  0.20812376  0.37494908  1
  Mn  Mn40  1  0.37726051  0.54050985  0.87574388  1
  Mn  Mn41  1  0.37364056  0.20850497  0.87509963  1
  Mn  Mn42  1  0.12459851  0.95848940  0.12502716  1
  Mn  Mn43  1  0.12580631  0.29146276  0.12505882  1
  Mn  Mn44  1  0.12273911  0.95699014  0.62426479  1
  Cr  Cr45  1  0.87981294  0.70940856  0.87493898  1
  Cr  Cr46  1  0.37543837  0.54446356  0.37503278  1
  Cr  Cr47  1  0.13234269  0.29000934  0.62485906  1
  O  O48  1  0.96396791  0.10648079  0.06904743  1
  O  O49  1  0.92786251  0.78524834  0.06904278  1
  O  O50  1  0.92731884  0.42734605  0.06825623  1
  O  O51  1  0.96199834  0.10248776  0.56822227  1
  O  O52  1  0.82237693  0.96477133  0.18089661  1
  O  O53  1  0.82292534  0.32246074  0.18179690  1
  O  O54  1  0.92758802  0.78409575  0.56909239  1
  O  O55  1  0.92593973  0.42594899  0.56820993  1
  O  O56  1  0.78644480  0.64353847  0.18083698  1
  O  O57  1  0.71286417  0.85692401  0.31907909  1
  O  O58  1  0.82168650  0.96500389  0.68080702  1
  O  O59  1  0.82180763  0.32343989  0.68193495  1
  O  O60  1  0.68358430  0.53619893  0.31842279  1
  O  O61  1  0.67730830  0.17726880  0.31817370  1
  O  O62  1  0.78791244  0.64436150  0.68104618  1
  O  O63  1  0.71215222  0.85974062  0.81834027  1
  O  O64  1  0.46416152  0.60652446  0.06918899  1
  O  O65  1  0.57181355  0.71283875  0.43068097  1
  O  O66  1  0.57257439  0.07193919  0.43177122  1
  O  O67  1  0.67676321  0.53698488  0.81927244  1
  O  O68  1  0.67694734  0.17824369  0.81813742  1
  O  O69  1  0.42718740  0.92734260  0.06811210  1
  O  O70  1  0.42791950  0.28528714  0.06915135  1
  O  O71  1  0.53321013  0.39258033  0.43095400  1
  O  O72  1  0.46379195  0.60712430  0.56904404  1
  O  O73  1  0.56998927  0.71428008  0.93102367  1
  O  O74  1  0.57201874  0.07243024  0.93183402  1
  O  O75  1  0.32291066  0.82257007  0.18187082  1
  O  O76  1  0.32231174  0.46484531  0.18099473  1
  O  O77  1  0.42732018  0.92754751  0.56816633  1
  O  O78  1  0.42555022  0.28728662  0.56924891  1
  O  O79  1  0.53733132  0.39274740  0.93101873  1
  O  O80  1  0.28624538  0.14320160  0.18086243  1
  O  O81  1  0.21615965  0.35600418  0.31902108  1
  O  O82  1  0.32286604  0.82246069  0.68176607  1
  O  O83  1  0.32679450  0.46758106  0.68158551  1
  O  O84  1  0.17684503  0.67539219  0.31810983  1
  O  O85  1  0.17741567  0.03432285  0.31899054  1
  O  O86  1  0.28039659  0.14376732  0.68077896  1
  O  O87  1  0.21355769  0.35625745  0.81909804  1
  O  O88  1  0.06756704  0.57430843  0.43261864  1
  O  O89  1  0.07192726  0.21457473  0.43084026  1
  O  O90  1  0.17560422  0.67592378  0.81834004  1
  O  O91  1  0.17764356  0.03492057  0.81912157  1
  O  O92  1  0.03749154  0.89357158  0.43080243  1
  O  O93  1  0.07653074  0.57085702  0.93250772  1
  O  O94  1  0.07226616  0.21476641  0.93088414  1
  O  O95  1  0.03050368  0.89262962  0.93082292  1
