# generated using pymatgen
data_Li8Mn7Fe(BO3)8
_symmetry_space_group_name_H-M   'P 1'
_cell_length_a   5.24888021
_cell_length_b   9.11632246
_cell_length_c   10.51135540
_cell_angle_alpha   91.78196373
_cell_angle_beta   90.87013941
_cell_angle_gamma   89.85792455
_symmetry_Int_Tables_number   1
_chemical_formula_structural   Li8Mn7Fe(BO3)8
_chemical_formula_sum   'Li8 Mn7 Fe1 B8 O24'
_cell_volume   502.67122340
_cell_formula_units_Z   1
loop_
 _symmetry_equiv_pos_site_id
 _symmetry_equiv_pos_as_xyz
  1  'x, y, z'
loop_
 _atom_site_type_symbol
 _atom_site_label
 _atom_site_symmetry_multiplicity
 _atom_site_fract_x
 _atom_site_fract_y
 _atom_site_fract_z
 _atom_site_occupancy
  Li  Li0  1  0.85335514  0.82541151  0.66776322  1
  Li  Li1  1  0.81174931  0.83920840  0.16801130  1
  Li  Li2  1  0.67896000  0.66908397  0.41799129  1
  Li  Li3  1  0.66305841  0.67387563  0.91784805  1
  Li  Li4  1  0.35259219  0.32651589  0.66746512  1
  Li  Li5  1  0.31150855  0.33983431  0.16780753  1
  Li  Li6  1  0.17949475  0.16924904  0.41767029  1
  Li  Li7  1  0.16233149  0.17435517  0.91784745  1
  Mn  Mn8  1  0.82378429  0.50138803  0.13130506  1
  Mn  Mn9  1  0.84101714  0.16151639  0.63270898  1
  Mn  Mn10  1  0.66825044  0.33593222  0.38307367  1
  Mn  Mn11  1  0.66860713  0.00161278  0.88327662  1
  Mn  Mn12  1  0.34056825  0.66057463  0.63534705  1
  Mn  Mn13  1  0.32141014  0.00115543  0.13348010  1
  Mn  Mn14  1  0.16854609  0.83499980  0.38358268  1
  Fe  Fe15  1  0.17626800  0.50031124  0.88277857  1
  B  B16  1  0.82641248  0.17068894  0.12568866  1
  B  B17  1  0.84246602  0.49842414  0.62671901  1
  B  B18  1  0.66317172  0.00234562  0.37573193  1
  B  B19  1  0.67370122  0.33538665  0.87557473  1
  B  B20  1  0.32718615  0.67031474  0.12466581  1
  B  B21  1  0.34305914  0.99842624  0.62610409  1
  B  B22  1  0.16295338  0.50239092  0.37576132  1
  B  B23  1  0.16956206  0.83180474  0.87642069  1
  O  O24  1  0.90350557  0.51858001  0.34496118  1
  O  O25  1  0.90833734  0.82078998  0.86135164  1
  O  O26  1  0.82204948  0.21112847  0.84553620  1
  O  O27  1  0.80601639  0.12409532  0.41767864  1
  O  O28  1  0.77610798  0.86549014  0.36133604  1
  O  O29  1  0.78989921  0.46646294  0.91527203  1
  O  O30  1  0.73382347  0.63581725  0.61170511  1
  O  O31  1  0.71102317  0.03489528  0.09577465  1
  O  O32  1  0.69637800  0.37294435  0.59605234  1
  O  O33  1  0.67770073  0.28999757  0.16635490  1
  O  O34  1  0.58778429  0.68492609  0.11099903  1
  O  O35  1  0.59586301  0.98359548  0.66683577  1
  O  O36  1  0.40341727  0.01849403  0.34523093  1
  O  O37  1  0.40965925  0.32548992  0.86328482  1
  O  O38  1  0.32124936  0.70842423  0.84717444  1
  O  O39  1  0.30612482  0.62378598  0.41786238  1
  O  O40  1  0.27576507  0.36535402  0.36129531  1
  O  O41  1  0.28233411  0.96420792  0.91707827  1
  O  O42  1  0.21206415  0.53488563  0.09358731  1
  O  O43  1  0.23462715  0.13612288  0.61205626  1
  O  O44  1  0.19728480  0.87281886  0.59607668  1
  O  O45  1  0.17777161  0.78914525  0.16638738  1
  O  O46  1  0.08707522  0.18489516  0.11116193  1
  O  O47  1  0.09472409  0.48344380  0.66792255  1
