# generated using pymatgen
data_Li8Mn3Fe5(BO3)8
_symmetry_space_group_name_H-M   'P 1'
_cell_length_a   6.03815794
_cell_length_b   5.24509082
_cell_length_c   16.14375455
_cell_angle_alpha   90.71345817
_cell_angle_beta   98.38978766
_cell_angle_gamma   88.91434651
_symmetry_Int_Tables_number   1
_chemical_formula_structural   Li8Mn3Fe5(BO3)8
_chemical_formula_sum   'Li8 Mn3 Fe5 B8 O24'
_cell_volume   505.69716194
_cell_formula_units_Z   1
loop_
 _symmetry_equiv_pos_site_id
 _symmetry_equiv_pos_as_xyz
  1  'x, y, z'
loop_
 _atom_site_type_symbol
 _atom_site_label
 _atom_site_symmetry_multiplicity
 _atom_site_fract_x
 _atom_site_fract_y
 _atom_site_fract_z
 _atom_site_occupancy
  Li  Li0  1  0.06366672  0.84750279  0.61033060  1
  Li  Li1  1  0.43508748  0.15228753  0.89091534  1
  Li  Li2  1  0.18668114  0.65075170  0.13942625  1
  Li  Li3  1  0.31278658  0.34940755  0.35965311  1
  Li  Li4  1  0.68503168  0.65173026  0.64111052  1
  Li  Li5  1  0.81475300  0.34764347  0.85913158  1
  Li  Li6  1  0.56506983  0.84831301  0.10949885  1
  Li  Li7  1  0.93547021  0.15152687  0.38986568  1
  Mn  Mn8  1  0.52484658  0.16766534  0.70923837  1
  Mn  Mn9  1  0.77022555  0.66845255  0.45924920  1
  Mn  Mn10  1  0.72746115  0.33191724  0.04112663  1
  Fe  Fe11  1  0.27431394  0.66298907  0.95815301  1
  Fe  Fe12  1  0.02902281  0.16245421  0.21190550  1
  Fe  Fe13  1  0.22352872  0.33934498  0.54083471  1
  Fe  Fe14  1  0.47264917  0.82810852  0.28750986  1
  Fe  Fe15  1  0.97481212  0.83567289  0.79210041  1
  B  B16  1  0.03684695  0.32835575  0.70223745  1
  B  B17  1  0.28612124  0.83231770  0.45247871  1
  B  B18  1  0.46327723  0.66964952  0.79822086  1
  B  B19  1  0.21429318  0.17138270  0.04799187  1
  B  B20  1  0.78667903  0.83084362  0.95202675  1
  B  B21  1  0.53756535  0.32638635  0.20442079  1
  B  B22  1  0.71331865  0.17100177  0.54697832  1
  B  B23  1  0.96248008  0.67087680  0.29598094  1
  O  O24  1  0.01297613  0.58741523  0.69177454  1
  O  O25  1  0.16832252  0.18266979  0.65344199  1
  O  O26  1  0.17505489  0.70831966  0.51017513  1
  O  O27  1  0.32747638  0.29777298  0.99122147  1
  O  O28  1  0.07863471  0.79148849  0.23894266  1
  O  O29  1  0.32935074  0.81901225  0.84529208  1
  O  O30  1  0.08321688  0.31609699  0.09664311  1
  O  O31  1  0.26192087  0.09133673  0.44107676  1
  O  O32  1  0.48584070  0.41026524  0.81123990  1
  O  O33  1  0.23868322  0.91200968  0.05810691  1
  O  O34  1  0.41586005  0.68638051  0.40351484  1
  O  O35  1  0.41945305  0.20764235  0.26048323  1
  O  O36  1  0.57989756  0.78694820  0.74156668  1
  O  O37  1  0.57893219  0.32115701  0.59301642  1
  O  O38  1  0.76412842  0.09000990  0.93889518  1
  O  O39  1  0.51468113  0.58822482  0.19199083  1
  O  O40  1  0.73626827  0.91170009  0.56125582  1
  O  O41  1  0.91995369  0.68150099  0.90458503  1
  O  O42  1  0.67121252  0.18143208  0.15731233  1
  O  O43  1  0.92410924  0.20240143  0.75893599  1
  O  O44  1  0.67176927  0.71355158  0.00919956  1
  O  O45  1  0.83061267  0.28698749  0.49012226  1
  O  O46  1  0.82955979  0.81764296  0.34300684  1
  O  O47  1  0.98609874  0.41145435  0.30781112  1
