# generated using pymatgen
data_Gd3SbO7
_symmetry_space_group_name_H-M   'P 1'
_cell_length_a   6.51296777
_cell_length_b   6.55228333
_cell_length_c   7.66518544
_cell_angle_alpha   73.15354603
_cell_angle_beta   89.84675440
_cell_angle_gamma   82.01044452
_symmetry_Int_Tables_number   1
_chemical_formula_structural   Gd3SbO7
_chemical_formula_sum   'Gd6 Sb2 O14'
_cell_volume   309.78933664
_cell_formula_units_Z   2
loop_
 _symmetry_equiv_pos_site_id
 _symmetry_equiv_pos_as_xyz
  1  'x, y, z'
loop_
 _atom_site_type_symbol
 _atom_site_label
 _atom_site_symmetry_multiplicity
 _atom_site_fract_x
 _atom_site_fract_y
 _atom_site_fract_z
 _atom_site_occupancy
  Gd  Gd0  1  0.26302881  0.46648888  0.88206845  1
  Gd  Gd1  1  0.26038610  0.47651720  0.38405615  1
  Gd  Gd2  1  0.46036782  0.99589411  0.25170090  1
  Gd  Gd3  1  0.53963218  0.00410589  0.74829910  1
  Gd  Gd4  1  0.73961390  0.52348280  0.61594385  1
  Gd  Gd5  1  0.73697119  0.53351112  0.11793155  1
  Sb  Sb6  1  0.00000000  0.00000000  0.00000000  1
  Sb  Sb7  1  0.00000000  0.00000000  0.50000000  1
  O  O8  1  0.28772598  0.06083726  0.51603277  1
  O  O9  1  0.07596205  0.68151912  0.04456020  1
  O  O10  1  0.28866479  0.06733843  0.95373357  1
  O  O11  1  0.06922827  0.67137687  0.61125756  1
  O  O12  1  0.09638853  0.93168402  0.26753980  1
  O  O13  1  0.43984284  0.35500207  0.16581265  1
  O  O14  1  0.45145810  0.36217362  0.65534457  1
  O  O15  1  0.54854190  0.63782638  0.34465543  1
  O  O16  1  0.56015716  0.64499793  0.83418735  1
  O  O17  1  0.90361147  0.06831598  0.73246020  1
  O  O18  1  0.93077173  0.32862313  0.38874244  1
  O  O19  1  0.71133521  0.93266157  0.04626643  1
  O  O20  1  0.92403795  0.31848088  0.95543980  1
  O  O21  1  0.71227402  0.93916274  0.48396723  1
