# generated using pymatgen
data_Li2MnFe(BO3)2
_symmetry_space_group_name_H-M   'P 1'
_cell_length_a   6.05127305
_cell_length_b   5.24244709
_cell_length_c   5.16996764
_cell_angle_alpha   60.72604572
_cell_angle_beta   113.12794046
_cell_angle_gamma   88.86989714
_symmetry_Int_Tables_number   1
_chemical_formula_structural   Li2MnFe(BO3)2
_chemical_formula_sum   'Li2 Mn1 Fe1 B2 O6'
_cell_volume   126.89778600
_cell_formula_units_Z   1
loop_
 _symmetry_equiv_pos_site_id
 _symmetry_equiv_pos_as_xyz
  1  'x, y, z'
loop_
 _atom_site_type_symbol
 _atom_site_label
 _atom_site_symmetry_multiplicity
 _atom_site_fract_x
 _atom_site_fract_y
 _atom_site_fract_z
 _atom_site_occupancy
  Li  Li0  1  0.32775967  0.36885160  0.56416652  1
  Li  Li1  1  0.67302088  0.62755629  0.43948959  1
  Mn  Mn2  1  0.22826875  0.74987599  0.83451430  1
  Fe  Fe3  1  0.76365862  0.25922712  0.15810923  1
  B  B4  1  0.26152707  0.07584725  0.18955507  1
  B  B5  1  0.74020690  0.92392764  0.81036203  1
  O  O6  1  0.32256173  0.30573850  0.96432584  1
  O  O7  1  0.17212110  0.13245908  0.37431516  1
  O  O8  1  0.29783864  0.78901635  0.24337101  1
  O  O9  1  0.70566013  0.20503945  0.76766419  1
  O  O10  1  0.81991121  0.87699296  0.61237441  1
  O  O11  1  0.68746431  0.68546877  0.04175265  1
