# generated using pymatgen
data_Li3MnFe2(BO3)3
_symmetry_space_group_name_H-M   'P 1'
_cell_length_a   8.26486222
_cell_length_b   8.25074563
_cell_length_c   3.15355916
_cell_angle_alpha   90.00000000
_cell_angle_beta   90.00000000
_cell_angle_gamma   120.19189766
_symmetry_Int_Tables_number   1
_chemical_formula_structural   Li3MnFe2(BO3)3
_chemical_formula_sum   'Li3 Mn1 Fe2 B3 O9'
_cell_volume   185.87346212
_cell_formula_units_Z   1
loop_
 _symmetry_equiv_pos_site_id
 _symmetry_equiv_pos_as_xyz
  1  'x, y, z'
loop_
 _atom_site_type_symbol
 _atom_site_label
 _atom_site_symmetry_multiplicity
 _atom_site_fract_x
 _atom_site_fract_y
 _atom_site_fract_z
 _atom_site_occupancy
  Li  Li0  1  0.28365379  0.98168643  0.50000000  1
  Li  Li1  1  0.01584874  0.30110130  0.50000000  1
  Li  Li2  1  0.69843162  0.71472742  0.50000000  1
  Mn  Mn3  1  0.37278021  0.36062703  0.00000000  1
  Fe  Fe4  1  0.64090310  0.00784512  0.00000000  1
  Fe  Fe5  1  0.99238997  0.63277824  0.00000000  1
  B  B6  1  0.99758194  0.99939709  0.00000000  1
  B  B7  1  0.33338433  0.66886202  0.50000000  1
  B  B8  1  0.66872838  0.33250830  0.50000000  1
  O  O9  1  0.10877474  0.91623023  0.00000000  1
  O  O10  1  0.13857809  0.58220068  0.50000000  1
  O  O11  1  0.07998535  0.19357484  0.00000000  1
  O  O12  1  0.44226153  0.86350249  0.50000000  1
  O  O13  1  0.41897936  0.56077540  0.50000000  1
  O  O14  1  0.47440062  0.25145112  0.50000000  1
  O  O15  1  0.80333154  0.88718517  0.00000000  1
  O  O16  1  0.78233123  0.52731645  0.50000000  1
  O  O17  1  0.74765647  0.21822968  0.50000000  1
