# generated using pymatgen
data_SrBi(PO4)2
_symmetry_space_group_name_H-M   'P 1'
_cell_length_a   5.51759868
_cell_length_b   7.22489418
_cell_length_c   9.74518418
_cell_angle_alpha   106.94443761
_cell_angle_beta   97.78745713
_cell_angle_gamma   97.70727238
_symmetry_Int_Tables_number   1
_chemical_formula_structural   SrBi(PO4)2
_chemical_formula_sum   'Sr2 Bi2 P4 O16'
_cell_volume   361.96123637
_cell_formula_units_Z   2
loop_
 _symmetry_equiv_pos_site_id
 _symmetry_equiv_pos_as_xyz
  1  'x, y, z'
loop_
 _atom_site_type_symbol
 _atom_site_label
 _atom_site_symmetry_multiplicity
 _atom_site_fract_x
 _atom_site_fract_y
 _atom_site_fract_z
 _atom_site_occupancy
  Sr  Sr0  1  0.23854841  0.80350737  0.06146185  1
  Sr  Sr1  1  0.76145159  0.19649263  0.93853815  1
  Bi  Bi2  1  0.67778671  0.79854230  0.55837714  1
  Bi  Bi3  1  0.32221329  0.20145770  0.44162286  1
  P  P4  1  0.36143696  0.39412871  0.20112987  1
  P  P5  1  0.63856304  0.60587129  0.79887013  1
  P  P6  1  0.81063418  0.01842353  0.28489614  1
  P  P7  1  0.18936582  0.98157647  0.71510386  1
  O  O8  1  0.84790928  0.54983835  0.89171924  1
  O  O9  1  0.59028015  0.43952965  0.13384763  1
  O  O10  1  0.69796386  0.82547382  0.80438753  1
  O  O11  1  0.97067407  0.09279465  0.68808673  1
  O  O12  1  0.40971985  0.56047035  0.86615237  1
  O  O13  1  0.08522948  0.76095365  0.62099912  1
  O  O14  1  0.91477052  0.23904635  0.37900088  1
  O  O15  1  0.27123186  0.01383823  0.87869155  1
  O  O16  1  0.30203614  0.17452618  0.19561247  1
  O  O17  1  0.72876814  0.98616177  0.12130845  1
  O  O18  1  0.15209072  0.45016165  0.10828076  1
  O  O19  1  0.39911986  0.50999143  0.36576978  1
  O  O20  1  0.60088014  0.49000857  0.63423022  1
  O  O21  1  0.58010747  0.94418120  0.34740387  1
  O  O22  1  0.02932593  0.90720535  0.31191327  1
  O  O23  1  0.41989253  0.05581880  0.65259613  1
