# generated using pymatgen
data_Li2Cr3(NiO6)2
_symmetry_space_group_name_H-M   'P 1'
_cell_length_a   12.57156128
_cell_length_b   9.10285525
_cell_length_c   9.09328415
_cell_angle_alpha   90.00000000
_cell_angle_beta   90.00000000
_cell_angle_gamma   90.00000000
_symmetry_Int_Tables_number   1
_chemical_formula_structural   Li2Cr3(NiO6)2
_chemical_formula_sum   'Li8 Cr12 Ni8 O48'
_cell_volume   1040.60909123
_cell_formula_units_Z   4
loop_
 _symmetry_equiv_pos_site_id
 _symmetry_equiv_pos_as_xyz
  1  'x, y, z'
loop_
 _atom_site_type_symbol
 _atom_site_label
 _atom_site_symmetry_multiplicity
 _atom_site_fract_x
 _atom_site_fract_y
 _atom_site_fract_z
 _atom_site_occupancy
  Li  Li0  1  0.18712719  0.22029570  0.27164452  1
  Li  Li1  1  0.18712719  0.77970430  0.77164452  1
  Li  Li2  1  0.31287281  0.27970430  0.77164452  1
  Li  Li3  1  0.31287281  0.72029570  0.27164452  1
  Li  Li4  1  0.68712719  0.27970430  0.72835548  1
  Li  Li5  1  0.68712719  0.72029570  0.22835548  1
  Li  Li6  1  0.81287281  0.22029570  0.22835548  1
  Li  Li7  1  0.81287281  0.77970430  0.72835548  1
  Cr  Cr8  1  0.00000000  0.46229210  0.25000000  1
  Cr  Cr9  1  0.00000000  0.53770790  0.75000000  1
  Cr  Cr10  1  0.14350757  0.10069516  0.60561779  1
  Cr  Cr11  1  0.14350757  0.89930484  0.10561779  1
  Cr  Cr12  1  0.35649243  0.39930484  0.10561779  1
  Cr  Cr13  1  0.35649243  0.60069516  0.60561779  1
  Cr  Cr14  1  0.50000000  0.03770790  0.75000000  1
  Cr  Cr15  1  0.50000000  0.96229210  0.25000000  1
  Cr  Cr16  1  0.64350757  0.39930484  0.39438221  1
  Cr  Cr17  1  0.64350757  0.60069516  0.89438221  1
  Cr  Cr18  1  0.85649243  0.10069516  0.89438221  1
  Cr  Cr19  1  0.85649243  0.89930484  0.39438221  1
  Ni  Ni20  1  0.11903224  0.25282986  0.96754418  1
  Ni  Ni21  1  0.11903224  0.74717014  0.46754418  1
  Ni  Ni22  1  0.38096776  0.24717014  0.46754418  1
  Ni  Ni23  1  0.38096776  0.75282986  0.96754418  1
  Ni  Ni24  1  0.61903224  0.24717014  0.03245582  1
  Ni  Ni25  1  0.61903224  0.75282986  0.53245582  1
  Ni  Ni26  1  0.88096776  0.25282986  0.53245582  1
  Ni  Ni27  1  0.88096776  0.74717014  0.03245582  1
  O  O28  1  0.02036526  0.14365020  0.56722197  1
  O  O29  1  0.02036526  0.85634980  0.06722197  1
  O  O30  1  0.06488013  0.56432458  0.36834730  1
  O  O31  1  0.06488013  0.43567542  0.86834730  1
  O  O32  1  0.08874912  0.35338521  0.16448130  1
  O  O33  1  0.08874912  0.64661479  0.66448130  1
  O  O34  1  0.16032401  0.08219304  0.10675910  1
  O  O35  1  0.16032401  0.91780696  0.60675910  1
  O  O36  1  0.17565969  0.16682945  0.77050424  1
  O  O37  1  0.17565969  0.83317055  0.27050424  1
  O  O38  1  0.22283861  0.17266467  0.47644563  1
  O  O39  1  0.22283861  0.82733533  0.97644563  1
  O  O40  1  0.27716139  0.32733533  0.97644563  1
  O  O41  1  0.27716139  0.67266467  0.47644563  1
  O  O42  1  0.32434031  0.66682945  0.77050424  1
  O  O43  1  0.32434031  0.33317055  0.27050424  1
  O  O44  1  0.33967599  0.41780696  0.60675910  1
  O  O45  1  0.33967599  0.58219304  0.10675910  1
  O  O46  1  0.41125088  0.14661479  0.66448130  1
  O  O47  1  0.41125088  0.85338521  0.16448130  1
  O  O48  1  0.43511987  0.06432458  0.36834730  1
  O  O49  1  0.43511987  0.93567542  0.86834730  1
  O  O50  1  0.47963474  0.64365020  0.56722197  1
  O  O51  1  0.47963474  0.35634980  0.06722197  1
  O  O52  1  0.52036526  0.35634980  0.43277803  1
  O  O53  1  0.52036526  0.64365020  0.93277803  1
  O  O54  1  0.56488013  0.06432458  0.13165270  1
  O  O55  1  0.56488013  0.93567542  0.63165270  1
  O  O56  1  0.58874912  0.14661479  0.83551870  1
  O  O57  1  0.58874912  0.85338521  0.33551870  1
  O  O58  1  0.66032401  0.41780696  0.89324090  1
  O  O59  1  0.66032401  0.58219304  0.39324090  1
  O  O60  1  0.67565969  0.33317055  0.22949576  1
  O  O61  1  0.67565969  0.66682945  0.72949576  1
  O  O62  1  0.72283861  0.32733533  0.52355437  1
  O  O63  1  0.72283861  0.67266467  0.02355437  1
  O  O64  1  0.77716139  0.17266467  0.02355437  1
  O  O65  1  0.77716139  0.82733533  0.52355437  1
  O  O66  1  0.82434031  0.16682945  0.72949576  1
  O  O67  1  0.82434031  0.83317055  0.22949576  1
  O  O68  1  0.83967599  0.08219304  0.39324090  1
  O  O69  1  0.83967599  0.91780696  0.89324090  1
  O  O70  1  0.91125088  0.35338521  0.33551870  1
  O  O71  1  0.91125088  0.64661479  0.83551870  1
  O  O72  1  0.93511987  0.43567542  0.63165270  1
  O  O73  1  0.93511987  0.56432458  0.13165270  1
  O  O74  1  0.97963474  0.14365020  0.93277803  1
  O  O75  1  0.97963474  0.85634980  0.43277803  1
