# generated using pymatgen
data_Li8Mn7Fe(BO3)8
_symmetry_space_group_name_H-M   'P 1'
_cell_length_a   5.25753702
_cell_length_b   9.11255484
_cell_length_c   10.52238954
_cell_angle_alpha   91.60945385
_cell_angle_beta   91.00942466
_cell_angle_gamma   89.74952149
_symmetry_Int_Tables_number   1
_chemical_formula_structural   Li8Mn7Fe(BO3)8
_chemical_formula_sum   'Li8 Mn7 Fe1 B8 O24'
_cell_volume   503.84254127
_cell_formula_units_Z   1
loop_
 _symmetry_equiv_pos_site_id
 _symmetry_equiv_pos_as_xyz
  1  'x, y, z'
loop_
 _atom_site_type_symbol
 _atom_site_label
 _atom_site_symmetry_multiplicity
 _atom_site_fract_x
 _atom_site_fract_y
 _atom_site_fract_z
 _atom_site_occupancy
  Li  Li0  1  0.85356837  0.82545639  0.66869303  1
  Li  Li1  1  0.81223559  0.83938099  0.16826704  1
  Li  Li2  1  0.67750962  0.66950942  0.41682455  1
  Li  Li3  1  0.66349446  0.67429875  0.91723263  1
  Li  Li4  1  0.35232199  0.32597640  0.66746878  1
  Li  Li5  1  0.31150728  0.33952224  0.16796504  1
  Li  Li6  1  0.17938839  0.16856074  0.41780288  1
  Li  Li7  1  0.16386901  0.17443832  0.91789246  1
  Mn  Mn8  1  0.82255472  0.50129433  0.13272686  1
  Mn  Mn9  1  0.84062868  0.16095295  0.63322460  1
  Mn  Mn10  1  0.66869901  0.33536283  0.38280901  1
  Mn  Mn11  1  0.66885746  0.00189414  0.88339454  1
  Mn  Mn12  1  0.32179261  0.00090818  0.13333050  1
  Mn  Mn13  1  0.17002270  0.83496678  0.38572195  1
  Mn  Mn14  1  0.17035443  0.50377414  0.88177632  1
  Fe  Fe15  1  0.34508004  0.65954053  0.63246316  1
  B  B16  1  0.82663827  0.17074353  0.12578666  1
  B  B17  1  0.83982890  0.50024268  0.62523603  1
  B  B18  1  0.66347068  0.00210301  0.37592404  1
  B  B19  1  0.67222114  0.33296316  0.87524562  1
  B  B20  1  0.32654309  0.67075866  0.12591320  1
  B  B21  1  0.34295246  0.99688457  0.62674858  1
  B  B22  1  0.16330130  0.50181253  0.37678416  1
  B  B23  1  0.17242180  0.83290655  0.87467635  1
  O  O24  1  0.90369195  0.51862254  0.34635319  1
  O  O25  1  0.91095282  0.82065739  0.86086949  1
  O  O26  1  0.82611218  0.21100589  0.84499955  1
  O  O27  1  0.80565991  0.12361051  0.41793811  1
  O  O28  1  0.77706444  0.86559679  0.36150356  1
  O  O29  1  0.78390779  0.46463785  0.91718147  1
  O  O30  1  0.72497733  0.63693697  0.61253543  1
  O  O31  1  0.71133001  0.03535505  0.09583677  1
  O  O32  1  0.69819861  0.37355693  0.59653160  1
  O  O33  1  0.67785449  0.28965592  0.16697461  1
  O  O34  1  0.58661220  0.68529658  0.11114854  1
  O  O35  1  0.59621981  0.98347356  0.66691170  1
  O  O36  1  0.40384721  0.01812324  0.34552388  1
  O  O37  1  0.41067609  0.32126544  0.86040396  1
  O  O38  1  0.32663769  0.71150111  0.84366980  1
  O  O39  1  0.30593155  0.62272029  0.41913896  1
  O  O40  1  0.27577581  0.36498774  0.36137161  1
  O  O41  1  0.28248412  0.96478227  0.91754825  1
  O  O42  1  0.21166651  0.53522644  0.09575411  1
  O  O43  1  0.23383058  0.13435568  0.61111175  1
  O  O44  1  0.19922755  0.87048026  0.59828705  1
  O  O45  1  0.17785125  0.78940323  0.16723878  1
  O  O46  1  0.08653550  0.18533454  0.11115080  1
  O  O47  1  0.09429162  0.48976696  0.66370901  1
