# generated using pymatgen
data_Hf2N2O
_symmetry_space_group_name_H-M   'P 1'
_cell_length_a   8.74826824
_cell_length_b   8.72188408
_cell_length_c   8.71948008
_cell_angle_alpha   109.18316465
_cell_angle_beta   109.57872151
_cell_angle_gamma   109.66943745
_symmetry_Int_Tables_number   1
_chemical_formula_structural   Hf2N2O
_chemical_formula_sum   'Hf16 N16 O8'
_cell_volume   512.03514972
_cell_formula_units_Z   8
loop_
 _symmetry_equiv_pos_site_id
 _symmetry_equiv_pos_as_xyz
  1  'x, y, z'
loop_
 _atom_site_type_symbol
 _atom_site_label
 _atom_site_symmetry_multiplicity
 _atom_site_fract_x
 _atom_site_fract_y
 _atom_site_fract_z
 _atom_site_occupancy
  Hf  Hf0  1  0.49885080  0.98970795  0.98753667  1
  Hf  Hf1  1  0.75674967  0.29353511  0.54526608  1
  Hf  Hf2  1  0.72021471  0.47068487  0.24969441  1
  Hf  Hf3  1  0.21026646  0.95403419  0.24164814  1
  Hf  Hf4  1  0.25068092  0.21464540  0.95523413  1
  Hf  Hf5  1  0.02713820  0.74176219  0.77443081  1
  Hf  Hf6  1  0.53364519  0.74861555  0.28202000  1
  Hf  Hf7  1  0.96610551  0.25841149  0.21749702  1
  Hf  Hf8  1  0.50385824  0.50994624  0.51232319  1
  Hf  Hf9  1  0.99921727  0.99784080  0.50796601  1
  Hf  Hf10  1  0.46932897  0.25598745  0.72499058  1
  Hf  Hf11  1  0.99753752  0.50822316  0.99763893  1
  Hf  Hf12  1  0.74450739  0.78112716  0.03352167  1
  Hf  Hf13  1  0.28455753  0.53567343  0.74997524  1
  Hf  Hf14  1  0.77968903  0.02990039  0.75406769  1
  Hf  Hf15  1  0.25036752  0.70639373  0.46312153  1
  N  N16  1  0.73314650  0.99486456  0.96195421  1
  N  N17  1  0.51107087  0.24102682  0.97200935  1
  N  N18  1  0.77293898  0.72977533  0.26639210  1
  N  N19  1  0.72525129  0.25488896  0.76748478  1
  N  N20  1  0.48634859  0.76183561  0.03321787  1
  N  N21  1  0.76689021  0.53758255  0.52739031  1
  N  N22  1  0.27322964  0.74339956  0.22922340  1
  N  N23  1  0.53854452  0.77227679  0.54403150  1
  N  N24  1  0.95800468  0.73219451  0.98985958  1
  N  N25  1  0.99000453  0.95886465  0.73116476  1
  N  N26  1  0.22509751  0.26956544  0.73667742  1
  N  N27  1  0.54985705  0.53211555  0.77316099  1
  N  N28  1  0.22845218  0.45127299  0.46239938  1
  N  N29  1  0.96226075  0.50425057  0.23476506  1
  N  N30  1  0.03218178  0.48480718  0.75881634  1
  N  N31  1  0.26188810  0.78054625  0.72532935  1
  O  O32  1  0.76438305  0.03641591  0.48198541  1
  O  O33  1  0.27991822  0.01618634  0.05449422  1
  O  O34  1  0.74166244  0.22112252  0.27774736  1
  O  O35  1  0.05451983  0.27729961  0.01960785  1
  O  O36  1  0.01397679  0.04707254  0.27761614  1
  O  O37  1  0.44511252  0.46557361  0.22262930  1
  O  O38  1  0.23350214  0.96746903  0.50544035  1
  O  O39  1  0.45904388  0.22310101  0.44967089  1
