# generated using pymatgen
data_Li3MnFe2(BO3)3
_symmetry_space_group_name_H-M   'P 1'
_cell_length_a   8.26642751
_cell_length_b   14.29595785
_cell_length_c   3.14831424
_cell_angle_alpha   90.00000000
_cell_angle_beta   90.00000000
_cell_angle_gamma   89.98531598
_symmetry_Int_Tables_number   1
_chemical_formula_structural   Li3MnFe2(BO3)3
_chemical_formula_sum   'Li6 Mn2 Fe4 B6 O18'
_cell_volume   372.05674325
_cell_formula_units_Z   2
loop_
 _symmetry_equiv_pos_site_id
 _symmetry_equiv_pos_as_xyz
  1  'x, y, z'
loop_
 _atom_site_type_symbol
 _atom_site_label
 _atom_site_symmetry_multiplicity
 _atom_site_fract_x
 _atom_site_fract_y
 _atom_site_fract_z
 _atom_site_occupancy
  Li  Li0  1  0.29297427  0.98967060  0.50000000  1
  Li  Li1  1  0.34037820  0.35852163  0.50000000  1
  Li  Li2  1  0.36510031  0.65129459  0.50000000  1
  Li  Li3  1  0.79349755  0.49337843  0.50000000  1
  Li  Li4  1  0.84086195  0.85688987  0.50000000  1
  Li  Li5  1  0.86534853  0.15006569  0.50000000  1
  Mn  Mn6  1  0.19173021  0.18001466  0.00000000  1
  Mn  Mn7  1  0.67435481  0.31400952  0.00000000  1
  Fe  Fe8  1  0.13734381  0.50446412  0.00000000  1
  Fe  Fe9  1  0.17577500  0.81609140  0.00000000  1
  Fe  Fe10  1  0.63729700  0.00315722  0.00000000  1
  Fe  Fe11  1  0.68731480  0.68009521  0.00000000  1
  B  B12  1  0.99990010  0.66694727  0.50000000  1
  B  B13  1  0.99827843  0.99946312  0.00000000  1
  B  B14  1  0.00115024  0.33445474  0.50000000  1
  B  B15  1  0.50002688  0.16489718  0.50000000  1
  B  B16  1  0.50051828  0.50114470  0.00000000  1
  B  B17  1  0.50000129  0.83350183  0.50000000  1
  O  O18  1  0.01116518  0.43173826  0.50000000  1
  O  O19  1  0.01903439  0.76388264  0.50000000  1
  O  O20  1  0.13580691  0.60904114  0.50000000  1
  O  O21  1  0.14125834  0.28098889  0.50000000  1
  O  O22  1  0.15089268  0.95766890  0.00000000  1
  O  O23  1  0.34725180  0.12401565  0.50000000  1
  O  O24  1  0.34814698  0.79128160  0.50000000  1
  O  O25  1  0.36184483  0.44563553  0.00000000  1
  O  O26  1  0.48611726  0.59828056  0.00000000  1
  O  O27  1  0.51243476  0.93058464  0.50000000  1
  O  O28  1  0.51392991  0.26220234  0.50000000  1
  O  O29  1  0.63776639  0.10887140  0.50000000  1
  O  O30  1  0.63932356  0.77876281  0.50000000  1
  O  O31  1  0.65311359  0.46005557  0.00000000  1
  O  O32  1  0.84523345  0.62820230  0.50000000  1
  O  O33  1  0.85119179  0.29053011  0.50000000  1
  O  O34  1  0.86013866  0.94378976  0.00000000  1
  O  O35  1  0.98349486  0.09640613  0.00000000  1
