# generated using pymatgen
data_Li2MnFe(BO3)2
_symmetry_space_group_name_H-M   'P 1'
_cell_length_a   6.04388919
_cell_length_b   5.27416462
_cell_length_c   8.97382846
_cell_angle_alpha   90.80584159
_cell_angle_beta   102.31774591
_cell_angle_gamma   114.01137678
_symmetry_Int_Tables_number   1
_chemical_formula_structural   Li2MnFe(BO3)2
_chemical_formula_sum   'Li4 Mn2 Fe2 B4 O12'
_cell_volume   253.64891429
_cell_formula_units_Z   2
loop_
 _symmetry_equiv_pos_site_id
 _symmetry_equiv_pos_as_xyz
  1  'x, y, z'
loop_
 _atom_site_type_symbol
 _atom_site_label
 _atom_site_symmetry_multiplicity
 _atom_site_fract_x
 _atom_site_fract_y
 _atom_site_fract_z
 _atom_site_occupancy
  Li  Li0  1  0.67490419  0.40645254  0.03489758  1
  Li  Li1  1  0.67034403  0.90154828  0.53179322  1
  Li  Li2  1  0.32509581  0.09354746  0.46510242  1
  Li  Li3  1  0.32965597  0.59845172  0.96820678  1
  Mn  Mn4  1  0.76495010  0.45429940  0.70579582  1
  Mn  Mn5  1  0.23504990  0.04570060  0.79420418  1
  Fe  Fe6  1  0.76826590  0.95682413  0.21204982  1
  Fe  Fe7  1  0.23173410  0.54317587  0.28795018  1
  B  B8  1  0.74095339  0.44120960  0.36516564  1
  B  B9  1  0.25904661  0.05879040  0.13483436  1
  B  B10  1  0.73774169  0.94306377  0.86990147  1
  B  B11  1  0.26225831  0.55693623  0.63009853  1
  O  O12  1  0.82578365  0.37019240  0.24357551  1
  O  O13  1  0.70225451  0.27318799  0.48212055  1
  O  O14  1  0.67555327  0.17073595  0.86574984  1
  O  O15  1  0.68552761  0.67343922  0.36178413  1
  O  O16  1  0.82388962  0.87728002  0.74698793  1
  O  O17  1  0.29774549  0.22681201  0.01787945  1
  O  O18  1  0.70619314  0.77858445  0.98826211  1
  O  O19  1  0.17421635  0.12980760  0.25642449  1
  O  O20  1  0.32444673  0.32926405  0.63425016  1
  O  O21  1  0.31447239  0.82656078  0.13821587  1
  O  O22  1  0.29380686  0.72141555  0.51173789  1
  O  O23  1  0.17611038  0.62271998  0.75301207  1
