# generated using pymatgen
data_Li2MnV(P2O7)2
_symmetry_space_group_name_H-M   'P 1'
_cell_length_a   9.71202902
_cell_length_b   8.31111050
_cell_length_c   7.16634009
_cell_angle_alpha   90.00000000
_cell_angle_beta   68.80169642
_cell_angle_gamma   90.00000000
_symmetry_Int_Tables_number   1
_chemical_formula_structural   Li2MnV(P2O7)2
_chemical_formula_sum   'Li4 Mn2 V2 P8 O28'
_cell_volume   539.30966215
_cell_formula_units_Z   2
loop_
 _symmetry_equiv_pos_site_id
 _symmetry_equiv_pos_as_xyz
  1  'x, y, z'
loop_
 _atom_site_type_symbol
 _atom_site_label
 _atom_site_symmetry_multiplicity
 _atom_site_fract_x
 _atom_site_fract_y
 _atom_site_fract_z
 _atom_site_occupancy
  Li  Li0  1  0.24960997  0.36020670  0.32695441  1
  Li  Li1  1  0.25115599  0.85931364  0.67406509  1
  Li  Li2  1  0.74884401  0.35931364  0.32593491  1
  Li  Li3  1  0.75039003  0.86020670  0.67304559  1
  Mn  Mn4  1  0.24217155  0.49908209  0.72970463  1
  Mn  Mn5  1  0.75782845  0.99908209  0.27029537  1
  V  V6  1  0.25698520  0.99970936  0.27289070  1
  V  V7  1  0.74301480  0.49970936  0.72710930  1
  P  P8  1  0.06129497  0.78851297  0.08810172  1
  P  P9  1  0.06107670  0.67977407  0.47739871  1
  P  P10  1  0.44148062  0.17797305  0.51670760  1
  P  P11  1  0.56388616  0.78347803  0.08881098  1
  P  P12  1  0.43611384  0.28347803  0.91118902  1
  P  P13  1  0.55851938  0.67797305  0.48329140  1
  P  P14  1  0.93892330  0.17977407  0.52260129  1
  P  P15  1  0.93870503  0.28851297  0.91189828  1
  O  O16  1  0.07740033  0.65523768  0.24648036  1
  O  O17  1  0.15454262  0.93755981  0.09012767  1
  O  O18  1  0.10423848  0.17681009  0.39538566  1
  O  O19  1  0.12961398  0.84259509  0.49360382  1
  O  O20  1  0.14758858  0.53710910  0.51680972  1
  O  O21  1  0.10318804  0.32805146  0.84901515  1
  O  O22  1  0.11970013  0.70549507  0.88629926  1
  O  O23  1  0.37623516  0.19505530  0.11139291  1
  O  O24  1  0.40161960  0.82579672  0.14840739  1
  O  O25  1  0.35302572  0.03518006  0.48153201  1
  O  O26  1  0.37763422  0.34017464  0.49287713  1
  O  O27  1  0.39201806  0.67153968  0.60977405  1
  O  O28  1  0.34205643  0.43320336  0.91390952  1
  O  O29  1  0.42255095  0.15372303  0.74879079  1
  O  O30  1  0.57744905  0.65372303  0.25120921  1
  O  O31  1  0.65794357  0.93320336  0.08609048  1
  O  O32  1  0.60798194  0.17153968  0.39022595  1
  O  O33  1  0.62236578  0.84017464  0.50712287  1
  O  O34  1  0.64697428  0.53518006  0.51846799  1
  O  O35  1  0.59838040  0.32579672  0.85159261  1
  O  O36  1  0.62376484  0.69505530  0.88860709  1
  O  O37  1  0.88029987  0.20549507  0.11370074  1
  O  O38  1  0.89681196  0.82805146  0.15098485  1
  O  O39  1  0.85241142  0.03710910  0.48319028  1
  O  O40  1  0.87038602  0.34259509  0.50639618  1
  O  O41  1  0.89576152  0.67681009  0.60461434  1
  O  O42  1  0.84545738  0.43755981  0.90987233  1
  O  O43  1  0.92259967  0.15523768  0.75351964  1
