# generated using pymatgen
data_Hf2N2O
_symmetry_space_group_name_H-M   'P 1'
_cell_length_a   8.74641138
_cell_length_b   8.72397757
_cell_length_c   8.75524545
_cell_angle_alpha   109.52555243
_cell_angle_beta   109.60349066
_cell_angle_gamma   109.47941080
_symmetry_Int_Tables_number   1
_chemical_formula_structural   Hf2N2O
_chemical_formula_sum   'Hf16 N16 O8'
_cell_volume   513.02914090
_cell_formula_units_Z   8
loop_
 _symmetry_equiv_pos_site_id
 _symmetry_equiv_pos_as_xyz
  1  'x, y, z'
loop_
 _atom_site_type_symbol
 _atom_site_label
 _atom_site_symmetry_multiplicity
 _atom_site_fract_x
 _atom_site_fract_y
 _atom_site_fract_z
 _atom_site_occupancy
  Hf  Hf0  1  0.96500868  0.25082879  0.21384839  1
  Hf  Hf1  1  0.50705048  0.99580814  0.99691426  1
  Hf  Hf2  1  0.71100455  0.46018807  0.24246026  1
  Hf  Hf3  1  0.78927038  0.03394239  0.75923896  1
  Hf  Hf4  1  0.75396507  0.28790061  0.53079845  1
  Hf  Hf5  1  0.74331296  0.77821617  0.03201401  1
  Hf  Hf6  1  0.49248185  0.50869471  0.51069336  1
  Hf  Hf7  1  0.45772062  0.25076183  0.72158167  1
  Hf  Hf8  1  0.53867515  0.74953833  0.28462217  1
  Hf  Hf9  1  0.00976033  0.50709348  0.99693717  1
  Hf  Hf10  1  0.00760867  0.99492776  0.50509180  1
  Hf  Hf11  1  0.25844556  0.71879347  0.47061387  1
  Hf  Hf12  1  0.24062242  0.21299777  0.95441428  1
  Hf  Hf13  1  0.28341004  0.53812665  0.75059959  1
  Hf  Hf14  1  0.21253850  0.95341825  0.24789016  1
  Hf  Hf15  1  0.03717815  0.75156095  0.78718755  1
  N  N16  1  0.74329328  0.23145613  0.27744160  1
  N  N17  1  0.77367716  0.72704001  0.26489167  1
  N  N18  1  0.04885066  0.27845635  0.01440366  1
  N  N19  1  0.48713500  0.76285629  0.03652486  1
  N  N20  1  0.27180194  0.73625660  0.22559158  1
  N  N21  1  0.22662109  0.45296333  0.46173361  1
  N  N22  1  0.51368975  0.24334594  0.96844639  1
  N  N23  1  0.98657596  0.95142999  0.72549445  1
  N  N24  1  0.54670246  0.53213616  0.77030676  1
  N  N25  1  0.95957157  0.73217708  0.99349976  1
  N  N26  1  0.53618734  0.77204627  0.54454451  1
  N  N27  1  0.22292331  0.27157705  0.73798673  1
  N  N28  1  0.02582842  0.48339528  0.75535363  1
  N  N29  1  0.72854861  0.98792230  0.95549831  1
  N  N30  1  0.23722868  0.96862877  0.50697680  1
  N  N31  1  0.25982938  0.77717202  0.72826130  1
  O  O32  1  0.75835313  0.03607847  0.48833478  1
  O  O33  1  0.27436024  0.01488348  0.05031696  1
  O  O34  1  0.96176455  0.50928489  0.23504753  1
  O  O35  1  0.46934891  0.22689587  0.44948841  1
  O  O36  1  0.45802772  0.46445089  0.23093389  1
  O  O37  1  0.72212701  0.25454833  0.76570657  1
  O  O38  1  0.01092351  0.04835646  0.27501073  1
  O  O39  1  0.76857692  0.54384563  0.53329858  1
