# generated using pymatgen
data_Hf2N2O
_symmetry_space_group_name_H-M   'P 1'
_cell_length_a   8.71738731
_cell_length_b   8.73169312
_cell_length_c   8.76937045
_cell_angle_alpha   109.67985253
_cell_angle_beta   109.50487304
_cell_angle_gamma   109.31684636
_symmetry_Int_Tables_number   1
_chemical_formula_structural   Hf2N2O
_chemical_formula_sum   'Hf16 N16 O8'
_cell_volume   513.28194560
_cell_formula_units_Z   8
loop_
 _symmetry_equiv_pos_site_id
 _symmetry_equiv_pos_as_xyz
  1  'x, y, z'
loop_
 _atom_site_type_symbol
 _atom_site_label
 _atom_site_symmetry_multiplicity
 _atom_site_fract_x
 _atom_site_fract_y
 _atom_site_fract_z
 _atom_site_occupancy
  Hf  Hf0  1  0.96202946  0.24969384  0.21784644  1
  Hf  Hf1  1  0.50503415  0.99518196  0.99570234  1
  Hf  Hf2  1  0.78072524  0.02550789  0.75141087  1
  Hf  Hf3  1  0.71084609  0.46069982  0.24170905  1
  Hf  Hf4  1  0.74362196  0.77930462  0.03327061  1
  Hf  Hf5  1  0.74843240  0.28551352  0.52804674  1
  Hf  Hf6  1  0.00661756  0.51588692  0.99568174  1
  Hf  Hf7  1  0.49188702  0.49719746  0.51002904  1
  Hf  Hf8  1  0.45904067  0.24990558  0.71509249  1
  Hf  Hf9  1  0.00684659  0.99516853  0.50633555  1
  Hf  Hf10  1  0.53768256  0.74993905  0.28442926  1
  Hf  Hf11  1  0.25857784  0.71599283  0.46911120  1
  Hf  Hf12  1  0.24874361  0.21427466  0.95455669  1
  Hf  Hf13  1  0.22015518  0.96107553  0.25796913  1
  Hf  Hf14  1  0.28323281  0.53908621  0.75098299  1
  Hf  Hf15  1  0.03751189  0.75263068  0.78673446  1
  N  N16  1  0.74549520  0.23205792  0.27785870  1
  N  N17  1  0.77395901  0.72640519  0.26474904  1
  N  N18  1  0.46913293  0.22723470  0.45155073  1
  N  N19  1  0.48785346  0.76488181  0.03733382  1
  N  N20  1  0.98692755  0.95570850  0.72872541  1
  N  N21  1  0.22552411  0.45247743  0.46110218  1
  N  N22  1  0.51207553  0.24210839  0.96815674  1
  N  N23  1  0.27056009  0.73375472  0.22495088  1
  N  N24  1  0.95913900  0.73268414  0.99305331  1
  N  N25  1  0.54637650  0.53452463  0.77243128  1
  N  N26  1  0.22409228  0.27187571  0.73839712  1
  N  N27  1  0.53710891  0.77267617  0.54410066  1
  N  N28  1  0.02685999  0.48602503  0.75823301  1
  N  N29  1  0.73322656  0.99167143  0.95806645  1
  N  N30  1  0.23429384  0.96463392  0.50743527  1
  N  N31  1  0.26115511  0.77712425  0.72803431  1
  O  O32  1  0.75811173  0.03599413  0.48723358  1
  O  O33  1  0.27159074  0.01278097  0.04493956  1
  O  O34  1  0.96002439  0.50376866  0.22959481  1
  O  O35  1  0.45315141  0.46352289  0.22609498  1
  O  O36  1  0.05176948  0.27982400  0.01658902  1
  O  O37  1  0.01051324  0.04872934  0.27683483  1
  O  O38  1  0.72788150  0.25436303  0.77394163  1
  O  O39  1  0.77219141  0.54811393  0.53168405  1
