# generated using pymatgen
data_Li8MnFe7(BO3)8
_symmetry_space_group_name_H-M   'P 1'
_cell_length_a   5.97356998
_cell_length_b   9.08444245
_cell_length_c   9.71304647
_cell_angle_alpha   98.60864771
_cell_angle_beta   79.05392216
_cell_angle_gamma   104.14787410
_symmetry_Int_Tables_number   1
_chemical_formula_structural   Li8MnFe7(BO3)8
_chemical_formula_sum   'Li8 Mn1 Fe7 B8 O24'
_cell_volume   498.84579715
_cell_formula_units_Z   1
loop_
 _symmetry_equiv_pos_site_id
 _symmetry_equiv_pos_as_xyz
  1  'x, y, z'
loop_
 _atom_site_type_symbol
 _atom_site_label
 _atom_site_symmetry_multiplicity
 _atom_site_fract_x
 _atom_site_fract_y
 _atom_site_fract_z
 _atom_site_occupancy
  Li  Li0  1  0.80062777  0.68922430  0.87930764  1
  Li  Li1  1  0.70206019  0.31449612  0.62250026  1
  Li  Li2  1  0.95039631  0.81204199  0.37158592  1
  Li  Li3  1  0.55063211  0.18665930  0.12670466  1
  Li  Li4  1  0.44907767  0.81289236  0.87149130  1
  Li  Li5  1  0.05044742  0.18731060  0.62870483  1
  Li  Li6  1  0.30217175  0.68813469  0.37949165  1
  Li  Li7  1  0.19657763  0.31027923  0.12092984  1
  Mn  Mn8  1  0.36844562  0.37583205  0.39332696  1
  Fe  Fe9  1  0.87014789  0.37900654  0.89821682  1
  Fe  Fe10  1  0.87742266  0.11687075  0.35760888  1
  Fe  Fe11  1  0.38348226  0.12707443  0.85178546  1
  Fe  Fe12  1  0.62981940  0.62586499  0.61231771  1
  Fe  Fe13  1  0.61893296  0.87258289  0.13878092  1
  Fe  Fe14  1  0.11900775  0.87067790  0.64093445  1
  Fe  Fe15  1  0.13253112  0.62886096  0.11078266  1
  B  B16  1  0.85486544  0.04025486  0.88704669  1
  B  B17  1  0.89870146  0.45982424  0.36241450  1
  B  B18  1  0.39440260  0.46081941  0.86230684  1
  B  B19  1  0.64776649  0.96123316  0.61186115  1
  B  B20  1  0.35117219  0.03779995  0.38761156  1
  B  B21  1  0.60261637  0.53925334  0.13647992  1
  B  B22  1  0.10178250  0.53982113  0.64008244  1
  B  B23  1  0.14874227  0.96100255  0.11070717  1
  O  O24  1  0.74388362  0.15931150  0.94141015  1
  O  O25  1  0.98961588  0.65900889  0.69697169  1
  O  O26  1  0.72813363  0.10464140  0.56547132  1
  O  O27  1  0.98287077  0.60185717  0.31290994  1
  O  O28  1  0.76938862  0.89817766  0.93621837  1
  O  O29  1  0.70822753  0.44009917  0.47221072  1
  O  O30  1  0.95591589  0.93680350  0.21984802  1
  O  O31  1  0.50513139  0.34213060  0.80555562  1
  O  O32  1  0.75859475  0.84206707  0.55471586  1
  O  O33  1  0.54220271  0.06119643  0.27799605  1
  O  O34  1  0.79550418  0.56484803  0.02763753  1
  O  O35  1  0.48043393  0.60316077  0.81444376  1
  O  O36  1  0.51923460  0.39663480  0.18155683  1
  O  O37  1  0.20494932  0.43893199  0.97247964  1
  O  O38  1  0.45645078  0.93650166  0.72147393  1
  O  O39  1  0.23707536  0.15476212  0.44392309  1
  O  O40  1  0.49364320  0.65927166  0.19428937  1
  O  O41  1  0.04568393  0.06121967  0.77763948  1
  O  O42  1  0.29407694  0.56694093  0.53197864  1
  O  O43  1  0.23297213  0.10171577  0.06235841  1
  O  O44  1  0.01932380  0.39738474  0.68677609  1
  O  O45  1  0.26928462  0.89534715  0.43562137  1
  O  O46  1  0.00795916  0.34000803  0.30844764  1
  O  O47  1  0.25761144  0.84016157  0.05508825  1
