# generated using pymatgen
data_Li2MnFe(BO3)2
_symmetry_space_group_name_H-M   'P 1'
_cell_length_a   11.14710187
_cell_length_b   5.22156491
_cell_length_c   5.15604817
_cell_angle_alpha   60.98910999
_cell_angle_beta   87.88518790
_cell_angle_gamma   75.68948917
_symmetry_Int_Tables_number   1
_chemical_formula_structural   Li2MnFe(BO3)2
_chemical_formula_sum   'Li4 Mn2 Fe2 B4 O12'
_cell_volume   253.08808080
_cell_formula_units_Z   2
loop_
 _symmetry_equiv_pos_site_id
 _symmetry_equiv_pos_as_xyz
  1  'x, y, z'
loop_
 _atom_site_type_symbol
 _atom_site_label
 _atom_site_symmetry_multiplicity
 _atom_site_fract_x
 _atom_site_fract_y
 _atom_site_fract_z
 _atom_site_occupancy
  Li  Li0  1  0.16147919  0.37860758  0.39406852  1
  Li  Li1  1  0.33343820  0.63321632  0.09728750  1
  Li  Li2  1  0.66656180  0.36678268  0.90271250  1
  Li  Li3  1  0.83852081  0.62139242  0.60593148  1
  Mn  Mn4  1  0.38369069  0.25381231  0.77615208  1
  Mn  Mn5  1  0.61630931  0.74618769  0.22384792  1
  Fe  Fe6  1  0.11486367  0.74782439  0.71864899  1
  Fe  Fe7  1  0.88513633  0.25217561  0.28135101  1
  B  B8  1  0.12771031  0.08137327  0.05656519  1
  B  B9  1  0.36703983  0.92760709  0.43922479  1
  B  B10  1  0.63296017  0.07239291  0.56077521  1
  B  B11  1  0.87228969  0.91862673  0.94343481  1
  O  O12  1  0.15407873  0.32035826  0.79900199  1
  O  O13  1  0.08782806  0.12807150  0.29510435  1
  O  O14  1  0.14586985  0.80008584  0.08011316  1
  O  O15  1  0.33860315  0.69592313  0.69629269  1
  O  O16  1  0.34833729  0.21497556  0.40353747  1
  O  O17  1  0.41159689  0.87098762  0.20863633  1
  O  O18  1  0.58840311  0.12901238  0.79136367  1
  O  O19  1  0.65166271  0.78502444  0.59646253  1
  O  O20  1  0.66139685  0.30407687  0.30370731  1
  O  O21  1  0.85413015  0.19991416  0.91988684  1
  O  O22  1  0.91217194  0.87192850  0.70489565  1
  O  O23  1  0.84592127  0.67964174  0.20099801  1
