# generated using pymatgen
data_Li8Mn3Fe5(BO3)8
_symmetry_space_group_name_H-M   'P 1'
_cell_length_a   6.04358730
_cell_length_b   9.77455853
_cell_length_c   9.71222758
_cell_angle_alpha   65.01809065
_cell_angle_beta   78.27261944
_cell_angle_gamma   79.57425240
_symmetry_Int_Tables_number   1
_chemical_formula_structural   Li8Mn3Fe5(BO3)8
_chemical_formula_sum   'Li8 Mn3 Fe5 B8 O24'
_cell_volume   506.26770865
_cell_formula_units_Z   1
loop_
 _symmetry_equiv_pos_site_id
 _symmetry_equiv_pos_as_xyz
  1  'x, y, z'
loop_
 _atom_site_type_symbol
 _atom_site_label
 _atom_site_symmetry_multiplicity
 _atom_site_fract_x
 _atom_site_fract_y
 _atom_site_fract_z
 _atom_site_occupancy
  Li  Li0  1  0.95486729  0.18482939  0.53299199  1
  Li  Li1  1  0.95493324  0.68586469  0.03383197  1
  Li  Li2  1  0.54721823  0.81466151  0.96822250  1
  Li  Li3  1  0.45497134  0.68466152  0.53224096  1
  Li  Li4  1  0.54611438  0.31373408  0.46625358  1
  Li  Li5  1  0.45321400  0.18305748  0.03302724  1
  Li  Li6  1  0.04618319  0.31372050  0.96617969  1
  Li  Li7  1  0.04501526  0.81323169  0.46629080  1
  Mn  Mn8  1  0.68684895  0.37470618  0.70711838  1
  Mn  Mn9  1  0.18739311  0.87449641  0.70749479  1
  Mn  Mn10  1  0.18736163  0.37511012  0.20629098  1
  Fe  Fe11  1  0.81598241  0.62866674  0.79125158  1
  Fe  Fe12  1  0.68485206  0.87564249  0.21038562  1
  Fe  Fe13  1  0.81415893  0.12813769  0.29095856  1
  Fe  Fe14  1  0.31457702  0.12903057  0.79165307  1
  Fe  Fe15  1  0.31868306  0.62996378  0.28966281  1
  B  B16  1  0.66585732  0.96192031  0.63355118  1
  B  B17  1  0.83262001  0.03718665  0.86964661  1
  B  B18  1  0.83553919  0.53971179  0.36582434  1
  B  B19  1  0.66550444  0.46239288  0.13291991  1
  B  B20  1  0.33383328  0.53771107  0.86737071  1
  B  B21  1  0.16547279  0.46260709  0.63224694  1
  B  B22  1  0.16284316  0.96173291  0.13289980  1
  B  B23  1  0.33393268  0.03598706  0.36716725  1
  O  O24  1  0.82378581  0.89488007  0.98765471  1
  O  O25  1  0.98542067  0.43857582  0.75482435  1
  O  O26  1  0.98306929  0.93710819  0.25498064  1
  O  O27  1  0.83565775  0.84298249  0.63842963  1
  O  O28  1  0.82243149  0.39629144  0.48271158  1
  O  O29  1  0.48633132  0.93846239  0.75546709  1
  O  O30  1  0.83343399  0.34248501  0.13716963  1
  O  O31  1  0.65839636  0.15293930  0.86512852  1
  O  O32  1  0.66322975  0.65659440  0.36130569  1
  O  O33  1  0.51517114  0.56685446  0.74604218  1
  O  O34  1  0.67885005  0.10233866  0.51291749  1
  O  O35  1  0.67884431  0.60293727  0.01411480  1
  O  O36  1  0.32525403  0.39377988  0.98342096  1
  O  O37  1  0.32394514  0.89359099  0.48423032  1
  O  O38  1  0.48623618  0.43883374  0.25536267  1
  O  O39  1  0.33379250  0.34299224  0.63684092  1
  O  O40  1  0.33402700  0.84433871  0.13716278  1
  O  O41  1  0.15957816  0.65224541  0.86590150  1
  O  O42  1  0.51602330  0.06241106  0.24576169  1
  O  O43  1  0.17903533  0.60313147  0.51336856  1
  O  O44  1  0.16231349  0.15253778  0.36407919  1
  O  O45  1  0.01380722  0.06523861  0.74791573  1
  O  O46  1  0.01782850  0.56639073  0.24591099  1
  O  O47  1  0.17556024  0.10329328  0.01381815  1
