# generated using pymatgen
data_Li6MnFe5(BO3)6
_symmetry_space_group_name_H-M   'P 1'
_cell_length_a   8.24476534
_cell_length_b   8.24601867
_cell_length_c   12.55723063
_cell_angle_alpha   89.95520622
_cell_angle_beta   90.21496457
_cell_angle_gamma   120.01402317
_symmetry_Int_Tables_number   1
_chemical_formula_structural   Li6MnFe5(BO3)6
_chemical_formula_sum   'Li12 Mn2 Fe10 B12 O36'
_cell_volume   739.23466754
_cell_formula_units_Z   2
loop_
 _symmetry_equiv_pos_site_id
 _symmetry_equiv_pos_as_xyz
  1  'x, y, z'
loop_
 _atom_site_type_symbol
 _atom_site_label
 _atom_site_symmetry_multiplicity
 _atom_site_fract_x
 _atom_site_fract_y
 _atom_site_fract_z
 _atom_site_occupancy
  Li  Li0  1  0.28597337  0.98425630  0.12523892  1
  Li  Li1  1  0.28686183  0.98507428  0.87428065  1
  Li  Li2  1  0.28558947  0.98468419  0.62483457  1
  Li  Li3  1  0.28501741  0.98446107  0.37558065  1
  Li  Li4  1  0.01601715  0.30150633  0.12560862  1
  Li  Li5  1  0.01590927  0.30197531  0.37551274  1
  Li  Li6  1  0.01451518  0.30105591  0.62494335  1
  Li  Li7  1  0.01509115  0.30098810  0.87468868  1
  Li  Li8  1  0.69926986  0.71318411  0.37580687  1
  Li  Li9  1  0.69873545  0.71385081  0.62511268  1
  Li  Li10  1  0.69785059  0.71263164  0.12404420  1
  Li  Li11  1  0.69893510  0.71419856  0.87473039  1
  Mn  Mn12  1  0.37323998  0.36106869  0.24975497  1
  Mn  Mn13  1  0.63889284  0.01229628  0.00035125  1
  Fe  Fe14  1  0.36631753  0.35901628  0.99812091  1
  Fe  Fe15  1  0.36880427  0.36136650  0.50059395  1
  Fe  Fe16  1  0.36664298  0.35970148  0.74909257  1
  Fe  Fe17  1  0.63943450  0.00755833  0.50081887  1
  Fe  Fe18  1  0.64054395  0.00648265  0.25207364  1
  Fe  Fe19  1  0.63825860  0.00760256  0.74915897  1
  Fe  Fe20  1  0.99277518  0.63272948  0.50055750  1
  Fe  Fe21  1  0.99318798  0.63387329  0.00008521  1
  Fe  Fe22  1  0.99265768  0.63371214  0.25012951  1
  Fe  Fe23  1  0.99284600  0.63295641  0.75032025  1
  B  B24  1  0.00049135  0.99836020  0.99976213  1
  B  B25  1  0.99777846  -0.00033686  0.25023697  1
  B  B26  1  0.00005290  0.00021375  0.50025100  1
  B  B27  1  0.99981449  -0.00009066  0.74975400  1
  B  B28  1  0.33274635  0.66601887  0.87307438  1
  B  B29  1  0.33227972  0.66657523  0.12496503  1
  B  B30  1  0.33352319  0.66808103  0.37682144  1
  B  B31  1  0.33273355  0.66674724  0.62486101  1
  B  B32  1  0.66791563  0.33362558  0.12503252  1
  B  B33  1  0.66815424  0.33290794  0.37643632  1
  B  B34  1  0.66644428  0.33310882  0.62496206  1
  B  B35  1  0.66736158  0.33476464  0.87348542  1
  O  O36  1  0.10928167  0.91633658  0.24967507  1
  O  O37  1  0.11324554  0.91646394  0.99920264  1
  O  O38  1  0.10908174  0.91463590  0.49974176  1
  O  O39  1  0.10960857  0.91531094  0.74945411  1
  O  O40  1  0.13845699  0.57948299  0.87494643  1
  O  O41  1  0.13776549  0.58001811  0.12510626  1
  O  O42  1  0.13900745  0.58063942  0.37507682  1
  O  O43  1  0.13822563  0.57937855  0.62518016  1
  O  O44  1  0.08416234  0.19289509  0.99981545  1
  O  O45  1  0.08551044  0.19425830  0.50138864  1
  O  O46  1  0.08475999  0.19433479  0.75058176  1
  O  O47  1  0.07983018  0.19289691  0.25055777  1
  O  O48  1  0.44005203  0.86034292  0.87126704  1
  O  O49  1  0.43968913  0.86090595  0.62327722  1
  O  O50  1  0.43986048  0.86022933  0.12757535  1
  O  O51  1  0.44068454  0.86189404  0.37569560  1
  O  O52  1  0.41949127  0.55866012  0.87433037  1
  O  O53  1  0.41853553  0.55878605  0.12216643  1
  O  O54  1  0.41980266  0.55952882  0.62632393  1
  O  O55  1  0.42050174  0.56059445  0.37842122  1
  O  O56  1  0.47359123  0.25283295  0.12273180  1
  O  O57  1  0.47225474  0.25427789  0.62504303  1
  O  O58  1  0.47372734  0.25338362  0.37632525  1
  O  O59  1  0.47326259  0.25474126  0.87339330  1
  O  O60  1  0.80705831  0.88686616  0.00021389  1
  O  O61  1  0.80322539  0.88682328  0.25027245  1
  O  O62  1  0.80569769  0.89077368  0.49960386  1
  O  O63  1  0.80575484  0.89074357  0.74904171  1
  O  O64  1  0.78200919  0.52754002  0.12470794  1
  O  O65  1  0.78217001  0.52714908  0.37528651  1
  O  O66  1  0.78175497  0.52714817  0.62509151  1
  O  O67  1  0.78273504  0.52857479  0.87499336  1
  O  O68  1  0.74696395  0.21813941  0.37664389  1
  O  O69  1  0.74772324  0.21949998  0.12762089  1
  O  O70  1  0.74504730  0.21774096  0.62487346  1
  O  O71  1  0.74680568  0.21996547  0.87329092  1
