# generated using pymatgen
data_Sr2AlCu3O7
_symmetry_space_group_name_H-M   'P 1'
_cell_length_a   5.35995204
_cell_length_b   5.29921969
_cell_length_c   12.11720851
_cell_angle_alpha   102.61498833
_cell_angle_beta   102.70095148
_cell_angle_gamma   90.04891738
_symmetry_Int_Tables_number   1
_chemical_formula_structural   Sr2AlCu3O7
_chemical_formula_sum   'Sr4 Al2 Cu6 O14'
_cell_volume   327.21316568
_cell_formula_units_Z   2
loop_
 _symmetry_equiv_pos_site_id
 _symmetry_equiv_pos_as_xyz
  1  'x, y, z'
loop_
 _atom_site_type_symbol
 _atom_site_label
 _atom_site_symmetry_multiplicity
 _atom_site_fract_x
 _atom_site_fract_y
 _atom_site_fract_z
 _atom_site_occupancy
  Sr  Sr0  1  0.33279992  0.34708427  0.69798637  1
  Sr  Sr1  1  0.63749525  0.65945461  0.30285171  1
  Sr  Sr2  1  0.83202818  0.85590739  0.69759924  1
  Sr  Sr3  1  0.13878729  0.15300965  0.30223330  1
  Al  Al4  1  0.98762326  0.00203323  0.00009396  1
  Al  Al5  1  0.48403841  0.49272105  0.00069831  1
  Cu  Cu6  1  0.25939789  0.69553085  0.50029061  1
  Cu  Cu7  1  0.76041335  0.30728811  0.50023105  1
  Cu  Cu8  1  0.92183317  0.44131153  0.88052942  1
  Cu  Cu9  1  0.04660673  0.56291872  0.11996698  1
  Cu  Cu10  1  0.42252103  0.93712660  0.88087548  1
  Cu  Cu11  1  0.54917558  0.06062878  0.12038460  1
  O  O12  1  0.10493133  0.35547020  0.50008573  1
  O  O13  1  0.60306202  0.63982385  0.50020862  1
  O  O14  1  0.24960667  0.26528303  0.88996874  1
  O  O15  1  0.36335538  0.73352840  0.10766650  1
  O  O16  1  0.74909489  0.12443779  0.89315709  1
  O  O17  1  0.86808127  0.88223310  0.11056692  1
  O  O18  1  0.60425620  0.62179820  0.89275763  1
  O  O19  1  0.71997741  0.38109239  0.11152706  1
  O  O20  1  0.10237707  0.76923846  0.88933442  1
  O  O21  1  0.22137194  0.23556364  0.10773678  1
  O  O22  1  0.31131467  0.83294462  0.66098363  1
  O  O23  1  0.65165710  0.16947517  0.33887969  1
  O  O24  1  0.81052101  0.32906835  0.66117390  1
  O  O25  1  0.15231802  0.67328901  0.33950025  1
