# generated using pymatgen
data_Li8CrO6
_symmetry_space_group_name_H-M   'P 1'
_cell_length_a   5.57254897
_cell_length_b   5.57251604
_cell_length_c   10.86769244
_cell_angle_alpha   89.99991511
_cell_angle_beta   90.00012335
_cell_angle_gamma   120.00033304
_symmetry_Int_Tables_number   1
_chemical_formula_structural   Li8CrO6
_chemical_formula_sum   'Li16 Cr2 O12'
_cell_volume   292.26158449
_cell_formula_units_Z   2
loop_
 _symmetry_equiv_pos_site_id
 _symmetry_equiv_pos_as_xyz
  1  'x, y, z'
loop_
 _atom_site_type_symbol
 _atom_site_label
 _atom_site_symmetry_multiplicity
 _atom_site_fract_x
 _atom_site_fract_y
 _atom_site_fract_z
 _atom_site_occupancy
  Li  Li0  1  0.99998314  0.68546417  0.76707523  1
  Li  Li1  1  0.99999841  0.60971311  0.12865055  1
  Li  Li2  1  0.99998215  0.39027292  0.62864766  1
  Li  Li3  1  -0.00000002  0.31451522  0.26706916  1
  Li  Li4  1  0.33333261  0.66667949  0.40738181  1
  Li  Li5  1  0.33331436  0.66664881  0.90739774  1
  Li  Li6  1  0.31449858  0.31449607  0.76707199  1
  Li  Li7  1  0.39028725  0.39030317  0.12864883  1
  Li  Li8  1  0.60970485  0.60970489  0.62864758  1
  Li  Li9  1  0.31450814  0.00002167  0.26706600  1
  Li  Li10  1  0.68549474  0.68551542  0.26706611  1
  Li  Li11  1  0.39027972  0.99998270  0.62864879  1
  Li  Li12  1  0.66664918  0.33331532  0.90739766  1
  Li  Li13  1  0.66667627  0.33335208  0.40738123  1
  Li  Li14  1  0.60970610  0.00001584  0.12864938  1
  Li  Li15  1  0.68546562  0.99997975  0.76707393  1
  Cr  Cr16  1  0.99998948  0.00002824  0.99458081  1
  Cr  Cr17  1  0.00000524  0.00000646  0.49456825  1
  O  O18  1  0.99998165  0.69040372  0.94985855  1
  O  O19  1  0.00000351  0.30957620  0.44985086  1
  O  O20  1  0.33333293  0.66668468  0.21716039  1
  O  O21  1  0.00000136  0.00002460  0.16523560  1
  O  O22  1  0.99998009  0.99997166  0.66523762  1
  O  O23  1  0.33331437  0.66664766  0.71716242  1
  O  O24  1  0.30957716  0.30957869  0.94985731  1
  O  O25  1  0.30959820  0.00001725  0.44984737  1
  O  O26  1  0.69041677  0.69042582  0.44984688  1
  O  O27  1  0.66664781  0.33331041  0.71716262  1
  O  O28  1  0.66666738  0.33335533  0.21715903  1
  O  O29  1  0.69040293  0.99998767  0.94985866  1
