# generated using pymatgen
data_Li8Mn7Fe(BO3)8
_symmetry_space_group_name_H-M   'P 1'
_cell_length_a   5.25215228
_cell_length_b   9.12466528
_cell_length_c   10.52645171
_cell_angle_alpha   91.74909326
_cell_angle_beta   90.94446387
_cell_angle_gamma   89.85814190
_symmetry_Int_Tables_number   1
_chemical_formula_structural   Li8Mn7Fe(BO3)8
_chemical_formula_sum   'Li8 Mn7 Fe1 B8 O24'
_cell_volume   504.16652325
_cell_formula_units_Z   1
loop_
 _symmetry_equiv_pos_site_id
 _symmetry_equiv_pos_as_xyz
  1  'x, y, z'
loop_
 _atom_site_type_symbol
 _atom_site_label
 _atom_site_symmetry_multiplicity
 _atom_site_fract_x
 _atom_site_fract_y
 _atom_site_fract_z
 _atom_site_occupancy
  Li  Li0  1  0.85348913  0.82551353  0.66794622  1
  Li  Li1  1  0.81269148  0.83864686  0.16827030  1
  Li  Li2  1  0.67964685  0.66871231  0.41730128  1
  Li  Li3  1  0.66474823  0.67335802  0.91692573  1
  Li  Li4  1  0.35339688  0.32577806  0.66812287  1
  Li  Li5  1  0.31161345  0.34013968  0.16805584  1
  Li  Li6  1  0.17978206  0.16943588  0.41788271  1
  Li  Li7  1  0.16402205  0.17431422  0.91760347  1
  Mn  Mn8  1  0.84088233  0.16204974  0.63272463  1
  Mn  Mn9  1  0.66977494  0.33701058  0.38129538  1
  Mn  Mn10  1  0.66893960  0.00214281  0.88290060  1
  Mn  Mn11  1  0.34129127  0.66115539  0.63317348  1
  Mn  Mn12  1  0.32201569  0.00170099  0.13345405  1
  Mn  Mn13  1  0.16845597  0.83549851  0.38371811  1
  Mn  Mn14  1  0.16743302  0.50185699  0.88532775  1
  Fe  Fe15  1  0.81469085  0.50181212  0.13221260  1
  B  B16  1  0.82852305  0.17170637  0.12491626  1
  B  B17  1  0.84294928  0.49862455  0.62582518  1
  B  B18  1  0.66332820  0.00260498  0.37547465  1
  B  B19  1  0.67081143  0.33274842  0.87651511  1
  B  B20  1  0.32536640  0.66830024  0.12717886  1
  B  B21  1  0.34280262  0.99857381  0.62585594  1
  B  B22  1  0.16316823  0.50259795  0.37463500  1
  B  B23  1  0.17203375  0.83263926  0.87609608  1
  O  O24  1  0.90409700  0.51902536  0.34344634  1
  O  O25  1  0.91031380  0.82074940  0.86142577  1
  O  O26  1  0.82525857  0.21132054  0.84554296  1
  O  O27  1  0.80522332  0.12439439  0.41729859  1
  O  O28  1  0.77600470  0.86594531  0.36076801  1
  O  O29  1  0.78140532  0.46436919  0.91930316  1
  O  O30  1  0.73496370  0.63593332  0.61111065  1
  O  O31  1  0.71149473  0.03631855  0.09654720  1
  O  O32  1  0.69704430  0.37344301  0.59562546  1
  O  O33  1  0.68259817  0.29240637  0.16453350  1
  O  O34  1  0.58818460  0.67995422  0.11301683  1
  O  O35  1  0.59560781  0.98368720  0.66688643  1
  O  O36  1  0.40341398  0.01848505  0.34520541  1
  O  O37  1  0.40934202  0.32093796  0.86142087  1
  O  O38  1  0.32595164  0.71076196  0.84605308  1
  O  O39  1  0.30576605  0.62369148  0.41761533  1
  O  O40  1  0.27597470  0.36572264  0.36078466  1
  O  O41  1  0.28272785  0.96470915  0.91789213  1
  O  O42  1  0.20530080  0.53445250  0.09805817  1
  O  O43  1  0.23459799  0.13579184  0.61134538  1
  O  O44  1  0.19730254  0.87311891  0.59589223  1
  O  O45  1  0.18180352  0.78963979  0.16637506  1
  O  O46  1  0.08897798  0.18511550  0.11079984  1
  O  O47  1  0.09539014  0.48370613  0.66724184  1
