# generated using pymatgen
data_SiO2
_symmetry_space_group_name_H-M   'P 1'
_cell_length_a   7.23990834
_cell_length_b   7.23990834
_cell_length_c   7.23990834
_cell_angle_alpha   90.00000000
_cell_angle_beta   90.00000000
_cell_angle_gamma   90.00000000
_symmetry_Int_Tables_number   1
_chemical_formula_structural   SiO2
_chemical_formula_sum   'Si8 O16'
_cell_volume   379.48901039
_cell_formula_units_Z   8
loop_
 _symmetry_equiv_pos_site_id
 _symmetry_equiv_pos_as_xyz
  1  'x, y, z'
loop_
 _atom_site_type_symbol
 _atom_site_label
 _atom_site_symmetry_multiplicity
 _atom_site_fract_x
 _atom_site_fract_y
 _atom_site_fract_z
 _atom_site_occupancy
  O  O0  1  0.86042930  0.34389122  0.55435235  1
  O  O1  1  0.36042930  0.15610878  0.44564765  1
  O  O2  1  0.13957070  0.84389122  0.94564765  1
  O  O3  1  0.15610878  0.44564765  0.36042930  1
  O  O4  1  0.94564765  0.13957070  0.84389122  1
  O  O5  1  0.44564765  0.36042930  0.15610878  1
  O  O6  1  0.34389122  0.55435235  0.86042930  1
  O  O7  1  0.55435235  0.86042930  0.34389122  1
  O  O8  1  0.14694301  0.14694301  0.14694301  1
  O  O9  1  0.35305699  0.85305699  0.64694301  1
  O  O10  1  0.64694301  0.35305699  0.85305699  1
  O  O11  1  0.85305699  0.64694301  0.35305699  1
  O  O12  1  0.63957070  0.65610878  0.05435235  1
  O  O13  1  0.05435235  0.63957070  0.65610878  1
  O  O14  1  0.65610878  0.05435235  0.63957070  1
  O  O15  1  0.84389122  0.94564765  0.13957070  1
  Si  Si16  1  0.98183951  0.51816049  0.48183951  1
  Si  Si17  1  0.51816049  0.48183951  0.98183951  1
  Si  Si18  1  0.48183951  0.98183951  0.51816049  1
  Si  Si19  1  0.01816049  0.01816049  0.01816049  1
  Si  Si20  1  0.72415790  0.77584210  0.22415790  1
  Si  Si21  1  0.77584210  0.22415790  0.72415790  1
  Si  Si22  1  0.22415790  0.72415790  0.77584210  1
  Si  Si23  1  0.27584210  0.27584210  0.27584210  1
