# generated using pymatgen
data_Li8MnFe7(BO3)8
_symmetry_space_group_name_H-M   'P 1'
_cell_length_a   6.02793332
_cell_length_b   5.23191575
_cell_length_c   16.09255648
_cell_angle_alpha   90.46952891
_cell_angle_beta   98.51583409
_cell_angle_gamma   88.92184850
_symmetry_Int_Tables_number   1
_chemical_formula_structural   Li8MnFe7(BO3)8
_chemical_formula_sum   'Li8 Mn1 Fe7 B8 O24'
_cell_volume   501.82944032
_cell_formula_units_Z   1
loop_
 _symmetry_equiv_pos_site_id
 _symmetry_equiv_pos_as_xyz
  1  'x, y, z'
loop_
 _atom_site_type_symbol
 _atom_site_label
 _atom_site_symmetry_multiplicity
 _atom_site_fract_x
 _atom_site_fract_y
 _atom_site_fract_z
 _atom_site_occupancy
  Li  Li0  1  0.06612716  0.84770095  0.61100807  1
  Li  Li1  1  0.43573506  0.15122974  0.88904796  1
  Li  Li2  1  0.18260967  0.65322846  0.13897535  1
  Li  Li3  1  0.31630716  0.34899925  0.36070434  1
  Li  Li4  1  0.68710509  0.65232964  0.64139312  1
  Li  Li5  1  0.81324127  0.34861234  0.85878061  1
  Li  Li6  1  0.56399140  0.84923058  0.10877933  1
  Li  Li7  1  0.93426013  0.14980768  0.39094429  1
  Mn  Mn8  1  0.02707508  0.16839376  0.21007502  1
  Fe  Fe9  1  0.27741782  0.66274422  0.95979213  1
  Fe  Fe10  1  0.22218218  0.33774764  0.54006335  1
  Fe  Fe11  1  0.52275446  0.16402708  0.70732233  1
  Fe  Fe12  1  0.47471650  0.82105053  0.28972918  1
  Fe  Fe13  1  0.77536155  0.67347569  0.46108360  1
  Fe  Fe14  1  0.97683179  0.83702860  0.79262626  1
  Fe  Fe15  1  0.72243584  0.32431707  0.03846688  1
  B  B16  1  0.03879817  0.32894361  0.70310281  1
  B  B17  1  0.28754445  0.83007390  0.45373655  1
  B  B18  1  0.46166102  0.67088748  0.79701355  1
  B  B19  1  0.21252670  0.17276304  0.04556213  1
  B  B20  1  0.78686553  0.82750193  0.95336679  1
  B  B21  1  0.53501164  0.32960307  0.20327511  1
  B  B22  1  0.71281057  0.17350812  0.54649100  1
  B  B23  1  0.96489106  0.66849664  0.29806879  1
  O  O24  1  0.01302624  0.58992645  0.69181733  1
  O  O25  1  0.16894344  0.18339022  0.65443066  1
  O  O26  1  0.17454938  0.70590063  0.51120583  1
  O  O27  1  0.32753853  0.29413616  0.98849106  1
  O  O28  1  0.08070655  0.78633812  0.24052958  1
  O  O29  1  0.33089270  0.81644523  0.84562484  1
  O  O30  1  0.08045289  0.31994496  0.09282739  1
  O  O31  1  0.26207476  0.09013271  0.44286816  1
  O  O32  1  0.48727625  0.41006136  0.80833647  1
  O  O33  1  0.23661455  0.91264168  0.05745224  1
  O  O34  1  0.42018815  0.68710908  0.40540530  1
  O  O35  1  0.42187577  0.20559547  0.25995949  1
  O  O36  1  0.57487293  0.79524149  0.74001989  1
  O  O37  1  0.58113055  0.31591536  0.59542417  1
  O  O38  1  0.76470655  0.08936621  0.94165744  1
  O  O39  1  0.51275262  0.58985079  0.19140698  1
  O  O40  1  0.73668971  0.91235709  0.55771592  1
  O  O41  1  0.91876744  0.68447871  0.90494413  1
  O  O42  1  0.66700922  0.18664004  0.15409730  1
  O  O43  1  0.92560237  0.20473484  0.76040145  1
  O  O44  1  0.67210146  0.70663191  0.00985785  1
  O  O45  1  0.82590781  0.29585820  0.48968754  1
  O  O46  1  0.83031647  0.81664920  0.34477696  1
  O  O47  1  0.98774434  0.40895405  0.31165345  1
