# generated using pymatgen
data_Hf2N2O
_symmetry_space_group_name_H-M   'P 1'
_cell_length_a   8.72776855
_cell_length_b   8.73052231
_cell_length_c   8.71805919
_cell_angle_alpha   109.28114233
_cell_angle_beta   109.41870694
_cell_angle_gamma   109.54469444
_symmetry_Int_Tables_number   1
_chemical_formula_structural   Hf2N2O
_chemical_formula_sum   'Hf16 N16 O8'
_cell_volume   512.43971462
_cell_formula_units_Z   8
loop_
 _symmetry_equiv_pos_site_id
 _symmetry_equiv_pos_as_xyz
  1  'x, y, z'
loop_
 _atom_site_type_symbol
 _atom_site_label
 _atom_site_symmetry_multiplicity
 _atom_site_fract_x
 _atom_site_fract_y
 _atom_site_fract_z
 _atom_site_occupancy
  Hf  Hf0  1  0.49762381  0.98922265  0.98699613  1
  Hf  Hf1  1  0.74940670  0.29201652  0.53522197  1
  Hf  Hf2  1  0.21709415  0.96305392  0.25027669  1
  Hf  Hf3  1  0.72016980  0.47167316  0.24724421  1
  Hf  Hf4  1  0.25191383  0.21403937  0.95586346  1
  Hf  Hf5  1  0.46298506  0.25637629  0.71916995  1
  Hf  Hf6  1  0.96788902  0.25916115  0.21613783  1
  Hf  Hf7  1  0.50216161  0.49959224  0.51047398  1
  Hf  Hf8  1  0.00866371  0.52012174  0.00620318  1
  Hf  Hf9  1  0.53416016  0.74922598  0.28399892  1
  Hf  Hf10  1  0.99786215  0.99700265  0.50688643  1
  Hf  Hf11  1  0.02679268  0.74077100  0.77533372  1
  Hf  Hf12  1  0.74499564  0.78220045  0.03405589  1
  Hf  Hf13  1  0.78012372  0.02428397  0.75166487  1
  Hf  Hf14  1  0.28326615  0.53689956  0.75150758  1
  Hf  Hf15  1  0.25101003  0.70481377  0.46460005  1
  N  N16  1  0.73379185  0.99526136  0.96184838  1
  N  N17  1  0.51287546  0.23986512  0.96939932  1
  N  N18  1  0.77010802  0.54122513  0.52559691  1
  N  N19  1  0.77280463  0.73080936  0.26645026  1
  N  N20  1  0.46562043  0.22387655  0.45575154  1
  N  N21  1  0.48627962  0.76354008  0.03492438  1
  N  N22  1  0.96192545  0.50348946  0.23289180  1
  N  N23  1  0.22725408  0.45093582  0.46307400  1
  N  N24  1  0.54961017  0.53340672  0.77544434  1
  N  N25  1  0.95819376  0.73291224  0.99099888  1
  N  N26  1  0.53794574  0.77286874  0.54424007  1
  N  N27  1  0.98841102  0.95861386  0.73087546  1
  N  N28  1  0.22606121  0.26801984  0.73489802  1
  N  N29  1  0.27270709  0.74285397  0.22932424  1
  N  N30  1  0.26223583  0.77915047  0.72632595  1
  N  N31  1  0.03000042  0.48382951  0.76029059  1
  O  O32  1  0.74278208  0.22178476  0.27814744  1
  O  O33  1  0.76385377  0.03800533  0.48615822  1
  O  O34  1  0.27583694  0.01485345  0.04937894  1
  O  O35  1  0.72727752  0.25237679  0.76928124  1
  O  O36  1  0.05246841  0.27695114  0.01634282  1
  O  O37  1  0.01381465  0.04799833  0.27843350  1
  O  O38  1  0.44436887  0.46540625  0.21983143  1
  O  O39  1  0.22765678  0.96151132  0.50445544  1
