# generated using pymatgen
data_Li2MnFe(BO3)2
_symmetry_space_group_name_H-M   'P 1'
_cell_length_a   6.20926759
_cell_length_b   8.05511358
_cell_length_c   5.17115488
_cell_angle_alpha   88.58951429
_cell_angle_beta   87.60159004
_cell_angle_gamma   78.53711952
_symmetry_Int_Tables_number   1
_chemical_formula_structural   Li2MnFe(BO3)2
_chemical_formula_sum   'Li4 Mn2 Fe2 B4 O12'
_cell_volume   253.22621522
_cell_formula_units_Z   2
loop_
 _symmetry_equiv_pos_site_id
 _symmetry_equiv_pos_as_xyz
  1  'x, y, z'
loop_
 _atom_site_type_symbol
 _atom_site_label
 _atom_site_symmetry_multiplicity
 _atom_site_fract_x
 _atom_site_fract_y
 _atom_site_fract_z
 _atom_site_occupancy
  Li  Li0  1  0.52391162  0.14867390  0.91521739  1
  Li  Li1  1  0.02405613  0.65237026  0.41668423  1
  Li  Li2  1  0.97594387  0.34762974  0.58331577  1
  Li  Li3  1  0.47608838  0.85132610  0.08478261  1
  Mn  Mn4  1  0.25658492  0.50565575  0.90329358  1
  Mn  Mn5  1  0.74341508  0.49434425  0.09670642  1
  Fe  Fe6  1  0.75770951  0.01207151  0.41160796  1
  Fe  Fe7  1  0.24229049  0.98792849  0.58839204  1
  B  B8  1  0.09396170  0.16662570  0.09451932  1
  B  B9  1  0.40973446  0.32995669  0.40061538  1
  B  B10  1  0.59026554  0.67004331  0.59938462  1
  B  B11  1  0.90603830  0.83337430  0.90548068  1
  O  O12  1  0.25208215  0.04222478  0.98072371  1
  O  O13  1  0.00656336  0.31363746  0.95688472  1
  O  O14  1  0.02758913  0.14992364  0.35662886  1
  O  O15  1  0.50087192  0.18556572  0.54283531  1
  O  O16  1  0.24650894  0.45367548  0.50874067  1
  O  O17  1  0.48080332  0.34540388  0.14226303  1
  O  O18  1  0.51919668  0.65459612  0.85773697  1
  O  O19  1  0.75349106  0.54632452  0.49125933  1
  O  O20  1  0.49912808  0.81443428  0.45716469  1
  O  O21  1  0.97241087  0.85007636  0.64337114  1
  O  O22  1  0.99343664  0.68636254  0.04311528  1
  O  O23  1  0.74791785  0.95777522  0.01927629  1
