# generated using pymatgen
data_Cr3(CoO6)2
_symmetry_space_group_name_H-M   'P 1'
_cell_length_a   8.75445188
_cell_length_b   12.44206363
_cell_length_c   9.01564915
_cell_angle_alpha   90.00000000
_cell_angle_beta   90.00000000
_cell_angle_gamma   90.65274194
_symmetry_Int_Tables_number   1
_chemical_formula_structural   Cr3(CoO6)2
_chemical_formula_sum   'Cr12 Co8 O48'
_cell_volume   981.95185862
_cell_formula_units_Z   4
loop_
 _symmetry_equiv_pos_site_id
 _symmetry_equiv_pos_as_xyz
  1  'x, y, z'
loop_
 _atom_site_type_symbol
 _atom_site_label
 _atom_site_symmetry_multiplicity
 _atom_site_fract_x
 _atom_site_fract_y
 _atom_site_fract_z
 _atom_site_occupancy
  Cr  Cr0  1  0.04040104  0.49151570  0.24660229  1
  Cr  Cr1  1  0.11013298  0.85236174  0.37678245  1
  Cr  Cr2  1  0.11509010  0.14160193  0.11556487  1
  Cr  Cr3  1  0.38986702  0.64763826  0.87678245  1
  Cr  Cr4  1  0.38490990  0.35839807  0.61556487  1
  Cr  Cr5  1  0.45959896  0.00848430  0.74660229  1
  Cr  Cr6  1  0.54040104  0.99151570  0.25339771  1
  Cr  Cr7  1  0.61509010  0.64160193  0.38443513  1
  Cr  Cr8  1  0.61013298  0.35236174  0.12321755  1
  Cr  Cr9  1  0.88490990  0.85839807  0.88443513  1
  Cr  Cr10  1  0.88986702  0.14763826  0.62321755  1
  Cr  Cr11  1  0.95959896  0.50848430  0.75339771  1
  Co  Co12  1  0.24924009  0.88525294  0.02539745  1
  Co  Co13  1  0.25075991  0.61474706  0.52539745  1
  Co  Co14  1  0.25511416  0.37975524  0.96871239  1
  Co  Co15  1  0.24488584  0.12024476  0.46871239  1
  Co  Co16  1  0.75511416  0.87975524  0.53128761  1
  Co  Co17  1  0.74488584  0.62024476  0.03128761  1
  Co  Co18  1  0.74924009  0.38525294  0.47460255  1
  Co  Co19  1  0.75075991  0.11474706  0.97460255  1
  O  O20  1  0.06712925  0.44273443  0.87206417  1
  O  O21  1  0.06534844  0.90059563  0.88657264  1
  O  O22  1  0.05977091  0.60426526  0.66989751  1
  O  O23  1  0.06652318  0.18452547  0.57831007  1
  O  O24  1  0.11082322  0.58126466  0.37017996  1
  O  O25  1  0.13273315  0.84315353  0.18801846  1
  O  O26  1  0.13879147  0.97858540  0.42518518  1
  O  O27  1  0.13233608  0.24575693  0.00284721  1
  O  O28  1  0.16928585  0.17728397  0.29008545  1
  O  O29  1  0.18764073  0.43561791  0.15519744  1
  O  O30  1  0.23268574  0.77353430  0.46319726  1
  O  O31  1  0.26731426  0.72646570  0.96319726  1
  O  O32  1  0.23046492  0.04421322  0.06157876  1
  O  O33  1  0.26953508  0.45578678  0.56157876  1
  O  O34  1  0.31235927  0.06438209  0.65519744  1
  O  O35  1  0.33071415  0.32271603  0.79008545  1
  O  O36  1  0.36120853  0.52141460  0.92518518  1
  O  O37  1  0.36766392  0.25424307  0.50284721  1
  O  O38  1  0.36726685  0.65684647  0.68801846  1
  O  O39  1  0.38917678  0.91873534  0.87017996  1
  O  O40  1  0.44022909  0.89573474  0.16989751  1
  O  O41  1  0.43465156  0.59940437  0.38657264  1
  O  O42  1  0.43347682  0.31547453  0.07831007  1
  O  O43  1  0.43287175  0.05726557  0.37206417  1
  O  O44  1  0.56712925  0.94273443  0.62793583  1
  O  O45  1  0.56652318  0.68452547  0.92168993  1
  O  O46  1  0.56534844  0.40059563  0.61342736  1
  O  O47  1  0.55977091  0.10426526  0.83010249  1
  O  O48  1  0.61082322  0.08126466  0.12982004  1
  O  O49  1  0.63273315  0.34315353  0.31198154  1
  O  O50  1  0.63233608  0.74575693  0.49715279  1
  O  O51  1  0.63879147  0.47858540  0.07481482  1
  O  O52  1  0.66928585  0.67728397  0.20991455  1
  O  O53  1  0.68764073  0.93561791  0.34480256  1
  O  O54  1  0.73046492  0.54421322  0.43842124  1
  O  O55  1  0.76953508  0.95578678  0.93842124  1
  O  O56  1  0.73268574  0.27353430  0.03680274  1
  O  O57  1  0.76731426  0.22646570  0.53680274  1
  O  O58  1  0.81235927  0.56438209  0.84480256  1
  O  O59  1  0.83071415  0.82271603  0.70991455  1
  O  O60  1  0.86766392  0.75424307  0.99715279  1
  O  O61  1  0.86120853  0.02141460  0.57481482  1
  O  O62  1  0.86726685  0.15684647  0.81198154  1
  O  O63  1  0.88917678  0.41873534  0.62982004  1
  O  O64  1  0.93347682  0.81547453  0.42168993  1
  O  O65  1  0.94022909  0.39573474  0.33010249  1
  O  O66  1  0.93465156  0.09940437  0.11342736  1
  O  O67  1  0.93287075  0.55726557  0.12793583  1
