# generated using pymatgen
data_LiAgF4
_symmetry_space_group_name_H-M   'P 1'
_cell_length_a   3.57640800
_cell_length_b   4.72771901
_cell_length_c   4.72657548
_cell_angle_alpha   86.40799694
_cell_angle_beta   83.57111928
_cell_angle_gamma   83.62053155
_symmetry_Int_Tables_number   1
_chemical_formula_structural   LiAgF4
_chemical_formula_sum   'Li1 Ag1 F4'
_cell_volume   78.82174238
_cell_formula_units_Z   1
loop_
 _symmetry_equiv_pos_site_id
 _symmetry_equiv_pos_as_xyz
  1  'x, y, z'
loop_
 _atom_site_type_symbol
 _atom_site_label
 _atom_site_symmetry_multiplicity
 _atom_site_fract_x
 _atom_site_fract_y
 _atom_site_fract_z
 _atom_site_occupancy
  Li  Li0  1  0.00000000  0.00000000  0.00000000  1
  Ag  Ag1  1  0.50000000  0.50000000  0.50000000  1
  F  F2  1  0.05869187  0.70739560  0.70971827  1
  F  F3  1  0.49927019  0.80518046  0.19689553  1
  F  F4  1  0.50072981  0.19481954  0.80310447  1
  F  F5  1  0.94130813  0.29260440  0.29028173  1
