# generated using pymatgen
data_LiCuS
_symmetry_space_group_name_H-M   'P 1'
_cell_length_a   6.06569587
_cell_length_b   6.98722757
_cell_length_c   6.06282396
_cell_angle_alpha   64.47347589
_cell_angle_beta   89.63472712
_cell_angle_gamma   115.70565998
_symmetry_Int_Tables_number   1
_chemical_formula_structural   LiCuS
_chemical_formula_sum   'Li4 Cu4 S4'
_cell_volume   202.93732575
_cell_formula_units_Z   4
loop_
 _symmetry_equiv_pos_site_id
 _symmetry_equiv_pos_as_xyz
  1  'x, y, z'
loop_
 _atom_site_type_symbol
 _atom_site_label
 _atom_site_symmetry_multiplicity
 _atom_site_fract_x
 _atom_site_fract_y
 _atom_site_fract_z
 _atom_site_occupancy
  Li  Li0  1  0.51287636  0.02671455  0.23790094  1
  Li  Li1  1  0.76081084  0.52515549  0.48833934  1
  Li  Li2  1  0.23292338  0.46709459  0.51310871  1
  Li  Li3  1  0.48325081  0.96753307  0.76869198  1
  Cu  Cu4  1  0.49886985  0.50173428  0.00274319  1
  Cu  Cu5  1  0.99804005  0.99618648  0.99800534  1
  Cu  Cu6  1  0.00435724  0.49520450  0.00331159  1
  Cu  Cu7  1  0.99672466  0.99834878  0.49509692  1
  S  S8  1  0.85083842  0.24685716  0.85315467  1
  S  S9  1  0.39598534  0.24628989  0.39975217  1
  S  S10  1  0.14570016  0.74653782  0.15097931  1
  S  S11  1  0.59755090  0.74676639  0.60317283  1
