# generated using pymatgen
data_Li4MnFe3(BO3)4
_symmetry_space_group_name_H-M   'P 1'
_cell_length_a   5.99803648
_cell_length_b   5.22415118
_cell_length_c   8.21985951
_cell_angle_alpha   90.52374041
_cell_angle_beta   76.95074571
_cell_angle_gamma   88.88675355
_symmetry_Int_Tables_number   1
_chemical_formula_structural   Li4MnFe3(BO3)4
_chemical_formula_sum   'Li4 Mn1 Fe3 B4 O12'
_cell_volume   250.84354589
_cell_formula_units_Z   1
loop_
 _symmetry_equiv_pos_site_id
 _symmetry_equiv_pos_as_xyz
  1  'x, y, z'
loop_
 _atom_site_type_symbol
 _atom_site_label
 _atom_site_symmetry_multiplicity
 _atom_site_fract_x
 _atom_site_fract_y
 _atom_site_fract_z
 _atom_site_occupancy
  Li  Li0  1  0.04271883  0.65376562  0.27724461  1
  Li  Li1  1  0.45322489  0.84436981  0.21913751  1
  Li  Li2  1  0.54574391  0.15332744  0.78181508  1
  Li  Li3  1  0.95761584  0.34658136  0.72367119  1
  Mn  Mn4  1  0.81545652  0.16946853  0.41884755  1
  Fe  Fe5  1  0.18195835  0.83632138  0.58090681  1
  Fe  Fe6  1  0.31933709  0.66489359  0.91384522  1
  Fe  Fe7  1  0.67971560  0.33335649  0.08358103  1
  B  B8  1  0.16473218  0.17043997  0.09255117  1
  B  B9  1  0.33332598  0.32949202  0.40607803  1
  B  B10  1  0.66665677  0.67008473  0.59610767  1
  B  B11  1  0.83632264  0.82806959  0.90573331  1
  O  O12  1  0.17836731  0.91119845  0.11627175  1
  O  O13  1  0.01718912  0.68222268  0.80843154  1
  O  O14  1  0.16634988  0.20646903  0.52294982  1
  O  O15  1  0.31930380  0.58974880  0.38455317  1
  O  O16  1  0.51206652  0.18289538  0.30620458  1
  O  O17  1  0.66537703  0.70584811  0.01830824  1
  O  O18  1  0.33705786  0.29588881  0.98019667  1
  O  O19  1  0.48590333  0.81916708  0.69152949  1
  O  O20  1  0.67706238  0.40995319  0.62191617  1
  O  O21  1  0.83775571  0.78786657  0.48016581  1
  O  O22  1  0.98346347  0.31870593  0.18760010  1
  O  O23  1  0.82329401  0.08986543  0.88235245  1
