# generated using pymatgen
data_NaLiFe2(SiO3)4
_symmetry_space_group_name_H-M   'P 1'
_cell_length_a   6.60321287
_cell_length_b   6.60321287
_cell_length_c   5.36352776
_cell_angle_alpha   76.10489466
_cell_angle_beta   103.89510534
_cell_angle_gamma   96.24832539
_symmetry_Int_Tables_number   1
_chemical_formula_structural   NaLiFe2(SiO3)4
_chemical_formula_sum   'Na1 Li1 Fe2 Si4 O12'
_cell_volume   220.05087670
_cell_formula_units_Z   1
loop_
 _symmetry_equiv_pos_site_id
 _symmetry_equiv_pos_as_xyz
  1  'x, y, z'
loop_
 _atom_site_type_symbol
 _atom_site_label
 _atom_site_symmetry_multiplicity
 _atom_site_fract_x
 _atom_site_fract_y
 _atom_site_fract_z
 _atom_site_occupancy
  Na  Na0  1  0.70502679  0.70502679  0.75000000  1
  Li  Li1  1  0.26288531  0.26288531  0.25000000  1
  Fe  Fe2  1  0.10305081  0.10305081  0.75000000  1
  Fe  Fe3  1  0.89943151  0.89943151  0.25000000  1
  Si  Si4  1  0.20374188  0.61866338  0.75000413  1
  Si  Si5  1  0.38229982  0.79883657  0.24766853  1
  Si  Si6  1  0.61866338  0.20374188  0.74999587  1
  Si  Si7  1  0.79883657  0.38229982  0.25233147  1
  O  O8  1  0.03501349  0.80379078  0.64288039  1
  O  O9  1  0.20196583  0.97330962  0.14427293  1
  O  O10  1  0.11093875  0.37973202  0.82323250  1
  O  O11  1  0.34787015  0.64490254  0.52989780  1
  O  O12  1  0.61978928  0.89660185  0.30739458  1
  O  O13  1  0.35800053  0.65414809  0.03039897  1
  O  O14  1  0.64490254  0.34787015  0.97010220  1
  O  O15  1  0.37973202  0.11093875  0.67676750  1
  O  O16  1  0.65414809  0.35800053  0.46960103  1
  O  O17  1  0.89660185  0.61978928  0.19260542  1
  O  O18  1  0.80379078  0.03501349  0.85711961  1
  O  O19  1  0.97330962  0.20196583  0.35572707  1
