# generated using pymatgen
data_SrP2WO8
_symmetry_space_group_name_H-M   'P 1'
_cell_length_a   5.75618820
_cell_length_b   7.14811787
_cell_length_c   9.33491170
_cell_angle_alpha   110.90244965
_cell_angle_beta   100.40802074
_cell_angle_gamma   98.35007958
_symmetry_Int_Tables_number   1
_chemical_formula_structural   SrP2WO8
_chemical_formula_sum   'Sr2 P4 W2 O16'
_cell_volume   343.60013519
_cell_formula_units_Z   2
loop_
 _symmetry_equiv_pos_site_id
 _symmetry_equiv_pos_as_xyz
  1  'x, y, z'
loop_
 _atom_site_type_symbol
 _atom_site_label
 _atom_site_symmetry_multiplicity
 _atom_site_fract_x
 _atom_site_fract_y
 _atom_site_fract_z
 _atom_site_occupancy
  Sr  Sr0  1  0.24667618  0.75163308  0.02121467  1
  Sr  Sr1  1  0.75332382  0.24836692  0.97878533  1
  P  P2  1  0.38749659  0.44655119  0.23182806  1
  P  P3  1  0.61250341  0.55344881  0.76817194  1
  P  P4  1  0.84465057  0.03802254  0.30374871  1
  P  P5  1  0.15534943  0.96197746  0.69625129  1
  W  W6  1  0.66433013  0.84436835  0.56382589  1
  W  W7  1  0.33566987  0.15563165  0.43617411  1
  O  O8  1  0.83555900  0.55432963  0.88465795  1
  O  O9  1  0.61977111  0.48610000  0.18287551  1
  O  O10  1  0.64471516  0.76696371  0.74768204  1
  O  O11  1  0.95541582  0.09591227  0.70577640  1
  O  O12  1  0.38022889  0.51390000  0.81712449  1
  O  O13  1  0.99341316  0.74933866  0.57571428  1
  O  O14  1  0.00658684  0.25066134  0.42428572  1
  O  O15  1  0.28561288  0.98428878  0.85878618  1
  O  O16  1  0.35528484  0.23303629  0.25231796  1
  O  O17  1  0.71438712  0.01571122  0.14121382  1
  O  O18  1  0.16444100  0.44567037  0.11534205  1
  O  O19  1  0.40272319  0.61411960  0.40127139  1
  O  O20  1  0.59727681  0.38588040  0.59872861  1
  O  O21  1  0.64096643  0.97612128  0.38795856  1
  O  O22  1  0.04458418  0.90408773  0.29422360  1
  O  O23  1  0.35903357  0.02387872  0.61204144  1
