# generated using pymatgen
data_Li8Mn3Fe5(BO3)8
_symmetry_space_group_name_H-M   'P 1'
_cell_length_a   6.06645439
_cell_length_b   5.23737881
_cell_length_c   16.14968777
_cell_angle_alpha   90.84268545
_cell_angle_beta   98.23758986
_cell_angle_gamma   88.69890280
_symmetry_Int_Tables_number   1
_chemical_formula_structural   Li8Mn3Fe5(BO3)8
_chemical_formula_sum   'Li8 Mn3 Fe5 B8 O24'
_cell_volume   507.65402238
_cell_formula_units_Z   1
loop_
 _symmetry_equiv_pos_site_id
 _symmetry_equiv_pos_as_xyz
  1  'x, y, z'
loop_
 _atom_site_type_symbol
 _atom_site_label
 _atom_site_symmetry_multiplicity
 _atom_site_fract_x
 _atom_site_fract_y
 _atom_site_fract_z
 _atom_site_occupancy
  Li  Li0  1  0.06421908  0.84681350  0.61053064  1
  Li  Li1  1  0.43536666  0.15204719  0.88879482  1
  Li  Li2  1  0.18814956  0.65259863  0.14005830  1
  Li  Li3  1  0.31288516  0.34831700  0.36075171  1
  Li  Li4  1  0.68829296  0.65253086  0.64276623  1
  Li  Li5  1  0.81167334  0.34749163  0.85713313  1
  Li  Li6  1  0.56254746  0.84666421  0.10916677  1
  Li  Li7  1  0.93646916  0.15168179  0.39190222  1
  Mn  Mn8  1  0.02278237  0.16706803  0.21029829  1
  Mn  Mn9  1  0.77211370  0.66777386  0.45884040  1
  Mn  Mn10  1  0.72506902  0.33296643  0.03933355  1
  Fe  Fe11  1  0.27003577  0.66295780  0.95777305  1
  Fe  Fe12  1  0.22880286  0.33706808  0.54179199  1
  Fe  Fe13  1  0.52191083  0.16265376  0.70662020  1
  Fe  Fe14  1  0.47548718  0.83863670  0.29000542  1
  Fe  Fe15  1  0.97726709  0.83736138  0.79299389  1
  B  B16  1  0.03937938  0.32875630  0.70297724  1
  B  B17  1  0.28769428  0.82830340  0.45272759  1
  B  B18  1  0.46125077  0.67070745  0.79698247  1
  B  B19  1  0.21299973  0.17194187  0.04636673  1
  B  B20  1  0.78574691  0.83030880  0.95152853  1
  B  B21  1  0.53740444  0.32907242  0.20340418  1
  B  B22  1  0.71418270  0.16963547  0.54845034  1
  B  B23  1  0.96368685  0.67043029  0.29739940  1
  O  O24  1  0.01350001  0.58889280  0.69254613  1
  O  O25  1  0.16980285  0.18306037  0.65404943  1
  O  O26  1  0.17642204  0.70327802  0.51002133  1
  O  O27  1  0.32628714  0.29630131  0.98936074  1
  O  O28  1  0.08137474  0.78567981  0.24055566  1
  O  O29  1  0.32955199  0.81546283  0.84577496  1
  O  O30  1  0.08196753  0.31816160  0.09445647  1
  O  O31  1  0.26272896  0.08899403  0.44272852  1
  O  O32  1  0.48685799  0.41002736  0.80729542  1
  O  O33  1  0.23807582  0.91193395  0.05731758  1
  O  O34  1  0.41753579  0.68399608  0.40336436  1
  O  O35  1  0.42374177  0.20721958  0.26098780  1
  O  O36  1  0.57489855  0.79675308  0.74102087  1
  O  O37  1  0.58141575  0.31811970  0.59603257  1
  O  O38  1  0.76336875  0.09024215  0.93815272  1
  O  O39  1  0.51324182  0.58902641  0.19186215  1
  O  O40  1  0.73670298  0.90930210  0.56110640  1
  O  O41  1  0.91796255  0.68058569  0.90425681  1
  O  O42  1  0.66749957  0.18133843  0.15556781  1
  O  O43  1  0.92696118  0.20325525  0.75964847  1
  O  O44  1  0.67174719  0.71447625  0.00914357  1
  O  O45  1  0.82785469  0.28760281  0.49133051  1
  O  O46  1  0.82886153  0.82144528  0.34314819  1
  O  O47  1  0.98622353  0.41105727  0.31167743  1
