# generated using pymatgen
data_Li3MnFe2(BO3)3
_symmetry_space_group_name_H-M   'P 1'
_cell_length_a   8.25501867
_cell_length_b   14.31610295
_cell_length_c   3.15151286
_cell_angle_alpha   90.00000000
_cell_angle_beta   90.00000000
_cell_angle_gamma   90.08907622
_symmetry_Int_Tables_number   1
_chemical_formula_structural   Li3MnFe2(BO3)3
_chemical_formula_sum   'Li6 Mn2 Fe4 B6 O18'
_cell_volume   372.44438522
_cell_formula_units_Z   2
loop_
 _symmetry_equiv_pos_site_id
 _symmetry_equiv_pos_as_xyz
  1  'x, y, z'
loop_
 _atom_site_type_symbol
 _atom_site_label
 _atom_site_symmetry_multiplicity
 _atom_site_fract_x
 _atom_site_fract_y
 _atom_site_fract_z
 _atom_site_occupancy
  Li  Li0  1  0.29359582  0.99055477  0.50000000  1
  Li  Li1  1  0.34028473  0.35837220  0.50000000  1
  Li  Li2  1  0.36590509  0.65053785  0.50000000  1
  Li  Li3  1  0.79297750  0.49205758  0.50000000  1
  Li  Li4  1  0.84186517  0.85640597  0.50000000  1
  Li  Li5  1  0.86680748  0.15123000  0.50000000  1
  Mn  Mn6  1  0.19157529  0.18000895  0.00000000  1
  Mn  Mn7  1  0.63463961  0.00539066  0.00000000  1
  Fe  Fe8  1  0.13569333  0.50453907  0.00000000  1
  Fe  Fe9  1  0.17503321  0.81671673  0.00000000  1
  Fe  Fe10  1  0.67556400  0.31704243  0.00000000  1
  Fe  Fe11  1  0.68860109  0.67984386  0.00000000  1
  B  B12  1  0.00013117  0.66630845  0.50000000  1
  B  B13  1  0.99980465  0.99890782  0.00000000  1
  B  B14  1  0.99888109  0.33451203  0.50000000  1
  B  B15  1  0.50188654  0.16772944  0.50000000  1
  B  B16  1  0.49977080  0.50025950  0.00000000  1
  B  B17  1  0.49900819  0.83196978  0.50000000  1
  O  O18  1  0.01080473  0.43138084  0.50000000  1
  O  O19  1  0.01863164  0.76325113  0.50000000  1
  O  O20  1  0.13632981  0.60869137  0.50000000  1
  O  O21  1  0.13851063  0.28040442  0.50000000  1
  O  O22  1  0.15353690  0.95864161  0.00000000  1
  O  O23  1  0.34887570  0.12587572  0.50000000  1
  O  O24  1  0.34722584  0.78946056  0.50000000  1
  O  O25  1  0.35997063  0.44560972  0.00000000  1
  O  O26  1  0.48793252  0.59722502  0.00000000  1
  O  O27  1  0.51043863  0.92882830  0.50000000  1
  O  O28  1  0.51700945  0.26456828  0.50000000  1
  O  O29  1  0.63924379  0.11158230  0.50000000  1
  O  O30  1  0.63909833  0.77792173  0.50000000  1
  O  O31  1  0.65149013  0.45787350  0.00000000  1
  O  O32  1  0.84520473  0.62709660  0.50000000  1
  O  O33  1  0.84724876  0.29148283  0.50000000  1
  O  O34  1  0.86325527  0.94185476  0.00000000  1
  O  O35  1  0.98316775  0.09586325  0.00000000  1
