# generated using pymatgen
data_Mn11ZnO16
_symmetry_space_group_name_H-M   'P 1'
_cell_length_a   6.32545270
_cell_length_b   6.32545270
_cell_length_c   8.33730334
_cell_angle_alpha   90.00000000
_cell_angle_beta   90.00000000
_cell_angle_gamma   82.47784116
_symmetry_Int_Tables_number   1
_chemical_formula_structural   Mn11ZnO16
_chemical_formula_sum   'Mn11 Zn1 O16'
_cell_volume   330.71603194
_cell_formula_units_Z   1
loop_
 _symmetry_equiv_pos_site_id
 _symmetry_equiv_pos_as_xyz
  1  'x, y, z'
loop_
 _atom_site_type_symbol
 _atom_site_label
 _atom_site_symmetry_multiplicity
 _atom_site_fract_x
 _atom_site_fract_y
 _atom_site_fract_z
 _atom_site_occupancy
  Mn  Mn0  1  0.50040487  0.99808254  0.00196683  1
  Mn  Mn1  1  0.49959513  0.50191746  0.00196683  1
  Mn  Mn2  1  0.74890057  0.25193316  0.25158724  1
  Mn  Mn3  1  0.25109943  0.24806684  0.25158724  1
  Mn  Mn4  1  0.00193316  0.99890057  0.49841276  1
  Mn  Mn5  1  0.00000000  0.75000000  0.12554325  1
  Mn  Mn6  1  0.50000000  0.25000000  0.62445675  1
  Mn  Mn7  1  0.99806684  0.50109943  0.49841276  1
  Mn  Mn8  1  0.74808254  0.75040487  0.74803317  1
  Mn  Mn9  1  0.25191746  0.74959513  0.74803317  1
  Mn  Mn10  1  0.00000000  0.25000000  0.87500000  1
  Zn  Zn11  1  0.50000000  0.75000000  0.37500000  1
  O  O12  1  0.72692880  0.25673975  0.01545609  1
  O  O13  1  0.99358644  0.02324310  0.26313725  1
  O  O14  1  0.27307120  0.24326025  0.01545609  1
  O  O15  1  0.49423366  0.01630947  0.23973034  1
  O  O16  1  0.50576634  0.48369053  0.23973034  1
  O  O17  1  0.77324310  0.24358644  0.48686275  1
  O  O18  1  0.00641356  0.47675690  0.26313725  1
  O  O19  1  0.76630947  0.74423366  0.51026966  1
  O  O20  1  0.22675690  0.25641356  0.48686275  1
  O  O21  1  0.99326025  0.52307120  0.73454391  1
  O  O22  1  0.23369053  0.75576634  0.51026966  1
  O  O23  1  0.49459968  0.52136814  0.76482117  1
  O  O24  1  0.72863186  0.75540032  0.98517883  1
  O  O25  1  0.50540032  0.97863186  0.76482117  1
  O  O26  1  0.00673975  0.97692880  0.73454391  1
  O  O27  1  0.27136814  0.74459968  0.98517883  1
