# generated using pymatgen
data_TmTaOs2
_symmetry_space_group_name_H-M   'P 1'
_cell_length_a   4.61506169
_cell_length_b   4.61506226
_cell_length_c   4.61506775
_cell_angle_alpha   60.00015185
_cell_angle_beta   60.00018185
_cell_angle_gamma   60.00011596
_symmetry_Int_Tables_number   1
_chemical_formula_structural   TmTaOs2
_chemical_formula_sum   'Tm1 Ta1 Os2'
_cell_volume   69.50557400
_cell_formula_units_Z   1
loop_
 _symmetry_equiv_pos_site_id
 _symmetry_equiv_pos_as_xyz
  1  'x, y, z'
loop_
 _atom_site_type_symbol
 _atom_site_label
 _atom_site_symmetry_multiplicity
 _atom_site_fract_x
 _atom_site_fract_y
 _atom_site_fract_z
 _atom_site_occupancy
  Tm  Tm0  1  0.75000014  0.74999992  0.74999992  1
  Ta  Ta1  1  0.24999976  0.24999959  0.24999990  1
  Os  Os2  1  0.00000016  -0.00000010  0.00000034  1
  Os  Os3  1  0.49999994  0.50000059  0.49999984  1
