# generated using pymatgen
data_MgH4(NO4)2
_symmetry_space_group_name_H-M   'P 1'
_cell_length_a   5.91022511
_cell_length_b   6.31775164
_cell_length_c   8.70566355
_cell_angle_alpha   90.00000000
_cell_angle_beta   91.30943530
_cell_angle_gamma   90.00000000
_symmetry_Int_Tables_number   1
_chemical_formula_structural   MgH4(NO4)2
_chemical_formula_sum   'Mg2 H8 N4 O16'
_cell_volume   324.97879507
_cell_formula_units_Z   2
loop_
 _symmetry_equiv_pos_site_id
 _symmetry_equiv_pos_as_xyz
  1  'x, y, z'
loop_
 _atom_site_type_symbol
 _atom_site_label
 _atom_site_symmetry_multiplicity
 _atom_site_fract_x
 _atom_site_fract_y
 _atom_site_fract_z
 _atom_site_occupancy
  Mg  Mg0  1  0.00000000  0.50000000  0.00000000  1
  Mg  Mg1  1  0.00000000  0.00000000  0.50000000  1
  H  H2  1  0.39824829  0.70274541  0.98011559  1
  H  H3  1  0.60175171  0.20274541  0.51988441  1
  H  H4  1  0.60175171  0.29725459  0.01988441  1
  H  H5  1  0.39824829  0.79725459  0.48011559  1
  H  H6  1  0.25796174  0.80373312  0.11068171  1
  H  H7  1  0.74203826  0.30373312  0.38931829  1
  H  H8  1  0.74203826  0.19626688  0.88931829  1
  H  H9  1  0.25796174  0.69626688  0.61068171  1
  N  N10  1  0.24123356  0.16888702  0.79661551  1
  N  N11  1  0.75876644  0.66888702  0.70338449  1
  N  N12  1  0.75876644  0.83111298  0.20338449  1
  N  N13  1  0.24123356  0.33111298  0.29661551  1
  O  O14  1  0.05538652  0.13261202  0.72429280  1
  O  O15  1  0.94461348  0.63261202  0.77570720  1
  O  O16  1  0.94461348  0.86738798  0.27570720  1
  O  O17  1  0.05538652  0.36738798  0.22429280  1
  O  O18  1  0.42414575  0.09427232  0.75359278  1
  O  O19  1  0.57585425  0.59427232  0.74640722  1
  O  O20  1  0.57585425  0.90572768  0.24640722  1
  O  O21  1  0.42414575  0.40572768  0.25359278  1
  O  O22  1  0.23741978  0.28457214  0.91720630  1
  O  O23  1  0.76258022  0.78457214  0.58279370  1
  O  O24  1  0.76258022  0.71542786  0.08279370  1
  O  O25  1  0.23741978  0.21542786  0.41720630  1
  O  O26  1  0.24369806  0.73068733  0.01161226  1
  O  O27  1  0.75630194  0.23068733  0.48838774  1
  O  O28  1  0.75630194  0.26931267  0.98838774  1
  O  O29  1  0.24369806  0.76931267  0.51161226  1
