# generated using pymatgen
data_Tl2CoP4(HO2)8
_symmetry_space_group_name_H-M   'P 1'
_cell_length_a   7.02656048
_cell_length_b   7.35070558
_cell_length_c   7.76334191
_cell_angle_alpha   81.61832789
_cell_angle_beta   69.20696593
_cell_angle_gamma   87.08628568
_symmetry_Int_Tables_number   1
_chemical_formula_structural   Tl2CoP4(HO2)8
_chemical_formula_sum   'Tl2 Co1 P4 H8 O16'
_cell_volume   370.85774996
_cell_formula_units_Z   1
loop_
 _symmetry_equiv_pos_site_id
 _symmetry_equiv_pos_as_xyz
  1  'x, y, z'
loop_
 _atom_site_type_symbol
 _atom_site_label
 _atom_site_symmetry_multiplicity
 _atom_site_fract_x
 _atom_site_fract_y
 _atom_site_fract_z
 _atom_site_occupancy
  Tl  Tl0  1  0.07835870  0.70991422  0.80117932  1
  Tl  Tl1  1  0.92164161  0.29008499  0.19882100  1
  Co  Co2  1  0.50000004  0.49999981  0.00000015  1
  P  P3  1  0.36260740  0.26479466  0.72044232  1
  P  P4  1  0.63739333  0.73520506  0.27955749  1
  P  P5  1  0.77559876  0.20748770  0.73210186  1
  P  P6  1  0.22440178  0.79251215  0.26789775  1
  H  H7  1  0.25355958  0.03012891  0.94323642  1
  H  H8  1  0.74644101  0.96987079  0.05676361  1
  H  H9  1  0.59547818  0.70954087  0.66910758  1
  H  H10  1  0.40452178  0.29045841  0.33089235  1
  H  H11  1  0.09983050  0.26695960  0.55732780  1
  H  H12  1  0.90016996  0.73304068  0.44267238  1
  H  H13  1  0.60824332  0.84191277  0.81377265  1
  H  H14  1  0.39175626  0.15808644  0.18622757  1
  O  O15  1  0.54098633  0.73133694  0.80151565  1
  O  O16  1  0.45901303  0.26866235  0.19848461  1
  O  O17  1  0.32487018  0.38943564  0.86841803  1
  O  O18  1  0.67513037  0.61056403  0.13158195  1
  O  O19  1  0.25020165  0.07441594  0.81257125  1
  O  O20  1  0.74979878  0.92558378  0.18742857  1
  O  O21  1  0.29955961  0.33638584  0.55518863  1
  O  O22  1  0.70044089  0.66361377  0.44481140  1
  O  O23  1  0.60361605  0.21928212  0.63330021  1
  O  O24  1  0.39638448  0.78071722  0.36669959  1
  O  O25  1  0.76528742  0.37455181  0.82841762  1
  O  O26  1  0.23471249  0.62544799  0.17158269  1
  O  O27  1  0.97008465  0.21386185  0.54914478  1
  O  O28  1  0.02991583  0.78613901  0.45085503  1
  O  O29  1  0.74991298  0.02050392  0.85211170  1
  O  O30  1  0.25008804  0.97949571  0.14788805  1
