# generated using pymatgen
data_Ag2F3
_symmetry_space_group_name_H-M   'P 1'
_cell_length_a   5.87865631
_cell_length_b   5.87865658
_cell_length_c   6.38144678
_cell_angle_alpha   117.42617269
_cell_angle_beta   62.57383267
_cell_angle_gamma   119.99999247
_symmetry_Int_Tables_number   1
_chemical_formula_structural   Ag2F3
_chemical_formula_sum   'Ag4 F6'
_cell_volume   161.73463031
_cell_formula_units_Z   2
loop_
 _symmetry_equiv_pos_site_id
 _symmetry_equiv_pos_as_xyz
  1  'x, y, z'
loop_
 _atom_site_type_symbol
 _atom_site_label
 _atom_site_symmetry_multiplicity
 _atom_site_fract_x
 _atom_site_fract_y
 _atom_site_fract_z
 _atom_site_occupancy
  Ag  Ag0  1  0.65232515  0.34767485  0.04302654  1
  Ag  Ag1  1  0.84767585  0.15232415  0.45697246  1
  Ag  Ag2  1  0.15232415  0.84767585  0.54302654  1
  Ag  Ag3  1  0.34767585  0.65232415  0.95697346  1
  F  F4  1  0.94147562  0.44147762  0.25000100  1
  F  F5  1  0.24999900  0.05852438  0.25000100  1
  F  F6  1  0.55852338  0.75000100  0.25000100  1
  F  F7  1  0.44147662  0.25000000  0.75000000  1
  F  F8  1  0.75000000  0.94147662  0.75000000  1
  F  F9  1  0.05852538  0.55852438  0.75000000  1
