# generated using pymatgen
data_V5Zn4(TeO6)3
_symmetry_space_group_name_H-M   'P 1'
_cell_length_a   8.76947049
_cell_length_b   8.76947113
_cell_length_c   10.76504871
_cell_angle_alpha   85.70054099
_cell_angle_beta   85.70053943
_cell_angle_gamma   62.86108349
_symmetry_Int_Tables_number   1
_chemical_formula_structural   V5Zn4(TeO6)3
_chemical_formula_sum   'V10 Zn8 Te6 O36'
_cell_volume   733.87611615
_cell_formula_units_Z   2
loop_
 _symmetry_equiv_pos_site_id
 _symmetry_equiv_pos_as_xyz
  1  'x, y, z'
loop_
 _atom_site_type_symbol
 _atom_site_label
 _atom_site_symmetry_multiplicity
 _atom_site_fract_x
 _atom_site_fract_y
 _atom_site_fract_z
 _atom_site_occupancy
  V  V0  1  0.80261428  0.49575136  0.98216764  1
  V  V1  1  0.10674058  0.19129007  0.48002780  1
  V  V2  1  0.33863339  0.33674754  0.30054241  1
  V  V3  1  0.94536658  0.72990493  0.80043505  1
  V  V4  1  0.66325246  0.66136661  0.69945759  1
  V  V5  1  0.97434771  0.02565229  0.00000000  1
  V  V6  1  0.63276099  0.36723901  0.50000000  1
  V  V7  1  0.27009507  0.05463442  0.19956495  1
  V  V8  1  0.80870993  0.89325942  0.51997220  1
  V  V9  1  0.50424864  0.19738572  0.01783236  1
  Zn  Zn10  1  0.86393419  0.54604662  0.32065628  1
  Zn  Zn11  1  0.48630234  0.57936470  0.21466141  1
  Zn  Zn12  1  0.45395338  0.13606581  0.67934372  1
  Zn  Zn13  1  0.42063530  0.51369766  0.78533859  1
  Zn  Zn14  1  0.18703551  0.87743623  0.71518114  1
  Zn  Zn15  1  0.15411377  0.25632509  0.82047639  1
  Zn  Zn16  1  0.74367491  0.84588623  0.17952361  1
  Zn  Zn17  1  0.12256377  0.81296449  0.28481886  1
  Te  Te18  1  0.46025198  0.85584730  0.94904175  1
  Te  Te19  1  0.80277463  0.19563330  0.25109246  1
  Te  Te20  1  0.80436670  0.19722537  0.74890754  1
  Te  Te21  1  0.46598601  0.85158516  0.44944148  1
  Te  Te22  1  0.14841484  0.53401399  0.55055852  1
  Te  Te23  1  0.14415270  0.53974802  0.05095825  1
  O  O24  1  0.40495460  0.12102994  0.86594947  1
  O  O25  1  0.73782114  0.43853144  0.81480029  1
  O  O26  1  0.58020978  0.59061731  0.56609448  1
  O  O27  1  0.73039530  0.12911244  0.42904689  1
  O  O28  1  0.56146856  0.26217886  0.18519971  1
  O  O29  1  0.87088756  0.26960470  0.57095311  1
  O  O30  1  0.35178613  0.81729454  0.28593935  1
  O  O31  1  0.05343868  0.08937772  0.82308206  1
  O  O32  1  0.55425564  0.30348064  0.67654455  1
  O  O33  1  0.08539363  0.42135292  0.40353758  1
  O  O34  1  0.56649736  0.62676624  0.04963171  1
  O  O35  1  0.52225571  0.97070625  0.09639868  1
  O  O36  1  0.87163419  0.95083793  0.68328733  1
  O  O37  1  0.71229371  0.74199735  0.86765360  1
  O  O38  1  0.37323376  0.43350264  0.95036829  1
  O  O39  1  0.25747922  0.57390001  0.21389906  1
  O  O40  1  0.04080139  0.76495165  0.44888639  1
  O  O41  1  0.25800265  0.28770629  0.13234640  1
  O  O42  1  0.40938269  0.41979022  0.43390552  1
  O  O43  1  0.23504835  0.95919861  0.55111361  1
  O  O44  1  0.72829603  0.79714453  0.36684800  1
  O  O45  1  0.89574257  0.64861764  0.63283999  1
  O  O46  1  0.91062228  0.94656132  0.17691794  1
  O  O47  1  0.42609999  0.74252078  0.78610094  1
  O  O48  1  0.02755855  0.80301572  0.93286664  1
  O  O49  1  0.73513817  0.12335218  0.93178375  1
  O  O50  1  0.02929375  0.47774429  0.90360132  1
  O  O51  1  0.18270546  0.64821387  0.71406065  1
  O  O52  1  0.04916207  0.12836581  0.31671267  1
  O  O53  1  0.35138236  0.10425743  0.36716001  1
  O  O54  1  0.20285547  0.27170397  0.63315200  1
  O  O55  1  0.87664782  0.26486183  0.06821625  1
  O  O56  1  0.69651936  0.44574436  0.32345545  1
  O  O57  1  0.57864708  0.91460637  0.59646242  1
  O  O58  1  0.19698428  0.97244145  0.06713336  1
  O  O59  1  0.87897006  0.59504540  0.13405053  1
