# generated using pymatgen
data_Ce3AlCrS7
_symmetry_space_group_name_H-M   'P 1'
_cell_length_a   10.07274381
_cell_length_b   10.02894920
_cell_length_c   6.02874583
_cell_angle_alpha   90.00000000
_cell_angle_beta   90.00000000
_cell_angle_gamma   120.18914829
_symmetry_Int_Tables_number   1
_chemical_formula_structural   Ce3AlCrS7
_chemical_formula_sum   'Ce6 Al2 Cr2 S14'
_cell_volume   526.41700295
_cell_formula_units_Z   2
loop_
 _symmetry_equiv_pos_site_id
 _symmetry_equiv_pos_as_xyz
  1  'x, y, z'
loop_
 _atom_site_type_symbol
 _atom_site_label
 _atom_site_symmetry_multiplicity
 _atom_site_fract_x
 _atom_site_fract_y
 _atom_site_fract_z
 _atom_site_occupancy
  Ce  Ce0  1  0.14081873  0.37151981  0.24382402  1
  Ce  Ce1  1  0.85918027  0.62847919  0.74382302  1
  Ce  Ce2  1  0.62831752  0.76864904  0.24508356  1
  Ce  Ce3  1  0.23101541  0.85967464  0.24494190  1
  Ce  Ce4  1  0.76898459  0.14032436  0.74494390  1
  Ce  Ce5  1  0.37168248  0.23135096  0.74508456  1
  Al  Al6  1  0.33308672  0.66648147  0.66525511  1
  Al  Al7  1  0.66691328  0.33351953  0.16525711  1
  Cr  Cr8  1  0.99988399  -0.00003118  0.02732924  1
  Cr  Cr9  1  0.00011501  0.00003118  0.52732924  1
  S  S10  1  0.33359664  0.66639580  0.03562669  1
  S  S11  1  0.66640436  0.33360520  0.53562469  1
  S  S12  1  0.42065934  0.51667047  0.51664067  1
  S  S13  1  0.57934166  0.48332953  0.01664067  1
  S  S14  1  0.48226070  0.90418513  0.51620052  1
  S  S15  1  0.09627781  0.57816383  0.51714527  1
  S  S16  1  0.90372319  0.42183717  0.01714427  1
  S  S17  1  0.51773930  0.09581487  0.01620052  1
  S  S18  1  0.08925505  0.23215975  0.78372020  1
  S  S19  1  0.91074395  0.76784025  0.28372120  1
  S  S20  1  0.76797283  0.85711190  0.78380667  1
  S  S21  1  0.14234013  0.91045089  0.78442615  1
  S  S22  1  0.85765987  0.08954911  0.28442715  1
  S  S23  1  0.23202717  0.14288910  0.28380567  1
