# generated using pymatgen
data_Ca(BH4)2
_symmetry_space_group_name_H-M   'P 1'
_cell_length_a   12.85444513
_cell_length_b   8.25421389
_cell_length_c   7.44432680
_cell_angle_alpha   90.00000000
_cell_angle_beta   90.00000000
_cell_angle_gamma   90.00000000
_symmetry_Int_Tables_number   1
_chemical_formula_structural   Ca(BH4)2
_chemical_formula_sum   'Ca8 B16 H64'
_cell_volume   789.86793411
_cell_formula_units_Z   8
loop_
 _symmetry_equiv_pos_site_id
 _symmetry_equiv_pos_as_xyz
  1  'x, y, z'
loop_
 _atom_site_type_symbol
 _atom_site_label
 _atom_site_symmetry_multiplicity
 _atom_site_fract_x
 _atom_site_fract_y
 _atom_site_fract_z
 _atom_site_occupancy
  Ca  Ca0  1  0.62610878  0.12651134  0.85500183  1
  Ca  Ca1  1  0.87389222  0.87348966  0.35500183  1
  Ca  Ca2  1  0.12610778  0.37348966  0.14499817  1
  Ca  Ca3  1  0.37389222  0.62651134  0.64499817  1
  Ca  Ca4  1  0.37389222  0.87348966  0.14499817  1
  Ca  Ca5  1  0.12610778  0.12651134  0.64499817  1
  Ca  Ca6  1  0.87389222  0.62651134  0.85500183  1
  Ca  Ca7  1  0.62610878  0.37348966  0.35500183  1
  B  B8  1  0.51064981  0.66773571  0.32874476  1
  B  B9  1  0.98935019  0.33226429  0.82874476  1
  B  B10  1  0.01064981  0.83226529  0.67125524  1
  B  B11  1  0.48934919  0.16773571  0.17125524  1
  B  B12  1  0.48934919  0.33226429  0.67125524  1
  B  B13  1  0.22107089  0.08593455  0.98353018  1
  B  B14  1  0.27892911  0.91406545  0.48353018  1
  B  B15  1  0.01064981  0.66773571  0.17125524  1
  B  B16  1  0.98935019  0.16773571  0.32874476  1
  B  B17  1  0.51064981  0.83226529  0.82874476  1
  B  B18  1  0.72107089  0.41406445  0.01646782  1
  B  B19  1  0.77892911  0.58593455  0.51646782  1
  B  B20  1  0.77892911  0.91406545  0.01646782  1
  B  B21  1  0.72107089  0.08593455  0.51646782  1
  B  B22  1  0.27892911  0.58593455  0.98353018  1
  B  B23  1  0.22107089  0.41406445  0.48353018  1
  H  H24  1  0.26506009  0.15517224  0.85920894  1
  H  H25  1  0.23493991  0.84482876  0.35920794  1
  H  H26  1  0.76506009  0.34482876  0.14079106  1
  H  H27  1  0.73493991  0.65517224  0.64079106  1
  H  H28  1  0.73493991  0.84482876  0.14079106  1
  H  H29  1  0.76506009  0.15517224  0.64079106  1
  H  H30  1  0.23493991  0.65517224  0.85920894  1
  H  H31  1  0.26506009  0.34482876  0.35920794  1
  H  H32  1  0.22927208  0.93884509  0.96683054  1
  H  H33  1  0.27072792  0.06115391  0.46683054  1
  H  H34  1  0.72927208  0.56115491  0.03317046  1
  H  H35  1  0.77072792  0.43884709  0.53317046  1
  H  H36  1  0.77072792  0.06115391  0.03317046  1
  H  H37  1  0.72927208  0.93884509  0.53317046  1
  H  H38  1  0.27072792  0.43884709  0.96683054  1
  H  H39  1  0.22927208  0.56115491  0.46683054  1
  H  H40  1  0.25849153  0.13438011  0.12533746  1
  H  H41  1  0.24150847  0.86561889  0.62533746  1
  H  H42  1  0.75849153  0.36561789  0.87466254  1
  H  H43  1  0.74150847  0.63438111  0.37466254  1
  H  H44  1  0.74150847  0.86561889  0.87466254  1
  H  H45  1  0.75849153  0.13438011  0.37466254  1
  H  H46  1  0.24150847  0.63438111  0.12533746  1
  H  H47  1  0.25849153  0.36561789  0.62533746  1
  H  H48  1  0.52767277  0.81257521  0.30835009  1
  H  H49  1  0.97232623  0.18742379  0.80834909  1
  H  H50  1  0.02767277  0.68742479  0.69165191  1
  H  H51  1  0.47232623  0.31257521  0.19164991  1
  H  H52  1  0.47232623  0.18742379  0.69165191  1
  H  H53  1  0.02767277  0.81257521  0.19164991  1
  H  H54  1  0.97232623  0.31257521  0.30835009  1
  H  H55  1  0.52767277  0.68742479  0.80834909  1
  H  H56  1  0.12685598  0.11000935  0.98425866  1
  H  H57  1  0.37314402  0.88998965  0.48425866  1
  H  H58  1  0.62685598  0.38998965  0.01574134  1
  H  H59  1  0.87314402  0.61001035  0.51574234  1
  H  H60  1  0.87314402  0.88998965  0.01574134  1
  H  H61  1  0.62685598  0.11000935  0.51574234  1
  H  H62  1  0.37314402  0.61001035  0.98425866  1
  H  H63  1  0.12685598  0.38998965  0.48425866  1
  H  H64  1  0.54559633  0.63168446  0.47669037  1
  H  H65  1  0.95440267  0.36831554  0.97669037  1
  H  H66  1  0.04559633  0.86831554  0.52330863  1
  H  H67  1  0.45440367  0.13168346  0.02331063  1
  H  H68  1  0.45440367  0.36831554  0.52330863  1
  H  H69  1  0.04559633  0.63168446  0.02331063  1
  H  H70  1  0.95440267  0.13168346  0.47669037  1
  H  H71  1  0.54559633  0.86831554  0.97669037  1
  H  H72  1  0.41708785  0.63462341  0.32184590  1
  H  H73  1  0.08291215  0.36537659  0.82184590  1
  H  H74  1  0.91708785  0.86537759  0.67815510  1
  H  H75  1  0.58291315  0.13462441  0.17815610  1
  H  H76  1  0.58291315  0.36537659  0.67815510  1
  H  H77  1  0.91708785  0.63462341  0.17815610  1
  H  H78  1  0.08291215  0.13462441  0.32184590  1
  H  H79  1  0.41708785  0.86537759  0.82184590  1
  H  H80  1  0.55248709  0.59395628  0.20645421  1
  H  H81  1  0.94751391  0.40604372  0.70645421  1
  H  H82  1  0.05248509  0.90604472  0.79354679  1
  H  H83  1  0.44751391  0.09395728  0.29354579  1
  H  H84  1  0.44751391  0.40604372  0.79354679  1
  H  H85  1  0.05248509  0.59395628  0.29354579  1
  H  H86  1  0.94751391  0.09395728  0.20645421  1
  H  H87  1  0.55248709  0.90604472  0.70645421  1
