# generated using pymatgen
data_TaSe2
_symmetry_space_group_name_H-M   'P 1'
_cell_length_a   3.47424114
_cell_length_b   3.47548959
_cell_length_c   12.35322588
_cell_angle_alpha   85.96963476
_cell_angle_beta   81.91622881
_cell_angle_gamma   60.01188204
_symmetry_Int_Tables_number   1
_chemical_formula_structural   TaSe2
_chemical_formula_sum   'Ta1 Se2'
_cell_volume   127.90926834
_cell_formula_units_Z   1
loop_
 _symmetry_equiv_pos_site_id
 _symmetry_equiv_pos_as_xyz
  1  'x, y, z'
loop_
 _atom_site_type_symbol
 _atom_site_label
 _atom_site_symmetry_multiplicity
 _atom_site_fract_x
 _atom_site_fract_y
 _atom_site_fract_z
 _atom_site_occupancy
  Se  Se0  1  0.81681444  0.50353385  0.86283727  1
  Se  Se1  1  0.67965171  0.50353385  0.13716273  1
  Ta  Ta2  1  0.08153385  0.83693229  0.00000000  1
