# generated using pymatgen
data_Zn(Cu2O3)2
_symmetry_space_group_name_H-M   'P 1'
_cell_length_a   2.94043075
_cell_length_b   5.12866627
_cell_length_c   14.78802647
_cell_angle_alpha   90.00000000
_cell_angle_beta   90.00000000
_cell_angle_gamma   106.65846725
_symmetry_Int_Tables_number   1
_chemical_formula_structural   Zn(Cu2O3)2
_chemical_formula_sum   'Zn2 Cu8 O12'
_cell_volume   213.65102028
_cell_formula_units_Z   2
loop_
 _symmetry_equiv_pos_site_id
 _symmetry_equiv_pos_as_xyz
  1  'x, y, z'
loop_
 _atom_site_type_symbol
 _atom_site_label
 _atom_site_symmetry_multiplicity
 _atom_site_fract_x
 _atom_site_fract_y
 _atom_site_fract_z
 _atom_site_occupancy
  Zn  Zn0  1  0.65985743  0.31971587  0.75000000  1
  Zn  Zn1  1  0.34014257  0.68028413  0.25000000  1
  Cu  Cu2  1  0.86246178  0.72492656  0.04446461  1
  Cu  Cu3  1  0.40613953  0.81227806  0.63514850  1
  Cu  Cu4  1  0.13753622  0.27507244  0.95553539  1
  Cu  Cu5  1  0.59386047  0.18772194  0.36485250  1
  Cu  Cu6  1  0.86246178  0.72492656  0.45553539  1
  Cu  Cu7  1  0.13753622  0.27507244  0.54446461  1
  Cu  Cu8  1  0.59386047  0.18772194  0.13514750  1
  Cu  Cu9  1  0.40613953  0.81227806  0.86485150  1
  O  O10  1  0.49999900  -0.00000000  0.50000000  1
  O  O11  1  0.49999900  -0.00000000  0.00000000  1
  O  O12  1  0.04810145  0.09620189  0.84126428  1
  O  O13  1  0.95189855  0.90379811  0.15873672  1
  O  O14  1  0.95189855  0.90379811  0.34126328  1
  O  O15  1  0.04810145  0.09620189  0.65873672  1
  O  O16  1  0.78538380  0.57076961  0.92279568  1
  O  O17  1  0.21461520  0.42923139  0.07720432  1
  O  O18  1  0.21461520  0.42923139  0.42279568  1
  O  O19  1  0.78538380  0.57076961  0.57720432  1
  O  O20  1  0.30226743  0.60453486  0.75000000  1
  O  O21  1  0.69773057  0.39546414  0.25000000  1
