# generated using pymatgen
data_HoGa3
_symmetry_space_group_name_H-M   'P 1'
_cell_length_a   12.40193653
_cell_length_b   12.40193653
_cell_length_c   12.40193669
_cell_angle_alpha   28.42413999
_cell_angle_beta   28.42413999
_cell_angle_gamma   28.42414799
_symmetry_Int_Tables_number   1
_chemical_formula_structural   HoGa3
_chemical_formula_sum   'Ho5 Ga15'
_cell_volume   381.95334895
_cell_formula_units_Z   5
loop_
 _symmetry_equiv_pos_site_id
 _symmetry_equiv_pos_as_xyz
  1  'x, y, z'
loop_
 _atom_site_type_symbol
 _atom_site_label
 _atom_site_symmetry_multiplicity
 _atom_site_fract_x
 _atom_site_fract_y
 _atom_site_fract_z
 _atom_site_occupancy
  Ho  Ho0  1  0.13066606  0.13066606  0.13066606  1
  Ho  Ho1  1  0.86933394  0.86933394  0.86933294  1
  Ho  Ho2  1  0.40001604  0.40001604  0.40001504  1
  Ho  Ho3  1  0.59998396  0.59998396  0.59998396  1
  Ho  Ho4  1  -0.00000000  -0.00000000  0.00000000  1
  Ga  Ga5  1  0.88078519  0.43671772  0.88078319  1
  Ga  Ga6  1  0.88078419  0.88078419  0.43671772  1
  Ga  Ga7  1  0.43671772  0.88078519  0.88078319  1
  Ga  Ga8  1  0.56328228  0.11921481  0.11921581  1
  Ga  Ga9  1  0.11921581  0.11921581  0.56328128  1
  Ga  Ga10  1  0.11921481  0.56328228  0.11921581  1
  Ga  Ga11  1  0.63503543  0.13235559  0.63503543  1
  Ga  Ga12  1  0.63503443  0.63503443  0.13235659  1
  Ga  Ga13  1  0.13235559  0.63503543  0.63503543  1
  Ga  Ga14  1  0.86764441  0.36496557  0.36496457  1
  Ga  Ga15  1  0.36496557  0.36496557  0.86764341  1
  Ga  Ga16  1  0.36496557  0.86764441  0.36496457  1
  Ga  Ga17  1  0.50000000  0.50000000  0.99999900  1
  Ga  Ga18  1  0.99999900  0.50000000  0.50000100  1
  Ga  Ga19  1  0.50000000  0.99999900  0.50000100  1
