# generated using pymatgen
data_VZn2WO6
_symmetry_space_group_name_H-M   'P 1'
_cell_length_a   5.30195457
_cell_length_b   5.59760586
_cell_length_c   7.69970356
_cell_angle_alpha   94.20639258
_cell_angle_beta   133.50591466
_cell_angle_gamma   118.29124047
_symmetry_Int_Tables_number   1
_chemical_formula_structural   VZn2WO6
_chemical_formula_sum   'V1 Zn2 W1 O6'
_cell_volume   113.84188512
_cell_formula_units_Z   1
loop_
 _symmetry_equiv_pos_site_id
 _symmetry_equiv_pos_as_xyz
  1  'x, y, z'
loop_
 _atom_site_type_symbol
 _atom_site_label
 _atom_site_symmetry_multiplicity
 _atom_site_fract_x
 _atom_site_fract_y
 _atom_site_fract_z
 _atom_site_occupancy
  V  V0  1  0.00159811  0.98020137  0.50368134  1
  Zn  Zn1  1  0.00014087  0.54246107  0.21972982  1
  Zn  Zn2  1  0.00005882  0.49336207  0.74693326  1
  W  W3  1  0.00187091  0.98765901  0.00061188  1
  O  O4  1  0.73078200  0.83255604  0.10453770  1
  O  O5  1  0.27420993  0.11682503  0.90314738  1
  O  O6  1  0.34204830  0.45527149  0.24238505  1
  O  O7  1  0.39141254  0.84401359  0.62867348  1
  O  O8  1  0.59493504  0.10077827  0.37580839  1
  O  O9  1  0.68196146  0.50843506  0.78589970  1
