# generated using pymatgen
data_BaTb2PdO5
_symmetry_space_group_name_H-M   'P 1'
_cell_length_a   5.93166566
_cell_length_b   6.61164647
_cell_length_c   6.61164647
_cell_angle_alpha   90.00000000
_cell_angle_beta   90.00000000
_cell_angle_gamma   90.00000000
_symmetry_Int_Tables_number   1
_chemical_formula_structural   BaTb2PdO5
_chemical_formula_sum   'Ba2 Tb4 Pd2 O10'
_cell_volume   259.29605588
_cell_formula_units_Z   2
loop_
 _symmetry_equiv_pos_site_id
 _symmetry_equiv_pos_as_xyz
  1  'x, y, z'
loop_
 _atom_site_type_symbol
 _atom_site_label
 _atom_site_symmetry_multiplicity
 _atom_site_fract_x
 _atom_site_fract_y
 _atom_site_fract_z
 _atom_site_occupancy
  O  O0  1  0.50000000  0.50000000  0.50000000  1
  O  O1  1  0.50000000  0.00000000  0.00000000  1
  O  O2  1  0.25918427  0.64052015  0.14052015  1
  O  O3  1  0.25918427  0.35947985  0.85947985  1
  O  O4  1  0.25918427  0.14052015  0.35947985  1
  O  O5  1  0.25918427  0.85947985  0.64052015  1
  O  O6  1  0.74081573  0.64052015  0.14052015  1
  O  O7  1  0.74081573  0.85947985  0.64052015  1
  O  O8  1  0.74081573  0.35947985  0.85947985  1
  O  O9  1  0.74081573  0.14052015  0.35947985  1
  Pd  Pd10  1  0.00000000  0.50000000  0.00000000  1
  Pd  Pd11  1  0.00000000  0.00000000  0.50000000  1
  Ba  Ba12  1  0.00000000  0.50000000  0.50000000  1
  Ba  Ba13  1  0.00000000  0.00000000  0.00000000  1
  Tb  Tb14  1  0.50000000  0.17403790  0.67403790  1
  Tb  Tb15  1  0.50000000  0.32596210  0.17403790  1
  Tb  Tb16  1  0.50000000  0.67403790  0.82596210  1
  Tb  Tb17  1  0.50000000  0.82596210  0.32596210  1
