# generated using pymatgen
data_HoErRu2
_symmetry_space_group_name_H-M   'P 1'
_cell_length_a   4.78536349
_cell_length_b   4.78534928
_cell_length_c   4.78533562
_cell_angle_alpha   59.99999619
_cell_angle_beta   60.00049965
_cell_angle_gamma   60.00053260
_symmetry_Int_Tables_number   1
_chemical_formula_structural   HoErRu2
_chemical_formula_sum   'Ho1 Er1 Ru2'
_cell_volume   77.48709042
_cell_formula_units_Z   1
loop_
 _symmetry_equiv_pos_site_id
 _symmetry_equiv_pos_as_xyz
  1  'x, y, z'
loop_
 _atom_site_type_symbol
 _atom_site_label
 _atom_site_symmetry_multiplicity
 _atom_site_fract_x
 _atom_site_fract_y
 _atom_site_fract_z
 _atom_site_occupancy
  Ho  Ho0  1  0.74999793  0.74999950  0.74999429  1
  Er  Er1  1  0.25000825  0.25000129  0.24999823  1
  Ru  Ru2  1  0.99999195  0.00000357  0.00000356  1
  Ru  Ru3  1  0.50000387  0.49999764  0.50000591  1
