# generated using pymatgen
data_Ba2PrRuO6
_symmetry_space_group_name_H-M   'P 1'
_cell_length_a   6.07343854
_cell_length_b   6.07038613
_cell_length_c   8.66416274
_cell_angle_alpha   90.00000000
_cell_angle_beta   90.07377901
_cell_angle_gamma   90.00000000
_symmetry_Int_Tables_number   1
_chemical_formula_structural   Ba2PrRuO6
_chemical_formula_sum   'Ba4 Pr2 Ru2 O12'
_cell_volume   319.43110147
_cell_formula_units_Z   2
loop_
 _symmetry_equiv_pos_site_id
 _symmetry_equiv_pos_as_xyz
  1  'x, y, z'
loop_
 _atom_site_type_symbol
 _atom_site_label
 _atom_site_symmetry_multiplicity
 _atom_site_fract_x
 _atom_site_fract_y
 _atom_site_fract_z
 _atom_site_occupancy
  Ba  Ba0  1  0.50062012  0.49568149  0.74988692  1
  Ba  Ba1  1  0.99937988  0.99568349  0.75011408  1
  Ba  Ba2  1  0.49937888  0.50431651  0.25011308  1
  Ba  Ba3  1  0.00062112  0.00431651  0.24988592  1
  Pr  Pr4  1  0.00000100  0.50000000  0.50000000  1
  Pr  Pr5  1  0.50000000  0.00000000  0.00000000  1
  Ru  Ru6  1  0.00000000  0.50000000  0.00000000  1
  Ru  Ru7  1  0.49999900  0.00000000  0.50000100  1
  O  O8  1  0.69648645  0.26159776  0.49390488  1
  O  O9  1  0.80351455  0.76159776  0.00609612  1
  O  O10  1  0.30351355  0.73840224  0.50609612  1
  O  O11  1  0.19648745  0.23840224  0.99390388  1
  O  O12  1  0.76133323  0.80332723  0.49330278  1
  O  O13  1  0.73866777  0.30332723  0.00669722  1
  O  O14  1  0.23866877  0.19667477  0.50669822  1
  O  O15  1  0.26133223  0.69667477  0.99330178  1
  O  O16  1  0.51338865  0.00128668  0.72987189  1
  O  O17  1  0.98661335  0.50128468  0.77012811  1
  O  O18  1  0.48661235  0.99871332  0.27012911  1
  O  O19  1  0.01338765  0.49871532  0.22987189  1
