# generated using pymatgen
data_SmAs2Au
_symmetry_space_group_name_H-M   'P 1'
_cell_length_a   4.09064290
_cell_length_b   4.10786396
_cell_length_c   20.60196643
_cell_angle_alpha   89.99960585
_cell_angle_beta   90.00003143
_cell_angle_gamma   90.00002152
_symmetry_Int_Tables_number   1
_chemical_formula_structural   SmAs2Au
_chemical_formula_sum   'Sm4 As8 Au4'
_cell_volume   346.19141707
_cell_formula_units_Z   4
loop_
 _symmetry_equiv_pos_site_id
 _symmetry_equiv_pos_as_xyz
  1  'x, y, z'
loop_
 _atom_site_type_symbol
 _atom_site_label
 _atom_site_symmetry_multiplicity
 _atom_site_fract_x
 _atom_site_fract_y
 _atom_site_fract_z
 _atom_site_occupancy
  Sm  Sm0  1  0.24999947  0.22773457  0.11745995  1
  Sm  Sm1  1  0.75000042  0.72773763  0.38253953  1
  Sm  Sm2  1  0.24999925  0.27226001  0.61745350  1
  Sm  Sm3  1  0.75000061  0.77226336  0.88254662  1
  As  As4  1  0.24999923  0.70457225  0.00157641  1
  As  As5  1  0.75000063  0.72721549  0.15599023  1
  As  As6  1  0.24999921  0.22721169  0.34400960  1
  As  As7  1  0.75000084  0.20453863  0.49842205  1
  As  As8  1  0.24999919  0.79546432  0.50158230  1
  As  As9  1  0.75000063  0.77278728  0.65598516  1
  As  As10  1  0.24999966  0.27278319  0.84401506  1
  As  As11  1  0.75000081  0.29543066  0.99841926  1
  Au  Au12  1  0.24999929  0.72341569  0.24973372  1
  Au  Au13  1  0.75000079  0.22341629  0.25026615  1
  Au  Au14  1  0.24999954  0.77658353  0.74973418  1
  Au  Au15  1  0.75000041  0.27658340  0.75026626  1
