# generated using pymatgen
data_Zn(AgO2)2
_symmetry_space_group_name_H-M   'P 1'
_cell_length_a   3.18641446
_cell_length_b   9.89801669
_cell_length_c   10.81725891
_cell_angle_alpha   90.00048408
_cell_angle_beta   89.96020900
_cell_angle_gamma   89.99795603
_symmetry_Int_Tables_number   1
_chemical_formula_structural   Zn(AgO2)2
_chemical_formula_sum   'Zn4 Ag8 O16'
_cell_volume   341.16743120
_cell_formula_units_Z   4
loop_
 _symmetry_equiv_pos_site_id
 _symmetry_equiv_pos_as_xyz
  1  'x, y, z'
loop_
 _atom_site_type_symbol
 _atom_site_label
 _atom_site_symmetry_multiplicity
 _atom_site_fract_x
 _atom_site_fract_y
 _atom_site_fract_z
 _atom_site_occupancy
  Zn  Zn0  1  0.31491506  0.74999441  0.15119066  1
  Zn  Zn1  1  0.31399737  0.24999185  0.34871768  1
  Zn  Zn2  1  0.68599927  0.75000544  0.65127698  1
  Zn  Zn3  1  0.68511045  0.25000322  0.84880765  1
  Ag  Ag4  1  0.82321646  0.57059292  0.38451442  1
  Ag  Ag5  1  0.82321482  0.07058862  0.11552037  1
  Ag  Ag6  1  0.17679377  0.07059234  0.61548538  1
  Ag  Ag7  1  0.82321407  0.42941208  0.11551911  1
  Ag  Ag8  1  0.17676968  0.42940621  0.61548774  1
  Ag  Ag9  1  0.82323773  0.92940702  0.38451274  1
  Ag  Ag10  1  0.17678447  0.92941032  0.88447952  1
  Ag  Ag11  1  0.17676687  0.57059307  0.88447968  1
  O  O12  1  0.12524147  0.87615802  0.54854368  1
  O  O13  1  0.87478392  0.12384074  0.45145972  1
  O  O14  1  0.45408238  0.00001853  0.25008585  1
  O  O15  1  0.87479377  0.87613668  0.04863512  1
  O  O16  1  0.87474543  0.62386475  0.04863902  1
  O  O17  1  0.80274399  0.24999989  0.21530498  1
  O  O18  1  0.12519246  0.12386165  0.95136110  1
  O  O19  1  0.19690862  0.24999905  0.71528036  1
  O  O20  1  0.45407380  0.49998891  0.25008346  1
  O  O21  1  0.54592856  0.99998199  0.74991877  1
  O  O22  1  0.12520039  0.62384008  0.54854241  1
  O  O23  1  0.19727190  0.75000171  0.78469127  1
  O  O24  1  0.80311878  0.74999862  0.28472063  1
  O  O25  1  0.54591422  0.50001317  0.74991942  1
  O  O26  1  0.12521910  0.37614163  0.95136185  1
  O  O27  1  0.87475916  0.37615709  0.45146141  1
