# generated using pymatgen
data_C
_symmetry_space_group_name_H-M   'P 1'
_cell_length_a   2.46775188
_cell_length_b   2.46775182
_cell_length_c   25.82922129
_cell_angle_alpha   90.01791822
_cell_angle_beta   89.98208179
_cell_angle_gamma   119.99020942
_symmetry_Int_Tables_number   1
_chemical_formula_structural   C
_chemical_formula_sum   C4
_cell_volume   136.23469589
_cell_formula_units_Z   4
loop_
 _symmetry_equiv_pos_site_id
 _symmetry_equiv_pos_as_xyz
  1  'x, y, z'
loop_
 _atom_site_type_symbol
 _atom_site_label
 _atom_site_symmetry_multiplicity
 _atom_site_fract_x
 _atom_site_fract_y
 _atom_site_fract_z
 _atom_site_occupancy
  C  C0  1  0.00022231  0.99977769  0.51428879  1
  C  C1  1  0.99976969  0.00023031  0.65666897  1
  C  C2  1  0.66618875  0.33381125  0.65665984  1
  C  C3  1  0.33381925  0.66618075  0.51427241  1
