# generated using pymatgen
data_KAgCl3
_symmetry_space_group_name_H-M   'P 1'
_cell_length_a   5.13227430
_cell_length_b   5.13521300
_cell_length_c   5.14001364
_cell_angle_alpha   90.33329226
_cell_angle_beta   90.06371640
_cell_angle_gamma   90.14264943
_symmetry_Int_Tables_number   1
_chemical_formula_structural   KAgCl3
_chemical_formula_sum   'K1 Ag1 Cl3'
_cell_volume   135.46391499
_cell_formula_units_Z   1
loop_
 _symmetry_equiv_pos_site_id
 _symmetry_equiv_pos_as_xyz
  1  'x, y, z'
loop_
 _atom_site_type_symbol
 _atom_site_label
 _atom_site_symmetry_multiplicity
 _atom_site_fract_x
 _atom_site_fract_y
 _atom_site_fract_z
 _atom_site_occupancy
  K  K0  1  0.99913654  0.99926402  0.99781125  1
  Ag  Ag1  1  0.50000132  0.49757542  0.48603996  1
  Cl  Cl2  1  0.00005391  0.49329667  0.48411958  1
  Cl  Cl3  1  0.50316691  0.50225613  0.98587159  1
  Cl  Cl4  1  0.49764032  0.99760376  0.48615863  1
