# generated using pymatgen
data_NaMn4O8
_symmetry_space_group_name_H-M   'P 1'
_cell_length_a   5.95022522
_cell_length_b   9.79518077
_cell_length_c   10.16620314
_cell_angle_alpha   88.58754158
_cell_angle_beta   90.00075099
_cell_angle_gamma   90.00301833
_symmetry_Int_Tables_number   1
_chemical_formula_structural   NaMn4O8
_chemical_formula_sum   'Na4 Mn16 O32'
_cell_volume   592.34218589
_cell_formula_units_Z   4
loop_
 _symmetry_equiv_pos_site_id
 _symmetry_equiv_pos_as_xyz
  1  'x, y, z'
loop_
 _atom_site_type_symbol
 _atom_site_label
 _atom_site_symmetry_multiplicity
 _atom_site_fract_x
 _atom_site_fract_y
 _atom_site_fract_z
 _atom_site_occupancy
  Na  Na0  1  0.50624697  0.48644260  0.41279257  1
  Na  Na1  1  0.74374486  0.98676494  0.91282557  1
  Na  Na2  1  0.00621898  0.51352989  0.58718854  1
  Na  Na3  1  0.24376840  0.01324048  0.08716786  1
  Mn  Mn4  1  0.49866983  0.16672903  0.35090838  1
  Mn  Mn5  1  0.00086087  0.17253627  0.35453901  1
  Mn  Mn6  1  0.50067899  0.34707338  0.83666414  1
  Mn  Mn7  1  0.00037573  0.34301226  0.84023718  1
  Mn  Mn8  1  0.00066174  0.65300069  0.16325309  1
  Mn  Mn9  1  0.50014047  0.65691117  0.15971189  1
  Mn  Mn10  1  0.99875363  0.83336530  0.64923139  1
  Mn  Mn11  1  0.50049769  0.82746868  0.64548904  1
  Mn  Mn12  1  0.75117665  0.66674533  0.85080983  1
  Mn  Mn13  1  0.24912736  0.67269612  0.85442550  1
  Mn  Mn14  1  0.74961292  0.84690995  0.33685162  1
  Mn  Mn15  1  0.24946265  0.84278801  0.34041130  1
  Mn  Mn16  1  0.74972152  0.15711661  0.65972138  1
  Mn  Mn17  1  0.24947010  0.15306090  0.66329670  1
  Mn  Mn18  1  0.74923507  0.32735797  0.14546431  1
  Mn  Mn19  1  0.25154046  0.33314723  0.14898548  1
  O  O20  1  0.75096753  0.96031671  0.65243608  1
  O  O21  1  0.24757623  0.95869202  0.64892721  1
  O  O22  1  0.75125881  0.68440597  0.04129115  1
  O  O23  1  0.24908337  0.68722363  0.04279546  1
  O  O24  1  0.74915941  0.31282766  0.95716973  1
  O  O25  1  0.25139693  0.31560704  0.95865778  1
  O  O26  1  0.74774856  0.04136956  0.35116745  1
  O  O27  1  0.25113479  0.03971489  0.34757683  1
  O  O28  1  0.00238122  0.45850776  0.14884120  1
  O  O29  1  0.49896514  0.46017038  0.15241440  1
  O  O30  1  0.00093782  0.18720075  0.54275847  1
  O  O31  1  0.49871695  0.18444325  0.54127216  1
  O  O32  1  0.50092636  0.81272735  0.45721899  1
  O  O33  1  0.99863262  0.81554666  0.45880600  1
  O  O34  1  0.50224952  0.54148547  0.85110728  1
  O  O35  1  0.99891024  0.53983174  0.84757670  1
  O  O36  1  0.50935480  0.80343718  0.83729744  1
  O  O37  1  0.98878422  0.80780283  0.84039520  1
  O  O38  1  0.00300893  0.85271418  0.21116380  1
  O  O39  1  0.49630261  0.85299667  0.20887579  1
  O  O40  1  0.00939506  0.19652297  0.16265249  1
  O  O41  1  0.48914393  0.19223261  0.15967649  1
  O  O42  1  0.50301896  0.14732638  0.78890496  1
  O  O43  1  0.99637583  0.14701269  0.79119768  1
  O  O44  1  0.74076209  0.30329924  0.33728458  1
  O  O45  1  0.26100230  0.30757734  0.34024331  1
  O  O46  1  0.75373457  0.35315077  0.70875453  1
  O  O47  1  0.24706696  0.35285485  0.71103087  1
  O  O48  1  0.76098743  0.69237455  0.65971945  1
  O  O49  1  0.24036153  0.69670439  0.66271711  1
  O  O50  1  0.74703504  0.64715153  0.28889551  1
  O  O51  1  0.25365635  0.64685619  0.29121415  1
