# generated using pymatgen
data_H2CO3
_symmetry_space_group_name_H-M   'P 1'
_cell_length_a   4.75012547
_cell_length_b   4.75012547
_cell_length_c   6.58336481
_cell_angle_alpha   90.00000000
_cell_angle_beta   90.00000000
_cell_angle_gamma   89.90526657
_symmetry_Int_Tables_number   1
_chemical_formula_structural   H2CO3
_chemical_formula_sum   'H4 C2 O6'
_cell_volume   148.54481286
_cell_formula_units_Z   2
loop_
 _symmetry_equiv_pos_site_id
 _symmetry_equiv_pos_as_xyz
  1  'x, y, z'
loop_
 _atom_site_type_symbol
 _atom_site_label
 _atom_site_symmetry_multiplicity
 _atom_site_fract_x
 _atom_site_fract_y
 _atom_site_fract_z
 _atom_site_occupancy
  H  H0  1  0.41669837  0.58330163  0.20829115  1
  H  H1  1  0.41669837  0.58330163  0.79170885  1
  H  H2  1  0.08330163  0.91669837  0.70829115  1
  H  H3  1  0.08330163  0.91669837  0.29170885  1
  C  C4  1  0.39757061  0.60242939  0.50000000  1
  C  C5  1  0.10242939  0.89757061  0.00000000  1
  O  O6  1  0.20904901  0.79095099  0.50000000  1
  O  O7  1  0.29095099  0.70904901  0.00000000  1
  O  O8  1  0.50546607  0.49453393  0.33383890  1
  O  O9  1  0.50546607  0.49453393  0.66616110  1
  O  O10  1  0.99453393  0.00546607  0.83383890  1
  O  O11  1  0.99453393  0.00546607  0.16616110  1
