# generated using pymatgen
data_RbSeBr3
_symmetry_space_group_name_H-M   'P 1'
_cell_length_a   5.71740658
_cell_length_b   7.49085681
_cell_length_c   9.22833323
_cell_angle_alpha   90.00000000
_cell_angle_beta   90.00000000
_cell_angle_gamma   96.92611110
_symmetry_Int_Tables_number   1
_chemical_formula_structural   RbSeBr3
_chemical_formula_sum   'Rb2 Se2 Br6'
_cell_volume   392.34936301
_cell_formula_units_Z   2
loop_
 _symmetry_equiv_pos_site_id
 _symmetry_equiv_pos_as_xyz
  1  'x, y, z'
loop_
 _atom_site_type_symbol
 _atom_site_label
 _atom_site_symmetry_multiplicity
 _atom_site_fract_x
 _atom_site_fract_y
 _atom_site_fract_z
 _atom_site_occupancy
  Rb  Rb0  1  0.79862860  0.39400415  0.99999043  1
  Rb  Rb1  1  0.20137140  0.60599585  0.49999043  1
  Se  Se2  1  0.00000082  0.99999947  0.74999128  1
  Se  Se3  1  0.99999918  0.00000053  0.24999128  1
  Br  Br4  1  0.72061428  0.69758163  0.72267857  1
  Br  Br5  1  0.27938572  0.30241837  0.22267857  1
  Br  Br6  1  0.72061331  0.69757911  0.27729322  1
  Br  Br7  1  0.27938669  0.30242089  0.77729322  1
  Br  Br8  1  0.15239372  0.88733650  0.99998549  1
  Br  Br9  1  0.84760628  0.11266350  0.49998549  1
