# generated using pymatgen
data_CaMn16O32
_symmetry_space_group_name_H-M   'P 1'
_cell_length_a   5.90713531
_cell_length_b   9.85362256
_cell_length_c   9.97251972
_cell_angle_alpha   89.98657848
_cell_angle_beta   89.99536960
_cell_angle_gamma   90.00006722
_symmetry_Int_Tables_number   1
_chemical_formula_structural   CaMn16O32
_chemical_formula_sum   'Ca1 Mn16 O32'
_cell_volume   580.46726343
_cell_formula_units_Z   1
loop_
 _symmetry_equiv_pos_site_id
 _symmetry_equiv_pos_as_xyz
  1  'x, y, z'
loop_
 _atom_site_type_symbol
 _atom_site_label
 _atom_site_symmetry_multiplicity
 _atom_site_fract_x
 _atom_site_fract_y
 _atom_site_fract_z
 _atom_site_occupancy
  Ca  Ca0  1  0.00005943  0.49651607  0.42693714  1
  Mn  Mn1  1  0.50010158  0.17135536  0.35337902  1
  Mn  Mn2  1  0.00001126  0.16347945  0.34645513  1
  Mn  Mn3  1  0.49986807  0.34908333  0.83209799  1
  Mn  Mn4  1  1.00008929  0.34729748  0.83365083  1
  Mn  Mn5  1  0.00014980  0.65655035  0.15629985  1
  Mn  Mn6  1  0.50004426  0.64725621  0.16695784  1
  Mn  Mn7  1  0.99999650  0.83321928  0.64747629  1
  Mn  Mn8  1  0.49982099  0.83092316  0.64511667  1
  Mn  Mn9  1  0.75067270  0.66676652  0.84549409  1
  Mn  Mn10  1  0.24917913  0.66678810  0.84557721  1
  Mn  Mn11  1  0.75157858  0.84753367  0.33192745  1
  Mn  Mn12  1  0.24846215  0.84728149  0.33194325  1
  Mn  Mn13  1  0.75006321  0.15093258  0.66522651  1
  Mn  Mn14  1  0.24980979  0.15104569  0.66522487  1
  Mn  Mn15  1  0.75073746  0.33099275  0.14913396  1
  Mn  Mn16  1  0.24943836  0.33102673  0.14891276  1
  O  O17  1  0.74907859  0.95686561  0.65785084  1
  O  O18  1  0.25068171  0.95687334  0.65784984  1
  O  O19  1  0.75245700  0.66443085  0.03619315  1
  O  O20  1  0.24750154  0.66440815  0.03625134  1
  O  O21  1  0.74905285  0.33303754  0.95518949  1
  O  O22  1  0.25091258  0.33303820  0.95521349  1
  O  O23  1  0.75361171  0.04089988  0.33972883  1
  O  O24  1  0.24655682  0.04087488  0.33976419  1
  O  O25  1  0.00004322  0.45778480  0.16545949  1
  O  O26  1  0.50010883  0.45359823  0.16286713  1
  O  O27  1  0.99995453  0.17349641  0.54166632  1
  O  O28  1  0.49996404  0.17264730  0.54434030  1
  O  O29  1  0.50005337  0.82929637  0.45382561  1
  O  O30  1  0.99999711  0.82761058  0.45527472  1
  O  O31  1  0.49997047  0.54222677  0.83121935  1
  O  O32  1  0.99990687  0.54150991  0.82899424  1
  O  O33  1  0.49991226  0.79609991  0.83667071  1
  O  O34  1  0.99988579  0.79639602  0.83840674  1
  O  O35  1  0.00005555  0.84683031  0.20219576  1
  O  O36  1  0.50005789  0.83968140  0.20534079  1
  O  O37  1  0.00014611  0.20139953  0.15389304  1
  O  O38  1  0.50006026  0.20319390  0.16064187  1
  O  O39  1  0.49993576  0.15531533  0.79309535  1
  O  O40  1  0.99993108  0.15381790  0.79278382  1
  O  O41  1  0.76760442  0.30737631  0.34362878  1
  O  O42  1  0.23264827  0.30736462  0.34367791  1
  O  O43  1  0.75278773  0.34594560  0.70271981  1
  O  O44  1  0.24709857  0.34598882  0.70271481  1
  O  O45  1  0.75284460  0.70137435  0.64782690  1
  O  O46  1  0.24695026  0.70139422  0.64786177  1
  O  O47  1  0.76782523  0.64843119  0.29759582  1
  O  O48  1  0.23232539  0.64840453  0.29754894  1
