# generated using pymatgen
data_SrY2Si3O10
_symmetry_space_group_name_H-M   'P 1'
_cell_length_a   6.83913335
_cell_length_b   6.98058268
_cell_length_c   9.39278917
_cell_angle_alpha   72.49251131
_cell_angle_beta   86.20442425
_cell_angle_gamma   87.80064638
_symmetry_Int_Tables_number   1
_chemical_formula_structural   SrY2Si3O10
_chemical_formula_sum   'Sr2 Y4 Si6 O20'
_cell_volume   426.63210130
_cell_formula_units_Z   2
loop_
 _symmetry_equiv_pos_site_id
 _symmetry_equiv_pos_as_xyz
  1  'x, y, z'
loop_
 _atom_site_type_symbol
 _atom_site_label
 _atom_site_symmetry_multiplicity
 _atom_site_fract_x
 _atom_site_fract_y
 _atom_site_fract_z
 _atom_site_occupancy
  Sr  Sr0  1  0.59924318  0.90675077  0.81809522  1
  Sr  Sr1  1  0.40075682  0.09324923  0.18190478  1
  Y  Y2  1  0.85891861  0.24653276  0.49117250  1
  Y  Y3  1  0.14108139  0.75346724  0.50882750  1
  Y  Y4  1  0.84072222  0.73654135  0.19037576  1
  Y  Y5  1  0.15927778  0.26345865  0.80962424  1
  Si  Si6  1  0.32665196  0.27316131  0.45811361  1
  Si  Si7  1  0.67334804  0.72683869  0.54188639  1
  Si  Si8  1  0.33425001  0.64145476  0.16921563  1
  Si  Si9  1  0.66574999  0.35854524  0.83078437  1
  Si  Si10  1  0.87741606  0.25478155  0.12557709  1
  Si  Si11  1  0.12258394  0.74521845  0.87442291  1
  O  O12  1  0.53362281  0.21055077  0.53307498  1
  O  O13  1  0.46637719  0.78944923  0.46692502  1
  O  O14  1  0.82237332  0.60308169  0.45359771  1
  O  O15  1  0.17762668  0.39691831  0.54640229  1
  O  O16  1  0.81835056  0.90010760  0.56433016  1
  O  O17  1  0.18164944  0.09989240  0.43566984  1
  O  O18  1  0.61918905  0.58638485  0.72012149  1
  O  O19  1  0.38081095  0.41361515  0.27987851  1
  O  O20  1  0.52994286  0.77636512  0.12047291  1
  O  O21  1  0.47005714  0.22363488  0.87952709  1
  O  O22  1  0.83112853  0.24211197  0.74923428  1
  O  O23  1  0.16887147  0.75788803  0.25076572  1
  O  O24  1  0.26066075  0.61471654  0.01308617  1
  O  O25  1  0.73933925  0.38528346  0.98691383  1
  O  O26  1  0.91167986  0.79144775  0.94916727  1
  O  O27  1  0.08832014  0.20855225  0.05083273  1
  O  O28  1  0.76820746  0.04463493  0.21275896  1
  O  O29  1  0.23179254  0.95536507  0.78724104  1
  O  O30  1  0.88163026  0.39290099  0.23998572  1
  O  O31  1  0.11836974  0.60709901  0.76001428  1
