# generated using pymatgen
data_CaCoO2
_symmetry_space_group_name_H-M   'P 1'
_cell_length_a   3.24538315
_cell_length_b   8.32079326
_cell_length_c   8.61723925
_cell_angle_alpha   97.98213028
_cell_angle_beta   69.52793836
_cell_angle_gamma   91.63854089
_symmetry_Int_Tables_number   1
_chemical_formula_structural   CaCoO2
_chemical_formula_sum   'Ca4 Co4 O8'
_cell_volume   215.84238115
_cell_formula_units_Z   4
loop_
 _symmetry_equiv_pos_site_id
 _symmetry_equiv_pos_as_xyz
  1  'x, y, z'
loop_
 _atom_site_type_symbol
 _atom_site_label
 _atom_site_symmetry_multiplicity
 _atom_site_fract_x
 _atom_site_fract_y
 _atom_site_fract_z
 _atom_site_occupancy
  Ca  Ca0  1  0.44751928  0.06141015  0.27404036  1
  Ca  Ca1  1  0.55821593  0.91904402  0.75631221  1
  Ca  Ca2  1  0.22398824  0.68474834  0.06664580  1
  Ca  Ca3  1  0.77066158  0.29521391  0.96373906  1
  Co  Co4  1  0.44231039  0.27091656  0.61854849  1
  Co  Co5  1  0.01866188  0.40393788  0.29675426  1
  Co  Co6  1  0.97064023  0.57704576  0.73347809  1
  Co  Co7  1  0.51899299  0.71346547  0.41184837  1
  O  O8  1  0.89173771  0.68758983  0.55542627  1
  O  O9  1  0.38151767  0.45351758  0.82002633  1
  O  O10  1  0.60597395  0.52771835  0.21119245  1
  O  O11  1  0.07315883  0.28764408  0.47475712  1
  O  O12  1  0.08947869  0.10510569  0.73797160  1
  O  O13  1  0.10781533  0.20232560  0.12841847  1
  O  O14  1  0.91504368  0.87380559  0.29489813  1
  O  O15  1  0.88952662  0.77807218  0.90200500  1
