# generated using pymatgen
data_EuBN2
_symmetry_space_group_name_H-M   'P 1'
_cell_length_a   7.02417900
_cell_length_b   7.33542626
_cell_length_c   7.33542638
_cell_angle_alpha   110.31473454
_cell_angle_beta   108.61393220
_cell_angle_gamma   108.61393251
_symmetry_Int_Tables_number   1
_chemical_formula_structural   EuBN2
_chemical_formula_sum   'Eu6 B6 N12'
_cell_volume   293.97491454
_cell_formula_units_Z   6
loop_
 _symmetry_equiv_pos_site_id
 _symmetry_equiv_pos_as_xyz
  1  'x, y, z'
loop_
 _atom_site_type_symbol
 _atom_site_label
 _atom_site_symmetry_multiplicity
 _atom_site_fract_x
 _atom_site_fract_y
 _atom_site_fract_z
 _atom_site_occupancy
  Eu  Eu0  1  0.30039735  0.55039735  0.10079469  1
  Eu  Eu1  1  0.19960265  0.89920531  0.44960265  1
  Eu  Eu2  1  0.75000000  0.55039735  0.44960265  1
  Eu  Eu3  1  0.80039735  0.10079469  0.55039735  1
  Eu  Eu4  1  0.25000000  0.44960265  0.55039735  1
  Eu  Eu5  1  0.69960265  0.44960265  0.89920531  1
  B  B6  1  0.62892976  0.87892976  0.75785951  1
  B  B7  1  0.87107024  0.24214049  0.12107024  1
  B  B8  1  0.75000000  0.87892976  0.12107024  1
  B  B9  1  0.12892976  0.75785951  0.87892976  1
  B  B10  1  0.25000000  0.12107024  0.87892976  1
  B  B11  1  0.37107024  0.12107024  0.24214049  1
  N  N12  1  0.87313020  0.12313020  0.24626040  1
  N  N13  1  0.62686980  0.75373960  0.87686980  1
  N  N14  1  0.75000000  0.12313020  0.87686980  1
  N  N15  1  0.37313020  0.24626040  0.12313020  1
  N  N16  1  0.25000000  0.87686980  0.12313020  1
  N  N17  1  0.12686980  0.87686980  0.75373960  1
  N  N18  1  0.50721004  0.75721004  0.51442008  1
  N  N19  1  0.99278996  0.48557992  0.24278996  1
  N  N20  1  0.75000000  0.75721004  0.24278996  1
  N  N21  1  0.00721004  0.51442008  0.75721004  1
  N  N22  1  0.25000000  0.24278996  0.75721004  1
  N  N23  1  0.49278996  0.24278996  0.48557992  1
