# generated using pymatgen
data_HoB2Rh3
_symmetry_space_group_name_H-M   'P 1'
_cell_length_a   3.12926406
_cell_length_b   5.42712721
_cell_length_c   5.42699063
_cell_angle_alpha   59.99917370
_cell_angle_beta   89.92111137
_cell_angle_gamma   89.84222684
_symmetry_Int_Tables_number   1
_chemical_formula_structural   HoB2Rh3
_chemical_formula_sum   'Ho1 B2 Rh3'
_cell_volume   79.81723035
_cell_formula_units_Z   1
loop_
 _symmetry_equiv_pos_site_id
 _symmetry_equiv_pos_as_xyz
  1  'x, y, z'
loop_
 _atom_site_type_symbol
 _atom_site_label
 _atom_site_symmetry_multiplicity
 _atom_site_fract_x
 _atom_site_fract_y
 _atom_site_fract_z
 _atom_site_occupancy
  Ho  Ho0  1  0.50000000  0.50000000  0.00000000  1
  B  B1  1  0.50000000  0.16683793  0.66632414  1
  B  B2  1  0.50000000  0.83316207  0.33367586  1
  Rh  Rh3  1  0.00000000  -0.00000000  0.50000000  1
  Rh  Rh4  1  0.00000000  0.50000000  0.50000000  1
  Rh  Rh5  1  -0.00000000  0.00000000  0.00000000  1
