# generated using pymatgen
data_Ce2HfSe5
_symmetry_space_group_name_H-M   'P 1'
_cell_length_a   11.97107579
_cell_length_b   7.70753931
_cell_length_c   8.44992517
_cell_angle_alpha   90.00000000
_cell_angle_beta   90.00000000
_cell_angle_gamma   90.00000000
_symmetry_Int_Tables_number   1
_chemical_formula_structural   Ce2HfSe5
_chemical_formula_sum   'Ce8 Hf4 Se20'
_cell_volume   779.65378525
_cell_formula_units_Z   4
loop_
 _symmetry_equiv_pos_site_id
 _symmetry_equiv_pos_as_xyz
  1  'x, y, z'
loop_
 _atom_site_type_symbol
 _atom_site_label
 _atom_site_symmetry_multiplicity
 _atom_site_fract_x
 _atom_site_fract_y
 _atom_site_fract_z
 _atom_site_occupancy
  Ce  Ce0  1  0.17370919  0.05190864  0.99853223  1
  Ce  Ce1  1  0.32629081  0.55190864  0.00146777  1
  Ce  Ce2  1  0.67370919  0.44809336  0.50146777  1
  Ce  Ce3  1  0.82629081  0.94809236  0.49853223  1
  Ce  Ce4  1  0.82629081  0.94809236  0.00146777  1
  Ce  Ce5  1  0.67370919  0.44809336  0.99853223  1
  Ce  Ce6  1  0.32629081  0.55190864  0.49853223  1
  Ce  Ce7  1  0.17370919  0.05190864  0.50146777  1
  Hf  Hf8  1  0.00910469  0.57533129  0.25000000  1
  Hf  Hf9  1  0.49089531  0.07533129  0.74999900  1
  Hf  Hf10  1  0.50910469  0.92466971  0.25000000  1
  Hf  Hf11  1  0.99089531  0.42466871  0.74999900  1
  Se  Se12  1  0.29103651  0.83479522  0.25000000  1
  Se  Se13  1  0.20896449  0.33479422  0.74999900  1
  Se  Se14  1  0.79103651  0.66520478  0.25000000  1
  Se  Se15  1  0.70896449  0.16520578  0.74999900  1
  Se  Se16  1  0.50572299  0.55481111  0.25000000  1
  Se  Se17  1  0.99427801  0.05481111  0.74999900  1
  Se  Se18  1  0.00572299  0.94518989  0.25000000  1
  Se  Se19  1  0.49427801  0.44518889  0.74999900  1
  Se  Se20  1  0.18980989  0.35333027  0.25000000  1
  Se  Se21  1  0.31019011  0.85333027  0.74999900  1
  Se  Se22  1  0.68980989  0.14666973  0.25000000  1
  Se  Se23  1  0.81019011  0.64666973  0.74999900  1
  Se  Se24  1  0.42297451  0.17637059  0.03769923  1
  Se  Se25  1  0.07702549  0.67637059  0.96229977  1
  Se  Se26  1  0.92297351  0.32362941  0.46229977  1
  Se  Se27  1  0.57702649  0.82362841  0.53769923  1
  Se  Se28  1  0.57702649  0.82362841  0.96229977  1
  Se  Se29  1  0.92297351  0.32362941  0.03769923  1
  Se  Se30  1  0.07702549  0.67637059  0.53769923  1
  Se  Se31  1  0.42297451  0.17637059  0.46229977  1
