# generated using pymatgen
data_Na5B(SO4)4
_symmetry_space_group_name_H-M   'P 1'
_cell_length_a   8.71275220
_cell_length_b   9.41709849
_cell_length_c   16.91315165
_cell_angle_alpha   90.00000000
_cell_angle_beta   90.00000000
_cell_angle_gamma   90.00000000
_symmetry_Int_Tables_number   1
_chemical_formula_structural   Na5B(SO4)4
_chemical_formula_sum   'Na20 B4 S16 O64'
_cell_volume   1387.70456811
_cell_formula_units_Z   4
loop_
 _symmetry_equiv_pos_site_id
 _symmetry_equiv_pos_as_xyz
  1  'x, y, z'
loop_
 _atom_site_type_symbol
 _atom_site_label
 _atom_site_symmetry_multiplicity
 _atom_site_fract_x
 _atom_site_fract_y
 _atom_site_fract_z
 _atom_site_occupancy
  Na  Na0  1  0.77711543  0.66301143  0.20854231  1
  Na  Na1  1  0.72288457  0.33698857  0.70854231  1
  Na  Na2  1  0.27711543  0.83698857  0.79145769  1
  Na  Na3  1  0.22288457  0.16301143  0.29145769  1
  Na  Na4  1  0.33021397  0.45492774  0.42451167  1
  Na  Na5  1  0.16978603  0.54507226  0.92451167  1
  Na  Na6  1  0.83021397  0.04507226  0.57548833  1
  Na  Na7  1  0.66978603  0.95492774  0.07548833  1
  Na  Na8  1  0.97276748  0.50745724  0.56157853  1
  Na  Na9  1  0.52723252  0.49254276  0.06157853  1
  Na  Na10  1  0.47276748  0.99254276  0.43842147  1
  Na  Na11  1  0.02723252  0.00745724  0.93842147  1
  Na  Na12  1  0.15305971  0.78331231  0.34379605  1
  Na  Na13  1  0.34694029  0.21668769  0.84379605  1
  Na  Na14  1  0.65305971  0.71668769  0.65620395  1
  Na  Na15  1  0.84694029  0.28331231  0.15620395  1
  Na  Na16  1  0.82812440  0.10957379  0.36749615  1
  Na  Na17  1  0.67187560  0.89042621  0.86749615  1
  Na  Na18  1  0.32812440  0.39042621  0.63250385  1
  Na  Na19  1  0.17187560  0.60957379  0.13250385  1
  B  B20  1  0.71937586  0.51508567  0.38269433  1
  B  B21  1  0.78062414  0.48491433  0.88269433  1
  B  B22  1  0.21937586  0.98491433  0.61730567  1
  B  B23  1  0.28062414  0.01508567  0.11730567  1
  S  S24  1  -0.00018588  0.45313080  0.30071653  1
  S  S25  1  0.50018588  0.54686920  0.80071653  1
  S  S26  1  0.49981412  0.04686920  0.69928347  1
  S  S27  1  0.00018588  0.95313080  0.19928347  1
  S  S28  1  0.79378308  0.75775152  0.45989837  1
  S  S29  1  0.70621692  0.24224848  0.95989837  1
  S  S30  1  0.29378308  0.74224848  0.54010163  1
  S  S31  1  0.20621692  0.25775152  0.04010163  1
  S  S32  1  0.55889779  0.37046499  0.26667047  1
  S  S33  1  0.94110221  0.62953501  0.76667047  1
  S  S34  1  0.05889779  0.12953501  0.73332953  1
  S  S35  1  0.44110221  0.87046499  0.23332953  1
  S  S36  1  0.67148398  0.32830226  0.50505060  1
  S  S37  1  0.82851602  0.67169774  0.00505060  1
  S  S38  1  0.17148398  0.17169774  0.49494940  1
  S  S39  1  0.32851602  0.82830226  0.99494940  1
  O  O40  1  0.12045623  0.52654160  0.34481160  1
  O  O41  1  0.37954377  0.47345840  0.84481160  1
  O  O42  1  0.62045623  0.97345840  0.65518840  1
  O  O43  1  0.87954377  0.02654160  0.15518840  1
  O  O44  1  0.00707110  0.47911848  0.21479637  1
  O  O45  1  0.49292890  0.52088152  0.71479637  1
  O  O46  1  0.50707110  0.02088152  0.78520363  1
  O  O47  1  0.99292890  0.97911848  0.28520363  1
  O  O48  1  0.99167427  0.30115866  0.31874262  1
  O  O49  1  0.50832573  0.69884134  0.81874262  1
  O  O50  1  0.49167427  0.19884134  0.68125738  1
  O  O51  1  0.00832573  0.80115866  0.18125738  1
  O  O52  1  0.72184048  0.89938492  0.45597378  1
  O  O53  1  0.77815952  0.10061508  0.95597378  1
  O  O54  1  0.22184048  0.60061508  0.54402622  1
  O  O55  1  0.27815952  0.39938492  0.04402622  1
  O  O56  1  0.79984645  0.70405852  0.54175988  1
  O  O57  1  0.70015355  0.29594148  0.04175988  1
  O  O58  1  0.29984645  0.79594148  0.45824012  1
  O  O59  1  0.20015355  0.20405852  0.95824012  1
  O  O60  1  0.94253000  0.75180930  0.42156461  1
  O  O61  1  0.55747000  0.24819070  0.92156461  1
  O  O62  1  0.44253000  0.74819070  0.57843539  1
  O  O63  1  0.05747000  0.25180930  0.07843539  1
  O  O64  1  0.65953537  0.24657686  0.27486151  1
  O  O65  1  0.84046463  0.75342314  0.77486151  1
  O  O66  1  0.15953537  0.25342314  0.72513849  1
  O  O67  1  0.34046463  0.74657686  0.22513849  1
  O  O68  1  0.39519748  0.33952601  0.26594861  1
  O  O69  1  0.10480252  0.66047399  0.76594861  1
  O  O70  1  0.89519748  0.16047399  0.73405139  1
  O  O71  1  0.60480252  0.83952601  0.23405139  1
  O  O72  1  0.60786412  0.46047190  0.19974019  1
  O  O73  1  0.89213588  0.53952810  0.69974019  1
  O  O74  1  0.10786412  0.03952810  0.80025981  1
  O  O75  1  0.39213588  0.96047190  0.30025981  1
  O  O76  1  0.77093171  0.31643753  0.57518811  1
  O  O77  1  0.72906829  0.68356247  0.07518811  1
  O  O78  1  0.27093171  0.18356247  0.42481189  1
  O  O79  1  0.22906829  0.81643753  0.92481189  1
  O  O80  1  0.52763100  0.40355527  0.51995521  1
  O  O81  1  0.97236900  0.59644473  0.01995521  1
  O  O82  1  0.02763100  0.09644473  0.48004479  1
  O  O83  1  0.47236900  0.90355527  0.98004479  1
  O  O84  1  0.65064697  0.18932951  0.46695468  1
  O  O85  1  0.84935303  0.81067049  0.96695468  1
  O  O86  1  0.15064697  0.31067049  0.53304532  1
  O  O87  1  0.34935303  0.68932951  0.03304532  1
  O  O88  1  0.84186536  0.52655771  0.32187825  1
  O  O89  1  0.65813464  0.47344229  0.82187825  1
  O  O90  1  0.34186536  0.97344229  0.67812175  1
  O  O91  1  0.15813464  0.02655771  0.17812175  1
  O  O92  1  0.67953704  0.65836445  0.41174272  1
  O  O93  1  0.82046296  0.34163555  0.91174272  1
  O  O94  1  0.17953704  0.84163555  0.58825728  1
  O  O95  1  0.32046296  0.15836445  0.08825728  1
  O  O96  1  0.57466029  0.46423275  0.34596460  1
  O  O97  1  0.92533971  0.53576725  0.84596460  1
  O  O98  1  0.07466029  0.03576725  0.65403540  1
  O  O99  1  0.42533971  0.96423275  0.15403540  1
  O  O100  1  0.77483359  0.42021317  0.44687040  1
  O  O101  1  0.72516641  0.57978683  0.94687040  1
  O  O102  1  0.27483359  0.07978683  0.55312960  1
  O  O103  1  0.22516641  0.92021317  0.05312960  1
