# generated using pymatgen
data_NaGe2(PO4)3
_symmetry_space_group_name_H-M   'P 1'
_cell_length_a   8.68668607
_cell_length_b   8.68668635
_cell_length_c   8.68668631
_cell_angle_alpha   57.45534098
_cell_angle_beta   57.45533726
_cell_angle_gamma   57.45534205
_symmetry_Int_Tables_number   1
_chemical_formula_structural   NaGe2(PO4)3
_chemical_formula_sum   'Na2 Ge4 P6 O24'
_cell_volume   436.36468843
_cell_formula_units_Z   2
loop_
 _symmetry_equiv_pos_site_id
 _symmetry_equiv_pos_as_xyz
  1  'x, y, z'
loop_
 _atom_site_type_symbol
 _atom_site_label
 _atom_site_symmetry_multiplicity
 _atom_site_fract_x
 _atom_site_fract_y
 _atom_site_fract_z
 _atom_site_occupancy
  Na  Na0  1  0.00000000  -0.00000000  -0.00000000  1
  Na  Na1  1  0.50000000  0.50000000  0.50000000  1
  Ge  Ge2  1  0.35467038  0.35467038  0.35467038  1
  Ge  Ge3  1  0.14532962  0.14532962  0.14532962  1
  Ge  Ge4  1  0.85467038  0.85467038  0.85467038  1
  Ge  Ge5  1  0.64532962  0.64532962  0.64532962  1
  P  P6  1  0.75000000  0.46454336  0.03545664  1
  P  P7  1  0.46454336  0.03545664  0.75000000  1
  P  P8  1  0.25000000  0.53545664  0.96454336  1
  P  P9  1  0.53545664  0.96454336  0.25000000  1
  P  P10  1  0.03545664  0.75000000  0.46454336  1
  P  P11  1  0.96454336  0.25000000  0.53545664  1
  O  O12  1  0.77796932  0.43082056  0.55906901  1
  O  O13  1  0.43082056  0.55906901  0.77796932  1
  O  O14  1  0.55906901  0.77796932  0.43082056  1
  O  O15  1  0.94093099  0.06917944  0.72203068  1
  O  O16  1  0.06917944  0.72203068  0.94093099  1
  O  O17  1  0.72203068  0.94093099  0.06917944  1
  O  O18  1  0.22203068  0.56917944  0.44093099  1
  O  O19  1  0.56917944  0.44093099  0.22203068  1
  O  O20  1  0.44093099  0.22203068  0.56917944  1
  O  O21  1  0.05906901  0.93082056  0.27796932  1
  O  O22  1  0.93082056  0.27796932  0.05906901  1
  O  O23  1  0.27796932  0.05906901  0.93082056  1
  O  O24  1  0.35923512  0.98617165  0.22868850  1
  O  O25  1  0.22868850  0.35923512  0.98617165  1
  O  O26  1  0.98617165  0.22868850  0.35923512  1
  O  O27  1  0.51382835  0.14076488  0.27131150  1
  O  O28  1  0.27131150  0.51382835  0.14076488  1
  O  O29  1  0.14076488  0.27131150  0.51382835  1
  O  O30  1  0.64076488  0.01382835  0.77131150  1
  O  O31  1  0.77131150  0.64076488  0.01382835  1
  O  O32  1  0.01382835  0.77131150  0.64076488  1
  O  O33  1  0.48617165  0.85923512  0.72868850  1
  O  O34  1  0.72868850  0.48617165  0.85923512  1
  O  O35  1  0.85923512  0.72868850  0.48617165  1
