# generated using pymatgen
data_Li(CrS2)2
_symmetry_space_group_name_H-M   'P 1'
_cell_length_a   7.01047784
_cell_length_b   7.01047760
_cell_length_c   7.09659191
_cell_angle_alpha   119.59939777
_cell_angle_beta   119.59939558
_cell_angle_gamma   90.00000408
_symmetry_Int_Tables_number   1
_chemical_formula_structural   Li(CrS2)2
_chemical_formula_sum   'Li2 Cr4 S8'
_cell_volume   249.57775531
_cell_formula_units_Z   2
loop_
 _symmetry_equiv_pos_site_id
 _symmetry_equiv_pos_as_xyz
  1  'x, y, z'
loop_
 _atom_site_type_symbol
 _atom_site_label
 _atom_site_symmetry_multiplicity
 _atom_site_fract_x
 _atom_site_fract_y
 _atom_site_fract_z
 _atom_site_occupancy
  Li  Li0  1  0.37500100  0.62500100  0.75000000  1
  Li  Li1  1  0.62499900  0.37500000  0.25000000  1
  Cr  Cr2  1  -0.00000000  0.50000100  0.00000100  1
  Cr  Cr3  1  0.00000100  -0.00000000  0.50000000  1
  Cr  Cr4  1  0.50000100  -0.00000000  0.50000000  1
  Cr  Cr5  1  -0.00000000  -0.00000000  -0.00000000  1
  S  S6  1  0.76450837  0.78180571  0.52901875  1
  S  S7  1  0.75278796  0.23549263  0.97098325  1
  S  S8  1  0.21819529  0.23549263  0.97098225  1
  S  S9  1  0.23549163  0.21819429  0.47098225  1
  S  S10  1  0.23549063  0.75278696  0.47098125  1
  S  S11  1  0.24721204  0.76450837  0.02901875  1
  S  S12  1  0.76450837  0.24721204  0.52901775  1
  S  S13  1  0.78180471  0.76450837  0.02901775  1
