# generated using pymatgen
data_MgNiP2O7
_symmetry_space_group_name_H-M   'P 1'
_cell_length_a   5.55866349
_cell_length_b   6.42149098
_cell_length_c   7.35099174
_cell_angle_alpha   82.92330587
_cell_angle_beta   87.76647388
_cell_angle_gamma   71.19168854
_symmetry_Int_Tables_number   1
_chemical_formula_structural   MgNiP2O7
_chemical_formula_sum   'Mg2 Ni2 P4 O14'
_cell_volume   246.48962366
_cell_formula_units_Z   2
loop_
 _symmetry_equiv_pos_site_id
 _symmetry_equiv_pos_as_xyz
  1  'x, y, z'
loop_
 _atom_site_type_symbol
 _atom_site_label
 _atom_site_symmetry_multiplicity
 _atom_site_fract_x
 _atom_site_fract_y
 _atom_site_fract_z
 _atom_site_occupancy
  Mg  Mg0  1  0.33318926  0.66056206  0.65588090  1
  Mg  Mg1  1  0.66681083  0.33943855  0.34411896  1
  Ni  Ni2  1  0.25100124  0.15612425  0.20724420  1
  Ni  Ni3  1  0.74899916  0.84387488  0.79275589  1
  P  P4  1  0.18256030  0.68059523  0.09878740  1
  P  P5  1  0.81744079  0.31940249  0.90121357  1
  P  P6  1  0.23250168  0.20275339  0.61246647  1
  P  P7  1  0.76749859  0.79724680  0.38753320  1
  O  O8  1  0.10330504  0.69750438  0.89792140  1
  O  O9  1  0.89669528  0.30249436  0.10207840  1
  O  O10  1  0.28814952  0.85923944  0.13801059  1
  O  O11  1  0.71185083  0.14075957  0.86198896  1
  O  O12  1  0.35334601  0.44372910  0.16731597  1
  O  O13  1  0.64665376  0.55627025  0.83268426  1
  O  O14  1  0.60969256  0.64231882  0.43673148  1
  O  O15  1  0.39030689  0.35768205  0.56326886  1
  O  O16  1  0.05061726  0.21415143  0.45545618  1
  O  O17  1  0.94938340  0.78584860  0.54454388  1
  O  O18  1  0.07933653  0.29378715  0.78941390  1
  O  O19  1  0.60904106  0.03860431  0.32437513  1
  O  O20  1  0.39096030  0.96139591  0.67562432  1
  O  O21  1  0.92066369  0.70621199  0.21058609  1
