# generated using pymatgen
data_MgMnP2O7
_symmetry_space_group_name_H-M   'P 1'
_cell_length_a   5.58571719
_cell_length_b   6.53992980
_cell_length_c   7.42800035
_cell_angle_alpha   81.91903745
_cell_angle_beta   86.32929945
_cell_angle_gamma   71.73204368
_symmetry_Int_Tables_number   1
_chemical_formula_structural   MgMnP2O7
_chemical_formula_sum   'Mg2 Mn2 P4 O14'
_cell_volume   255.05467547
_cell_formula_units_Z   2
loop_
 _symmetry_equiv_pos_site_id
 _symmetry_equiv_pos_as_xyz
  1  'x, y, z'
loop_
 _atom_site_type_symbol
 _atom_site_label
 _atom_site_symmetry_multiplicity
 _atom_site_fract_x
 _atom_site_fract_y
 _atom_site_fract_z
 _atom_site_occupancy
  Mg  Mg0  1  0.33341842  0.65732799  0.64996693  1
  Mg  Mg1  1  0.66657589  0.34266211  0.35004311  1
  Mn  Mn2  1  0.25887051  0.15432467  0.19921570  1
  Mn  Mn3  1  0.74115270  0.84570922  0.80072401  1
  P  P4  1  0.19371626  0.67778280  0.09267142  1
  P  P5  1  0.80627606  0.32222742  0.90733250  1
  P  P6  1  0.22030981  0.20345828  0.61536431  1
  P  P7  1  0.77968444  0.79652961  0.38463854  1
  O  O8  1  0.11551764  0.68616826  0.89640626  1
  O  O9  1  0.88446739  0.31384880  0.10359970  1
  O  O10  1  0.30189903  0.85629590  0.11918349  1
  O  O11  1  0.69809080  0.14371228  0.88082567  1
  O  O12  1  0.35940396  0.45021520  0.16998072  1
  O  O13  1  0.64061019  0.54979324  0.83001153  1
  O  O14  1  0.61361722  0.64781659  0.43457643  1
  O  O15  1  0.38638721  0.35216633  0.56543456  1
  O  O16  1  0.03567233  0.22316194  0.46390251  1
  O  O17  1  0.96432758  0.77682953  0.53610211  1
  O  O18  1  0.07318194  0.28778633  0.79626222  1
  O  O19  1  0.62706893  0.03527429  0.32880325  1
  O  O20  1  0.37292653  0.96471110  0.67119893  1
  O  O21  1  0.92683018  0.71219310  0.20375611  1
