# generated using pymatgen
data_MgFe(GeO3)2
_symmetry_space_group_name_H-M   'P 1'
_cell_length_a   5.24943227
_cell_length_b   6.71755097
_cell_length_c   6.71755101
_cell_angle_alpha   86.12432876
_cell_angle_beta   82.25283329
_cell_angle_gamma   82.25282780
_symmetry_Int_Tables_number   1
_chemical_formula_structural   MgFe(GeO3)2
_chemical_formula_sum   'Mg2 Fe2 Ge4 O12'
_cell_volume   232.28385363
_cell_formula_units_Z   2
loop_
 _symmetry_equiv_pos_site_id
 _symmetry_equiv_pos_as_xyz
  1  'x, y, z'
loop_
 _atom_site_type_symbol
 _atom_site_label
 _atom_site_symmetry_multiplicity
 _atom_site_fract_x
 _atom_site_fract_y
 _atom_site_fract_z
 _atom_site_occupancy
  Mg  Mg0  1  0.75000000  0.27103853  0.72896147  1
  Mg  Mg1  1  0.25000000  0.72896147  0.27103853  1
  Fe  Fe2  1  0.75000000  0.90861131  0.09138869  1
  Fe  Fe3  1  0.25000000  0.09138869  0.90861131  1
  Ge  Ge4  1  0.78431910  0.39571467  0.20622517  1
  Ge  Ge5  1  0.71568090  0.79377483  0.60428533  1
  Ge  Ge6  1  0.21568090  0.60428533  0.79377483  1
  Ge  Ge7  1  0.28431910  0.20622517  0.39571467  1
  O  O8  1  0.59195755  0.29221113  0.42757608  1
  O  O9  1  0.90804245  0.57242392  0.70778887  1
  O  O10  1  0.40804245  0.70778887  0.57242392  1
  O  O11  1  0.09195755  0.42757608  0.29221113  1
  O  O12  1  0.11485447  0.14546076  0.62578383  1
  O  O13  1  0.38514553  0.37421617  0.85453924  1
  O  O14  1  0.88514553  0.85453924  0.37421617  1
  O  O15  1  0.61485447  0.62578383  0.14546076  1
  O  O16  1  0.85860976  0.21377701  0.02208233  1
  O  O17  1  0.64139024  0.97791767  0.78622299  1
  O  O18  1  0.14139024  0.78622299  0.97791767  1
  O  O19  1  0.35860976  0.02208233  0.21377701  1
