# generated using pymatgen
data_CaFeBiO5
_symmetry_space_group_name_H-M   'P 1'
_cell_length_a   5.91120383
_cell_length_b   8.84648308
_cell_length_c   10.55800567
_cell_angle_alpha   90.00000000
_cell_angle_beta   90.00000000
_cell_angle_gamma   112.22289038
_symmetry_Int_Tables_number   1
_chemical_formula_structural   CaFeBiO5
_chemical_formula_sum   'Ca4 Fe4 Bi4 O20'
_cell_volume   511.10239548
_cell_formula_units_Z   4
loop_
 _symmetry_equiv_pos_site_id
 _symmetry_equiv_pos_as_xyz
  1  'x, y, z'
loop_
 _atom_site_type_symbol
 _atom_site_label
 _atom_site_symmetry_multiplicity
 _atom_site_fract_x
 _atom_site_fract_y
 _atom_site_fract_z
 _atom_site_occupancy
  Ca  Ca0  1  0.64704022  0.17894867  0.90328461  1
  Ca  Ca1  1  0.35295978  0.82105133  0.09671539  1
  Ca  Ca2  1  0.85295978  0.32105133  0.40328461  1
  Ca  Ca3  1  0.14704022  0.67894867  0.59671539  1
  Fe  Fe4  1  0.82610198  0.93993654  0.61794136  1
  Fe  Fe5  1  0.17389802  0.06006346  0.38205864  1
  Fe  Fe6  1  0.67389802  0.56006346  0.11794136  1
  Fe  Fe7  1  0.32610198  0.43993654  0.88205864  1
  Bi  Bi8  1  0.14167608  0.15663800  0.09870562  1
  Bi  Bi9  1  0.85832392  0.84336200  0.90129438  1
  Bi  Bi10  1  0.64167608  0.65663800  0.40129438  1
  Bi  Bi11  1  0.35832392  0.34336200  0.59870562  1
  O  O12  1  0.49388684  0.34589384  0.04556075  1
  O  O13  1  0.03952330  0.31520627  0.97861271  1
  O  O14  1  0.51885597  0.68440400  0.22041439  1
  O  O15  1  0.72935859  0.51214968  0.54462979  1
  O  O16  1  0.79832929  0.52271874  0.28043599  1
  O  O17  1  0.29832929  0.02271874  0.21956401  1
  O  O18  1  0.53952330  0.81520627  0.52138729  1
  O  O19  1  0.46047670  0.18479373  0.47861271  1
  O  O20  1  0.27064141  0.48785032  0.45537021  1
  O  O21  1  0.00611316  0.15410616  0.54556075  1
  O  O22  1  0.20167071  0.47728126  0.71956401  1
  O  O23  1  0.50611316  0.65410616  0.95443925  1
  O  O24  1  0.99388684  0.84589384  0.45443925  1
  O  O25  1  0.70167071  0.97728126  0.78043599  1
  O  O26  1  0.77064141  0.98785032  0.04462979  1
  O  O27  1  0.22935859  0.01214968  0.95537021  1
  O  O28  1  0.48114403  0.31559600  0.77958561  1
  O  O29  1  0.96047670  0.68479373  0.02138729  1
  O  O30  1  0.98114403  0.81559600  0.72041439  1
  O  O31  1  0.01885597  0.18440400  0.27958561  1
