# generated using pymatgen
data_MgMn(SiO3)2
_symmetry_space_group_name_H-M   'P 1'
_cell_length_a   5.33493410
_cell_length_b   9.09724568
_cell_length_c   18.66405335
_cell_angle_alpha   90.00000000
_cell_angle_beta   90.00000000
_cell_angle_gamma   90.00000000
_symmetry_Int_Tables_number   1
_chemical_formula_structural   MgMn(SiO3)2
_chemical_formula_sum   'Mg8 Mn8 Si16 O48'
_cell_volume   905.82634966
_cell_formula_units_Z   8
loop_
 _symmetry_equiv_pos_site_id
 _symmetry_equiv_pos_as_xyz
  1  'x, y, z'
loop_
 _atom_site_type_symbol
 _atom_site_label
 _atom_site_symmetry_multiplicity
 _atom_site_fract_x
 _atom_site_fract_y
 _atom_site_fract_z
 _atom_site_occupancy
  Mg  Mg0  1  0.61627253  0.15103886  0.62507424  1
  Mg  Mg1  1  0.38372747  0.84896114  0.37492576  1
  Mg  Mg2  1  0.61627253  0.65103886  0.87492576  1
  Mg  Mg3  1  0.11627253  0.84896114  0.87492576  1
  Mg  Mg4  1  0.88372747  0.15103886  0.12507424  1
  Mg  Mg5  1  0.38372747  0.34896114  0.12507424  1
  Mg  Mg6  1  0.11627253  0.34896114  0.62507424  1
  Mg  Mg7  1  0.88372747  0.65103886  0.37492576  1
  Mn  Mn8  1  0.38055533  0.98445847  0.12313811  1
  Mn  Mn9  1  0.61944467  0.01554153  0.87686189  1
  Mn  Mn10  1  0.88055533  0.01554153  0.37686189  1
  Mn  Mn11  1  0.11944467  0.98445847  0.62313811  1
  Mn  Mn12  1  0.38055533  0.48445847  0.37686189  1
  Mn  Mn13  1  0.61944467  0.51554153  0.62313811  1
  Mn  Mn14  1  0.88055533  0.51554153  0.12313811  1
  Mn  Mn15  1  0.11944467  0.48445847  0.87686189  1
  Si  Si16  1  0.55967234  0.66092213  0.22895088  1
  Si  Si17  1  0.70797969  0.83662504  0.52408069  1
  Si  Si18  1  0.79202031  0.83662504  0.02408069  1
  Si  Si19  1  0.94032766  0.16092213  0.77104912  1
  Si  Si20  1  0.05967234  0.33907787  0.27104912  1
  Si  Si21  1  0.44032766  0.83907787  0.72895088  1
  Si  Si22  1  0.20797969  0.66337496  0.52408069  1
  Si  Si23  1  0.70797969  0.33662504  0.97591931  1
  Si  Si24  1  0.79202031  0.33662504  0.47591931  1
  Si  Si25  1  0.94032766  0.66092213  0.72895088  1
  Si  Si26  1  0.44032766  0.33907787  0.77104912  1
  Si  Si27  1  0.55967234  0.16092213  0.27104912  1
  Si  Si28  1  0.29202031  0.16337496  0.47591931  1
  Si  Si29  1  0.05967234  0.83907787  0.22895088  1
  Si  Si30  1  0.29202031  0.66337496  0.02408069  1
  Si  Si31  1  0.20797969  0.16337496  0.97591931  1
  O  O32  1  0.94352268  0.50256615  0.68977874  1
  O  O33  1  0.28593028  0.01288572  0.93559684  1
  O  O34  1  0.05647732  0.49743385  0.31022126  1
  O  O35  1  0.70755509  0.33632452  0.06365819  1
  O  O36  1  0.20755409  0.16367548  0.06365819  1
  O  O37  1  0.91997548  0.21154226  0.94883141  1
  O  O38  1  0.94410073  0.66470817  0.81640533  1
  O  O39  1  0.05589927  0.83529183  0.31640533  1
  O  O40  1  0.70755509  0.83632452  0.43634181  1
  O  O41  1  0.94410073  0.16470817  0.68359467  1
  O  O42  1  0.44352268  0.49743385  0.81022126  1
  O  O43  1  0.79244491  0.33632452  0.56365819  1
  O  O44  1  0.71406972  0.98711428  0.06440316  1
  O  O45  1  0.44410073  0.83529183  0.81640533  1
  O  O46  1  0.55647732  0.00256615  0.31022126  1
  O  O47  1  0.28593028  0.51288572  0.56440316  1
  O  O48  1  0.44352268  0.99743385  0.68977874  1
  O  O49  1  0.16955244  0.76827497  0.69873357  1
  O  O50  1  0.33044756  0.76827497  0.19873357  1
  O  O51  1  0.58002452  0.71154226  0.05116859  1
  O  O52  1  0.79244491  0.83632452  0.93634181  1
  O  O53  1  0.55589927  0.66470817  0.31640533  1
  O  O54  1  0.78593028  0.48711428  0.93559684  1
  O  O55  1  0.16955244  0.26827497  0.80126643  1
  O  O56  1  0.29244491  0.16367548  0.56365819  1
  O  O57  1  0.55589927  0.16470817  0.18359467  1
  O  O58  1  0.71406972  0.48711428  0.43559684  1
  O  O59  1  0.20755409  0.66367548  0.43634181  1
  O  O60  1  0.21406972  0.51288572  0.06440316  1
  O  O61  1  0.66955244  0.73172503  0.69873357  1
  O  O62  1  0.05647732  0.99743385  0.18977874  1
  O  O63  1  0.83044756  0.73172503  0.19873357  1
  O  O64  1  0.83044756  0.23172503  0.30126643  1
  O  O65  1  0.78593028  0.98711428  0.56440316  1
  O  O66  1  0.29244491  0.66367548  0.93634181  1
  O  O67  1  0.21406972  0.01288572  0.43559684  1
  O  O68  1  0.33044756  0.26827497  0.30126643  1
  O  O69  1  0.08002452  0.78845774  0.05116859  1
  O  O70  1  0.41997548  0.78845774  0.55116859  1
  O  O71  1  0.66955244  0.23172503  0.80126643  1
  O  O72  1  0.41997548  0.28845774  0.94883141  1
  O  O73  1  0.58002452  0.21154226  0.44883141  1
  O  O74  1  0.08002452  0.28845774  0.44883141  1
  O  O75  1  0.44410073  0.33529183  0.68359467  1
  O  O76  1  0.55647732  0.50256615  0.18977874  1
  O  O77  1  0.91997548  0.71154226  0.55116859  1
  O  O78  1  0.05589927  0.33529183  0.18359467  1
  O  O79  1  0.94352268  0.00256615  0.81022126  1
