# generated using pymatgen
data_MgMn(PO3)4
_symmetry_space_group_name_H-M   'P 1'
_cell_length_a   7.37548327
_cell_length_b   7.37370054
_cell_length_c   9.97608752
_cell_angle_alpha   99.16933754
_cell_angle_beta   109.10423853
_cell_angle_gamma   110.01858401
_symmetry_Int_Tables_number   1
_chemical_formula_structural   MgMn(PO3)4
_chemical_formula_sum   'Mg2 Mn2 P8 O24'
_cell_volume   458.63415857
_cell_formula_units_Z   2
loop_
 _symmetry_equiv_pos_site_id
 _symmetry_equiv_pos_as_xyz
  1  'x, y, z'
loop_
 _atom_site_type_symbol
 _atom_site_label
 _atom_site_symmetry_multiplicity
 _atom_site_fract_x
 _atom_site_fract_y
 _atom_site_fract_z
 _atom_site_occupancy
  Mg  Mg0  1  0.70847730  0.95935199  0.75018584  1
  Mg  Mg1  1  0.29175541  0.04138757  0.25001749  1
  Mn  Mn2  1  0.50007098  0.50047912  0.49982225  1
  Mn  Mn3  1  0.49943127  0.00024477  0.99978291  1
  P  P4  1  0.51224607  0.31515668  0.80741735  1
  P  P5  1  0.00656461  0.70569747  0.69246564  1
  P  P6  1  0.48903097  0.68635144  0.19309623  1
  P  P7  1  0.99263335  0.29535219  0.30759253  1
  P  P8  1  0.76925046  0.73072914  0.02135747  1
  P  P9  1  0.20848638  0.74823404  0.47900350  1
  P  P10  1  0.23085445  0.27055332  0.97889176  1
  P  P11  1  0.79070365  0.25213443  0.52086018  1
  O  O12  1  0.32185662  0.31092811  0.85394600  1
  O  O13  1  0.95574479  0.46884221  0.64500636  1
  O  O14  1  0.67923845  0.68994833  0.14665168  1
  O  O15  1  0.04207733  0.53197734  0.35471851  1
  O  O16  1  0.72008316  0.50405545  0.93525878  1
  O  O17  1  0.06892034  0.78672228  0.56545329  1
  O  O18  1  0.28120298  0.49737325  0.06544746  1
  O  O19  1  0.93146548  0.21471357  0.43517146  1
  O  O20  1  0.46283204  0.34880554  0.65937118  1
  O  O21  1  0.18747794  0.80338554  0.84101518  1
  O  O22  1  0.53899854  0.65357460  0.34145594  1
  O  O23  1  0.81130816  0.19671929  0.15929847  1
  O  O24  1  0.55066402  0.12888513  0.82376942  1
  O  O25  1  0.80409309  0.72807681  0.67585708  1
  O  O26  1  0.45029717  0.87233254  0.17638069  1
  O  O27  1  0.19558764  0.27405886  0.32403821  1
  O  O28  1  0.63999129  0.81234372  0.91589654  1
  O  O29  1  0.39613060  0.72522703  0.58447666  1
  O  O30  1  0.35878812  0.18775801  0.08417088  1
  O  O31  1  0.60271910  0.27427824  0.41493974  1
  O  O32  1  0.00195050  0.84649493  0.09736242  1
  O  O33  1  0.24725926  0.90378189  0.40197505  1
  O  O34  1  0.99802610  0.15628229  0.90259857  1
  O  O35  1  0.75228537  0.09666689  0.59795527  1
