# generated using pymatgen
data_CaNiMoP2O9
_symmetry_space_group_name_H-M   'P 1'
_cell_length_a   6.61341607
_cell_length_b   7.63707872
_cell_length_c   14.45964867
_cell_angle_alpha   90.01946934
_cell_angle_beta   89.99013119
_cell_angle_gamma   90.02735406
_symmetry_Int_Tables_number   1
_chemical_formula_structural   CaNiMoP2O9
_chemical_formula_sum   'Ca4 Ni4 Mo4 P8 O36'
_cell_volume   730.31592963
_cell_formula_units_Z   4
loop_
 _symmetry_equiv_pos_site_id
 _symmetry_equiv_pos_as_xyz
  1  'x, y, z'
loop_
 _atom_site_type_symbol
 _atom_site_label
 _atom_site_symmetry_multiplicity
 _atom_site_fract_x
 _atom_site_fract_y
 _atom_site_fract_z
 _atom_site_occupancy
  Ca  Ca0  1  0.74991899  0.88758396  0.78134501  1
  Ca  Ca1  1  0.74998523  0.61223687  0.28131812  1
  Ca  Ca2  1  0.25004928  0.11209569  0.21839046  1
  Ca  Ca3  1  0.24998286  0.38797750  0.71845613  1
  Ni  Ni4  1  0.50016548  0.00000018  0.00016523  1
  Ni  Ni5  1  0.49975798  0.50009265  0.50006679  1
  Ni  Ni6  1  0.00009010  0.50029691  0.49995710  1
  Ni  Ni7  1  0.99976298  0.00039400  0.99990737  1
  Mo  Mo8  1  0.74996937  0.34943275  0.88284380  1
  Mo  Mo9  1  0.25009401  0.65052751  0.11713974  1
  Mo  Mo10  1  0.24999182  0.84974900  0.61718902  1
  Mo  Mo11  1  0.75038800  0.15060054  0.38290446  1
  P  P12  1  0.24995606  0.34505074  0.93521577  1
  P  P13  1  0.75007930  0.65495218  0.06467005  1
  P  P14  1  0.75005151  0.84486464  0.56470395  1
  P  P15  1  0.25020332  0.15475752  0.43533227  1
  P  P16  1  0.75005617  0.38708986  0.68948601  1
  P  P17  1  0.25002752  0.61262403  0.31053822  1
  P  P18  1  0.24997576  0.88723032  0.81043848  1
  P  P19  1  0.74999347  0.11313242  0.18964786  1
  O  O20  1  0.05394090  0.60705058  0.36756480  1
  O  O21  1  0.55370196  0.39255410  0.63252426  1
  O  O22  1  0.94613884  0.10714692  0.13256790  1
  O  O23  1  0.44625499  0.89283506  0.86756941  1
  O  O24  1  0.94596213  0.39267304  0.63240147  1
  O  O25  1  0.44629981  0.60710254  0.36752309  1
  O  O26  1  0.05364837  0.89289776  0.86756338  1
  O  O27  1  0.55382702  0.10717866  0.13262213  1
  O  O28  1  0.24987225  0.33393369  0.48305025  1
  O  O29  1  0.75001428  0.66567025  0.51692685  1
  O  O30  1  0.75016295  0.83395149  0.01686460  1
  O  O31  1  0.24982443  0.16608787  0.98307488  1
  O  O32  1  0.74976807  0.13011080  0.94280976  1
  O  O33  1  0.25046259  0.87031134  0.05764088  1
  O  O34  1  0.25008580  0.62985506  0.55764505  1
  O  O35  1  0.74908999  0.37023295  0.44247536  1
  O  O36  1  0.74994784  0.21688651  0.75243702  1
  O  O37  1  0.25005130  0.78286105  0.24766290  1
  O  O38  1  0.24986639  0.71710752  0.74758662  1
  O  O39  1  0.75020079  0.28355652  0.25237656  1
  O  O40  1  0.43174931  0.13362913  0.36833826  1
  O  O41  1  0.93146110  0.86621672  0.63154501  1
  O  O42  1  0.56856290  0.63359962  0.13158418  1
  O  O43  1  0.06843371  0.36623029  0.86832084  1
  O  O44  1  0.56855893  0.86624986  0.63150526  1
  O  O45  1  0.06852746  0.13330279  0.36841307  1
  O  O46  1  0.43155807  0.36636090  0.86836818  1
  O  O47  1  0.93163176  0.63365714  0.13154533  1
  O  O48  1  0.74954364  0.96545999  0.26635126  1
  O  O49  1  0.25004563  0.03505003  0.73391223  1
  O  O50  1  0.25002143  0.46480142  0.23379475  1
  O  O51  1  0.75009295  0.53495178  0.76623449  1
  O  O52  1  0.75034896  0.98630432  0.48936325  1
  O  O53  1  0.25002864  0.01330620  0.51026745  1
  O  O54  1  0.24988931  0.48684613  0.01028061  1
  O  O55  1  0.74992930  0.51333766  0.98956782  1
