# generated using pymatgen
data_Mg30MnFeO32
_symmetry_space_group_name_H-M   'P 1'
_cell_length_a   8.52598836
_cell_length_b   8.54762972
_cell_length_c   8.54762972
_cell_angle_alpha   90.00000000
_cell_angle_beta   90.00000000
_cell_angle_gamma   90.00000000
_symmetry_Int_Tables_number   1
_chemical_formula_structural   Mg30MnFeO32
_chemical_formula_sum   'Mg30 Mn1 Fe1 O32'
_cell_volume   622.92553844
_cell_formula_units_Z   1
loop_
 _symmetry_equiv_pos_site_id
 _symmetry_equiv_pos_as_xyz
  1  'x, y, z'
loop_
 _atom_site_type_symbol
 _atom_site_label
 _atom_site_symmetry_multiplicity
 _atom_site_fract_x
 _atom_site_fract_y
 _atom_site_fract_z
 _atom_site_occupancy
  Mg  Mg0  1  0.00000000  0.00000000  0.50000000  1
  Mg  Mg1  1  0.00000000  0.50000000  0.00000000  1
  Mg  Mg2  1  0.50000000  0.00000000  0.00000000  1
  Mg  Mg3  1  0.50000000  0.00000000  0.50000000  1
  Mg  Mg4  1  0.50000000  0.50000000  0.00000000  1
  Mg  Mg5  1  0.50000000  0.50000000  0.50000000  1
  Mg  Mg6  1  0.00000000  0.25125343  0.25125343  1
  Mg  Mg7  1  0.00000000  0.25125343  0.74874657  1
  Mg  Mg8  1  0.00000000  0.74874657  0.25125343  1
  Mg  Mg9  1  0.00000000  0.74874657  0.74874657  1
  Mg  Mg10  1  0.50000000  0.24996498  0.24996498  1
  Mg  Mg11  1  0.50000000  0.24996498  0.75003502  1
  Mg  Mg12  1  0.50000000  0.75003502  0.24996498  1
  Mg  Mg13  1  0.50000000  0.75003502  0.75003502  1
  Mg  Mg14  1  0.25047483  0.00000000  0.25071289  1
  Mg  Mg15  1  0.25047483  0.00000000  0.74928711  1
  Mg  Mg16  1  0.24988158  0.50000000  0.24878798  1
  Mg  Mg17  1  0.24988158  0.50000000  0.75121202  1
  Mg  Mg18  1  0.74952517  0.00000000  0.25071289  1
  Mg  Mg19  1  0.74952517  0.00000000  0.74928711  1
  Mg  Mg20  1  0.75011842  0.50000000  0.24878798  1
  Mg  Mg21  1  0.75011842  0.50000000  0.75121202  1
  Mg  Mg22  1  0.25047483  0.25071289  0.00000000  1
  Mg  Mg23  1  0.24988158  0.24878798  0.50000000  1
  Mg  Mg24  1  0.25047483  0.74928711  0.00000000  1
  Mg  Mg25  1  0.24988158  0.75121202  0.50000000  1
  Mg  Mg26  1  0.74952517  0.25071289  0.00000000  1
  Mg  Mg27  1  0.75011842  0.24878798  0.50000000  1
  Mg  Mg28  1  0.74952517  0.74928711  0.00000000  1
  Mg  Mg29  1  0.75011842  0.75121202  0.50000000  1
  Mn  Mn30  1  0.00000000  0.00000000  0.00000000  1
  Fe  Fe31  1  0.00000000  0.50000000  0.50000000  1
  O  O32  1  0.25660022  0.00000000  0.00000000  1
  O  O33  1  0.25148910  0.00000000  0.50000000  1
  O  O34  1  0.25148910  0.50000000  0.00000000  1
  O  O35  1  0.25026385  0.50000000  0.50000000  1
  O  O36  1  0.74339978  0.00000000  0.00000000  1
  O  O37  1  0.74851090  0.00000000  0.50000000  1
  O  O38  1  0.74851090  0.50000000  0.00000000  1
  O  O39  1  0.74973615  0.50000000  0.50000000  1
  O  O40  1  0.24977179  0.25013553  0.25013553  1
  O  O41  1  0.24977179  0.25013553  0.74986447  1
  O  O42  1  0.24977179  0.74986447  0.25013553  1
  O  O43  1  0.24977179  0.74986447  0.74986447  1
  O  O44  1  0.75022821  0.25013553  0.25013553  1
  O  O45  1  0.75022821  0.25013553  0.74986447  1
  O  O46  1  0.75022821  0.74986447  0.25013553  1
  O  O47  1  0.75022821  0.74986447  0.74986447  1
  O  O48  1  0.00000000  0.00000000  0.25573359  1
  O  O49  1  0.00000000  0.00000000  0.74426641  1
  O  O50  1  0.00000000  0.50000000  0.24457005  1
  O  O51  1  0.00000000  0.50000000  0.75542995  1
  O  O52  1  0.50000000  0.00000000  0.25075248  1
  O  O53  1  0.50000000  0.00000000  0.74924752  1
  O  O54  1  0.50000000  0.50000000  0.25060693  1
  O  O55  1  0.50000000  0.50000000  0.74939307  1
  O  O56  1  0.00000000  0.25573359  0.00000000  1
  O  O57  1  0.00000000  0.24457005  0.50000000  1
  O  O58  1  0.00000000  0.74426641  0.00000000  1
  O  O59  1  0.00000000  0.75542995  0.50000000  1
  O  O60  1  0.50000000  0.25075248  0.00000000  1
  O  O61  1  0.50000000  0.25060693  0.50000000  1
  O  O62  1  0.50000000  0.74924752  0.00000000  1
  O  O63  1  0.50000000  0.74939307  0.50000000  1
