# generated using pymatgen
data_Mg2Ta2MnO8
_symmetry_space_group_name_H-M   'P 1'
_cell_length_a   5.24037414
_cell_length_b   6.04978963
_cell_length_c   10.16835508
_cell_angle_alpha   107.25127795
_cell_angle_beta   90.36067225
_cell_angle_gamma   90.00647188
_symmetry_Int_Tables_number   1
_chemical_formula_structural   Mg2Ta2MnO8
_chemical_formula_sum   'Mg4 Ta4 Mn2 O16'
_cell_volume   307.85993001
_cell_formula_units_Z   2
loop_
 _symmetry_equiv_pos_site_id
 _symmetry_equiv_pos_as_xyz
  1  'x, y, z'
loop_
 _atom_site_type_symbol
 _atom_site_label
 _atom_site_symmetry_multiplicity
 _atom_site_fract_x
 _atom_site_fract_y
 _atom_site_fract_z
 _atom_site_occupancy
  Mg  Mg0  1  0.75650305  0.41437550  0.54587048  1
  Mg  Mg1  1  0.74449859  0.86954378  0.45638733  1
  Mg  Mg2  1  0.24473852  0.58499251  0.45616287  1
  Mg  Mg3  1  0.25639413  0.13003324  0.54600812  1
  Ta  Ta4  1  0.74084392  0.28107788  0.23730507  1
  Ta  Ta5  1  0.76056367  0.04446784  0.76500799  1
  Ta  Ta6  1  0.26034125  0.71870078  0.76491332  1
  Ta  Ta7  1  0.24082965  0.95600388  0.23748304  1
  Mn  Mn8  1  0.75032359  0.65529126  0.00115340  1
  Mn  Mn9  1  0.25039930  0.34428490  0.00128726  1
  O  O10  1  0.07203217  0.18230007  0.14823962  1
  O  O11  1  0.42946067  0.03363217  0.85397923  1
  O  O12  1  0.92972683  0.81858845  0.85429700  1
  O  O13  1  0.57163880  0.96635549  0.14812450  1
  O  O14  1  0.59183181  0.43182037  0.12323874  1
  O  O15  1  0.90895595  0.30910295  0.87906508  1
  O  O16  1  0.40838284  0.56791217  0.87938485  1
  O  O17  1  0.09147092  0.69146754  0.12336451  1
  O  O18  1  0.45350865  0.29136209  0.37531020  1
  O  O19  1  0.04744998  0.91684077  0.62686282  1
  O  O20  1  0.37898688  0.83882202  0.38485304  1
  O  O21  1  0.12183702  0.45476938  0.61753532  1
  O  O22  1  0.62189661  0.16114358  0.61751987  1
  O  O23  1  0.87923730  0.54507719  0.38468158  1
  O  O24  1  0.95376166  0.08337451  0.37568195  1
  O  O25  1  0.54732525  0.70797270  0.62661781  1
