# generated using pymatgen
data_BaAlCo4O7
_symmetry_space_group_name_H-M   'P 1'
_cell_length_a   6.06942958
_cell_length_b   6.06942884
_cell_length_c   9.93359690
_cell_angle_alpha   90.00000000
_cell_angle_beta   90.00000000
_cell_angle_gamma   120.00000403
_symmetry_Int_Tables_number   1
_chemical_formula_structural   BaAlCo4O7
_chemical_formula_sum   'Ba2 Al2 Co8 O14'
_cell_volume   316.90774099
_cell_formula_units_Z   2
loop_
 _symmetry_equiv_pos_site_id
 _symmetry_equiv_pos_as_xyz
  1  'x, y, z'
loop_
 _atom_site_type_symbol
 _atom_site_label
 _atom_site_symmetry_multiplicity
 _atom_site_fract_x
 _atom_site_fract_y
 _atom_site_fract_z
 _atom_site_occupancy
  Ba  Ba0  1  0.66666700  0.33333300  0.50640064  1
  Ba  Ba1  1  0.33333300  0.66666700  0.00640064  1
  Al  Al2  1  0.66666700  0.33333300  0.88086010  1
  Al  Al3  1  0.33333300  0.66666700  0.38086010  1
  Co  Co4  1  0.82198241  0.17801859  0.18895153  1
  Co  Co5  1  0.64396382  0.82198141  0.68895253  1
  Co  Co6  1  0.17801859  0.35603618  0.68895253  1
  Co  Co7  1  0.82198241  0.64396382  0.18895153  1
  Co  Co8  1  0.35603518  0.17801859  0.18895153  1
  Co  Co9  1  0.17801859  0.82198141  0.68895253  1
  Co  Co10  1  -0.00000000  -0.00000000  0.44435994  1
  Co  Co11  1  -0.00000000  -0.00000000  0.94435994  1
  O  O12  1  0.81859778  0.18140322  0.99563104  1
  O  O13  1  0.63719557  0.81859678  0.49563004  1
  O  O14  1  0.18140222  0.36280343  0.49563004  1
  O  O15  1  0.81859878  0.63719657  0.99563104  1
  O  O16  1  0.36280343  0.18140322  0.99563104  1
  O  O17  1  0.18140222  0.81859678  0.49563004  1
  O  O18  1  0.00000000  0.00000000  0.74733439  1
  O  O19  1  -0.00000000  -0.00000000  0.24733539  1
  O  O20  1  0.48615141  0.51385059  0.26709775  1
  O  O21  1  0.97229981  0.48615141  0.76709775  1
  O  O22  1  0.51384959  0.02770019  0.76709775  1
  O  O23  1  0.48615141  0.97229981  0.26709775  1
  O  O24  1  0.51385059  0.48615141  0.76709775  1
  O  O25  1  0.02770019  0.51385059  0.26709775  1
