# generated using pymatgen
data_Hf2Pt3
_symmetry_space_group_name_H-M   'P 1'
_cell_length_a   3.48391701
_cell_length_b   3.48391701
_cell_length_c   7.77904012
_cell_angle_alpha   102.94155155
_cell_angle_beta   102.94155155
_cell_angle_gamma   89.99303636
_symmetry_Int_Tables_number   1
_chemical_formula_structural   Hf2Pt3
_chemical_formula_sum   'Hf2 Pt3'
_cell_volume   89.55919206
_cell_formula_units_Z   1
loop_
 _symmetry_equiv_pos_site_id
 _symmetry_equiv_pos_as_xyz
  1  'x, y, z'
loop_
 _atom_site_type_symbol
 _atom_site_label
 _atom_site_symmetry_multiplicity
 _atom_site_fract_x
 _atom_site_fract_y
 _atom_site_fract_z
 _atom_site_occupancy
  Hf  Hf0  1  0.38915043  0.88915043  0.77830085  1
  Hf  Hf1  1  0.61084957  0.11084957  0.22169915  1
  Pt  Pt2  1  -0.00000000  0.50000000  0.00000000  1
  Pt  Pt3  1  0.80534514  0.30534514  0.61069029  1
  Pt  Pt4  1  0.19465486  0.69465486  0.38930971  1
