# generated using pymatgen
data_KVP2S7
_symmetry_space_group_name_H-M   'P 1'
_cell_length_a   6.62362262
_cell_length_b   6.53624838
_cell_length_c   6.53624838
_cell_angle_alpha   96.99982296
_cell_angle_beta   95.33334881
_cell_angle_gamma   95.33334882
_symmetry_Int_Tables_number   1
_chemical_formula_structural   KVP2S7
_chemical_formula_sum   'K1 V1 P2 S7'
_cell_volume   278.09170893
_cell_formula_units_Z   1
loop_
 _symmetry_equiv_pos_site_id
 _symmetry_equiv_pos_as_xyz
  1  'x, y, z'
loop_
 _atom_site_type_symbol
 _atom_site_label
 _atom_site_symmetry_multiplicity
 _atom_site_fract_x
 _atom_site_fract_y
 _atom_site_fract_z
 _atom_site_occupancy
  P  P0  1  0.08097587  0.05202401  0.34875245  1
  P  P1  1  0.91902413  0.65124755  0.94797599  1
  S  S2  1  0.00000000  0.98179568  0.01820432  1
  S  S3  1  0.78271812  0.53724462  0.18111911  1
  S  S4  1  0.27784308  0.31216691  0.36819222  1
  S  S5  1  0.72215692  0.63180778  0.68783309  1
  S  S6  1  0.82974456  0.15205517  0.47368891  1
  S  S7  1  0.17025544  0.52631109  0.84794483  1
  S  S8  1  0.21728188  0.81888089  0.46275538  1
  K  K9  1  0.50000000  0.11230410  0.88769590  1
  V  V10  1  0.00000000  0.49776220  0.50223780  1
