# generated using pymatgen
data_Ca3Fe3(AsO4)4
_symmetry_space_group_name_H-M   'P 1'
_cell_length_a   5.19220071
_cell_length_b   9.20383681
_cell_length_c   15.72746930
_cell_angle_alpha   95.00097461
_cell_angle_beta   90.00000000
_cell_angle_gamma   90.00000000
_symmetry_Int_Tables_number   1
_chemical_formula_structural   Ca3Fe3(AsO4)4
_chemical_formula_sum   'Ca6 Fe6 As8 O32'
_cell_volume   748.72581607
_cell_formula_units_Z   2
loop_
 _symmetry_equiv_pos_site_id
 _symmetry_equiv_pos_as_xyz
  1  'x, y, z'
loop_
 _atom_site_type_symbol
 _atom_site_label
 _atom_site_symmetry_multiplicity
 _atom_site_fract_x
 _atom_site_fract_y
 _atom_site_fract_z
 _atom_site_occupancy
  Ca  Ca0  1  0.95898678  0.04251650  0.73059446  1
  Ca  Ca1  1  0.45898678  0.45748350  0.76940554  1
  Ca  Ca2  1  0.04101322  0.95748350  0.26940554  1
  Ca  Ca3  1  0.54101322  0.54251650  0.23059446  1
  Ca  Ca4  1  0.00000000  0.00000000  0.00000000  1
  Ca  Ca5  1  0.50000000  0.50000000  0.50000000  1
  Fe  Fe6  1  0.02542173  0.31895491  0.12069672  1
  Fe  Fe7  1  0.97457827  0.68104509  0.87930328  1
  Fe  Fe8  1  0.52542173  0.18104509  0.37930328  1
  Fe  Fe9  1  0.47457827  0.81895491  0.62069672  1
  Fe  Fe10  1  0.50000000  0.50000000  0.00000000  1
  Fe  Fe11  1  0.00000000  0.00000000  0.50000000  1
  As  As12  1  0.49299342  0.88092729  0.84236334  1
  As  As13  1  0.00691635  0.33900110  0.90180798  1
  As  As14  1  0.50691635  0.16099890  0.59819202  1
  As  As15  1  0.49308365  0.83900110  0.40180798  1
  As  As16  1  0.50700658  0.11907271  0.15763666  1
  As  As17  1  0.99308365  0.66099890  0.09819202  1
  As  As18  1  0.00700658  0.38092729  0.34236334  1
  As  As19  1  0.99299342  0.61907271  0.65763666  1
  O  O20  1  0.05375066  0.57256332  0.75997013  1
  O  O21  1  0.54793733  0.25440175  0.51017144  1
  O  O22  1  0.11473550  0.24760629  0.81056088  1
  O  O23  1  0.09145235  0.79857666  0.64928822  1
  O  O24  1  0.88526450  0.75239371  0.18943912  1
  O  O25  1  0.44624934  0.07256332  0.25997013  1
  O  O26  1  0.61473550  0.25239371  0.68943912  1
  O  O27  1  0.80425542  0.90416508  0.39492015  1
  O  O28  1  0.84193188  0.50399969  0.40729781  1
  O  O29  1  0.94624934  0.42743668  0.24002987  1
  O  O30  1  0.40854765  0.29857666  0.14928822  1
  O  O31  1  0.19574458  0.09583492  0.60507985  1
  O  O32  1  0.19649195  0.49830421  0.91691219  1
  O  O33  1  0.15806812  0.49600031  0.59270219  1
  O  O34  1  0.83732419  0.11264271  0.13997639  1
  O  O35  1  0.33732419  0.38735729  0.36002361  1
  O  O36  1  0.69649195  0.00169579  0.58308781  1
  O  O37  1  0.38526450  0.74760629  0.31056088  1
  O  O38  1  0.34193188  0.99600031  0.09270219  1
  O  O39  1  0.30425542  0.59583492  0.10507985  1
  O  O40  1  0.66267581  0.61264271  0.63997639  1
  O  O41  1  0.16267581  0.88735729  0.86002361  1
  O  O42  1  0.45206267  0.74559825  0.48982856  1
  O  O43  1  0.04793733  0.24559825  0.98982856  1
  O  O44  1  0.80350805  0.50169579  0.08308781  1
  O  O45  1  0.55375066  0.92743668  0.74002987  1
  O  O46  1  0.90854765  0.20142234  0.35071178  1
  O  O47  1  0.65806812  0.00399969  0.90729781  1
  O  O48  1  0.95206267  0.75440175  0.01017144  1
  O  O49  1  0.69574458  0.40416508  0.89492015  1
  O  O50  1  0.30350805  0.99830421  0.41691219  1
  O  O51  1  0.59145235  0.70142334  0.85071178  1
