# generated using pymatgen
data_BaPd
_symmetry_space_group_name_H-M   'P 1'
_cell_length_a   5.13403342
_cell_length_b   5.13403342
_cell_length_c   5.65087989
_cell_angle_alpha   90.02790645
_cell_angle_beta   89.97209355
_cell_angle_gamma   59.95355310
_symmetry_Int_Tables_number   1
_chemical_formula_structural   BaPd
_chemical_formula_sum   'Ba2 Pd2'
_cell_volume   128.93191464
_cell_formula_units_Z   2
loop_
 _symmetry_equiv_pos_site_id
 _symmetry_equiv_pos_as_xyz
  1  'x, y, z'
loop_
 _atom_site_type_symbol
 _atom_site_label
 _atom_site_symmetry_multiplicity
 _atom_site_fract_x
 _atom_site_fract_y
 _atom_site_fract_z
 _atom_site_occupancy
  Ba  Ba0  1  0.66653482  0.66653482  0.75000000  1
  Ba  Ba1  1  0.33346518  0.33346518  0.25000000  1
  Pd  Pd2  1  -0.00000000  -0.00000000  0.50000000  1
  Pd  Pd3  1  -0.00000000  -0.00000000  -0.00000000  1
