# generated using pymatgen
data_Sr8Fe7CoO20
_symmetry_space_group_name_H-M   'P 1'
_cell_length_a   11.08892663
_cell_length_b   11.46217536
_cell_length_c   17.73976530
_cell_angle_alpha   108.84818101
_cell_angle_beta   108.26213536
_cell_angle_gamma   89.90046235
_symmetry_Int_Tables_number   1
_chemical_formula_structural   Sr8Fe7CoO20
_chemical_formula_sum   'Sr32 Fe28 Co4 O80'
_cell_volume   2013.94048320
_cell_formula_units_Z   4
loop_
 _symmetry_equiv_pos_site_id
 _symmetry_equiv_pos_as_xyz
  1  'x, y, z'
loop_
 _atom_site_type_symbol
 _atom_site_label
 _atom_site_symmetry_multiplicity
 _atom_site_fract_x
 _atom_site_fract_y
 _atom_site_fract_z
 _atom_site_occupancy
  Sr  Sr0  1  0.30434871  0.06204006  0.10879859  1
  Sr  Sr1  1  0.30636365  0.06366956  0.60933577  1
  Sr  Sr2  1  0.30314133  0.56339366  0.10871622  1
  Sr  Sr3  1  0.30641808  0.56345945  0.60949251  1
  Sr  Sr4  1  0.80785809  0.06163117  0.10856796  1
  Sr  Sr5  1  0.80673154  0.06354515  0.60930749  1
  Sr  Sr6  1  0.80882428  0.56565402  0.10792026  1
  Sr  Sr7  1  0.80672961  0.56361888  0.60955536  1
  Sr  Sr8  1  0.19729199  0.43612926  0.39059059  1
  Sr  Sr9  1  0.19420730  0.43700495  0.89124301  1
  Sr  Sr10  1  0.19729611  0.93686222  0.39062058  1
  Sr  Sr11  1  0.19553959  0.93610538  0.89096729  1
  Sr  Sr12  1  0.69701795  0.43626892  0.39052848  1
  Sr  Sr13  1  0.70085453  0.43825573  0.89151915  1
  Sr  Sr14  1  0.69694074  0.93663707  0.39061408  1
  Sr  Sr15  1  0.69978460  0.93570826  0.89188073  1
  Sr  Sr16  1  0.05672750  0.29354212  0.10909892  1
  Sr  Sr17  1  0.05691274  0.29569627  0.60928024  1
  Sr  Sr18  1  0.05261205  0.79564687  0.10852827  1
  Sr  Sr19  1  0.05693866  0.79620133  0.60966504  1
  Sr  Sr20  1  0.55737035  0.29378432  0.10870987  1
  Sr  Sr21  1  0.55586949  0.29554130  0.60912804  1
  Sr  Sr22  1  0.55890192  0.79641293  0.10837100  1
  Sr  Sr23  1  0.55609743  0.79613095  0.60971113  1
  Sr  Sr24  1  0.44731734  0.20406467  0.39054696  1
  Sr  Sr25  1  0.44839974  0.20347525  0.89121751  1
  Sr  Sr26  1  0.44743258  0.70401816  0.39054584  1
  Sr  Sr27  1  0.45009609  0.70613153  0.89154737  1
  Sr  Sr28  1  0.94668703  0.20432145  0.39080614  1
  Sr  Sr29  1  0.94774491  0.20479615  0.89105529  1
  Sr  Sr30  1  0.94650694  0.70405524  0.39062212  1
  Sr  Sr31  1  0.94473812  0.70628335  0.89129328  1
  Fe  Fe32  1  0.00401950  0.99937752  0.49912143  1
  Fe  Fe33  1  0.00447525  0.50014874  0.50013028  1
  Fe  Fe34  1  0.50445772  0.99984858  0.49995514  1
  Fe  Fe35  1  0.50534079  0.50063636  0.00004297  1
  Fe  Fe36  1  0.50490176  0.50068327  0.50095673  1
  Fe  Fe37  1  0.25266024  0.25051164  0.00011540  1
  Fe  Fe38  1  0.25393816  0.24967942  0.49908404  1
  Fe  Fe39  1  0.25374030  0.75105638  0.00033677  1
  Fe  Fe40  1  0.25411274  0.74984343  0.49938791  1
  Fe  Fe41  1  0.75520706  0.24882340  -0.00003811  1
  Fe  Fe42  1  0.75467801  0.25019262  0.50069582  1
  Fe  Fe43  1  0.75477589  0.75041080  0.50100349  1
  Fe  Fe44  1  0.10872546  0.09182921  0.25178117  1
  Fe  Fe45  1  0.10808154  0.09119876  0.75024577  1
  Fe  Fe46  1  0.10831296  0.59128711  0.25107957  1
  Fe  Fe47  1  0.10824584  0.59127865  0.75029270  1
  Fe  Fe48  1  0.60766376  0.09094162  0.24988418  1
  Fe  Fe49  1  0.60804522  0.09123342  0.75031422  1
  Fe  Fe50  1  0.60771520  0.59089267  0.24954536  1
  Fe  Fe51  1  0.60716438  0.59034682  0.74880147  1
  Fe  Fe52  1  0.35816892  0.40847174  0.24963264  1
  Fe  Fe53  1  0.35824293  0.40919877  0.75040610  1
  Fe  Fe54  1  0.35780223  0.90869790  0.24960440  1
  Fe  Fe55  1  0.35837449  0.90928635  0.75026025  1
  Fe  Fe56  1  0.85773248  0.40870664  0.24961846  1
  Fe  Fe57  1  0.85740745  0.40879401  0.74889574  1
  Fe  Fe58  1  0.85886486  0.91024509  0.25168566  1
  Fe  Fe59  1  0.85708434  0.90852924  0.74849538  1
  Co  Co60  1  0.00391966  -0.00044735  0.99986333  1
  Co  Co61  1  0.00449527  0.50096927  0.00094647  1
  Co  Co62  1  0.50575991  -0.00100223  0.00013089  1
  Co  Co63  1  0.75607466  0.75069220  0.00074155  1
  O  O64  1  0.12463800  0.12211473  0.49185814  1
  O  O65  1  0.12588608  0.12216772  0.99206882  1
  O  O66  1  0.12443714  0.62193245  0.49167622  1
  O  O67  1  0.12108003  0.61866979  0.99242140  1
  O  O68  1  0.62423223  0.12175627  0.49150445  1
  O  O69  1  0.62647522  0.12370928  0.99201079  1
  O  O70  1  0.62439012  0.62194949  0.49131909  1
  O  O71  1  0.62329188  0.62104178  0.99197139  1
  O  O72  1  0.13043620  0.37939686  0.00814204  1
  O  O73  1  0.13271935  0.37844660  0.50840996  1
  O  O74  1  0.13290689  0.87778833  0.00776412  1
  O  O75  1  0.13310496  0.87781908  0.50871921  1
  O  O76  1  0.63383101  0.37742507  0.00825693  1
  O  O77  1  0.63282900  0.37807982  0.50811767  1
  O  O78  1  0.62675387  0.88346422  0.00678431  1
  O  O79  1  0.63268255  0.87786349  0.50825984  1
  O  O80  1  0.37470746  0.11941198  0.49170395  1
  O  O81  1  0.37806519  0.11572327  0.99221964  1
  O  O82  1  0.37435155  0.61967845  0.49147144  1
  O  O83  1  0.37375229  0.62032268  0.99181982  1
  O  O84  1  0.87444792  0.11960667  0.49156204  1
  O  O85  1  0.87495605  0.12029729  0.99194250  1
  O  O86  1  0.87452082  0.61955046  0.49151057  1
  O  O87  1  0.87759159  0.61395170  0.98868416  1
  O  O88  1  0.38237116  0.37921560  0.00818912  1
  O  O89  1  0.38288320  0.38058156  0.50831009  1
  O  O90  1  0.38041559  0.87818558  0.00813344  1
  O  O91  1  0.38306961  0.88025017  0.50843505  1
  O  O92  1  0.88726484  0.38422577  0.00804324  1
  O  O93  1  0.88285783  0.38070122  0.50823400  1
  O  O94  1  0.88407044  0.88325549  0.00918748  1
  O  O95  1  0.88278423  0.88007010  0.50843000  1
  O  O96  1  0.08757358  0.10298193  0.14690239  1
  O  O97  1  0.08147046  0.09523728  0.64021502  1
  O  O98  1  0.08486169  0.59982124  0.14466440  1
  O  O99  1  0.08113301  0.59502909  0.63990421  1
  O  O100  1  0.58166201  0.09566428  0.14121811  1
  O  O101  1  0.58129692  0.09492766  0.64000085  1
  O  O102  1  0.58117231  0.59562525  0.14028577  1
  O  O103  1  0.58017914  0.59379505  0.63837891  1
  O  O104  1  0.44119872  0.40473496  0.35966513  1
  O  O105  1  0.44103991  0.40347210  0.85951929  1
  O  O106  1  0.44128008  0.90489952  0.36004192  1
  O  O107  1  0.44034114  0.90511583  0.85896347  1
  O  O108  1  0.94113203  0.40503781  0.35986249  1
  O  O109  1  0.94042181  0.39910772  0.85482221  1
  O  O110  1  0.94208162  0.90630862  0.36196809  1
  O  O111  1  0.94079536  0.89820512  0.85366713  1
  O  O112  1  0.33142389  0.29492345  0.13953356  1
  O  O113  1  0.33123896  0.29511203  0.64011753  1
  O  O114  1  0.33142315  0.79538494  0.13987169  1
  O  O115  1  0.33152309  0.79474114  0.64034257  1
  O  O116  1  0.83149235  0.29499828  0.14001119  1
  O  O117  1  0.83028830  0.29413800  0.63796726  1
  O  O118  1  0.83481395  0.79557383  0.14485422  1
  O  O119  1  0.82980513  0.79412640  0.63781112  1
  O  O120  1  0.19241781  0.20589295  0.36249671  1
  O  O121  1  0.19182506  0.20410765  0.86051653  1
  O  O122  1  0.19182442  0.70585931  0.36168368  1
  O  O123  1  0.19143791  0.70417082  0.85985081  1
  O  O124  1  0.69102462  0.20534369  0.35985033  1
  O  O125  1  0.69156784  0.20497067  0.86008528  1
  O  O126  1  0.69098790  0.70479984  0.35958894  1
  O  O127  1  0.68999564  0.70518847  0.85534385  1
  O  O128  1  0.43502180  0.05996764  0.25016796  1
  O  O129  1  0.43526328  0.06043376  0.74972632  1
  O  O130  1  0.43531655  0.55979453  0.24995032  1
  O  O131  1  0.43450178  0.56010762  0.74995254  1
  O  O132  1  0.93525078  0.06109675  0.25084445  1
  O  O133  1  0.93534390  0.06037451  0.74942968  1
  O  O134  1  0.93511534  0.55960909  0.25019819  1
  O  O135  1  0.93589598  0.56013176  0.74973690  1
  O  O136  1  0.18629193  0.43994570  0.25040383  1
  O  O137  1  0.18511937  0.43973046  0.74991717  1
  O  O138  1  0.18583277  0.93955437  0.25043774  1
  O  O139  1  0.18522944  0.94011818  0.74994174  1
  O  O140  1  0.68509536  0.43949560  0.24983336  1
  O  O141  1  0.68451847  0.43899138  0.74906754  1
  O  O142  1  0.68518618  0.94010486  0.25048449  1
  O  O143  1  0.68459300  0.94014817  0.74993991  1
