# generated using pymatgen
data_BaMgNiF7
_symmetry_space_group_name_H-M   'P 1'
_cell_length_a   5.61792944
_cell_length_b   9.61638707
_cell_length_c   9.91852474
_cell_angle_alpha   90.00000000
_cell_angle_beta   90.00000000
_cell_angle_gamma   93.15822669
_symmetry_Int_Tables_number   1
_chemical_formula_structural   BaMgNiF7
_chemical_formula_sum   'Ba4 Mg4 Ni4 F28'
_cell_volume   535.02637068
_cell_formula_units_Z   4
loop_
 _symmetry_equiv_pos_site_id
 _symmetry_equiv_pos_as_xyz
  1  'x, y, z'
loop_
 _atom_site_type_symbol
 _atom_site_label
 _atom_site_symmetry_multiplicity
 _atom_site_fract_x
 _atom_site_fract_y
 _atom_site_fract_z
 _atom_site_occupancy
  Ba  Ba0  1  0.26371628  0.50080738  0.31903540  1
  Ba  Ba1  1  0.73628372  0.99919262  0.81903540  1
  Ba  Ba2  1  0.73628372  0.49919262  0.68096460  1
  Ba  Ba3  1  0.26371628  0.00080738  0.18096460  1
  Mg  Mg4  1  0.69830078  0.81108615  0.39671827  1
  Mg  Mg5  1  0.30169922  0.68891385  0.89671827  1
  Mg  Mg6  1  0.69830078  0.31108615  0.10328173  1
  Mg  Mg7  1  0.30169922  0.18891385  0.60328173  1
  Ni  Ni8  1  0.19441643  0.81138539  0.61313086  1
  Ni  Ni9  1  0.80558357  0.18861461  0.38687014  1
  Ni  Ni10  1  0.19441643  0.31138539  0.88686914  1
  Ni  Ni11  1  0.80558357  0.68861461  0.11313086  1
  F  F12  1  0.10882731  0.12674188  0.44680209  1
  F  F13  1  0.37159812  0.36680288  0.04713653  1
  F  F14  1  0.46918606  0.74987311  0.71139918  1
  F  F15  1  0.53081394  0.25012689  0.28860082  1
  F  F16  1  0.88292867  0.36395583  0.45549848  1
  F  F17  1  0.25605005  0.49508678  0.81300827  1
  F  F18  1  0.02432978  0.75117441  0.77937897  1
  F  F19  1  0.11707133  0.13604417  0.95549848  1
  F  F20  1  0.37159812  0.86680288  0.45286347  1
  F  F21  1  0.53081394  0.75012689  0.21139918  1
  F  F22  1  0.10882731  0.62674188  0.05319791  1
  F  F23  1  0.89117269  0.87325812  0.55319791  1
  F  F24  1  0.97567022  0.74882559  0.27937897  1
  F  F25  1  0.37892207  0.87618194  0.95707239  1
  F  F26  1  0.11707133  0.63604417  0.54450152  1
  F  F27  1  0.88292867  0.86395583  0.04450152  1
  F  F28  1  0.97567022  0.24882559  0.22062103  1
  F  F29  1  0.89117269  0.37325812  0.94680209  1
  F  F30  1  0.62107793  0.62381806  0.45707239  1
  F  F31  1  0.62840188  0.63319712  0.95286347  1
  F  F32  1  0.62107793  0.12381806  0.04292761  1
  F  F33  1  0.02432978  0.25117441  0.72062103  1
  F  F34  1  0.37892207  0.37618194  0.54292761  1
  F  F35  1  0.74394995  0.00491322  0.31300827  1
  F  F36  1  0.74394995  0.50491322  0.18699173  1
  F  F37  1  0.25605005  0.99508678  0.68699173  1
  F  F38  1  0.62840188  0.13319712  0.54713653  1
  F  F39  1  0.46918606  0.24987311  0.78860082  1
