# generated using pymatgen
data_TbSnGe
_symmetry_space_group_name_H-M   'P 1'
_cell_length_a   4.10968625
_cell_length_b   4.27570230
_cell_length_c   8.47985532
_cell_angle_alpha   104.60236601
_cell_angle_beta   90.00000000
_cell_angle_gamma   90.00000000
_symmetry_Int_Tables_number   1
_chemical_formula_structural   TbSnGe
_chemical_formula_sum   'Tb2 Sn2 Ge2'
_cell_volume   144.19319136
_cell_formula_units_Z   2
loop_
 _symmetry_equiv_pos_site_id
 _symmetry_equiv_pos_as_xyz
  1  'x, y, z'
loop_
 _atom_site_type_symbol
 _atom_site_label
 _atom_site_symmetry_multiplicity
 _atom_site_fract_x
 _atom_site_fract_y
 _atom_site_fract_z
 _atom_site_occupancy
  Tb  Tb0  1  0.75000000  0.09438967  0.18877934  1
  Tb  Tb1  1  0.25000000  0.90561033  0.81122066  1
  Sn  Sn2  1  0.75000000  0.74493705  0.48987409  1
  Sn  Sn3  1  0.25000000  0.25506295  0.51012591  1
  Ge  Ge4  1  0.75000000  0.44708932  0.89417865  1
  Ge  Ge5  1  0.25000000  0.55291068  0.10582135  1
