# generated using pymatgen
data_CaHoTi2O6
_symmetry_space_group_name_H-M   'P 1'
_cell_length_a   5.36466107
_cell_length_b   5.57851728
_cell_length_c   7.69880066
_cell_angle_alpha   90.00101903
_cell_angle_beta   89.99771085
_cell_angle_gamma   89.96736793
_symmetry_Int_Tables_number   1
_chemical_formula_structural   CaHoTi2O6
_chemical_formula_sum   'Ca2 Ho2 Ti4 O12'
_cell_volume   230.40084928
_cell_formula_units_Z   2
loop_
 _symmetry_equiv_pos_site_id
 _symmetry_equiv_pos_as_xyz
  1  'x, y, z'
loop_
 _atom_site_type_symbol
 _atom_site_label
 _atom_site_symmetry_multiplicity
 _atom_site_fract_x
 _atom_site_fract_y
 _atom_site_fract_z
 _atom_site_occupancy
  Ca  Ca0  1  0.48858136  0.44741931  0.75002132  1
  Ca  Ca1  1  0.98851395  0.05252312  0.24999880  1
  Ho  Ho2  1  0.01841009  0.93578858  0.74993491  1
  Ho  Ho3  1  0.51833307  0.56422160  0.25006190  1
  Ti  Ti4  1  0.00037543  0.49625825  0.99995836  1
  Ti  Ti5  1  0.00037042  0.49624230  0.50004071  1
  Ti  Ti6  1  0.50042627  0.00354481  0.49992216  1
  Ti  Ti7  1  0.50042506  0.00354578  0.00007946  1
  O  O8  1  0.10946828  0.47191635  0.25000260  1
  O  O9  1  0.19350440  0.19694220  0.94605505  1
  O  O10  1  0.19349594  0.19694689  0.55393848  1
  O  O11  1  0.29107469  0.71188517  0.95078713  1
  O  O12  1  0.29106847  0.71186788  0.54921335  1
  O  O13  1  0.41363341  0.96622169  0.25000707  1
  O  O14  1  0.60950904  0.02799438  0.74999041  1
  O  O15  1  0.69339364  0.30326014  0.44599840  1
  O  O16  1  0.69337505  0.30324364  0.05398694  1
  O  O17  1  0.79119151  0.78817502  0.04911036  1
  O  O18  1  0.79120840  0.78817249  0.45089423  1
  O  O19  1  0.91364154  0.53383140  0.74999535  1
