# generated using pymatgen
data_FeP2O7
_symmetry_space_group_name_H-M   'P 1'
_cell_length_a   6.98871313
_cell_length_b   8.83186861
_cell_length_c   9.48992586
_cell_angle_alpha   90.00000000
_cell_angle_beta   72.74908956
_cell_angle_gamma   90.00000000
_symmetry_Int_Tables_number   1
_chemical_formula_structural   FeP2O7
_chemical_formula_sum   'Fe4 P8 O28'
_cell_volume   559.40060463
_cell_formula_units_Z   4
loop_
 _symmetry_equiv_pos_site_id
 _symmetry_equiv_pos_as_xyz
  1  'x, y, z'
loop_
 _atom_site_type_symbol
 _atom_site_label
 _atom_site_symmetry_multiplicity
 _atom_site_fract_x
 _atom_site_fract_y
 _atom_site_fract_z
 _atom_site_occupancy
  Fe  Fe0  1  0.68229380  0.07133596  0.19830080  1
  Fe  Fe1  1  0.68229380  0.42866404  0.69830080  1
  Fe  Fe2  1  0.31770620  0.57133596  0.30169920  1
  Fe  Fe3  1  0.31770620  0.92866404  0.80169920  1
  P  P4  1  0.52380754  0.71538312  0.53531326  1
  P  P5  1  0.09577413  0.25020742  0.23573467  1
  P  P6  1  0.90422587  0.75020742  0.26426533  1
  P  P7  1  0.09577413  0.24979258  0.73573467  1
  P  P8  1  0.52380754  0.78461688  0.03531326  1
  P  P9  1  0.90422587  0.74979258  0.76426533  1
  P  P10  1  0.47619246  0.21538312  0.96468674  1
  P  P11  1  0.47619246  0.28461688  0.46468674  1
  O  O12  1  0.49718426  0.13125624  0.38396108  1
  O  O13  1  0.25643304  0.21252826  0.08070693  1
  O  O14  1  0.89192511  0.27561611  0.71108750  1
  O  O15  1  0.13095378  0.08867635  0.77930589  1
  O  O16  1  0.50281574  0.86874376  0.61603892  1
  O  O17  1  0.74356696  0.78747174  0.91929307  1
  O  O18  1  0.63109973  0.20253931  0.04870758  1
  O  O19  1  0.52167727  0.91524011  0.14042948  1
  O  O20  1  0.86904622  0.58867635  0.72069411  1
  O  O21  1  0.36890027  0.70253931  0.45129242  1
  O  O22  1  0.49718426  0.36874376  0.88396108  1
  O  O23  1  0.89323249  0.86903701  0.64906879  1
  O  O24  1  0.50281574  0.63125624  0.11603892  1
  O  O25  1  0.10807489  0.72438389  0.28891250  1
  O  O26  1  0.47832273  0.41524011  0.35957052  1
  O  O27  1  0.36890027  0.79746069  0.95129242  1
  O  O28  1  0.86904622  0.91132365  0.22069411  1
  O  O29  1  0.89192511  0.22438389  0.21108750  1
  O  O30  1  0.10676751  0.13096299  0.35093121  1
  O  O31  1  0.52167727  0.58475989  0.64042948  1
  O  O32  1  0.25643304  0.28747174  0.58070693  1
  O  O33  1  0.63109973  0.29746069  0.54870758  1
  O  O34  1  0.47832273  0.08475989  0.85957052  1
  O  O35  1  0.13095378  0.41132365  0.27930589  1
  O  O36  1  0.74356696  0.71252826  0.41929307  1
  O  O37  1  0.89323249  0.63096299  0.14906879  1
  O  O38  1  0.10807489  0.77561611  0.78891250  1
  O  O39  1  0.10676751  0.36903701  0.85093121  1
