# generated using pymatgen
data_Mg2FeWO6
_symmetry_space_group_name_H-M   'P 1'
_cell_length_a   5.60621240
_cell_length_b   5.61679863
_cell_length_c   7.63009818
_cell_angle_alpha   84.29714514
_cell_angle_beta   136.75555241
_cell_angle_gamma   124.76158136
_symmetry_Int_Tables_number   1
_chemical_formula_structural   Mg2FeWO6
_chemical_formula_sum   'Mg2 Fe1 W1 O6'
_cell_volume   111.91264537
_cell_formula_units_Z   1
loop_
 _symmetry_equiv_pos_site_id
 _symmetry_equiv_pos_as_xyz
  1  'x, y, z'
loop_
 _atom_site_type_symbol
 _atom_site_label
 _atom_site_symmetry_multiplicity
 _atom_site_fract_x
 _atom_site_fract_y
 _atom_site_fract_z
 _atom_site_occupancy
  Mg  Mg0  1  0.00347986  0.57074670  0.29706307  1
  Mg  Mg1  1  0.00116421  0.57105439  0.79439117  1
  Fe  Fe2  1  0.00244386  0.99596771  0.50686130  1
  W  W3  1  0.00186485  0.97757134  0.99869864  1
  O  O4  1  0.72585850  0.80918068  0.09670332  1
  O  O5  1  0.29277103  0.08759744  0.90506064  1
  O  O6  1  0.63734533  0.44584391  0.36944419  1
  O  O7  1  0.64483437  0.08552732  0.73396569  1
  O  O8  1  0.28931800  0.79395352  0.19505268  1
  O  O9  1  0.42073798  0.50446699  0.61858430  1
