# generated using pymatgen
data_V2CrS4
_symmetry_space_group_name_H-M   'P 1'
_cell_length_a   3.28008283
_cell_length_b   5.84926227
_cell_length_c   6.44313544
_cell_angle_alpha   114.55336778
_cell_angle_beta   104.74638720
_cell_angle_gamma   90.00000000
_symmetry_Int_Tables_number   1
_chemical_formula_structural   V2CrS4
_chemical_formula_sum   'V2 Cr1 S4'
_cell_volume   107.94760723
_cell_formula_units_Z   1
loop_
 _symmetry_equiv_pos_site_id
 _symmetry_equiv_pos_as_xyz
  1  'x, y, z'
loop_
 _atom_site_type_symbol
 _atom_site_label
 _atom_site_symmetry_multiplicity
 _atom_site_fract_x
 _atom_site_fract_y
 _atom_site_fract_z
 _atom_site_occupancy
  V  V0  1  0.74179232  0.68290954  0.48358464  1
  V  V1  1  0.25820768  0.31709046  0.51641536  1
  Cr  Cr2  1  -0.00000000  0.00000000  -0.00000000  1
  S  S3  1  0.63904664  0.97979876  0.27809329  1
  S  S4  1  0.36095336  0.02020124  0.72190671  1
  S  S5  1  0.89093630  0.54939502  0.78187259  1
  S  S6  1  0.10906370  0.45060498  0.21812741  1
