# generated using pymatgen
data_SiBr3
_symmetry_space_group_name_H-M   'P 1'
_cell_length_a   6.87927350
_cell_length_b   6.87927350
_cell_length_c   7.83967623
_cell_angle_alpha   99.11029658
_cell_angle_beta   99.11029658
_cell_angle_gamma   119.77134512
_symmetry_Int_Tables_number   1
_chemical_formula_structural   SiBr3
_chemical_formula_sum   'Si2 Br6'
_cell_volume   305.58341886
_cell_formula_units_Z   2
loop_
 _symmetry_equiv_pos_site_id
 _symmetry_equiv_pos_as_xyz
  1  'x, y, z'
loop_
 _atom_site_type_symbol
 _atom_site_label
 _atom_site_symmetry_multiplicity
 _atom_site_fract_x
 _atom_site_fract_y
 _atom_site_fract_z
 _atom_site_occupancy
  Si  Si0  1  0.45362070  0.45362070  0.34092875  1
  Si  Si1  1  0.54637930  0.54637930  0.65907125  1
  Br  Br2  1  0.73499941  0.73499941  0.26046283  1
  Br  Br3  1  0.26500059  0.26500059  0.73953717  1
  Br  Br4  1  0.11726594  0.42258465  0.23414883  1
  Br  Br5  1  0.42258465  0.11726594  0.23414883  1
  Br  Br6  1  0.88273406  0.57741535  0.76585117  1
  Br  Br7  1  0.57741535  0.88273406  0.76585117  1
