# generated using pymatgen
data_Tb3Ni2
_symmetry_space_group_name_H-M   'P 1'
_cell_length_a   3.66473182
_cell_length_b   6.84284749
_cell_length_c   9.49903538
_cell_angle_alpha   105.22627651
_cell_angle_beta   90.00000000
_cell_angle_gamma   105.53210406
_symmetry_Int_Tables_number   1
_chemical_formula_structural   Tb3Ni2
_chemical_formula_sum   'Tb6 Ni4'
_cell_volume   220.81870901
_cell_formula_units_Z   2
loop_
 _symmetry_equiv_pos_site_id
 _symmetry_equiv_pos_as_xyz
  1  'x, y, z'
loop_
 _atom_site_type_symbol
 _atom_site_label
 _atom_site_symmetry_multiplicity
 _atom_site_fract_x
 _atom_site_fract_y
 _atom_site_fract_z
 _atom_site_occupancy
  Tb  Tb0  1  0.13134925  0.26269850  0.99765188  1
  Tb  Tb1  1  0.86865075  0.73730150  0.00234812  1
  Tb  Tb2  1  0.40323029  0.80646059  0.32675697  1
  Tb  Tb3  1  0.59676971  0.19353941  0.67324303  1
  Tb  Tb4  1  0.14410748  0.28821496  0.36793660  1
  Tb  Tb5  1  0.85589252  0.71178504  0.63206340  1
  Ni  Ni6  1  0.53514694  0.07029388  0.14377905  1
  Ni  Ni7  1  0.46485306  0.92970612  0.85622095  1
  Ni  Ni8  1  0.74373871  0.48747743  0.22696841  1
  Ni  Ni9  1  0.25626129  0.51252257  0.77303159  1
