# generated using pymatgen
data_Nb(SBr)2
_symmetry_space_group_name_H-M   'P 1'
_cell_length_a   6.65337337
_cell_length_b   6.65337337
_cell_length_c   7.18731474
_cell_angle_alpha   99.73043837
_cell_angle_beta   99.73043837
_cell_angle_gamma   119.29473479
_symmetry_Int_Tables_number   1
_chemical_formula_structural   Nb(SBr)2
_chemical_formula_sum   'Nb2 S4 Br4'
_cell_volume   261.49450044
_cell_formula_units_Z   2
loop_
 _symmetry_equiv_pos_site_id
 _symmetry_equiv_pos_as_xyz
  1  'x, y, z'
loop_
 _atom_site_type_symbol
 _atom_site_label
 _atom_site_symmetry_multiplicity
 _atom_site_fract_x
 _atom_site_fract_y
 _atom_site_fract_z
 _atom_site_occupancy
  Nb  Nb0  1  0.87397528  0.12602472  -0.00000000  1
  Nb  Nb1  1  0.12602472  0.87397528  -0.00000000  1
  S  S2  1  0.13538005  0.13538005  0.30207013  1
  S  S3  1  0.86461995  0.86461995  0.69792987  1
  S  S4  1  0.68118237  0.68118237  0.86915671  1
  S  S5  1  0.31881763  0.31881763  0.13084329  1
  Br  Br6  1  0.02589416  0.43425583  0.77175702  1
  Br  Br7  1  0.43425583  0.02589416  0.77175702  1
  Br  Br8  1  0.97410584  0.56574417  0.22824298  1
  Br  Br9  1  0.56574417  0.97410584  0.22824298  1
