# generated using pymatgen
data_Sr3CaMn2S2O5
_symmetry_space_group_name_H-M   'P 1'
_cell_length_a   3.97391975
_cell_length_b   3.97391975
_cell_length_c   14.65198591
_cell_angle_alpha   97.79391073
_cell_angle_beta   97.79391073
_cell_angle_gamma   90.00000000
_symmetry_Int_Tables_number   1
_chemical_formula_structural   Sr3CaMn2S2O5
_chemical_formula_sum   'Sr3 Ca1 Mn2 S2 O5'
_cell_volume   227.08965841
_cell_formula_units_Z   1
loop_
 _symmetry_equiv_pos_site_id
 _symmetry_equiv_pos_as_xyz
  1  'x, y, z'
loop_
 _atom_site_type_symbol
 _atom_site_label
 _atom_site_symmetry_multiplicity
 _atom_site_fract_x
 _atom_site_fract_y
 _atom_site_fract_z
 _atom_site_occupancy
  Sr  Sr0  1  0.50000000  0.50000000  -0.00000000  1
  Sr  Sr1  1  0.63077184  0.63077184  0.26154467  1
  Sr  Sr2  1  0.36922816  0.36922816  0.73845533  1
  Ca  Ca3  1  0.75000000  0.25000000  0.50000000  1
  Mn  Mn4  1  0.06818834  0.06818834  0.13637768  1
  Mn  Mn5  1  0.93181166  0.93181166  0.86362232  1
  S  S6  1  0.18477979  0.18477979  0.36956058  1
  S  S7  1  0.81522021  0.81522021  0.63043942  1
  O  O8  1  0.07507255  0.57507255  0.15014610  1
  O  O9  1  0.57531334  0.07531334  0.15062568  1
  O  O10  1  0.92468666  0.42468666  0.84937432  1
  O  O11  1  0.42492745  0.92492745  0.84985390  1
  O  O12  1  -0.00000000  -0.00000000  -0.00000000  1
