# generated using pymatgen
data_PRuS
_symmetry_space_group_name_H-M   'P 1'
_cell_length_a   5.77254984
_cell_length_b   5.79758844
_cell_length_c   5.84091512
_cell_angle_alpha   90.00000000
_cell_angle_beta   110.65694814
_cell_angle_gamma   90.00000000
_symmetry_Int_Tables_number   1
_chemical_formula_structural   PRuS
_chemical_formula_sum   'P4 Ru4 S4'
_cell_volume   182.90978789
_cell_formula_units_Z   4
loop_
 _symmetry_equiv_pos_site_id
 _symmetry_equiv_pos_as_xyz
  1  'x, y, z'
loop_
 _atom_site_type_symbol
 _atom_site_label
 _atom_site_symmetry_multiplicity
 _atom_site_fract_x
 _atom_site_fract_y
 _atom_site_fract_z
 _atom_site_occupancy
  P  P0  1  0.15052811  0.87792692  0.87279634  1
  P  P1  1  0.84947189  0.37792692  0.62720366  1
  P  P2  1  0.84947189  0.12207308  0.12720366  1
  P  P3  1  0.15052811  0.62207308  0.37279634  1
  Ru  Ru4  1  0.27393139  0.50256920  0.79284626  1
  Ru  Ru5  1  0.72606861  0.00256920  0.70715374  1
  Ru  Ru6  1  0.72606861  0.49743080  0.20715374  1
  Ru  Ru7  1  0.27393139  0.99743080  0.29284626  1
  S  S8  1  0.33534100  0.12215755  0.69094798  1
  S  S9  1  0.66465900  0.62215755  0.80905202  1
  S  S10  1  0.66465900  0.87784245  0.30905202  1
  S  S11  1  0.33534100  0.37784245  0.19094798  1
