# generated using pymatgen
data_Mg(C2N3)2
_symmetry_space_group_name_H-M   'P 1'
_cell_length_a   6.74886915
_cell_length_b   7.21005922
_cell_length_c   7.46480907
_cell_angle_alpha   90.00000000
_cell_angle_beta   90.00000000
_cell_angle_gamma   90.00000000
_symmetry_Int_Tables_number   1
_chemical_formula_structural   Mg(C2N3)2
_chemical_formula_sum   'Mg2 C8 N12'
_cell_volume   363.23571507
_cell_formula_units_Z   2
loop_
 _symmetry_equiv_pos_site_id
 _symmetry_equiv_pos_as_xyz
  1  'x, y, z'
loop_
 _atom_site_type_symbol
 _atom_site_label
 _atom_site_symmetry_multiplicity
 _atom_site_fract_x
 _atom_site_fract_y
 _atom_site_fract_z
 _atom_site_occupancy
  C  C0  1  0.77693620  0.17926688  0.65139000  1
  C  C1  1  0.27693620  0.32073312  0.84861000  1
  C  C2  1  0.77693620  0.17926688  0.34861000  1
  C  C3  1  0.27693620  0.32073312  0.15139000  1
  C  C4  1  0.72306380  0.67926688  0.15139000  1
  C  C5  1  0.22306380  0.82073312  0.34861000  1
  C  C6  1  0.22306380  0.82073312  0.65139000  1
  C  C7  1  0.72306380  0.67926688  0.84861000  1
  N  N8  1  0.78975712  0.74660932  0.00000000  1
  N  N9  1  0.28975712  0.75339068  0.50000000  1
  N  N10  1  0.83029306  0.12591470  0.20819205  1
  N  N11  1  0.33029306  0.37408530  0.29180795  1
  N  N12  1  0.66970694  0.62591470  0.29180795  1
  N  N13  1  0.16970694  0.87408530  0.20819205  1
  N  N14  1  0.16970694  0.87408530  0.79180795  1
  N  N15  1  0.66970694  0.62591470  0.70819205  1
  N  N16  1  0.33029306  0.37408530  0.70819205  1
  N  N17  1  0.83029306  0.12591470  0.79180795  1
  N  N18  1  0.71024288  0.24660932  0.50000000  1
  N  N19  1  0.21024288  0.25339068  0.00000000  1
  Mg  Mg20  1  0.50000000  0.50000000  0.50000000  1
  Mg  Mg21  1  0.00000000  0.00000000  0.00000000  1
