# generated using pymatgen
data_Pr2Se2O
_symmetry_space_group_name_H-M   'P 1'
_cell_length_a   7.41069099
_cell_length_b   7.42272820
_cell_length_c   8.94898823
_cell_angle_alpha   99.73973008
_cell_angle_beta   90.00000000
_cell_angle_gamma   90.00000000
_symmetry_Int_Tables_number   1
_chemical_formula_structural   Pr2Se2O
_chemical_formula_sum   'Pr8 Se8 O4'
_cell_volume   485.16660618
_cell_formula_units_Z   4
loop_
 _symmetry_equiv_pos_site_id
 _symmetry_equiv_pos_as_xyz
  1  'x, y, z'
loop_
 _atom_site_type_symbol
 _atom_site_label
 _atom_site_symmetry_multiplicity
 _atom_site_fract_x
 _atom_site_fract_y
 _atom_site_fract_z
 _atom_site_occupancy
  O  O0  1  0.91490914  0.64938553  0.61421198  1
  O  O1  1  0.58509086  0.14938553  0.61421198  1
  O  O2  1  0.08509086  0.35061447  0.38578802  1
  O  O3  1  0.41490914  0.85061447  0.38578802  1
  Se  Se4  1  0.27770447  0.02880349  0.07687146  1
  Se  Se5  1  0.37089272  0.56966786  0.67983722  1
  Se  Se6  1  0.62910728  0.43033214  0.32016278  1
  Se  Se7  1  0.12910728  0.06966786  0.67983722  1
  Se  Se8  1  0.77770447  0.47119651  0.92312854  1
  Se  Se9  1  0.72229553  0.97119651  0.92312854  1
  Se  Se10  1  0.22229553  0.52880349  0.07687146  1
  Se  Se11  1  0.87089272  0.93033214  0.32016278  1
  Pr  Pr12  1  0.94793396  0.25367516  0.14287902  1
  Pr  Pr13  1  0.44793396  0.24632484  0.85712098  1
  Pr  Pr14  1  0.05206604  0.74632484  0.85712098  1
  Pr  Pr15  1  0.55206604  0.75367516  0.14287902  1
  Pr  Pr16  1  0.85219595  0.32672961  0.57456360  1
  Pr  Pr17  1  0.35219595  0.17327039  0.42543640  1
  Pr  Pr18  1  0.14780405  0.67327039  0.42543640  1
  Pr  Pr19  1  0.64780405  0.82672961  0.57456360  1
