# generated using pymatgen
data_Ti15NbO32
_symmetry_space_group_name_H-M   'P 1'
_cell_length_a   7.64624181
_cell_length_b   7.64624181
_cell_length_c   9.69394598
_cell_angle_alpha   90.00000000
_cell_angle_beta   90.00000000
_cell_angle_gamma   90.00000000
_symmetry_Int_Tables_number   1
_chemical_formula_structural   Ti15NbO32
_chemical_formula_sum   'Ti15 Nb1 O32'
_cell_volume   566.75668566
_cell_formula_units_Z   1
loop_
 _symmetry_equiv_pos_site_id
 _symmetry_equiv_pos_as_xyz
  1  'x, y, z'
loop_
 _atom_site_type_symbol
 _atom_site_label
 _atom_site_symmetry_multiplicity
 _atom_site_fract_x
 _atom_site_fract_y
 _atom_site_fract_z
 _atom_site_occupancy
  Ti  Ti0  1  0.25163858  0.37663858  0.37500000  1
  Ti  Ti1  1  0.25163858  0.87336142  0.37500000  1
  Ti  Ti2  1  0.74836142  0.37663858  0.37500000  1
  Ti  Ti3  1  0.74836142  0.87336142  0.37500000  1
  Ti  Ti4  1  0.00000000  0.37982692  0.13135251  1
  Ti  Ti5  1  0.00000000  0.87017308  0.13135251  1
  Ti  Ti6  1  0.50000000  0.37580918  0.12473667  1
  Ti  Ti7  1  0.50000000  0.87419082  0.12473667  1
  Ti  Ti8  1  0.00000000  0.62500000  0.87232111  1
  Ti  Ti9  1  0.50000000  0.12500000  0.87767889  1
  Ti  Ti10  1  0.50000000  0.62500000  0.87500000  1
  Ti  Ti11  1  0.25482692  0.12500000  0.61864749  1
  Ti  Ti12  1  0.25080918  0.62500000  0.62526333  1
  Ti  Ti13  1  0.74517308  0.12500000  0.61864749  1
  Ti  Ti14  1  0.74919082  0.62500000  0.62526333  1
  Nb  Nb15  1  0.00000000  0.12500000  0.87500000  1
  O  O16  1  0.00000000  0.37511787  0.33205414  1
  O  O17  1  0.00000000  0.87488213  0.33205414  1
  O  O18  1  0.50000000  0.37477813  0.33208558  1
  O  O19  1  0.50000000  0.87522187  0.33208558  1
  O  O20  1  0.00000000  0.12500000  0.08477877  1
  O  O21  1  0.00000000  0.62500000  0.08275191  1
  O  O22  1  0.50000000  0.12500000  0.08173876  1
  O  O23  1  0.50000000  0.62500000  0.08211628  1
  O  O24  1  0.25011787  0.12500000  0.41794586  1
  O  O25  1  0.24977813  0.62500000  0.41791442  1
  O  O26  1  0.74988213  0.12500000  0.41794586  1
  O  O27  1  0.75022187  0.62500000  0.41791442  1
  O  O28  1  0.25009957  0.37476249  0.16799653  1
  O  O29  1  0.25009957  0.87523751  0.16799653  1
  O  O30  1  0.74990043  0.37476249  0.16799653  1
  O  O31  1  0.74990043  0.87523751  0.16799653  1
  O  O32  1  0.25256988  0.12500000  0.83108590  1
  O  O33  1  0.24977923  0.62500000  0.83204767  1
  O  O34  1  0.74743012  0.12500000  0.83108590  1
  O  O35  1  0.75022077  0.62500000  0.83204767  1
  O  O36  1  0.24976249  0.37509957  0.58200347  1
  O  O37  1  0.24976249  0.87490043  0.58200347  1
  O  O38  1  0.75023751  0.37509957  0.58200347  1
  O  O39  1  0.75023751  0.87490043  0.58200347  1
  O  O40  1  0.00000000  0.37756988  0.91891410  1
  O  O41  1  0.00000000  0.87243012  0.91891410  1
  O  O42  1  0.50000000  0.37477923  0.91795233  1
  O  O43  1  0.50000000  0.87522077  0.91795233  1
  O  O44  1  0.00000000  0.12500000  0.66522123  1
  O  O45  1  0.00000000  0.62500000  0.66826124  1
  O  O46  1  0.50000000  0.12500000  0.66724809  1
  O  O47  1  0.50000000  0.62500000  0.66788372  1
