# generated using pymatgen
data_NaErPO4F
_symmetry_space_group_name_H-M   'P 1'
_cell_length_a   5.66893744
_cell_length_b   5.66893743
_cell_length_c   6.50182398
_cell_angle_alpha   77.28591796
_cell_angle_beta   77.28591796
_cell_angle_gamma   75.58856395
_symmetry_Int_Tables_number   1
_chemical_formula_structural   NaErPO4F
_chemical_formula_sum   'Na2 Er2 P2 O8 F2'
_cell_volume   194.36583725
_cell_formula_units_Z   2
loop_
 _symmetry_equiv_pos_site_id
 _symmetry_equiv_pos_as_xyz
  1  'x, y, z'
loop_
 _atom_site_type_symbol
 _atom_site_label
 _atom_site_symmetry_multiplicity
 _atom_site_fract_x
 _atom_site_fract_y
 _atom_site_fract_z
 _atom_site_occupancy
  O  O0  1  0.98020222  0.62727716  0.15461327  1
  O  O1  1  0.37272284  0.01979778  0.84538673  1
  O  O2  1  0.01902554  0.01902554  0.26969351  1
  O  O3  1  0.98097446  0.98097446  0.73030649  1
  O  O4  1  0.74313298  0.74313298  0.51020892  1
  O  O5  1  0.25686702  0.25686702  0.48979108  1
  O  O6  1  0.01979778  0.37272284  0.84538673  1
  O  O7  1  0.62727716  0.98020222  0.15461327  1
  F  F8  1  0.51775320  0.51775320  0.18738078  1
  F  F9  1  0.48224680  0.48224680  0.81261922  1
  Na  Na10  1  0.70720156  0.29279844  0.50000000  1
  Na  Na11  1  0.29279844  0.70720156  0.50000000  1
  P  P12  1  0.84574674  0.84574674  0.27613866  1
  P  P13  1  0.15425326  0.15425326  0.72386134  1
  Er  Er14  1  0.28294634  0.28294634  0.11613507  1
  Er  Er15  1  0.71705366  0.71705366  0.88386493  1
