# generated using pymatgen
data_PrAu
_symmetry_space_group_name_H-M   'P 1'
_cell_length_a   4.83369643
_cell_length_b   5.92193108
_cell_length_c   7.59265350
_cell_angle_alpha   90.00000000
_cell_angle_beta   90.00000000
_cell_angle_gamma   90.00000000
_symmetry_Int_Tables_number   1
_chemical_formula_structural   PrAu
_chemical_formula_sum   'Pr4 Au4'
_cell_volume   217.33831789
_cell_formula_units_Z   4
loop_
 _symmetry_equiv_pos_site_id
 _symmetry_equiv_pos_as_xyz
  1  'x, y, z'
loop_
 _atom_site_type_symbol
 _atom_site_label
 _atom_site_symmetry_multiplicity
 _atom_site_fract_x
 _atom_site_fract_y
 _atom_site_fract_z
 _atom_site_occupancy
  Pr  Pr0  1  0.25000000  0.35580974  0.68714284  1
  Pr  Pr1  1  0.25000000  0.14419026  0.18714284  1
  Pr  Pr2  1  0.75000000  0.64419026  0.31285716  1
  Pr  Pr3  1  0.75000000  0.85580974  0.81285716  1
  Au  Au4  1  0.25000000  0.84981983  0.54242591  1
  Au  Au5  1  0.25000000  0.65018017  0.04242591  1
  Au  Au6  1  0.75000000  0.15018017  0.45757409  1
  Au  Au7  1  0.75000000  0.34981983  0.95757409  1
