# generated using pymatgen
data_CsNa2
_symmetry_space_group_name_H-M   'P 1'
_cell_length_a   7.77524336
_cell_length_b   7.81087906
_cell_length_c   12.70126597
_cell_angle_alpha   90.00000000
_cell_angle_beta   90.00000000
_cell_angle_gamma   120.03575459
_symmetry_Int_Tables_number   1
_chemical_formula_structural   CsNa2
_chemical_formula_sum   'Cs4 Na8'
_cell_volume   667.78239122
_cell_formula_units_Z   4
loop_
 _symmetry_equiv_pos_site_id
 _symmetry_equiv_pos_as_xyz
  1  'x, y, z'
loop_
 _atom_site_type_symbol
 _atom_site_label
 _atom_site_symmetry_multiplicity
 _atom_site_fract_x
 _atom_site_fract_y
 _atom_site_fract_z
 _atom_site_occupancy
  Cs  Cs0  1  0.66683920  0.33343857  0.56382692  1
  Cs  Cs1  1  0.33316080  0.66656143  0.43617308  1
  Cs  Cs2  1  0.33316080  0.66656143  0.06382692  1
  Cs  Cs3  1  0.66683920  0.33343857  0.93617308  1
  Na  Na4  1  0.00000000  0.00000000  0.50000000  1
  Na  Na5  1  0.00000000  0.00000000  0.00000000  1
  Na  Na6  1  0.16629229  0.33270769  0.75000000  1
  Na  Na7  1  0.16583107  0.83330854  0.75000000  1
  Na  Na8  1  0.66753527  0.83354687  0.75000000  1
  Na  Na9  1  0.83370771  0.66729231  0.25000000  1
  Na  Na10  1  0.83416893  0.16669146  0.25000000  1
  Na  Na11  1  0.33246473  0.16645313  0.25000000  1
