# generated using pymatgen
data_SrHg3
_symmetry_space_group_name_H-M   'P 1'
_cell_length_a   5.33711392
_cell_length_b   7.14218267
_cell_length_c   7.14218267
_cell_angle_alpha   123.00870554
_cell_angle_beta   90.00000000
_cell_angle_gamma   90.00000000
_symmetry_Int_Tables_number   1
_chemical_formula_structural   SrHg3
_chemical_formula_sum   'Sr2 Hg6'
_cell_volume   228.30578874
_cell_formula_units_Z   2
loop_
 _symmetry_equiv_pos_site_id
 _symmetry_equiv_pos_as_xyz
  1  'x, y, z'
loop_
 _atom_site_type_symbol
 _atom_site_label
 _atom_site_symmetry_multiplicity
 _atom_site_fract_x
 _atom_site_fract_y
 _atom_site_fract_z
 _atom_site_occupancy
  Sr  Sr0  1  0.75000000  0.66608576  0.33391424  1
  Sr  Sr1  1  0.25000000  0.33391424  0.66608576  1
  Hg  Hg2  1  0.75000000  0.15465891  0.31022104  1
  Hg  Hg3  1  0.75000000  0.15718737  0.84281263  1
  Hg  Hg4  1  0.75000000  0.68977896  0.84534109  1
  Hg  Hg5  1  0.25000000  0.84534109  0.68977896  1
  Hg  Hg6  1  0.25000000  0.84281263  0.15718737  1
  Hg  Hg7  1  0.25000000  0.31022104  0.15465891  1
