# generated using pymatgen
data_Mn2FeGe5
_symmetry_space_group_name_H-M   'P 1'
_cell_length_a   5.68942971
_cell_length_b   5.68942971
_cell_length_c   13.69739077
_cell_angle_alpha   90.00000000
_cell_angle_beta   90.00000000
_cell_angle_gamma   90.00000000
_symmetry_Int_Tables_number   1
_chemical_formula_structural   Mn2FeGe5
_chemical_formula_sum   'Mn8 Fe4 Ge20'
_cell_volume   443.37920306
_cell_formula_units_Z   4
loop_
 _symmetry_equiv_pos_site_id
 _symmetry_equiv_pos_as_xyz
  1  'x, y, z'
loop_
 _atom_site_type_symbol
 _atom_site_label
 _atom_site_symmetry_multiplicity
 _atom_site_fract_x
 _atom_site_fract_y
 _atom_site_fract_z
 _atom_site_occupancy
  Mn  Mn0  1  0.50000000  0.00000000  0.75002149  1
  Mn  Mn1  1  -0.00000000  0.50000000  0.24997851  1
  Mn  Mn2  1  -0.00000000  0.00000000  -0.00000000  1
  Mn  Mn3  1  0.50000000  0.50000000  0.50000000  1
  Mn  Mn4  1  -0.00000000  0.00000000  0.32793259  1
  Mn  Mn5  1  -0.00000000  0.00000000  0.67206741  1
  Mn  Mn6  1  0.50000000  0.50000000  0.82793670  1
  Mn  Mn7  1  0.50000000  0.50000000  0.17206330  1
  Fe  Fe8  1  0.50000000  0.00000000  0.08676155  1
  Fe  Fe9  1  -0.00000000  0.50000000  0.91323845  1
  Fe  Fe10  1  -0.00000000  0.50000000  0.58680684  1
  Fe  Fe11  1  0.50000000  0.00000000  0.41319316  1
  Ge  Ge12  1  0.67531125  0.17532381  0.25001659  1
  Ge  Ge13  1  0.82467619  0.67531125  0.74998341  1
  Ge  Ge14  1  0.32468875  0.82467619  0.25001659  1
  Ge  Ge15  1  0.17532381  0.32468875  0.74998341  1
  Ge  Ge16  1  0.15900860  0.19661399  0.15170300  1
  Ge  Ge17  1  0.80338601  0.15900860  0.84829700  1
  Ge  Ge18  1  0.84099140  0.80338601  0.15170300  1
  Ge  Ge19  1  0.19661399  0.84099140  0.84829700  1
  Ge  Ge20  1  0.34110857  0.69662623  0.65177028  1
  Ge  Ge21  1  0.69662623  0.65889143  0.34822972  1
  Ge  Ge22  1  0.65889143  0.30337377  0.65177028  1
  Ge  Ge23  1  0.30337377  0.34110857  0.34822972  1
  Ge  Ge24  1  0.34373870  0.23078505  0.94823339  1
  Ge  Ge25  1  0.76921495  0.34373870  0.05176661  1
  Ge  Ge26  1  0.65626130  0.76921495  0.94823339  1
  Ge  Ge27  1  0.23078505  0.65626130  0.05176661  1
  Ge  Ge28  1  0.15608528  0.73098860  0.44820822  1
  Ge  Ge29  1  0.73098860  0.84391472  0.55179178  1
  Ge  Ge30  1  0.84391472  0.26901140  0.44820822  1
  Ge  Ge31  1  0.26901140  0.15608528  0.55179178  1
