# generated using pymatgen
data_BaSr7Ti8O24
_symmetry_space_group_name_H-M   'P 1'
_cell_length_a   7.91609506
_cell_length_b   7.91609506
_cell_length_c   7.91609506
_cell_angle_alpha   90.00000000
_cell_angle_beta   90.00000000
_cell_angle_gamma   90.00000000
_symmetry_Int_Tables_number   1
_chemical_formula_structural   BaSr7Ti8O24
_chemical_formula_sum   'Ba1 Sr7 Ti8 O24'
_cell_volume   496.05862176
_cell_formula_units_Z   1
loop_
 _symmetry_equiv_pos_site_id
 _symmetry_equiv_pos_as_xyz
  1  'x, y, z'
loop_
 _atom_site_type_symbol
 _atom_site_label
 _atom_site_symmetry_multiplicity
 _atom_site_fract_x
 _atom_site_fract_y
 _atom_site_fract_z
 _atom_site_occupancy
  Ba  Ba0  1  0.25000000  0.75000000  0.25000000  1
  Sr  Sr1  1  0.25000000  0.25000000  0.25000000  1
  Sr  Sr2  1  0.25000000  0.25000000  0.75000000  1
  Sr  Sr3  1  0.25000000  0.75000000  0.75000000  1
  Sr  Sr4  1  0.75000000  0.25000000  0.25000000  1
  Sr  Sr5  1  0.75000000  0.25000000  0.75000000  1
  Sr  Sr6  1  0.75000000  0.75000000  0.25000000  1
  Sr  Sr7  1  0.75000000  0.75000000  0.75000000  1
  Ti  Ti8  1  0.99872609  0.00127391  0.99872609  1
  Ti  Ti9  1  0.99872609  0.00127391  0.50127391  1
  Ti  Ti10  1  0.99872609  0.49872609  0.99872609  1
  Ti  Ti11  1  0.99872609  0.49872609  0.50127391  1
  Ti  Ti12  1  0.50127391  0.00127391  0.99872609  1
  Ti  Ti13  1  0.50127391  0.00127391  0.50127391  1
  Ti  Ti14  1  0.50127391  0.49872609  0.99872609  1
  Ti  Ti15  1  0.50127391  0.49872609  0.50127391  1
  O  O16  1  0.25000000  0.00368045  0.99631955  1
  O  O17  1  0.25000000  0.00368045  0.50368045  1
  O  O18  1  0.25000000  0.49631955  0.99631955  1
  O  O19  1  0.25000000  0.49631955  0.50368045  1
  O  O20  1  0.75000000  0.00092161  -0.00092161  1
  O  O21  1  0.75000000  0.00092161  0.50092161  1
  O  O22  1  0.75000000  0.49907839  -0.00092161  1
  O  O23  1  0.75000000  0.49907839  0.50092161  1
  O  O24  1  -0.00092161  0.25000000  -0.00092161  1
  O  O25  1  -0.00092161  0.25000000  0.50092161  1
  O  O26  1  0.99631955  0.75000000  0.99631955  1
  O  O27  1  0.99631955  0.75000000  0.50368045  1
  O  O28  1  0.50092161  0.25000000  -0.00092161  1
  O  O29  1  0.50092161  0.25000000  0.50092161  1
  O  O30  1  0.50368045  0.75000000  0.99631955  1
  O  O31  1  0.50368045  0.75000000  0.50368045  1
  O  O32  1  0.99631955  0.00368045  0.25000000  1
  O  O33  1  -0.00092161  0.00092161  0.75000000  1
  O  O34  1  0.99631955  0.49631955  0.25000000  1
  O  O35  1  -0.00092161  0.49907839  0.75000000  1
  O  O36  1  0.50368045  0.00368045  0.25000000  1
  O  O37  1  0.50092161  0.00092161  0.75000000  1
  O  O38  1  0.50368045  0.49631955  0.25000000  1
  O  O39  1  0.50092161  0.49907839  0.75000000  1
