# generated using pymatgen
data_Ba2Pd
_symmetry_space_group_name_H-M   'P 1'
_cell_length_a   5.30218440
_cell_length_b   8.44850645
_cell_length_c   10.49173012
_cell_angle_alpha   90.00000000
_cell_angle_beta   90.00000000
_cell_angle_gamma   90.00000000
_symmetry_Int_Tables_number   1
_chemical_formula_structural   Ba2Pd
_chemical_formula_sum   'Ba8 Pd4'
_cell_volume   469.98270684
_cell_formula_units_Z   4
loop_
 _symmetry_equiv_pos_site_id
 _symmetry_equiv_pos_as_xyz
  1  'x, y, z'
loop_
 _atom_site_type_symbol
 _atom_site_label
 _atom_site_symmetry_multiplicity
 _atom_site_fract_x
 _atom_site_fract_y
 _atom_site_fract_z
 _atom_site_occupancy
  Ba  Ba0  1  0.75000000  0.63951452  0.08629968  1
  Ba  Ba1  1  0.75000000  0.13951452  0.41370032  1
  Ba  Ba2  1  0.25000000  0.36048548  0.91370032  1
  Ba  Ba3  1  0.25000000  0.86048548  0.58629968  1
  Ba  Ba4  1  0.75000000  0.50272415  0.65606464  1
  Ba  Ba5  1  0.75000000  0.00272415  0.84393536  1
  Ba  Ba6  1  0.25000000  0.49727585  0.34393536  1
  Ba  Ba7  1  0.25000000  0.99727585  0.15606464  1
  Pd  Pd8  1  0.75000000  0.24137962  0.08748677  1
  Pd  Pd9  1  0.75000000  0.74137962  0.41251323  1
  Pd  Pd10  1  0.25000000  0.75862038  0.91251323  1
  Pd  Pd11  1  0.25000000  0.25862038  0.58748677  1
