# generated using pymatgen
data_Na5Ni2P2(CO7)2
_symmetry_space_group_name_H-M   'P 1'
_cell_length_a   8.95665612
_cell_length_b   8.41035568
_cell_length_c   8.43643053
_cell_angle_alpha   76.28333750
_cell_angle_beta   89.32989446
_cell_angle_gamma   90.56060584
_symmetry_Int_Tables_number   1
_chemical_formula_structural   Na5Ni2P2(CO7)2
_chemical_formula_sum   'Na10 Ni4 P4 C4 O28'
_cell_volume   617.28675577
_cell_formula_units_Z   2
loop_
 _symmetry_equiv_pos_site_id
 _symmetry_equiv_pos_as_xyz
  1  'x, y, z'
loop_
 _atom_site_type_symbol
 _atom_site_label
 _atom_site_symmetry_multiplicity
 _atom_site_fract_x
 _atom_site_fract_y
 _atom_site_fract_z
 _atom_site_occupancy
  Na  Na0  1  0.91474260  0.76523054  0.98083835  1
  Na  Na1  1  0.73081364  0.12825699  0.86020049  1
  Na  Na2  1  0.75770256  0.60952480  0.38758347  1
  Na  Na3  1  0.73647224  0.37107886  0.14276101  1
  Na  Na4  1  0.74517499  0.88739937  0.61694247  1
  Na  Na5  1  0.25482501  0.11260063  0.38305753  1
  Na  Na6  1  0.26352776  0.62892114  0.85723899  1
  Na  Na7  1  0.24229744  0.39047520  0.61241653  1
  Na  Na8  1  0.26918636  0.87174301  0.13979951  1
  Na  Na9  1  0.08525740  0.23476946  0.01916165  1
  Ni  Ni10  1  0.64728767  0.01520922  0.23163140  1
  Ni  Ni11  1  0.64717613  0.51602164  0.73641585  1
  Ni  Ni12  1  0.35271233  0.98479078  0.76836860  1
  Ni  Ni13  1  0.35282387  0.48397836  0.26358415  1
  P  P14  1  0.57624999  0.23178143  0.51826672  1
  P  P15  1  0.58200493  0.73063409  0.01923429  1
  P  P16  1  0.41799507  0.26936591  0.98076571  1
  P  P17  1  0.42375001  0.76821857  0.48173328  1
  C  C18  1  0.92760101  0.48185695  0.77094981  1
  C  C19  1  0.92845719  0.98974477  0.25749044  1
  C  C20  1  0.07154281  0.01025523  0.74250956  1
  C  C21  1  0.07239899  0.51814305  0.22905019  1
  O  O22  1  0.92933257  0.01504714  0.74113027  1
  O  O23  1  0.93153104  0.53408133  0.20839595  1
  O  O24  1  0.86849986  0.59427075  0.65837196  1
  O  O25  1  0.86142618  0.10166885  0.14681548  1
  O  O26  1  0.83377121  0.38371833  0.86879200  1
  O  O27  1  0.84126668  0.88848407  0.35687488  1
  O  O28  1  0.67926737  0.67503060  0.88826457  1
  O  O29  1  0.67010624  0.17347399  0.38758889  1
  O  O30  1  0.67009447  0.36241987  0.57674951  1
  O  O31  1  0.68013271  0.86178757  0.07349958  1
  O  O32  1  0.56867945  0.19919200  0.04937052  1
  O  O33  1  0.57604070  0.70013143  0.55023951  1
  O  O34  1  0.54745609  0.08263279  0.66745333  1
  O  O35  1  0.55241018  0.58163966  0.16750911  1
  O  O36  1  0.44758982  0.41836034  0.83249089  1
  O  O37  1  0.45254391  0.91736721  0.33254667  1
  O  O38  1  0.43132055  0.80080800  0.95062948  1
  O  O39  1  0.42395930  0.29986857  0.44976049  1
  O  O40  1  0.31986729  0.13821243  0.92650042  1
  O  O41  1  0.32989376  0.82652601  0.61241111  1
  O  O42  1  0.32073263  0.32496940  0.11173543  1
  O  O43  1  0.32990553  0.63758013  0.42325049  1
  O  O44  1  0.15873332  0.11151593  0.64312512  1
  O  O45  1  0.16622879  0.61628167  0.13120800  1
  O  O46  1  0.13150014  0.40572925  0.34162804  1
  O  O47  1  0.13857382  0.89833115  0.85318452  1
  O  O48  1  0.06846896  0.46591867  0.79160405  1
  O  O49  1  0.07066743  0.98495286  0.25886973  1
