# generated using pymatgen
data_Eu3Zn2(CuP2)2
_symmetry_space_group_name_H-M   'P 1'
_cell_length_a   4.09378513
_cell_length_b   4.09382314
_cell_length_c   15.01787620
_cell_angle_alpha   90.00000002
_cell_angle_beta   90.00002469
_cell_angle_gamma   120.00030262
_symmetry_Int_Tables_number   1
_chemical_formula_structural   Eu3Zn2(CuP2)2
_chemical_formula_sum   'Eu3 Zn2 Cu2 P4'
_cell_volume   217.96760286
_cell_formula_units_Z   1
loop_
 _symmetry_equiv_pos_site_id
 _symmetry_equiv_pos_as_xyz
  1  'x, y, z'
loop_
 _atom_site_type_symbol
 _atom_site_label
 _atom_site_symmetry_multiplicity
 _atom_site_fract_x
 _atom_site_fract_y
 _atom_site_fract_z
 _atom_site_occupancy
  Eu  Eu0  1  -0.00000000  -0.00000000  0.00000000  1
  Eu  Eu1  1  0.00000227  0.00000113  0.27269360  1
  Eu  Eu2  1  0.99999773  0.99999887  0.72730640  1
  Zn  Zn3  1  0.33337302  0.66668651  0.56010530  1
  Zn  Zn4  1  0.66662698  0.33331349  0.43989470  1
  Cu  Cu5  1  0.33336843  0.66668421  0.13649416  1
  Cu  Cu6  1  0.66663157  0.33331579  0.86350584  1
  P  P7  1  0.33336846  0.66668423  0.86406575  1
  P  P8  1  0.66663154  0.33331577  0.13593425  1
  P  P9  1  0.33336840  0.66668420  0.39337269  1
  P  P10  1  0.66663160  0.33331580  0.60662731  1
