# generated using pymatgen
data_NdMgNi4
_symmetry_space_group_name_H-M   'P 1'
_cell_length_a   5.01493033
_cell_length_b   5.01896994
_cell_length_c   7.10707636
_cell_angle_alpha   90.00000000
_cell_angle_beta   90.00000000
_cell_angle_gamma   90.00000000
_symmetry_Int_Tables_number   1
_chemical_formula_structural   NdMgNi4
_chemical_formula_sum   'Nd2 Mg2 Ni8'
_cell_volume   178.88358096
_cell_formula_units_Z   2
loop_
 _symmetry_equiv_pos_site_id
 _symmetry_equiv_pos_as_xyz
  1  'x, y, z'
loop_
 _atom_site_type_symbol
 _atom_site_label
 _atom_site_symmetry_multiplicity
 _atom_site_fract_x
 _atom_site_fract_y
 _atom_site_fract_z
 _atom_site_occupancy
  Nd  Nd0  1  0.50000000  0.74250587  0.49613561  1
  Nd  Nd1  1  -0.00000000  0.25749413  0.99613561  1
  Mg  Mg2  1  0.50000000  0.24028443  0.74710737  1
  Mg  Mg3  1  -0.00000000  0.75971557  0.24710737  1
  Ni  Ni4  1  0.50000000  0.50351204  0.11962444  1
  Ni  Ni5  1  -0.00000000  0.49648796  0.61962444  1
  Ni  Ni6  1  0.50000000  0.99653294  0.11981447  1
  Ni  Ni7  1  -0.00000000  0.00346706  0.61981447  1
  Ni  Ni8  1  0.25302620  0.75133597  0.87215905  1
  Ni  Ni9  1  0.74697380  0.75133597  0.87215905  1
  Ni  Ni10  1  0.24697380  0.24866403  0.37215905  1
  Ni  Ni11  1  0.75302620  0.24866403  0.37215905  1
