# generated using pymatgen
data_Y7(CuTe4)3
_symmetry_space_group_name_H-M   'P 1'
_cell_length_a   14.30550706
_cell_length_b   42.85497917
_cell_length_c   28.25302778
_cell_angle_alpha   8.77885556
_cell_angle_beta   15.21290789
_cell_angle_gamma   17.51558127
_symmetry_Int_Tables_number   1
_chemical_formula_structural   Y7(CuTe4)3
_chemical_formula_sum   'Y7 Cu3 Te12'
_cell_volume   693.67952853
_cell_formula_units_Z   1
loop_
 _symmetry_equiv_pos_site_id
 _symmetry_equiv_pos_as_xyz
  1  'x, y, z'
loop_
 _atom_site_type_symbol
 _atom_site_label
 _atom_site_symmetry_multiplicity
 _atom_site_fract_x
 _atom_site_fract_y
 _atom_site_fract_z
 _atom_site_occupancy
  Y  Y0  1  0.58616893  0.99541880  0.58674251  1
  Y  Y1  1  0.99981319  0.66717308  0.99832653  1
  Y  Y2  1  0.40820348  0.33326979  0.42191103  1
  Y  Y3  1  0.58933250  0.33815815  0.57113272  1
  Y  Y4  1  0.42467414  0.67032491  0.40812438  1
  Y  Y5  1  0.57109736  0.66548679  0.58926874  1
  Y  Y6  1  0.41904647  0.99752698  0.42025974  1
  Cu  Cu7  1  0.18910791  0.33472175  0.18943342  1
  Cu  Cu8  1  0.80847823  0.99874188  0.81307163  1
  Cu  Cu9  1  0.81321022  0.33365494  0.80821316  1
  Te  Te10  1  0.12480255  0.99758626  0.13228604  1
  Te  Te11  1  0.29053429  0.00052659  0.29145346  1
  Te  Te12  1  0.12194981  0.33819686  0.12200479  1
  Te  Te13  1  0.29209331  0.33299039  0.29183232  1
  Te  Te14  1  0.13219730  0.66718904  0.12449898  1
  Te  Te15  1  0.29147306  0.66725853  0.29089582  1
  Te  Te16  1  0.70707787  0.33348946  0.70916329  1
  Te  Te17  1  0.87969726  0.33243871  0.87138426  1
  Te  Te18  1  0.70872039  0.66509037  0.71079481  1
  Te  Te19  1  0.87222952  0.66742586  0.87244239  1
  Te  Te20  1  0.71032167  0.00038726  0.70716280  1
  Te  Te21  1  0.87047054  0.99627661  0.88029717  1
