# generated using pymatgen
data_KNbCl6
_symmetry_space_group_name_H-M   'P 1'
_cell_length_a   7.50744864
_cell_length_b   14.78284483
_cell_length_c   12.83757142
_cell_angle_alpha   29.72559737
_cell_angle_beta   54.21093465
_cell_angle_gamma   59.47936058
_symmetry_Int_Tables_number   1
_chemical_formula_structural   KNbCl6
_chemical_formula_sum   'K2 Nb2 Cl12'
_cell_volume   573.05389725
_cell_formula_units_Z   2
loop_
 _symmetry_equiv_pos_site_id
 _symmetry_equiv_pos_as_xyz
  1  'x, y, z'
loop_
 _atom_site_type_symbol
 _atom_site_label
 _atom_site_symmetry_multiplicity
 _atom_site_fract_x
 _atom_site_fract_y
 _atom_site_fract_z
 _atom_site_occupancy
  K  K0  1  0.29475069  -0.00000000  0.28609776  1
  K  K1  1  0.13305378  0.50000000  0.28609776  1
  Nb  Nb2  1  0.00786077  -0.00000000  0.00138364  1
  Nb  Nb3  1  0.98937194  0.50000000  0.00138364  1
  Cl  Cl4  1  0.21795056  0.27097104  0.23325199  1
  Cl  Cl5  1  0.76846441  -0.00000000  0.23065115  1
  Cl  Cl6  1  0.22456753  0.23010762  0.77303474  1
  Cl  Cl7  1  0.22456753  0.76989238  0.23324998  1
  Cl  Cl8  1  0.76914776  0.26989238  0.23324998  1
  Cl  Cl9  1  0.22593679  0.50000000  0.77323667  1
  Cl  Cl10  1  0.77023330  0.50000000  0.23065115  1
  Cl  Cl11  1  0.21795056  0.72902896  0.77519407  1
  Cl  Cl12  1  0.77360338  0.22902896  0.77519407  1
  Cl  Cl13  1  0.77360338  0.77097104  0.23325199  1
  Cl  Cl14  1  0.22758987  -0.00000000  0.77323667  1
  Cl  Cl15  1  0.76914776  0.73010762  0.77303474  1
