# generated using pymatgen
data_Ca3Hg
_symmetry_space_group_name_H-M   'P 1'
_cell_length_a   6.94829282
_cell_length_b   7.97064382
_cell_length_c   10.29176640
_cell_angle_alpha   90.00000000
_cell_angle_beta   90.00000000
_cell_angle_gamma   90.00000000
_symmetry_Int_Tables_number   1
_chemical_formula_structural   Ca3Hg
_chemical_formula_sum   'Ca12 Hg4'
_cell_volume   569.98238616
_cell_formula_units_Z   4
loop_
 _symmetry_equiv_pos_site_id
 _symmetry_equiv_pos_as_xyz
  1  'x, y, z'
loop_
 _atom_site_type_symbol
 _atom_site_label
 _atom_site_symmetry_multiplicity
 _atom_site_fract_x
 _atom_site_fract_y
 _atom_site_fract_z
 _atom_site_occupancy
  Ca  Ca0  1  0.33832585  0.67943345  0.05970552  1
  Ca  Ca1  1  0.16167415  0.17943345  0.44029448  1
  Ca  Ca2  1  0.66167415  0.32056655  0.55970552  1
  Ca  Ca3  1  0.83832585  0.82056655  0.94029448  1
  Ca  Ca4  1  0.66167415  0.32056655  0.94029448  1
  Ca  Ca5  1  0.83832585  0.82056655  0.55970552  1
  Ca  Ca6  1  0.33832585  0.67943345  0.44029448  1
  Ca  Ca7  1  0.16167415  0.17943345  0.05970552  1
  Ca  Ca8  1  0.86390031  0.52962989  0.25000000  1
  Ca  Ca9  1  0.63609969  0.02962989  0.25000000  1
  Ca  Ca10  1  0.13609969  0.47037011  0.75000000  1
  Ca  Ca11  1  0.36390031  0.97037011  0.75000000  1
  Hg  Hg12  1  0.05610614  0.88144789  0.25000000  1
  Hg  Hg13  1  0.44389386  0.38144789  0.25000000  1
  Hg  Hg14  1  0.94389386  0.11855211  0.75000000  1
  Hg  Hg15  1  0.55610614  0.61855211  0.75000000  1
