# generated using pymatgen
data_SmAs2Au
_symmetry_space_group_name_H-M   'P 1'
_cell_length_a   4.08234790
_cell_length_b   4.08234790
_cell_length_c   20.71259178
_cell_angle_alpha   90.00000000
_cell_angle_beta   90.00000000
_cell_angle_gamma   90.04120032
_symmetry_Int_Tables_number   1
_chemical_formula_structural   SmAs2Au
_chemical_formula_sum   'Sm4 As8 Au4'
_cell_volume   345.18694327
_cell_formula_units_Z   4
loop_
 _symmetry_equiv_pos_site_id
 _symmetry_equiv_pos_as_xyz
  1  'x, y, z'
loop_
 _atom_site_type_symbol
 _atom_site_label
 _atom_site_symmetry_multiplicity
 _atom_site_fract_x
 _atom_site_fract_y
 _atom_site_fract_z
 _atom_site_occupancy
  Sm  Sm0  1  0.23467923  0.73467923  0.61726062  1
  Sm  Sm1  1  0.76532077  0.26532077  0.38273938  1
  Sm  Sm2  1  0.73467923  0.23467923  0.88273938  1
  Sm  Sm3  1  0.26532077  0.76532077  0.11726062  1
  As  As4  1  0.73456646  0.23456646  0.65656148  1
  As  As5  1  0.26543354  0.76543354  0.34343852  1
  As  As6  1  0.23456646  0.73456646  0.84343852  1
  As  As7  1  0.76543354  0.26543354  0.15656148  1
  As  As8  1  0.27443217  0.22556783  0.50000000  1
  As  As9  1  0.22556783  0.27443217  -0.00000000  1
  As  As10  1  0.72556783  0.77443217  0.50000000  1
  As  As11  1  0.77443217  0.72556783  -0.00000000  1
  Au  Au12  1  0.23152026  0.23152026  0.75000000  1
  Au  Au13  1  0.26847974  0.26847974  0.25000000  1
  Au  Au14  1  0.76847974  0.76847974  0.25000000  1
  Au  Au15  1  0.73152026  0.73152026  0.75000000  1
