# generated using pymatgen
data_K4(NiO2)3
_symmetry_space_group_name_H-M   'P 1'
_cell_length_a   5.48305600
_cell_length_b   5.48305600
_cell_length_c   7.91456467
_cell_angle_alpha   88.84026061
_cell_angle_beta   88.84026061
_cell_angle_gamma   68.44965067
_symmetry_Int_Tables_number   1
_chemical_formula_structural   K4(NiO2)3
_chemical_formula_sum   'K4 Ni3 O6'
_cell_volume   221.24303921
_cell_formula_units_Z   1
loop_
 _symmetry_equiv_pos_site_id
 _symmetry_equiv_pos_as_xyz
  1  'x, y, z'
loop_
 _atom_site_type_symbol
 _atom_site_label
 _atom_site_symmetry_multiplicity
 _atom_site_fract_x
 _atom_site_fract_y
 _atom_site_fract_z
 _atom_site_occupancy
  K  K0  1  0.67520983  0.67520983  0.62569214  1
  K  K1  1  0.32479017  0.32479017  0.37430786  1
  K  K2  1  0.65216151  0.65216151  0.10901316  1
  K  K3  1  0.34783849  0.34783849  0.89098684  1
  Ni  Ni4  1  -0.00000000  -0.00000000  -0.00000000  1
  Ni  Ni5  1  0.96608671  0.96608671  0.33080234  1
  Ni  Ni6  1  0.03391329  0.03391329  0.66919766  1
  O  O7  1  0.13356596  0.73352913  0.15755274  1
  O  O8  1  0.73352913  0.13356596  0.15755274  1
  O  O9  1  0.86643404  0.26647087  0.84244726  1
  O  O10  1  0.26647087  0.86643404  0.84244726  1
  O  O11  1  0.19677648  0.80322352  0.50000000  1
  O  O12  1  0.80322352  0.19677648  0.50000000  1
