# generated using pymatgen
data_Tb3Se2NO
_symmetry_space_group_name_H-M   'P 1'
_cell_length_a   3.93903486
_cell_length_b   8.04700226
_cell_length_c   9.76545938
_cell_angle_alpha   97.14974323
_cell_angle_beta   90.00000000
_cell_angle_gamma   104.16716006
_symmetry_Int_Tables_number   1
_chemical_formula_structural   Tb3Se2NO
_chemical_formula_sum   'Tb6 Se4 N2 O2'
_cell_volume   297.64245684
_cell_formula_units_Z   2
loop_
 _symmetry_equiv_pos_site_id
 _symmetry_equiv_pos_as_xyz
  1  'x, y, z'
loop_
 _atom_site_type_symbol
 _atom_site_label
 _atom_site_symmetry_multiplicity
 _atom_site_fract_x
 _atom_site_fract_y
 _atom_site_fract_z
 _atom_site_occupancy
  Tb  Tb0  1  0.39143795  0.78287590  0.05417697  1
  Tb  Tb1  1  0.60856205  0.21712410  0.94582303  1
  Tb  Tb2  1  0.04389132  0.08778265  0.26056924  1
  Tb  Tb3  1  0.95610868  0.91221735  0.73943076  1
  Tb  Tb4  1  0.19765341  0.39530681  0.67487528  1
  Tb  Tb5  1  0.80234659  0.60469319  0.32512472  1
  Se  Se6  1  0.21207430  0.42414860  0.15009891  1
  Se  Se7  1  0.78792570  0.57585140  0.84990109  1
  Se  Se8  1  0.37103490  0.74206980  0.52634677  1
  Se  Se9  1  0.62896510  0.25793020  0.47365323  1
  N  N10  1  0.09810205  0.19620410  0.81287792  1
  N  N11  1  0.90189795  0.80379590  0.18712208  1
  O  O12  1  0.53580735  0.07161471  0.13977627  1
  O  O13  1  0.46419265  0.92838529  0.86022373  1
