# generated using pymatgen
data_Sm2Te5
_symmetry_space_group_name_H-M   'P 1'
_cell_length_a   4.41505993
_cell_length_b   4.41686983
_cell_length_c   22.23985839
_cell_angle_alpha   90.00000000
_cell_angle_beta   95.69656246
_cell_angle_gamma   90.00000000
_symmetry_Int_Tables_number   1
_chemical_formula_structural   Sm2Te5
_chemical_formula_sum   'Sm4 Te10'
_cell_volume   431.55202220
_cell_formula_units_Z   2
loop_
 _symmetry_equiv_pos_site_id
 _symmetry_equiv_pos_as_xyz
  1  'x, y, z'
loop_
 _atom_site_type_symbol
 _atom_site_label
 _atom_site_symmetry_multiplicity
 _atom_site_fract_x
 _atom_site_fract_y
 _atom_site_fract_z
 _atom_site_occupancy
  Sm  Sm0  1  0.09834556  0.75000000  0.19669111  1
  Sm  Sm1  1  0.90165444  0.25000000  0.80330889  1
  Sm  Sm2  1  0.30672353  0.75000000  0.61344706  1
  Sm  Sm3  1  0.69327647  0.25000000  0.38655294  1
  Te  Te4  1  0.95795935  0.75000000  0.91591870  1
  Te  Te5  1  0.04204065  0.25000000  0.08408130  1
  Te  Te6  1  0.54249102  0.75000000  0.08498203  1
  Te  Te7  1  0.45750898  0.25000000  0.91501797  1
  Te  Te8  1  0.74993028  0.75000000  0.49986056  1
  Te  Te9  1  0.25006972  0.25000000  0.50013944  1
  Te  Te10  1  0.17290767  0.75000000  0.34581533  1
  Te  Te11  1  0.82709233  0.25000000  0.65418467  1
  Te  Te12  1  0.37976762  0.75000000  0.75953524  1
  Te  Te13  1  0.62023238  0.25000000  0.24046476  1
