# generated using pymatgen
data_Yb(GaSe2)2
_symmetry_space_group_name_H-M   'P 1'
_cell_length_a   6.16622300
_cell_length_b   6.16622300
_cell_length_c   10.66495674
_cell_angle_alpha   90.00000000
_cell_angle_beta   90.00000000
_cell_angle_gamma   118.19597483
_symmetry_Int_Tables_number   1
_chemical_formula_structural   Yb(GaSe2)2
_chemical_formula_sum   'Yb2 Ga4 Se8'
_cell_volume   357.38751826
_cell_formula_units_Z   2
loop_
 _symmetry_equiv_pos_site_id
 _symmetry_equiv_pos_as_xyz
  1  'x, y, z'
loop_
 _atom_site_type_symbol
 _atom_site_label
 _atom_site_symmetry_multiplicity
 _atom_site_fract_x
 _atom_site_fract_y
 _atom_site_fract_z
 _atom_site_occupancy
  Yb  Yb0  1  0.50000000  0.50000000  0.25000000  1
  Yb  Yb1  1  0.50000000  0.50000000  0.75000000  1
  Ga  Ga2  1  0.76218942  0.23384037  0.50000000  1
  Ga  Ga3  1  0.23781058  0.76615963  0.50000000  1
  Ga  Ga4  1  0.76615963  0.23781058  -0.00000000  1
  Ga  Ga5  1  0.23384037  0.76218942  -0.00000000  1
  Se  Se6  1  0.80253619  0.65294899  0.50000000  1
  Se  Se7  1  0.19746381  0.34705101  0.50000000  1
  Se  Se8  1  0.34705101  0.19746381  -0.00000000  1
  Se  Se9  1  0.65294899  0.80253619  -0.00000000  1
  Se  Se10  1  -0.00000000  0.50000000  0.17650145  1
  Se  Se11  1  0.50000000  0.00000000  0.32349855  1
  Se  Se12  1  -0.00000000  0.50000000  0.82349855  1
  Se  Se13  1  0.50000000  0.00000000  0.67650145  1
