# generated using pymatgen
data_TmNiO3
_symmetry_space_group_name_H-M   'P 1'
_cell_length_a   5.15877213
_cell_length_b   5.53103487
_cell_length_c   7.41340375
_cell_angle_alpha   90.00000000
_cell_angle_beta   90.27059412
_cell_angle_gamma   90.00000000
_symmetry_Int_Tables_number   1
_chemical_formula_structural   TmNiO3
_chemical_formula_sum   'Tm4 Ni4 O12'
_cell_volume   211.52687407
_cell_formula_units_Z   4
loop_
 _symmetry_equiv_pos_site_id
 _symmetry_equiv_pos_as_xyz
  1  'x, y, z'
loop_
 _atom_site_type_symbol
 _atom_site_label
 _atom_site_symmetry_multiplicity
 _atom_site_fract_x
 _atom_site_fract_y
 _atom_site_fract_z
 _atom_site_occupancy
  Tm  Tm0  1  0.52127785  0.57786646  0.24916304  1
  Tm  Tm1  1  0.02127785  0.92213354  0.74916304  1
  Tm  Tm2  1  0.47872215  0.42213354  0.75083696  1
  Tm  Tm3  1  0.97872215  0.07786646  0.25083696  1
  Ni  Ni4  1  -0.00000000  0.50000000  0.50000000  1
  Ni  Ni5  1  0.50000000  -0.00000000  0.00000000  1
  Ni  Ni6  1  -0.00000000  0.50000000  0.00000000  1
  Ni  Ni7  1  0.50000000  -0.00000000  0.50000000  1
  O  O8  1  0.38779780  0.96222581  0.25586072  1
  O  O9  1  0.88779780  0.53777419  0.75586072  1
  O  O10  1  0.61220220  0.03777419  0.74413928  1
  O  O11  1  0.11220220  0.46222581  0.24413928  1
  O  O12  1  0.80258759  0.81304633  0.44584024  1
  O  O13  1  0.30258759  0.68695367  0.94584024  1
  O  O14  1  0.19741241  0.18695367  0.55415976  1
  O  O15  1  0.69741241  0.31304633  0.05415976  1
  O  O16  1  0.31654238  0.70165000  0.55771407  1
  O  O17  1  0.81654238  0.79835000  0.05771407  1
  O  O18  1  0.68345762  0.29835000  0.44228593  1
  O  O19  1  0.18345762  0.20165000  0.94228593  1
