# generated using pymatgen
data_Sm(MgBi)2
_symmetry_space_group_name_H-M   'P 1'
_cell_length_a   4.86965236
_cell_length_b   4.86972267
_cell_length_c   7.40570901
_cell_angle_alpha   89.99999996
_cell_angle_beta   89.98610510
_cell_angle_gamma   120.00048842
_symmetry_Int_Tables_number   1
_chemical_formula_structural   Sm(MgBi)2
_chemical_formula_sum   'Sm1 Mg2 Bi2'
_cell_volume   152.08882630
_cell_formula_units_Z   1
loop_
 _symmetry_equiv_pos_site_id
 _symmetry_equiv_pos_as_xyz
  1  'x, y, z'
loop_
 _atom_site_type_symbol
 _atom_site_label
 _atom_site_symmetry_multiplicity
 _atom_site_fract_x
 _atom_site_fract_y
 _atom_site_fract_z
 _atom_site_occupancy
  Sm  Sm0  1  0.00000000  0.00000000  -0.00000000  1
  Mg  Mg1  1  0.33340683  0.66670341  0.64252237  1
  Mg  Mg2  1  0.66659317  0.33329659  0.35747763  1
  Bi  Bi3  1  0.33337543  0.66668772  0.24041629  1
  Bi  Bi4  1  0.66662457  0.33331228  0.75958371  1
