# generated using pymatgen
data_Nd(As3Os)4
_symmetry_space_group_name_H-M   'P 1'
_cell_length_a   7.49385704
_cell_length_b   7.49385704
_cell_length_c   7.49385704
_cell_angle_alpha   109.47122063
_cell_angle_beta   109.47122063
_cell_angle_gamma   109.47122063
_symmetry_Int_Tables_number   1
_chemical_formula_structural   Nd(As3Os)4
_chemical_formula_sum   'Nd1 As12 Os4'
_cell_volume   323.96218609
_cell_formula_units_Z   1
loop_
 _symmetry_equiv_pos_site_id
 _symmetry_equiv_pos_as_xyz
  1  'x, y, z'
loop_
 _atom_site_type_symbol
 _atom_site_label
 _atom_site_symmetry_multiplicity
 _atom_site_fract_x
 _atom_site_fract_y
 _atom_site_fract_z
 _atom_site_occupancy
  Nd  Nd0  1  -0.00000000  0.00000000  0.00000000  1
  As  As1  1  0.34667913  0.19753730  0.85085817  1
  As  As2  1  0.65332087  0.80246270  0.14914183  1
  As  As3  1  0.65332087  0.50417903  0.85085817  1
  As  As4  1  0.34667913  0.49582097  0.14914183  1
  As  As5  1  0.19753730  0.85085817  0.34667913  1
  As  As6  1  0.80246270  0.14914183  0.65332087  1
  As  As7  1  0.50417903  0.85085817  0.65332087  1
  As  As8  1  0.49582097  0.14914183  0.34667913  1
  As  As9  1  0.85085817  0.34667913  0.19753730  1
  As  As10  1  0.14914183  0.65332087  0.80246270  1
  As  As11  1  0.85085817  0.65332087  0.50417903  1
  As  As12  1  0.14914183  0.34667913  0.49582097  1
  Os  Os13  1  -0.00000000  0.00000000  0.50000000  1
  Os  Os14  1  0.50000000  0.00000000  0.00000000  1
  Os  Os15  1  -0.00000000  0.50000000  0.00000000  1
  Os  Os16  1  0.50000000  0.50000000  0.50000000  1
