# generated using pymatgen
data_SmZn3
_symmetry_space_group_name_H-M   'P 1'
_cell_length_a   4.48515315
_cell_length_b   6.72828535
_cell_length_c   10.25597909
_cell_angle_alpha   90.00000000
_cell_angle_beta   90.00000000
_cell_angle_gamma   90.00000000
_symmetry_Int_Tables_number   1
_chemical_formula_structural   SmZn3
_chemical_formula_sum   'Sm4 Zn12'
_cell_volume   309.49868321
_cell_formula_units_Z   4
loop_
 _symmetry_equiv_pos_site_id
 _symmetry_equiv_pos_as_xyz
  1  'x, y, z'
loop_
 _atom_site_type_symbol
 _atom_site_label
 _atom_site_symmetry_multiplicity
 _atom_site_fract_x
 _atom_site_fract_y
 _atom_site_fract_z
 _atom_site_occupancy
  Sm  Sm0  1  0.75000000  0.22062940  0.83837714  1
  Sm  Sm1  1  0.75000000  0.72062940  0.66162286  1
  Sm  Sm2  1  0.25000000  0.77937060  0.16162286  1
  Sm  Sm3  1  0.25000000  0.27937060  0.33837714  1
  Zn  Zn4  1  0.75000000  0.96389644  0.39604645  1
  Zn  Zn5  1  0.75000000  0.46389644  0.10395355  1
  Zn  Zn6  1  0.25000000  0.03610356  0.60395355  1
  Zn  Zn7  1  0.25000000  0.53610356  0.89604645  1
  Zn  Zn8  1  0.75000000  0.58339314  0.35214851  1
  Zn  Zn9  1  0.75000000  0.08339314  0.14785149  1
  Zn  Zn10  1  0.25000000  0.41660686  0.64785149  1
  Zn  Zn11  1  0.25000000  0.91660686  0.85214851  1
  Zn  Zn12  1  0.75000000  0.28336286  0.54310020  1
  Zn  Zn13  1  0.75000000  0.78336286  0.95689980  1
  Zn  Zn14  1  0.25000000  0.71663714  0.45689980  1
  Zn  Zn15  1  0.25000000  0.21663714  0.04310020  1
