# generated using pymatgen
data_Ba6Ti2Nb10Si8O51
_symmetry_space_group_name_H-M   'P 1'
_cell_length_a   9.12137279
_cell_length_b   18.18257912
_cell_length_c   12.03307284
_cell_angle_alpha   40.92871808
_cell_angle_beta   112.12632046
_cell_angle_gamma   119.90260640
_symmetry_Int_Tables_number   1
_chemical_formula_structural   Ba6Ti2Nb10Si8O51
_chemical_formula_sum   'Ba6 Ti2 Nb10 Si8 O51'
_cell_volume   1133.36248591
_cell_formula_units_Z   1
loop_
 _symmetry_equiv_pos_site_id
 _symmetry_equiv_pos_as_xyz
  1  'x, y, z'
loop_
 _atom_site_type_symbol
 _atom_site_label
 _atom_site_symmetry_multiplicity
 _atom_site_fract_x
 _atom_site_fract_y
 _atom_site_fract_z
 _atom_site_occupancy
  Ba  Ba0  1  0.00012909  0.55393300  0.50000000  1
  Ba  Ba1  1  0.40588400  0.94991701  0.50000000  1
  Ba  Ba2  1  0.58964232  0.74705218  0.50000000  1
  Ba  Ba3  1  0.99968769  0.05281583  0.50000000  1
  Ba  Ba4  1  0.40980062  0.45228220  0.50000000  1
  Ba  Ba5  1  0.59531149  0.24752581  0.50000000  1
  Ti  Ti6  1  0.99988887  0.72916447  0.79039050  1
  Ti  Ti7  1  0.99988887  0.01955498  0.20960950  1
  Nb  Nb8  1  0.23573020  0.88129844  0.24469052  1
  Nb  Nb9  1  0.23573020  0.62598896  0.75530948  1
  Nb  Nb10  1  0.75964211  0.00019405  0.75732048  1
  Nb  Nb11  1  0.00023525  0.24462366  0.74789771  1
  Nb  Nb12  1  0.00023525  0.49252137  0.25210229  1
  Nb  Nb13  1  0.24056873  0.37782200  0.24262559  1
  Nb  Nb14  1  0.24056873  0.12044759  0.75737441  1
  Nb  Nb15  1  0.76430803  0.50835935  0.75538911  1
  Nb  Nb16  1  0.76430803  0.76374846  0.24461089  1
  Nb  Nb17  1  0.75964211  0.25751453  0.24267952  1
  Si  Si18  1  0.32613377  0.93196230  0.79180908  1
  Si  Si19  1  0.67362084  0.76909049  0.79192993  1
  Si  Si20  1  0.33130101  0.43530958  0.79657389  1
  Si  Si21  1  0.33130101  0.73188346  0.20342611  1
  Si  Si22  1  0.66890639  0.26949469  0.79647180  1
  Si  Si23  1  0.66890639  0.56596650  0.20352820  1
  Si  Si24  1  0.32613377  0.22377137  0.20819092  1
  Si  Si25  1  0.67362084  0.06102042  0.20807007  1
  O  O26  1  0.17511351  0.88320659  0.71025098  1
  O  O27  1  0.00042873  0.79506254  0.23239545  1
  O  O28  1  0.16855453  0.96622518  0.24519031  1
  O  O29  1  0.16855453  0.71141549  0.75480969  1
  O  O30  1  0.00042873  0.52745798  0.76760455  1
  O  O31  1  0.50595006  0.98575309  0.71471259  1
  O  O32  1  0.23152062  0.75073152  0.50000000  1
  O  O33  1  0.99983385  0.64023364  0.00628755  1
  O  O34  1  0.99952247  0.36228526  0.50000000  1
  O  O35  1  0.30448305  0.76804861  0.28169945  1
  O  O36  1  0.49293618  0.94912350  0.28545039  1
  O  O37  1  0.30448305  0.54974806  0.71830055  1
  O  O38  1  0.49293618  0.73457389  0.71454961  1
  O  O39  1  0.18269574  0.38669766  0.71470770  1
  O  O40  1  0.70174488  0.89787106  0.71409136  1
  O  O41  1  0.18269574  0.60140536  0.28529230  1
  O  O42  1  0.32672988  0.83040198  0.99781063  1
  O  O43  1  0.17629087  0.20504745  0.76639538  1
  O  O44  1  0.99965031  0.29537087  0.23253837  1
  O  O45  1  0.17629087  0.47144283  0.23360462  1
  O  O46  1  0.99965031  0.02790924  0.76746163  1
  O  O47  1  0.51061958  0.70758019  0.28147154  1
  O  O48  1  0.82460011  0.79541950  0.71074936  1
  O  O49  1  0.51061958  0.48905174  0.71852846  1
  O  O50  1  0.23093746  0.25026749  0.50000000  1
  O  O51  1  0.28069352  0.50176413  0.00014224  1
  O  O52  1  0.83312807  0.88251750  0.24474409  1
  O  O53  1  0.83312807  0.62726158  0.75525591  1
  O  O54  1  0.71934804  0.86169251  0.99961159  1
  O  O55  1  0.99983385  0.14652119  0.99371245  1
  O  O56  1  0.76943482  0.63486008  0.50000000  1
  O  O57  1  0.29969192  0.26119078  0.28603420  1
  O  O58  1  0.49042087  0.45062555  0.28142010  1
  O  O59  1  0.49042087  0.23204565  0.71857990  1
  O  O60  1  0.29969192  0.04722498  0.71396580  1
  O  O61  1  0.69410714  0.61522018  0.28186141  1
  O  O62  1  0.69410714  0.39708159  0.71813859  1
  O  O63  1  0.17511351  0.09345757  0.28974902  1
  O  O64  1  0.67320917  0.66702012  0.99783485  1
  O  O65  1  0.32672988  0.32821261  0.00218937  1
  O  O66  1  0.50595006  0.20046569  0.28528741  1
  O  O67  1  0.81739915  0.50984334  0.28567817  1
  O  O68  1  0.81739915  0.29552151  0.71432183  1
  O  O69  1  0.28069352  0.00190637  0.99985776  1
  O  O70  1  0.82199247  0.38277356  0.23411442  1
  O  O71  1  0.82199247  0.11688799  0.76588558  1
  O  O72  1  0.71934804  0.36130410  0.00038841  1
  O  O73  1  0.76821572  0.13502177  0.50000000  1
  O  O74  1  0.70174488  0.11196241  0.28590864  1
  O  O75  1  0.67320917  0.16485496  0.00216515  1
  O  O76  1  0.82460011  0.00616885  0.28925064  1
