# generated using pymatgen
data_K2Zn3S4
_symmetry_space_group_name_H-M   'P 1'
_cell_length_a   6.21658547
_cell_length_b   10.04047918
_cell_length_c   13.76092027
_cell_angle_alpha   90.00000000
_cell_angle_beta   90.00000000
_cell_angle_gamma   90.00000000
_symmetry_Int_Tables_number   1
_chemical_formula_structural   K2Zn3S4
_chemical_formula_sum   'K8 Zn12 S16'
_cell_volume   858.92219943
_cell_formula_units_Z   4
loop_
 _symmetry_equiv_pos_site_id
 _symmetry_equiv_pos_as_xyz
  1  'x, y, z'
loop_
 _atom_site_type_symbol
 _atom_site_label
 _atom_site_symmetry_multiplicity
 _atom_site_fract_x
 _atom_site_fract_y
 _atom_site_fract_z
 _atom_site_occupancy
  K  K0  1  0.50000000  0.50000000  0.50000000  1
  K  K1  1  -0.00000000  -0.00000000  0.00000000  1
  K  K2  1  0.50000000  -0.00000000  0.50000000  1
  K  K3  1  -0.00000000  0.50000000  -0.00000000  1
  K  K4  1  0.47749016  0.25000000  0.96497136  1
  K  K5  1  0.02250984  0.25000000  0.46497136  1
  K  K6  1  0.52250984  0.75000000  0.03502864  1
  K  K7  1  0.97749016  0.75000000  0.53502864  1
  Zn  Zn8  1  0.73555881  0.25000000  0.70707151  1
  Zn  Zn9  1  0.76444119  0.25000000  0.20707151  1
  Zn  Zn10  1  0.26444119  0.75000000  0.29292849  1
  Zn  Zn11  1  0.23555881  0.75000000  0.79292849  1
  Zn  Zn12  1  0.66361544  0.59857313  0.74555157  1
  Zn  Zn13  1  0.83638456  0.90142687  0.24555157  1
  Zn  Zn14  1  0.33638456  0.09857313  0.25444843  1
  Zn  Zn15  1  0.16361544  0.40142687  0.75444843  1
  Zn  Zn16  1  0.33638456  0.40142687  0.25444843  1
  Zn  Zn17  1  0.16361544  0.09857313  0.75444843  1
  Zn  Zn18  1  0.66361544  0.90142687  0.74555157  1
  Zn  Zn19  1  0.83638456  0.59857313  0.24555157  1
  S  S20  1  0.37462251  0.25000000  0.66055630  1
  S  S21  1  0.12537749  0.25000000  0.16055630  1
  S  S22  1  0.62537749  0.75000000  0.33944370  1
  S  S23  1  0.87462251  0.75000000  0.83944370  1
  S  S24  1  0.94463969  0.25000000  0.85522422  1
  S  S25  1  0.55536031  0.25000000  0.35522422  1
  S  S26  1  0.05536031  0.75000000  0.14477578  1
  S  S27  1  0.44463969  0.75000000  0.64477578  1
  S  S28  1  0.37943276  0.53902574  0.85158021  1
  S  S29  1  0.12056724  0.96097426  0.35158021  1
  S  S30  1  0.62056724  0.03902574  0.14841979  1
  S  S31  1  0.87943276  0.46097426  0.64841979  1
  S  S32  1  0.62056724  0.46097426  0.14841979  1
  S  S33  1  0.87943276  0.03902574  0.64841979  1
  S  S34  1  0.37943276  0.96097426  0.85158021  1
  S  S35  1  0.12056724  0.53902574  0.35158021  1
