# generated using pymatgen
data_NaCaMgCr(SiO3)4
_symmetry_space_group_name_H-M   'P 1'
_cell_length_a   16.03268261
_cell_length_b   6.63347109
_cell_length_c   6.63347109
_cell_angle_alpha   84.59505334
_cell_angle_beta   77.61853082
_cell_angle_gamma   77.61853040
_symmetry_Int_Tables_number   1
_chemical_formula_structural   NaCaMgCr(SiO3)4
_chemical_formula_sum   'Na3 Ca3 Mg3 Cr3 Si12 O36'
_cell_volume   672.18976886
_cell_formula_units_Z   3
loop_
 _symmetry_equiv_pos_site_id
 _symmetry_equiv_pos_as_xyz
  1  'x, y, z'
loop_
 _atom_site_type_symbol
 _atom_site_label
 _atom_site_symmetry_multiplicity
 _atom_site_fract_x
 _atom_site_fract_y
 _atom_site_fract_z
 _atom_site_occupancy
  Na  Na0  1  0.58183361  0.29992825  0.70092230  1
  Na  Na1  1  0.75000000  0.69866206  0.30133794  1
  Na  Na2  1  0.91816639  0.29907770  0.70007175  1
  Ca  Ca3  1  0.08509206  0.70088192  0.29938970  1
  Ca  Ca4  1  0.25000000  0.29705840  0.70294160  1
  Ca  Ca5  1  0.41490794  0.70061030  0.29911808  1
  Mg  Mg6  1  0.08163522  0.09690940  0.90551651  1
  Mg  Mg7  1  0.25000000  0.90962847  0.09037153  1
  Mg  Mg8  1  0.41836478  0.09448349  0.90309060  1
  Cr  Cr9  1  0.58472077  0.90602373  0.09143030  1
  Cr  Cr10  1  0.75000000  0.09577312  0.90422688  1
  Cr  Cr11  1  0.91527923  0.90856970  0.09397627  1
  Si  Si12  1  0.08843673  0.19333185  0.38179530  1
  Si  Si13  1  0.07646421  0.62112724  0.80493613  1
  Si  Si14  1  0.25593677  0.37909911  0.19292634  1
  Si  Si15  1  0.24406323  0.80707366  0.62090089  1
  Si  Si16  1  0.42353579  0.19506387  0.37887276  1
  Si  Si17  1  0.41156327  0.61820470  0.80666815  1
  Si  Si18  1  0.59064442  0.38006330  0.19912493  1
  Si  Si19  1  0.57763166  0.80123434  0.61758850  1
  Si  Si20  1  0.75656842  0.20096590  0.38291119  1
  Si  Si21  1  0.74343158  0.61708881  0.79903410  1
  Si  Si22  1  0.92236834  0.38241150  0.19876566  1
  Si  Si23  1  0.90935558  0.80087507  0.61993670  1
  O  O24  1  0.00058342  0.37002620  0.33315267  1
  O  O25  1  0.06324715  0.10231889  0.61237721  1
  O  O26  1  0.11865756  0.02834079  0.20079448  1
  O  O27  1  0.04345841  0.80016353  0.97460220  1
  O  O28  1  0.10495964  0.38897954  0.89175858  1
  O  O29  1  0.16553832  0.33748582  0.36581568  1
  O  O30  1  0.16755381  0.66384325  0.63730258  1
  O  O31  1  0.22723630  0.61340457  0.10947248  1
  O  O32  1  0.28615092  0.20076607  0.02749358  1
  O  O33  1  0.21384908  0.97250642  0.79923393  1
  O  O34  1  0.27276370  0.89052752  0.38659543  1
  O  O35  1  0.33244619  0.36269742  0.33615675  1
  O  O36  1  0.33446168  0.63418432  0.66251418  1
  O  O37  1  0.39504036  0.10824142  0.61102046  1
  O  O38  1  0.45654159  0.02539780  0.19983647  1
  O  O39  1  0.38134244  0.79920552  0.97165921  1
  O  O40  1  0.43675285  0.38762279  0.89768111  1
  O  O41  1  0.49795706  0.34140776  0.35682137  1
  O  O42  1  0.49941658  0.66684733  0.62997380  1
  O  O43  1  0.56307505  0.61627931  0.11233801  1
  O  O44  1  0.62149096  0.19408652  0.03348937  1
  O  O45  1  0.54980920  0.96105184  0.80588892  1
  O  O46  1  0.60233516  0.89304946  0.38285782  1
  O  O47  1  0.66607380  0.36090616  0.33767683  1
  O  O48  1  0.66772918  0.63468179  0.66031630  1
  O  O49  1  0.73178915  0.10615286  0.61569940  1
  O  O50  1  0.78728989  0.03544381  0.19467655  1
  O  O51  1  0.71271011  0.80532345  0.96455619  1
  O  O52  1  0.76821085  0.38430060  0.89384714  1
  O  O53  1  0.83227082  0.33968370  0.36531821  1
  O  O54  1  0.83392620  0.66232317  0.63909384  1
  O  O55  1  0.89766484  0.61714218  0.10695054  1
  O  O56  1  0.95019080  0.19411108  0.03894816  1
  O  O57  1  0.87850904  0.96651063  0.80591348  1
  O  O58  1  0.93692495  0.88766199  0.38372069  1
  O  O59  1  0.00204294  0.64317863  0.65859224  1
