# generated using pymatgen
data_Na3SmTi2Nb2O12
_symmetry_space_group_name_H-M   'P 1'
_cell_length_a   5.50534919
_cell_length_b   5.61044726
_cell_length_c   15.59311325
_cell_angle_alpha   90.00000000
_cell_angle_beta   90.00000000
_cell_angle_gamma   90.00000000
_symmetry_Int_Tables_number   1
_chemical_formula_structural   Na3SmTi2Nb2O12
_chemical_formula_sum   'Na6 Sm2 Ti4 Nb4 O24'
_cell_volume   481.63183765
_cell_formula_units_Z   2
loop_
 _symmetry_equiv_pos_site_id
 _symmetry_equiv_pos_as_xyz
  1  'x, y, z'
loop_
 _atom_site_type_symbol
 _atom_site_label
 _atom_site_symmetry_multiplicity
 _atom_site_fract_x
 _atom_site_fract_y
 _atom_site_fract_z
 _atom_site_occupancy
  Na  Na0  1  -0.00060841  0.98462471  0.37215681  1
  Na  Na1  1  -0.00060841  0.98462471  0.87784319  1
  Na  Na2  1  0.50060841  0.48462471  0.87784319  1
  Na  Na3  1  0.50060841  0.48462471  0.37215681  1
  Na  Na4  1  0.50523722  0.53033097  0.62500000  1
  Na  Na5  1  0.99476278  0.03033097  0.62500000  1
  Sm  Sm6  1  0.50956322  0.54989444  0.12500000  1
  Sm  Sm7  1  0.99043678  0.04989444  0.12500000  1
  Ti  Ti8  1  0.48984862  0.02027772  0.25302639  1
  Ti  Ti9  1  0.48984862  0.02027772  0.99697361  1
  Ti  Ti10  1  0.01015138  0.52027772  0.25302639  1
  Ti  Ti11  1  0.01015138  0.52027772  0.99697361  1
  Nb  Nb12  1  0.49569765  0.01857016  0.75184723  1
  Nb  Nb13  1  0.49569765  0.01857016  0.49815277  1
  Nb  Nb14  1  0.00430235  0.51857016  0.49815277  1
  Nb  Nb15  1  0.00430235  0.51857016  0.75184723  1
  O  O16  1  0.08199728  0.46775947  0.12500000  1
  O  O17  1  0.06759463  0.47801845  0.62500000  1
  O  O18  1  0.20698022  0.20276188  0.48041330  1
  O  O19  1  0.20672830  0.19680351  0.26031238  1
  O  O20  1  0.20698022  0.20276188  0.76958670  1
  O  O21  1  0.20672830  0.19680351  0.98968762  1
  O  O22  1  0.29327170  0.69680351  0.26031238  1
  O  O23  1  0.29301978  0.70276188  0.48041330  1
  O  O24  1  0.29301978  0.70276188  0.76958670  1
  O  O25  1  0.29327170  0.69680351  0.98968762  1
  O  O26  1  0.41800272  0.96775947  0.12500000  1
  O  O27  1  0.43240537  0.97801845  0.62500000  1
  O  O28  1  0.56774530  0.00829879  0.87878729  1
  O  O29  1  0.56774530  0.00829879  0.37121271  1
  O  O30  1  0.70995383  0.27154318  0.02816571  1
  O  O31  1  0.70995383  0.27154318  0.22183429  1
  O  O32  1  0.70785898  0.28411839  0.73396334  1
  O  O33  1  0.70785898  0.28411839  0.51603666  1
  O  O34  1  0.79004617  0.77154318  0.02816571  1
  O  O35  1  0.79004617  0.77154318  0.22183429  1
  O  O36  1  0.79214102  0.78411839  0.51603666  1
  O  O37  1  0.79214102  0.78411839  0.73396334  1
  O  O38  1  0.93225470  0.50829879  0.37121271  1
  O  O39  1  0.93225470  0.50829879  0.87878729  1
