# generated using pymatgen
data_Na5Mn2P2(CO7)2
_symmetry_space_group_name_H-M   'P 1'
_cell_length_a   9.01717434
_cell_length_b   6.84520790
_cell_length_c   5.20312964
_cell_angle_alpha   90.00000000
_cell_angle_beta   89.68426940
_cell_angle_gamma   90.00000000
_symmetry_Int_Tables_number   1
_chemical_formula_structural   Na5Mn2P2(CO7)2
_chemical_formula_sum   'Na5 Mn2 P2 C2 O14'
_cell_volume   321.15535091
_cell_formula_units_Z   1
loop_
 _symmetry_equiv_pos_site_id
 _symmetry_equiv_pos_as_xyz
  1  'x, y, z'
loop_
 _atom_site_type_symbol
 _atom_site_label
 _atom_site_symmetry_multiplicity
 _atom_site_fract_x
 _atom_site_fract_y
 _atom_site_fract_z
 _atom_site_occupancy
  Na  Na0  1  0.25015305  0.00616995  0.24287968  1
  Na  Na1  1  0.25015305  0.49383005  0.24287968  1
  Na  Na2  1  0.74621428  0.50672903  0.75288969  1
  Na  Na3  1  0.74621428  0.99326997  0.75288969  1
  Na  Na4  1  0.92135430  0.75000000  0.23832569  1
  Mn  Mn5  1  0.36174603  0.75000000  0.77704999  1
  Mn  Mn6  1  0.64626853  0.25000000  0.21855404  1
  P  P7  1  0.42145212  0.25000000  0.70760841  1
  P  P8  1  0.58721030  0.75000000  0.29846047  1
  C  C9  1  0.06344801  0.75000000  0.73196840  1
  C  C10  1  0.92303145  0.25000000  0.27296693  1
  O  O11  1  0.06153073  0.25000000  0.27706306  1
  O  O12  1  0.12661420  0.75000000  0.95660344  1
  O  O13  1  0.14630210  0.75000000  0.52621779  1
  O  O14  1  0.33368555  0.06457259  0.77259089  1
  O  O15  1  0.33368555  0.43542741  0.77259089  1
  O  O16  1  0.45638917  0.25000000  0.40554653  1
  O  O17  1  0.43000533  0.75000000  0.18063017  1
  O  O18  1  0.57588183  0.25000000  0.84425336  1
  O  O19  1  0.57461307  0.75000000  0.59735005  1
  O  O20  1  0.67961138  0.56753818  0.21320418  1
  O  O21  1  0.67961138  0.93246182  0.21320418  1
  O  O22  1  0.83512701  0.25000000  0.47457811  1
  O  O23  1  0.84704728  0.25000000  0.05464528  1
  O  O24  1  0.92023000  0.75000000  0.71361941  1
