# generated using pymatgen
data_Sm2Co2O5
_symmetry_space_group_name_H-M   'P 1'
_cell_length_a   5.44361620
_cell_length_b   5.76104231
_cell_length_c   8.56372089
_cell_angle_alpha   109.65545894
_cell_angle_beta   108.53174800
_cell_angle_gamma   90.00000000
_symmetry_Int_Tables_number   1
_chemical_formula_structural   Sm2Co2O5
_chemical_formula_sum   'Sm4 Co4 O10'
_cell_volume   238.07795317
_cell_formula_units_Z   2
loop_
 _symmetry_equiv_pos_site_id
 _symmetry_equiv_pos_as_xyz
  1  'x, y, z'
loop_
 _atom_site_type_symbol
 _atom_site_label
 _atom_site_symmetry_multiplicity
 _atom_site_fract_x
 _atom_site_fract_y
 _atom_site_fract_z
 _atom_site_occupancy
  Sm  Sm0  1  0.59996846  0.13558967  0.22087627  1
  Sm  Sm1  1  0.37909219  0.86441033  0.77912373  1
  Sm  Sm2  1  0.09996846  0.58528661  0.22087627  1
  Sm  Sm3  1  0.87909219  0.41471339  0.77912373  1
  Co  Co4  1  0.00775310  0.00000000  0.00000000  1
  Co  Co5  1  0.50775310  0.50000000  0.00000000  1
  Co  Co6  1  0.21151216  0.19036607  0.50000000  1
  Co  Co7  1  0.71151216  0.80963393  0.50000000  1
  O  O8  1  0.22475269  0.23641848  0.95332702  1
  O  O9  1  0.27142567  0.76358152  0.04667298  1
  O  O10  1  0.72475269  0.21690854  0.95332702  1
  O  O11  1  0.77142567  0.78309146  0.04667298  1
  O  O12  1  0.20903601  0.23801023  0.28540984  1
  O  O13  1  0.92362618  0.76198977  0.71459016  1
  O  O14  1  0.70903601  0.54739961  0.28540984  1
  O  O15  1  0.42362618  0.45260039  0.71459016  1
  O  O16  1  0.83683355  0.14104998  0.50000000  1
  O  O17  1  0.33683355  0.85895002  0.50000000  1
