# generated using pymatgen
data_Sr16Fe16O47
_symmetry_space_group_name_H-M   'P 1'
_cell_length_a   11.07842750
_cell_length_b   11.06790016
_cell_length_c   11.07842758
_cell_angle_alpha   60.03143187
_cell_angle_beta   59.93714615
_cell_angle_gamma   60.03142847
_symmetry_Int_Tables_number   1
_chemical_formula_structural   Sr16Fe16O47
_chemical_formula_sum   'Sr16 Fe16 O47'
_cell_volume   960.51845958
_cell_formula_units_Z   1
loop_
 _symmetry_equiv_pos_site_id
 _symmetry_equiv_pos_as_xyz
  1  'x, y, z'
loop_
 _atom_site_type_symbol
 _atom_site_label
 _atom_site_symmetry_multiplicity
 _atom_site_fract_x
 _atom_site_fract_y
 _atom_site_fract_z
 _atom_site_occupancy
  Sr  Sr0  1  0.12500000  0.11595435  0.12500000  1
  Sr  Sr1  1  0.12500000  0.63404565  0.12500000  1
  Sr  Sr2  1  0.12461842  0.12384674  0.62768809  1
  Sr  Sr3  1  0.12538158  0.62615326  0.62231191  1
  Sr  Sr4  1  0.62768809  0.12384674  0.12461842  1
  Sr  Sr5  1  0.37615326  0.37538158  0.37615326  1
  Sr  Sr6  1  0.62500000  0.12382187  0.62500000  1
  Sr  Sr7  1  0.62231191  0.62615326  0.12538158  1
  Sr  Sr8  1  0.38404565  0.37500000  0.86595435  1
  Sr  Sr9  1  0.37615326  0.87231191  0.37615326  1
  Sr  Sr10  1  0.86595435  0.37500000  0.38404565  1
  Sr  Sr11  1  0.62500000  0.62617813  0.62500000  1
  Sr  Sr12  1  0.37617813  0.87500000  0.87382187  1
  Sr  Sr13  1  0.87384674  0.37461842  0.87384674  1
  Sr  Sr14  1  0.87382187  0.87500000  0.37617813  1
  Sr  Sr15  1  0.87384674  0.87768809  0.87384674  1
  Fe  Fe16  1  0.99962337  0.00037663  0.99962337  1
  Fe  Fe17  1  0.99130091  0.50869909  0.99130091  1
  Fe  Fe18  1  0.49958189  0.00041811  0.99942701  1
  Fe  Fe19  1  0.25869909  0.24130091  0.25869909  1
  Fe  Fe20  1  0.99942701  0.50057299  0.49958189  1
  Fe  Fe21  1  0.50198864  0.99801136  0.50198864  1
  Fe  Fe22  1  0.49958189  0.50057299  0.99942701  1
  Fe  Fe23  1  0.25057299  0.24942701  0.75041811  1
  Fe  Fe24  1  0.25037663  0.74962337  0.25037663  1
  Fe  Fe25  1  0.99942701  0.00041811  0.49958189  1
  Fe  Fe26  1  0.75041811  0.24942701  0.25057299  1
  Fe  Fe27  1  0.49962337  0.50037663  0.49962337  1
  Fe  Fe28  1  0.25057299  0.74958189  0.75041811  1
  Fe  Fe29  1  0.75041811  0.74958189  0.25057299  1
  Fe  Fe30  1  0.75037663  0.24962337  0.75037663  1
  Fe  Fe31  1  0.74801136  0.75198864  0.74801136  1
  O  O32  1  0.12236693  0.13876374  0.36123626  1
  O  O33  1  0.36123626  0.13876374  0.12236693  1
  O  O34  1  0.12236693  0.37763307  0.36123626  1
  O  O35  1  0.12500000  0.87500000  0.12500000  1
  O  O36  1  0.36123626  0.37763307  0.12236693  1
  O  O37  1  0.12500000  0.37500000  0.62500000  1
  O  O38  1  0.37772973  0.12227027  0.37772973  1
  O  O39  1  0.12367544  0.12472142  0.87575211  1
  O  O40  1  0.12632456  0.62527858  0.37424789  1
  O  O41  1  0.37709459  0.12290541  0.62379283  1
  O  O42  1  0.37424789  0.62527858  0.12632456  1
  O  O43  1  0.12763307  0.37236693  0.88876374  1
  O  O44  1  0.12632456  0.87414897  0.37424789  1
  O  O45  1  0.37527858  0.37632456  0.62414897  1
  O  O46  1  0.37500000  0.62500000  0.37500000  1
  O  O47  1  0.12500000  0.87500000  0.62500000  1
  O  O48  1  0.62379283  0.12290541  0.37709459  1
  O  O49  1  0.37567903  0.12432097  0.87432097  1
  O  O50  1  0.12763307  0.61123626  0.88876374  1
  O  O51  1  0.37424789  0.87414897  0.12632456  1
  O  O52  1  0.62500000  0.37500000  0.12500000  1
  O  O53  1  0.62414897  0.37632456  0.37527858  1
  O  O54  1  0.37527858  0.62424789  0.62414897  1
  O  O55  1  0.12367544  0.87585103  0.87575211  1
  O  O56  1  0.87575211  0.12472142  0.12367544  1
  O  O57  1  0.62585103  0.12575211  0.87472142  1
  O  O58  1  0.62414897  0.62424789  0.37527858  1
  O  O59  1  0.37709459  0.87620717  0.62379283  1
  O  O60  1  0.62500000  0.37500000  0.62500000  1
  O  O61  1  0.37567903  0.62567903  0.87432097  1
  O  O62  1  0.62500000  0.87500000  0.12500000  1
  O  O63  1  0.87432097  0.12432097  0.37567903  1
  O  O64  1  0.88876374  0.37236693  0.12763307  1
  O  O65  1  0.87472142  0.12575211  0.62585103  1
  O  O66  1  0.88876374  0.61123626  0.12763307  1
  O  O67  1  0.62379283  0.87620717  0.37709459  1
  O  O68  1  0.62585103  0.37367544  0.87472142  1
  O  O69  1  0.62620717  0.62709459  0.87290541  1
  O  O70  1  0.62500000  0.87500000  0.62500000  1
  O  O71  1  0.87500000  0.12500000  0.87500000  1
  O  O72  1  0.87472142  0.37367544  0.62585103  1
  O  O73  1  0.87575211  0.87585103  0.12367544  1
  O  O74  1  0.87432097  0.62567903  0.37567903  1
  O  O75  1  0.87290541  0.62709459  0.62620717  1
  O  O76  1  0.62620717  0.87379283  0.87290541  1
  O  O77  1  0.87227027  0.62772973  0.87227027  1
  O  O78  1  0.87290541  0.87379283  0.62620717  1
