# generated using pymatgen
data_CsLi2(HO)3
_symmetry_space_group_name_H-M   'P 1'
_cell_length_a   6.82516434
_cell_length_b   5.27359816
_cell_length_c   6.78402919
_cell_angle_alpha   90.00000000
_cell_angle_beta   108.40251105
_cell_angle_gamma   90.00000000
_symmetry_Int_Tables_number   1
_chemical_formula_structural   CsLi2(HO)3
_chemical_formula_sum   'Cs2 Li4 H6 O6'
_cell_volume   231.69197452
_cell_formula_units_Z   2
loop_
 _symmetry_equiv_pos_site_id
 _symmetry_equiv_pos_as_xyz
  1  'x, y, z'
loop_
 _atom_site_type_symbol
 _atom_site_label
 _atom_site_symmetry_multiplicity
 _atom_site_fract_x
 _atom_site_fract_y
 _atom_site_fract_z
 _atom_site_occupancy
  Cs  Cs0  1  0.14642288  0.25000000  0.26723671  1
  Cs  Cs1  1  0.85357712  0.75000000  0.73276329  1
  Li  Li2  1  0.64637481  0.50243515  0.17240051  1
  Li  Li3  1  0.35362519  0.00243515  0.82759949  1
  Li  Li4  1  0.35362519  0.49756485  0.82759949  1
  Li  Li5  1  0.64637481  0.99756485  0.17240051  1
  H  H6  1  0.69570797  0.25000000  0.87463270  1
  H  H7  1  0.30429203  0.75000000  0.12536730  1
  H  H8  1  0.02987207  0.25000000  0.67057413  1
  H  H9  1  0.97012793  0.75000000  0.32942587  1
  H  H10  1  0.62943686  0.25000000  0.50342985  1
  H  H11  1  0.37056314  0.75000000  0.49657015  1
  O  O12  1  0.58494175  0.25000000  0.93508538  1
  O  O13  1  0.41505825  0.75000000  0.06491462  1
  O  O14  1  0.13138554  0.25000000  0.80863929  1
  O  O15  1  0.86861446  0.75000000  0.19136071  1
  O  O16  1  0.68414784  0.25000000  0.38838969  1
  O  O17  1  0.31585216  0.75000000  0.61161031  1
