# generated using pymatgen
data_Re2Cl5O4
_symmetry_space_group_name_H-M   'P 1'
_cell_length_a   5.98083953
_cell_length_b   6.69650727
_cell_length_c   9.34164725
_cell_angle_alpha   71.88217157
_cell_angle_beta   70.30537791
_cell_angle_gamma   86.75292273
_symmetry_Int_Tables_number   1
_chemical_formula_structural   Re2Cl5O4
_chemical_formula_sum   'Re2 Cl5 O4'
_cell_volume   334.30320633
_cell_formula_units_Z   1
loop_
 _symmetry_equiv_pos_site_id
 _symmetry_equiv_pos_as_xyz
  1  'x, y, z'
loop_
 _atom_site_type_symbol
 _atom_site_label
 _atom_site_symmetry_multiplicity
 _atom_site_fract_x
 _atom_site_fract_y
 _atom_site_fract_z
 _atom_site_occupancy
  Re  Re0  1  0.56207745  0.44452566  0.56962107  1
  Re  Re1  1  0.01666248  0.00327388  0.00003979  1
  Cl  Cl2  1  0.00048195  0.97756413  0.76517002  1
  Cl  Cl3  1  0.17798153  0.11978941  0.15205889  1
  Cl  Cl4  1  0.31486124  0.77319927  0.97896955  1
  Cl  Cl5  1  0.86747184  0.32936581  0.93711805  1
  Cl  Cl6  1  0.51730627  0.33995047  0.37703473  1
  O  O7  1  0.86005703  0.46713445  0.54284325  1
  O  O8  1  0.44573644  0.68682155  0.56379253  1
  O  O9  1  0.41795588  0.26388032  0.75470841  1
  O  O10  1  0.77740890  0.85099506  0.13774371  1
