# generated using pymatgen
data_Ca2Ti2O5
_symmetry_space_group_name_H-M   'P 1'
_cell_length_a   5.49393022
_cell_length_b   5.65320735
_cell_length_c   8.60415551
_cell_angle_alpha   109.17873394
_cell_angle_beta   108.61819575
_cell_angle_gamma   90.00000000
_symmetry_Int_Tables_number   1
_chemical_formula_structural   Ca2Ti2O5
_chemical_formula_sum   'Ca4 Ti4 O10'
_cell_volume   237.54237176
_cell_formula_units_Z   2
loop_
 _symmetry_equiv_pos_site_id
 _symmetry_equiv_pos_as_xyz
  1  'x, y, z'
loop_
 _atom_site_type_symbol
 _atom_site_label
 _atom_site_symmetry_multiplicity
 _atom_site_fract_x
 _atom_site_fract_y
 _atom_site_fract_z
 _atom_site_occupancy
  Ca  Ca0  1  0.61134013  0.13472564  0.21621135  1
  Ca  Ca1  1  0.39512879  0.86527436  0.78378865  1
  Ca  Ca2  1  0.11134013  0.58148571  0.21621135  1
  Ca  Ca3  1  0.89512879  0.41851429  0.78378865  1
  Ti  Ti4  1  0.01136257  0.00000000  0.00000000  1
  Ti  Ti5  1  0.51136257  0.50000000  0.00000000  1
  Ti  Ti6  1  0.21476659  0.19920229  0.50000000  1
  Ti  Ti7  1  0.71476659  0.80079771  0.50000000  1
  O  O8  1  0.24829267  0.23966371  0.97635434  1
  O  O9  1  0.27193833  0.76033629  0.02364566  1
  O  O10  1  0.74829267  0.23669063  0.97635434  1
  O  O11  1  0.77193833  0.76330937  0.02364566  1
  O  O12  1  0.15676815  0.19200856  0.26868966  1
  O  O13  1  0.88807848  0.80799144  0.73131034  1
  O  O14  1  0.65676815  0.57668110  0.26868966  1
  O  O15  1  0.38807848  0.42331890  0.73131034  1
  O  O16  1  0.86632430  0.11880795  0.50000000  1
  O  O17  1  0.36632430  0.88119205  0.50000000  1
