# generated using pymatgen
data_Co7(SbO6)2
_symmetry_space_group_name_H-M   'P 1'
_cell_length_a   6.15063376
_cell_length_b   6.11421477
_cell_length_c   16.28577978
_cell_angle_alpha   79.54968587
_cell_angle_beta   79.11522596
_cell_angle_gamma   120.19723402
_symmetry_Int_Tables_number   1
_chemical_formula_structural   Co7(SbO6)2
_chemical_formula_sum   'Co14 Sb4 O24'
_cell_volume   491.48678019
_cell_formula_units_Z   2
loop_
 _symmetry_equiv_pos_site_id
 _symmetry_equiv_pos_as_xyz
  1  'x, y, z'
loop_
 _atom_site_type_symbol
 _atom_site_label
 _atom_site_symmetry_multiplicity
 _atom_site_fract_x
 _atom_site_fract_y
 _atom_site_fract_z
 _atom_site_occupancy
  Co  Co0  1  0.88923617  0.05285415  0.29161947  1
  Co  Co1  1  0.49445505  0.16680131  0.17149815  1
  Co  Co2  1  0.12244040  0.29453030  0.03213939  1
  Co  Co3  1  0.48117175  0.33333300  0.33333300  1
  Co  Co4  1  0.49396672  0.65660048  0.17156904  1
  Co  Co5  1  0.86004949  0.37213670  0.63452761  1
  Co  Co6  1  0.00893429  0.01006552  0.49509796  1
  Co  Co7  1  0.49915189  0.49986469  0.49516885  1
  Co  Co8  1  0.12800149  0.61381185  0.37504653  1
  Co  Co9  1  0.50021365  0.33304911  0.83394233  1
  Co  Co10  1  0.87991516  0.71020076  0.96165370  1
  Co  Co11  1  0.00110586  0.33361689  0.83272467  1
  Co  Co12  1  0.50121145  0.83333300  0.83333300  1
  Co  Co13  1  0.13136910  0.95646624  0.70501330  1
  Sb  Sb14  1  0.51112961  0.00654911  0.99797093  1
  Sb  Sb15  1  0.50070788  0.00593962  0.49503985  1
  Sb  Sb16  1  0.98980810  0.66072738  0.17162715  1
  Sb  Sb17  1  0.50255143  0.66011689  0.66869507  1
  O  O18  1  0.71488596  0.06606569  0.08374159  1
  O  O19  1  0.25179437  0.05546919  0.08500992  1
  O  O20  1  0.75624902  0.57914327  0.09599548  1
  O  O21  1  0.75493914  0.27741568  0.24610914  1
  O  O22  1  0.27652592  0.26536040  0.24600294  1
  O  O23  1  0.72515479  0.05567895  0.58132645  1
  O  O24  1  0.75839719  0.74312691  0.24400007  1
  O  O25  1  0.25080229  0.61098705  0.08533955  1
  O  O26  1  0.72363260  0.38925132  0.42055786  1
  O  O27  1  0.25716946  0.40130660  0.42066306  1
  O  O28  1  0.27310223  0.08752373  0.57067052  1
  O  O29  1  0.24478486  0.75429620  0.23994233  1
  O  O30  1  0.73256187  0.60060131  0.58292541  1
  O  O31  1  0.73043099  0.91237080  0.42672467  1
  O  O32  1  0.73869272  0.23960414  0.76189415  1
  O  O33  1  0.73236050  0.38817150  0.92148846  1
  O  O34  1  0.28133509  0.61119681  0.58165608  1
  O  O35  1  0.73092546  0.74413040  0.74523328  1
  O  O36  1  0.26567646  0.27849450  0.74517854  1
  O  O37  1  0.25927035  0.92354009  0.42266693  1
  O  O38  1  0.27262094  0.73775030  0.74539059  1
  O  O39  1  0.26098273  0.42706186  0.90477285  1
  O  O40  1  0.73202733  0.92253660  0.92143372  1
  O  O41  1  0.28026224  0.92891670  0.92127541  1
