# generated using pymatgen
data_SrVSi2O7
_symmetry_space_group_name_H-M   'P 1'
_cell_length_a   5.37518252
_cell_length_b   7.12275766
_cell_length_c   7.88698321
_cell_angle_alpha   90.00000000
_cell_angle_beta   109.92336086
_cell_angle_gamma   90.00000000
_symmetry_Int_Tables_number   1
_chemical_formula_structural   SrVSi2O7
_chemical_formula_sum   'Sr2 V2 Si4 O14'
_cell_volume   283.88935782
_cell_formula_units_Z   2
loop_
 _symmetry_equiv_pos_site_id
 _symmetry_equiv_pos_as_xyz
  1  'x, y, z'
loop_
 _atom_site_type_symbol
 _atom_site_label
 _atom_site_symmetry_multiplicity
 _atom_site_fract_x
 _atom_site_fract_y
 _atom_site_fract_z
 _atom_site_occupancy
  Sr  Sr0  1  0.22167372  0.25000000  0.41093939  1
  Sr  Sr1  1  0.81073434  0.75000000  0.58906061  1
  V  V2  1  0.90364700  0.25000000  0.78384506  1
  V  V3  1  0.11980194  0.75000000  0.21615494  1
  Si  Si4  1  0.40624440  0.52416753  0.78415030  1
  Si  Si5  1  0.40624440  0.97583247  0.78415030  1
  Si  Si6  1  0.62209410  0.02416753  0.21584970  1
  Si  Si7  1  0.62209410  0.47583247  0.21584970  1
  O  O8  1  0.91884990  0.56060349  0.30923005  1
  O  O9  1  0.60961985  0.43939651  0.69076995  1
  O  O10  1  0.41361786  0.93897934  0.30442013  1
  O  O11  1  0.10919773  0.06102066  0.69557987  1
  O  O12  1  0.37622029  0.75000000  0.72645370  1
  O  O13  1  0.00659078  0.25000000  0.00609515  1
  O  O14  1  0.60961985  0.06060349  0.69076995  1
  O  O15  1  0.41361786  0.56102066  0.30442013  1
  O  O16  1  0.00049564  0.75000000  0.99390485  1
  O  O17  1  0.64976659  0.25000000  0.27354630  1
  O  O18  1  0.51571100  0.00000000  1.00000000  1
  O  O19  1  0.10919773  0.43897934  0.69557987  1
  O  O20  1  0.91884990  0.93939651  0.30923005  1
  O  O21  1  0.51571100  0.50000000  1.00000000  1
