# generated using pymatgen
data_Li2CoNi3O8
_symmetry_space_group_name_H-M   'P 1'
_cell_length_a   8.07811892
_cell_length_b   8.14561393
_cell_length_c   8.03755599
_cell_angle_alpha   90.29988174
_cell_angle_beta   89.29205578
_cell_angle_gamma   90.14250022
_symmetry_Int_Tables_number   1
_chemical_formula_structural   Li2CoNi3O8
_chemical_formula_sum   'Li8 Co4 Ni12 O32'
_cell_volume   528.83196774
_cell_formula_units_Z   4
loop_
 _symmetry_equiv_pos_site_id
 _symmetry_equiv_pos_as_xyz
  1  'x, y, z'
loop_
 _atom_site_type_symbol
 _atom_site_label
 _atom_site_symmetry_multiplicity
 _atom_site_fract_x
 _atom_site_fract_y
 _atom_site_fract_z
 _atom_site_occupancy
  Li  Li0  1  0.99754015  0.00378365  0.99761482  1
  Li  Li1  1  0.25297903  0.24507024  0.25353836  1
  Li  Li2  1  0.24667890  0.74491961  0.74677605  1
  Li  Li3  1  0.49488623  0.00387710  0.49433802  1
  Li  Li4  1  0.50303845  0.50206861  0.00133714  1
  Li  Li5  1  0.75230550  0.24741897  0.75655976  1
  Li  Li6  1  0.75006983  0.74702315  0.24772338  1
  Li  Li7  1  0.00268991  0.50648892  0.50075966  1
  Co  Co8  1  0.12165956  0.87471240  0.37143496  1
  Co  Co9  1  0.37357506  0.12373745  0.87323952  1
  Co  Co10  1  0.62564642  0.62587484  0.62477353  1
  Co  Co11  1  0.88036227  0.37399875  0.13107457  1
  Ni  Ni12  1  0.12397837  0.12577463  0.62610566  1
  Ni  Ni13  1  0.12917973  0.37467398  0.87814058  1
  Ni  Ni14  1  0.12663690  0.62348356  0.12413777  1
  Ni  Ni15  1  0.37927472  0.37388023  0.62887040  1
  Ni  Ni16  1  0.37554308  0.62495463  0.37288968  1
  Ni  Ni17  1  0.36986833  0.87434459  0.11874688  1
  Ni  Ni18  1  0.63015475  0.37434130  0.38013898  1
  Ni  Ni19  1  0.62395136  0.12478217  0.12547886  1
  Ni  Ni20  1  0.61907729  0.87570069  0.87028276  1
  Ni  Ni21  1  0.87550256  0.12675313  0.37814959  1
  Ni  Ni22  1  0.86954303  0.87731225  0.62152350  1
  Ni  Ni23  1  0.87603361  0.62466884  0.87614480  1
  O  O24  1  0.10750160  0.11109206  0.39248704  1
  O  O25  1  0.10076137  0.87795520  0.60943513  1
  O  O26  1  0.12275595  0.60371611  0.89287422  1
  O  O27  1  0.13821501  0.14282856  0.85951769  1
  O  O28  1  0.11821873  0.38998080  0.11339985  1
  O  O29  1  0.14722507  0.37491721  0.64428712  1
  O  O30  1  0.13145281  0.64378022  0.35559286  1
  O  O31  1  0.13641728  0.85702056  0.13138058  1
  O  O32  1  0.36622175  0.14494023  0.63686121  1
  O  O33  1  0.36416382  0.35915570  0.86313183  1
  O  O34  1  0.35874226  0.64262488  0.12998048  1
  O  O35  1  0.39461343  0.60552354  0.61800626  1
  O  O36  1  0.35599663  0.87316251  0.35135422  1
  O  O37  1  0.39815997  0.37603498  0.39554536  1
  O  O38  1  0.37660774  0.10291901  0.10867976  1
  O  O39  1  0.38592976  0.88822158  0.88256571  1
  O  O40  1  0.61448297  0.38849053  0.61660554  1
  O  O41  1  0.62172094  0.60380334  0.39367888  1
  O  O42  1  0.60256014  0.87649858  0.10321509  1
  O  O43  1  0.64635664  0.37260268  0.14767811  1
  O  O44  1  0.60837749  0.10667781  0.88771958  1
  O  O45  1  0.64268425  0.14284955  0.36370240  1
  O  O46  1  0.63367179  0.86247410  0.63442671  1
  O  O47  1  0.62720539  0.64559671  0.85391467  1
  O  O48  1  0.86356525  0.35878434  0.37046012  1
  O  O49  1  0.87174465  0.14309326  0.14603378  1
  O  O50  1  0.85158916  0.87317921  0.85452081  1
  O  O51  1  0.88353730  0.89445729  0.38725746  1
  O  O52  1  0.85428255  0.64764530  0.62532116  1
  O  O53  1  0.88053711  0.10784966  0.61194224  1
  O  O54  1  0.89762366  0.37667084  0.89451528  1
  O  O55  1  0.89690345  0.60595196  0.12426465  1
