# generated using pymatgen
data_CoNiO3
_symmetry_space_group_name_H-M   'P 1'
_cell_length_a   5.32315395
_cell_length_b   5.32315431
_cell_length_c   5.32315383
_cell_angle_alpha   55.03475275
_cell_angle_beta   55.03474057
_cell_angle_gamma   55.03475705
_symmetry_Int_Tables_number   1
_chemical_formula_structural   CoNiO3
_chemical_formula_sum   'Co2 Ni2 O6'
_cell_volume   94.33764834
_cell_formula_units_Z   2
loop_
 _symmetry_equiv_pos_site_id
 _symmetry_equiv_pos_as_xyz
  1  'x, y, z'
loop_
 _atom_site_type_symbol
 _atom_site_label
 _atom_site_symmetry_multiplicity
 _atom_site_fract_x
 _atom_site_fract_y
 _atom_site_fract_z
 _atom_site_occupancy
  Co  Co0  1  0.15764900  0.15764900  0.15764900  1
  Co  Co1  1  0.84235100  0.84235100  0.84235100  1
  Ni  Ni2  1  0.35567055  0.35567055  0.35567055  1
  Ni  Ni3  1  0.64432945  0.64432945  0.64432945  1
  O  O4  1  0.05365959  0.77317270  0.44083269  1
  O  O5  1  0.55916731  0.94634041  0.22682730  1
  O  O6  1  0.22682730  0.55916731  0.94634041  1
  O  O7  1  0.77317270  0.44083269  0.05365959  1
  O  O8  1  0.44083269  0.05365959  0.77317270  1
  O  O9  1  0.94634041  0.22682730  0.55916731  1
