# generated using pymatgen
data_Eu3GaO6
_symmetry_space_group_name_H-M   'P 1'
_cell_length_a   5.54901408
_cell_length_b   7.36458019
_cell_length_c   7.36458019
_cell_angle_alpha   102.97965873
_cell_angle_beta   90.00000000
_cell_angle_gamma   90.00000000
_symmetry_Int_Tables_number   1
_chemical_formula_structural   Eu3GaO6
_chemical_formula_sum   'Eu6 Ga2 O12'
_cell_volume   293.27248434
_cell_formula_units_Z   2
loop_
 _symmetry_equiv_pos_site_id
 _symmetry_equiv_pos_as_xyz
  1  'x, y, z'
loop_
 _atom_site_type_symbol
 _atom_site_label
 _atom_site_symmetry_multiplicity
 _atom_site_fract_x
 _atom_site_fract_y
 _atom_site_fract_z
 _atom_site_occupancy
  Eu  Eu0  1  0.03147692  0.91447169  0.70116451  1
  Eu  Eu1  1  0.03147692  0.29883549  0.08552831  1
  Eu  Eu2  1  0.53147692  0.08552831  0.29883549  1
  Eu  Eu3  1  0.53147692  0.70116451  0.91447169  1
  Eu  Eu4  1  0.06970526  0.39385333  0.60614667  1
  Eu  Eu5  1  0.56970526  0.60614667  0.39385333  1
  Ga  Ga6  1  0.49210085  0.19235378  0.80764622  1
  Ga  Ga7  1  0.99210085  0.80764622  0.19235378  1
  O  O8  1  0.32029060  0.10926516  0.58240160  1
  O  O9  1  0.32029060  0.41759840  0.89073484  1
  O  O10  1  0.82029060  0.89073484  0.41759840  1
  O  O11  1  0.82029060  0.58240160  0.10926516  1
  O  O12  1  0.29830385  0.67499886  0.64349264  1
  O  O13  1  0.29830385  0.35650736  0.32500114  1
  O  O14  1  0.79830385  0.32500114  0.35650736  1
  O  O15  1  0.79830385  0.64349264  0.67499886  1
  O  O16  1  0.35559000  0.04374779  0.95625221  1
  O  O17  1  0.85559000  0.95625221  0.04374779  1
  O  O18  1  0.82578118  0.21317586  0.78682414  1
  O  O19  1  0.32578118  0.78682414  0.21317586  1
