# generated using pymatgen
data_La7SmCr2(FeO4)6
_symmetry_space_group_name_H-M   'P 1'
_cell_length_a   7.88051974
_cell_length_b   7.87928285
_cell_length_c   7.88051974
_cell_angle_alpha   90.00022075
_cell_angle_beta   89.99501807
_cell_angle_gamma   89.99977925
_symmetry_Int_Tables_number   1
_chemical_formula_structural   La7SmCr2(FeO4)6
_chemical_formula_sum   'La7 Sm1 Cr2 Fe6 O24'
_cell_volume   489.32388097
_cell_formula_units_Z   1
loop_
 _symmetry_equiv_pos_site_id
 _symmetry_equiv_pos_as_xyz
  1  'x, y, z'
loop_
 _atom_site_type_symbol
 _atom_site_label
 _atom_site_symmetry_multiplicity
 _atom_site_fract_x
 _atom_site_fract_y
 _atom_site_fract_z
 _atom_site_occupancy
  La  La0  1  0.25000525  0.25030342  0.25000585  1
  La  La1  1  0.25000879  0.25029800  0.74999121  1
  La  La2  1  0.24999335  0.74969013  0.25000157  1
  La  La3  1  0.24999953  0.74969782  0.75000047  1
  La  La4  1  0.74999415  0.25030342  0.74999475  1
  La  La5  1  0.74999606  0.74969559  0.25000394  1
  La  La6  1  0.74999843  0.74969013  0.75000665  1
  Sm  Sm7  1  0.74999609  0.25029719  0.25000391  1
  Cr  Cr8  1  0.99991705  0.49993321  0.49990365  1
  Cr  Cr9  1  0.50009635  0.49993321  0.00008295  1
  Fe  Fe10  1  0.99985001  0.00014961  0.00014999  1
  Fe  Fe11  1  0.99985120  0.00014527  0.49985101  1
  Fe  Fe12  1  0.99984861  0.49984567  0.00015139  1
  Fe  Fe13  1  0.50014899  0.00014527  0.00014880  1
  Fe  Fe14  1  0.50014928  0.00015072  0.49985072  1
  Fe  Fe15  1  0.50015117  0.49984591  0.49984883  1
  O  O16  1  0.25013243  -0.00000343  -0.00000016  1
  O  O17  1  0.24986855  -0.00000236  0.50000103  1
  O  O18  1  0.25033359  0.49999801  0.00000187  1
  O  O19  1  0.24966693  0.49999955  0.49999994  1
  O  O20  1  0.74987011  0.00061931  0.00062470  1
  O  O21  1  0.75012983  0.00061907  0.49937556  1
  O  O22  1  0.74962289  0.49934039  0.00065719  1
  O  O23  1  0.75037653  0.49933981  0.49934329  1
  O  O24  1  0.99937582  0.25042399  0.00062418  1
  O  O25  1  0.99934209  0.25056748  0.49934311  1
  O  O26  1  0.00000149  0.74956556  -0.00000149  1
  O  O27  1  -0.00000141  0.74947127  0.49999995  1
  O  O28  1  0.50065689  0.25056748  0.00065791  1
  O  O29  1  0.50062471  0.25042340  0.49937529  1
  O  O30  1  0.50000005  0.74947127  0.00000141  1
  O  O31  1  0.49999859  0.74956426  0.50000141  1
  O  O32  1  0.99937530  0.00061931  0.25012989  1
  O  O33  1  0.00000016  -0.00000343  0.74986757  1
  O  O34  1  0.99934281  0.49934039  0.25037711  1
  O  O35  1  -0.00000187  0.49999801  0.74966641  1
  O  O36  1  0.50062444  0.00061907  0.24987017  1
  O  O37  1  0.49999897  -0.00000236  0.75013145  1
  O  O38  1  0.50065671  0.49933981  0.24962347  1
  O  O39  1  0.50000006  0.49999955  0.75033307  1
