# generated using pymatgen
data_Li3Au
_symmetry_space_group_name_H-M   'P 1'
_cell_length_a   4.75459540
_cell_length_b   4.75458479
_cell_length_c   4.76569046
_cell_angle_alpha   129.61919572
_cell_angle_beta   129.61928646
_cell_angle_gamma   73.84416561
_symmetry_Int_Tables_number   1
_chemical_formula_structural   Li3Au
_chemical_formula_sum   'Li3 Au1'
_cell_volume   62.41064941
_cell_formula_units_Z   1
loop_
 _symmetry_equiv_pos_site_id
 _symmetry_equiv_pos_as_xyz
  1  'x, y, z'
loop_
 _atom_site_type_symbol
 _atom_site_label
 _atom_site_symmetry_multiplicity
 _atom_site_fract_x
 _atom_site_fract_y
 _atom_site_fract_z
 _atom_site_occupancy
  Li  Li0  1  0.75008649  0.24991281  0.49999969  1
  Li  Li1  1  0.24991097  0.75008432  0.49999661  1
  Li  Li2  1  0.49999693  0.49999894  -0.00000032  1
  Au  Au3  1  0.00000061  0.99999892  -0.00000198  1
