# generated using pymatgen
data_La7SmMn4(FeO6)4
_symmetry_space_group_name_H-M   'P 1'
_cell_length_a   7.91599119
_cell_length_b   7.85112606
_cell_length_c   7.91599119
_cell_angle_alpha   90.00000000
_cell_angle_beta   90.00000000
_cell_angle_gamma   90.00000000
_symmetry_Int_Tables_number   1
_chemical_formula_structural   La7SmMn4(FeO6)4
_chemical_formula_sum   'La7 Sm1 Mn4 Fe4 O24'
_cell_volume   491.97445689
_cell_formula_units_Z   1
loop_
 _symmetry_equiv_pos_site_id
 _symmetry_equiv_pos_as_xyz
  1  'x, y, z'
loop_
 _atom_site_type_symbol
 _atom_site_label
 _atom_site_symmetry_multiplicity
 _atom_site_fract_x
 _atom_site_fract_y
 _atom_site_fract_z
 _atom_site_occupancy
  La  La0  1  0.25000000  0.25175882  0.25000000  1
  La  La1  1  0.25000000  0.25178926  0.75000000  1
  La  La2  1  0.25000000  0.74825132  0.25000000  1
  La  La3  1  0.25000000  0.74823303  0.75000000  1
  La  La4  1  0.75000000  0.25175882  0.75000000  1
  La  La5  1  0.75000000  0.74819228  0.25000000  1
  La  La6  1  0.75000000  0.74825132  0.75000000  1
  Sm  Sm7  1  0.75000000  0.25181261  0.25000000  1
  Mn  Mn8  1  0.99977431  0.49979216  0.00022569  1
  Mn  Mn9  1  0.99977431  0.49979216  0.49977431  1
  Mn  Mn10  1  0.50022569  0.49979216  0.00022569  1
  Mn  Mn11  1  0.50022569  0.49979216  0.49977431  1
  Fe  Fe12  1  0.99974432  0.00026102  0.00025568  1
  Fe  Fe13  1  0.99974432  0.00026102  0.49974432  1
  Fe  Fe14  1  0.50025568  0.00026102  0.00025568  1
  Fe  Fe15  1  0.50025568  0.00026102  0.49974432  1
  O  O16  1  0.25000000  0.00004068  0.00003629  1
  O  O17  1  0.25000000  0.00004068  0.49996371  1
  O  O18  1  0.25000000  0.49995819  0.00004570  1
  O  O19  1  0.25000000  0.49995819  0.49995430  1
  O  O20  1  0.75000000  0.00102425  0.00103429  1
  O  O21  1  0.75000000  0.00102425  0.49896571  1
  O  O22  1  0.75000000  0.49887615  0.00112599  1
  O  O23  1  0.75000000  0.49887615  0.49887401  1
  O  O24  1  0.99894528  0.24981145  0.00105472  1
  O  O25  1  0.99894528  0.24981145  0.49894528  1
  O  O26  1  0.99996278  0.75022423  0.00003722  1
  O  O27  1  0.99996278  0.75022423  0.49996278  1
  O  O28  1  0.50105472  0.24981145  0.00105472  1
  O  O29  1  0.50105472  0.24981145  0.49894528  1
  O  O30  1  0.50003722  0.75022423  0.00003722  1
  O  O31  1  0.50003722  0.75022423  0.49996278  1
  O  O32  1  0.99896571  0.00102425  0.25000000  1
  O  O33  1  0.99996371  0.00004068  0.75000000  1
  O  O34  1  0.99887401  0.49887615  0.25000000  1
  O  O35  1  0.99995430  0.49995819  0.75000000  1
  O  O36  1  0.50103429  0.00102425  0.25000000  1
  O  O37  1  0.50003629  0.00004068  0.75000000  1
  O  O38  1  0.50112599  0.49887615  0.25000000  1
  O  O39  1  0.50004570  0.49995819  0.75000000  1
