# generated using pymatgen
data_Lu3In
_symmetry_space_group_name_H-M   'P 1'
_cell_length_a   6.75471387
_cell_length_b   6.75520976
_cell_length_c   5.47118515
_cell_angle_alpha   90.00905354
_cell_angle_beta   89.98735387
_cell_angle_gamma   119.99444779
_symmetry_Int_Tables_number   1
_chemical_formula_structural   Lu3In
_chemical_formula_sum   'Lu6 In2'
_cell_volume   216.21315962
_cell_formula_units_Z   2
loop_
 _symmetry_equiv_pos_site_id
 _symmetry_equiv_pos_as_xyz
  1  'x, y, z'
loop_
 _atom_site_type_symbol
 _atom_site_label
 _atom_site_symmetry_multiplicity
 _atom_site_fract_x
 _atom_site_fract_y
 _atom_site_fract_z
 _atom_site_occupancy
  Lu  Lu0  1  0.83111258  0.16887860  0.75000630  1
  Lu  Lu1  1  0.33774643  0.16888748  0.75003019  1
  Lu  Lu2  1  0.83114154  0.66226873  0.75002113  1
  Lu  Lu3  1  0.16886407  0.83111472  0.24999618  1
  Lu  Lu4  1  0.66228728  0.83114367  0.24996769  1
  Lu  Lu5  1  0.16884395  0.33770854  0.24998052  1
  In  In6  1  0.66667880  0.33334505  0.24997599  1
  In  In7  1  0.33332635  0.66665222  0.75001799  1
