# generated using pymatgen
data_Bi8Se9
_symmetry_space_group_name_H-M   'P 1'
_cell_length_a   4.24628353
_cell_length_b   4.24628353
_cell_length_c   34.05549168
_cell_angle_alpha   86.42565769
_cell_angle_beta   86.42565769
_cell_angle_gamma   59.99999986
_symmetry_Int_Tables_number   1
_chemical_formula_structural   Bi8Se9
_chemical_formula_sum   'Bi8 Se9'
_cell_volume   530.40488666
_cell_formula_units_Z   1
loop_
 _symmetry_equiv_pos_site_id
 _symmetry_equiv_pos_as_xyz
  1  'x, y, z'
loop_
 _atom_site_type_symbol
 _atom_site_label
 _atom_site_symmetry_multiplicity
 _atom_site_fract_x
 _atom_site_fract_y
 _atom_site_fract_z
 _atom_site_occupancy
  Bi  Bi0  1  0.17557485  0.17557485  0.47327546  1
  Bi  Bi1  1  0.82442515  0.82442515  0.52672454  1
  Bi  Bi2  1  0.11656491  0.11656491  0.65030527  1
  Bi  Bi3  1  0.88343509  0.88343509  0.34969473  1
  Bi  Bi4  1  0.35217778  0.35217778  0.94346667  1
  Bi  Bi5  1  0.64782222  0.64782222  0.05653333  1
  Bi  Bi6  1  0.41220583  0.41220583  0.76338251  1
  Bi  Bi7  1  0.58779417  0.58779417  0.23661749  1
  Se  Se8  1  -0.00000000  -0.00000000  0.00000000  1
  Se  Se9  1  0.06390881  0.06390881  0.80827357  1
  Se  Se10  1  0.93609119  0.93609119  0.19172643  1
  Se  Se11  1  0.23515130  0.23515130  0.29454611  1
  Se  Se12  1  0.76484870  0.76484870  0.70545389  1
  Se  Se13  1  0.29935024  0.29935024  0.10194928  1
  Se  Se14  1  0.70064976  0.70064976  0.89805072  1
  Se  Se15  1  0.46541898  0.46541898  0.60374305  1
  Se  Se16  1  0.53458102  0.53458102  0.39625695  1
