# generated using pymatgen
data_Mg(BH4)2
_symmetry_space_group_name_H-M   'P 1'
_cell_length_a   7.69764509
_cell_length_b   7.69764509
_cell_length_c   7.69764509
_cell_angle_alpha   98.44191286
_cell_angle_beta   115.25176936
_cell_angle_gamma   115.25176936
_symmetry_Int_Tables_number   1
_chemical_formula_structural   Mg(BH4)2
_chemical_formula_sum   'Mg2 B4 H16'
_cell_volume   341.64304706
_cell_formula_units_Z   2
loop_
 _symmetry_equiv_pos_site_id
 _symmetry_equiv_pos_as_xyz
  1  'x, y, z'
loop_
 _atom_site_type_symbol
 _atom_site_label
 _atom_site_symmetry_multiplicity
 _atom_site_fract_x
 _atom_site_fract_y
 _atom_site_fract_z
 _atom_site_occupancy
  Mg  Mg0  1  0.50000000  0.75000000  0.25000000  1
  Mg  Mg1  1  0.00000000  -0.00000000  0.00000000  1
  B  B2  1  0.76940739  0.84946413  0.61887152  1
  B  B3  1  0.23059261  0.84946413  0.08005673  1
  B  B4  1  0.76940739  0.91994327  0.15053587  1
  B  B5  1  0.23059261  0.38112848  0.15053587  1
  H  H6  1  0.75134138  0.72859459  0.47993597  1
  H  H7  1  0.24865862  0.72859459  0.97725321  1
  H  H8  1  0.75134138  0.02274679  0.27140541  1
  H  H9  1  0.24865862  0.52006403  0.27140541  1
  H  H10  1  0.35720831  0.91495757  0.27216588  1
  H  H11  1  0.64279169  0.91495757  0.55774925  1
  H  H12  1  0.35720831  0.44225075  0.08504243  1
  H  H13  1  0.64279169  0.72783412  0.08504243  1
  H  H14  1  0.71602311  0.75119198  0.71820489  1
  H  H15  1  0.28397689  0.00218179  0.03516887  1
  H  H16  1  0.03298709  0.75119198  0.03516887  1
  H  H17  1  0.96701291  0.00218179  0.71820489  1
  H  H18  1  0.96701291  0.96483113  0.24880802  1
  H  H19  1  0.03298709  0.28179511  0.99781821  1
  H  H20  1  0.28397689  0.28179511  0.24880802  1
  H  H21  1  0.71602311  0.96483113  0.99781821  1
