# generated using pymatgen
data_Gd2Al3Ge4
_symmetry_space_group_name_H-M   'P 1'
_cell_length_a   5.88245609
_cell_length_b   7.97583952
_cell_length_c   8.06321730
_cell_angle_alpha   90.00000000
_cell_angle_beta   111.39349602
_cell_angle_gamma   90.00000000
_symmetry_Int_Tables_number   1
_chemical_formula_structural   Gd2Al3Ge4
_chemical_formula_sum   'Gd4 Al6 Ge8'
_cell_volume   352.23985953
_cell_formula_units_Z   2
loop_
 _symmetry_equiv_pos_site_id
 _symmetry_equiv_pos_as_xyz
  1  'x, y, z'
loop_
 _atom_site_type_symbol
 _atom_site_label
 _atom_site_symmetry_multiplicity
 _atom_site_fract_x
 _atom_site_fract_y
 _atom_site_fract_z
 _atom_site_occupancy
  Gd  Gd0  1  0.61481672  0.08130958  0.22963345  1
  Gd  Gd1  1  0.38518328  0.91869042  0.77036655  1
  Gd  Gd2  1  0.88518328  0.58130958  0.77036655  1
  Gd  Gd3  1  0.11481672  0.41869042  0.22963345  1
  Al  Al4  1  0.50000000  0.50000000  -0.00000000  1
  Al  Al5  1  -0.00000000  -0.00000000  -0.00000000  1
  Al  Al6  1  0.03171090  0.25000000  0.56342180  1
  Al  Al7  1  0.46828910  0.75000000  0.43657820  1
  Al  Al8  1  0.96828910  0.75000000  0.43657820  1
  Al  Al9  1  0.53171090  0.25000000  0.56342180  1
  Ge  Ge10  1  0.20137561  0.25000000  0.90275121  1
  Ge  Ge11  1  0.29862439  0.75000000  0.09724879  1
  Ge  Ge12  1  0.79862439  0.75000000  0.09724879  1
  Ge  Ge13  1  0.70137561  0.25000000  0.90275121  1
  Ge  Ge14  1  0.68463738  0.44917417  0.36927476  1
  Ge  Ge15  1  0.31536262  0.55082583  0.63072524  1
  Ge  Ge16  1  0.81536262  0.94917417  0.63072524  1
  Ge  Ge17  1  0.18463738  0.05082583  0.36927476  1
