# generated using pymatgen
data_ErReB4
_symmetry_space_group_name_H-M   'P 1'
_cell_length_a   3.60533661
_cell_length_b   5.94743921
_cell_length_c   11.50135237
_cell_angle_alpha   90.00000000
_cell_angle_beta   90.00000000
_cell_angle_gamma   90.00000000
_symmetry_Int_Tables_number   1
_chemical_formula_structural   ErReB4
_chemical_formula_sum   'Er4 Re4 B16'
_cell_volume   246.61798190
_cell_formula_units_Z   4
loop_
 _symmetry_equiv_pos_site_id
 _symmetry_equiv_pos_as_xyz
  1  'x, y, z'
loop_
 _atom_site_type_symbol
 _atom_site_label
 _atom_site_symmetry_multiplicity
 _atom_site_fract_x
 _atom_site_fract_y
 _atom_site_fract_z
 _atom_site_occupancy
  Er  Er0  1  0.50000000  0.87290381  0.14987452  1
  Er  Er1  1  0.50000000  0.12709619  0.85012548  1
  Er  Er2  1  0.50000000  0.37290381  0.35012548  1
  Er  Er3  1  0.50000000  0.62709619  0.64987452  1
  Re  Re4  1  0.50000000  0.86638730  0.41224739  1
  Re  Re5  1  0.50000000  0.13361270  0.58775261  1
  Re  Re6  1  0.50000000  0.36638730  0.08775261  1
  Re  Re7  1  0.50000000  0.63361270  0.91224739  1
  B  B8  1  0.00000000  0.52040938  0.19295937  1
  B  B9  1  -0.00000000  0.47959062  0.80704063  1
  B  B10  1  0.00000000  0.02040938  0.30704063  1
  B  B11  1  -0.00000000  0.97959062  0.69295937  1
  B  B12  1  0.00000000  0.61361003  0.04781787  1
  B  B13  1  0.00000000  0.38638997  0.95218213  1
  B  B14  1  -0.00000000  0.11361003  0.45218213  1
  B  B15  1  0.00000000  0.88638997  0.54781787  1
  B  B16  1  -0.00000000  0.63570748  0.46897653  1
  B  B17  1  0.00000000  0.36429252  0.53102347  1
  B  B18  1  -0.00000000  0.13570748  0.03102347  1
  B  B19  1  -0.00000000  0.86429252  0.96897653  1
  B  B20  1  0.00000000  0.71013105  0.31524745  1
  B  B21  1  -0.00000000  0.28986895  0.68475255  1
  B  B22  1  0.00000000  0.21013105  0.18475255  1
  B  B23  1  -0.00000000  0.78986895  0.81524745  1
