# generated using pymatgen
data_Yb7In(NiGe3)4
_symmetry_space_group_name_H-M   'P 1'
_cell_length_a   4.26832642
_cell_length_b   10.38123195
_cell_length_c   10.38123195
_cell_angle_alpha   90.00000000
_cell_angle_beta   90.00000000
_cell_angle_gamma   90.00000000
_symmetry_Int_Tables_number   1
_chemical_formula_structural   Yb7In(NiGe3)4
_chemical_formula_sum   'Yb7 In1 Ni4 Ge12'
_cell_volume   459.99743926
_cell_formula_units_Z   1
loop_
 _symmetry_equiv_pos_site_id
 _symmetry_equiv_pos_as_xyz
  1  'x, y, z'
loop_
 _atom_site_type_symbol
 _atom_site_label
 _atom_site_symmetry_multiplicity
 _atom_site_fract_x
 _atom_site_fract_y
 _atom_site_fract_z
 _atom_site_occupancy
  Yb  Yb0  1  0.50000000  0.67604365  0.32215671  1
  Yb  Yb1  1  0.50000000  0.32395635  0.67784329  1
  Yb  Yb2  1  0.50000000  0.32215671  0.32395635  1
  Yb  Yb3  1  0.50000000  0.67784329  0.67604365  1
  Yb  Yb4  1  -0.00000000  -0.00000000  -0.00000000  1
  Yb  Yb5  1  0.50000000  0.50000000  -0.00000000  1
  Yb  Yb6  1  0.50000000  -0.00000000  0.50000000  1
  In  In7  1  -0.00000000  0.50000000  0.50000000  1
  Ni  Ni8  1  0.00000000  0.72155996  0.11579804  1
  Ni  Ni9  1  -0.00000000  0.27844004  0.88420196  1
  Ni  Ni10  1  0.00000000  0.11579804  0.27844004  1
  Ni  Ni11  1  0.00000000  0.88420196  0.72155996  1
  Ge  Ge12  1  0.00000000  0.50930027  0.21074997  1
  Ge  Ge13  1  -0.00000000  0.49069973  0.78925003  1
  Ge  Ge14  1  -0.00000000  0.21074997  0.49069973  1
  Ge  Ge15  1  0.00000000  0.78925003  0.50930027  1
  Ge  Ge16  1  -0.00000000  0.88578499  0.28539015  1
  Ge  Ge17  1  -0.00000000  0.11421501  0.71460985  1
  Ge  Ge18  1  -0.00000000  0.28539015  0.11421501  1
  Ge  Ge19  1  -0.00000000  0.71460985  0.88578499  1
  Ge  Ge20  1  0.50000000  0.81038051  0.06263629  1
  Ge  Ge21  1  0.50000000  0.18961949  0.93736371  1
  Ge  Ge22  1  0.50000000  0.06263629  0.18961949  1
  Ge  Ge23  1  0.50000000  0.93736371  0.81038051  1
