# generated using pymatgen
data_BaZn2Si2O7
_symmetry_space_group_name_H-M   'P 1'
_cell_length_a   6.82476320
_cell_length_b   7.63947649
_cell_length_c   7.63947649
_cell_angle_alpha   119.03067503
_cell_angle_beta   90.00000000
_cell_angle_gamma   90.00000000
_symmetry_Int_Tables_number   1
_chemical_formula_structural   BaZn2Si2O7
_chemical_formula_sum   'Ba2 Zn4 Si4 O14'
_cell_volume   348.26118868
_cell_formula_units_Z   2
loop_
 _symmetry_equiv_pos_site_id
 _symmetry_equiv_pos_as_xyz
  1  'x, y, z'
loop_
 _atom_site_type_symbol
 _atom_site_label
 _atom_site_symmetry_multiplicity
 _atom_site_fract_x
 _atom_site_fract_y
 _atom_site_fract_z
 _atom_site_occupancy
  Ba  Ba0  1  0.62284031  0.26021803  0.26021803  1
  Ba  Ba1  1  0.12284031  0.73978197  0.73978197  1
  Zn  Zn2  1  0.37635351  0.27307669  0.72538432  1
  Zn  Zn3  1  0.37635351  0.72538432  0.27307669  1
  Zn  Zn4  1  0.87635351  0.72692331  0.27461568  1
  Zn  Zn5  1  0.87635351  0.27461568  0.72692331  1
  Si  Si6  1  0.12156258  0.08422027  0.31704422  1
  Si  Si7  1  0.12156258  0.31704422  0.08422027  1
  Si  Si8  1  0.62156258  0.91577973  0.68295578  1
  Si  Si9  1  0.62156258  0.68295578  0.91577973  1
  O  O10  1  0.11985830  0.10675774  0.10675774  1
  O  O11  1  0.61985830  0.89324226  0.89324226  1
  O  O12  1  0.31873123  0.19106412  0.44159446  1
  O  O13  1  0.31873123  0.44159446  0.19106412  1
  O  O14  1  0.81873123  0.80893588  0.55840554  1
  O  O15  1  0.81873123  0.55840554  0.80893588  1
  O  O16  1  0.91807006  0.17631473  0.43758008  1
  O  O17  1  0.91807006  0.43758008  0.17631473  1
  O  O18  1  0.41807006  0.82368527  0.56241992  1
  O  O19  1  0.41807006  0.56241992  0.82368527  1
  O  O20  1  0.12593331  0.83780006  0.22845577  1
  O  O21  1  0.12593331  0.22845577  0.83780006  1
  O  O22  1  0.62593331  0.16219994  0.77154423  1
  O  O23  1  0.62593331  0.77154423  0.16219994  1
