# generated using pymatgen
data_TbIn2Ni9
_symmetry_space_group_name_H-M   'P 1'
_cell_length_a   4.79092379
_cell_length_b   8.20792614
_cell_length_c   8.20792614
_cell_angle_alpha   90.00000000
_cell_angle_beta   90.00000000
_cell_angle_gamma   90.00000000
_symmetry_Int_Tables_number   1
_chemical_formula_structural   TbIn2Ni9
_chemical_formula_sum   'Tb2 In4 Ni18'
_cell_volume   322.76478256
_cell_formula_units_Z   2
loop_
 _symmetry_equiv_pos_site_id
 _symmetry_equiv_pos_as_xyz
  1  'x, y, z'
loop_
 _atom_site_type_symbol
 _atom_site_label
 _atom_site_symmetry_multiplicity
 _atom_site_fract_x
 _atom_site_fract_y
 _atom_site_fract_z
 _atom_site_occupancy
  Tb  Tb0  1  0.00000000  0.50000000  0.50000000  1
  Tb  Tb1  1  0.00000000  -0.00000000  0.00000000  1
  In  In2  1  0.00000000  0.12491856  0.62491856  1
  In  In3  1  0.00000000  0.87508144  0.37508144  1
  In  In4  1  0.00000000  0.37508144  0.12491856  1
  In  In5  1  0.00000000  0.62491856  0.87508144  1
  Ni  Ni6  1  0.50000000  -0.00000000  0.50000000  1
  Ni  Ni7  1  0.50000000  0.50000000  0.00000000  1
  Ni  Ni8  1  0.50000000  0.56370231  0.70589079  1
  Ni  Ni9  1  0.50000000  0.43629769  0.29410921  1
  Ni  Ni10  1  0.50000000  0.93629769  0.20589079  1
  Ni  Ni11  1  0.50000000  0.06370231  0.79410921  1
  Ni  Ni12  1  0.50000000  0.70589079  0.43629769  1
  Ni  Ni13  1  0.50000000  0.29410921  0.56370231  1
  Ni  Ni14  1  0.50000000  0.20589079  0.06370231  1
  Ni  Ni15  1  0.50000000  0.79410921  0.93629769  1
  Ni  Ni16  1  0.75208597  0.32359534  0.82359534  1
  Ni  Ni17  1  0.75208597  0.67640466  0.17640466  1
  Ni  Ni18  1  0.75208597  0.17640466  0.32359534  1
  Ni  Ni19  1  0.75208597  0.82359534  0.67640466  1
  Ni  Ni20  1  0.24791403  0.67640466  0.17640466  1
  Ni  Ni21  1  0.24791403  0.32359534  0.82359534  1
  Ni  Ni22  1  0.24791403  0.82359534  0.67640466  1
  Ni  Ni23  1  0.24791403  0.17640466  0.32359534  1
