# generated using pymatgen
data_NaMnP2O7
_symmetry_space_group_name_H-M   'P 1'
_cell_length_a   6.65435383
_cell_length_b   6.78382825
_cell_length_c   6.41816970
_cell_angle_alpha   97.61589561
_cell_angle_beta   113.70301465
_cell_angle_gamma   87.70483176
_symmetry_Int_Tables_number   1
_chemical_formula_structural   NaMnP2O7
_chemical_formula_sum   'Na2 Mn2 P4 O14'
_cell_volume   262.91976391
_cell_formula_units_Z   2
loop_
 _symmetry_equiv_pos_site_id
 _symmetry_equiv_pos_as_xyz
  1  'x, y, z'
loop_
 _atom_site_type_symbol
 _atom_site_label
 _atom_site_symmetry_multiplicity
 _atom_site_fract_x
 _atom_site_fract_y
 _atom_site_fract_z
 _atom_site_occupancy
  Na  Na0  1  0.17895758  0.86363961  0.71813958  1
  Na  Na1  1  0.82104242  0.13636039  0.28186042  1
  Mn  Mn2  1  0.21853385  0.34728340  0.09836519  1
  Mn  Mn3  1  0.78146615  0.65271660  0.90163481  1
  P  P4  1  0.23623723  0.87125077  0.21867858  1
  P  P5  1  0.76376277  0.12874923  0.78132142  1
  P  P6  1  0.34963185  0.37998967  0.64951638  1
  P  P7  1  0.65036815  0.62001033  0.35048362  1
  O  O8  1  0.47003400  0.58400590  0.75288242  1
  O  O9  1  0.52996600  0.41599410  0.24711758  1
  O  O10  1  0.23441550  0.31801369  0.79371504  1
  O  O11  1  0.76558450  0.68198631  0.20628496  1
  O  O12  1  0.52512347  0.21822867  0.63593239  1
  O  O13  1  0.47487653  0.78177133  0.36406761  1
  O  O14  1  0.13869964  0.94357102  0.38532508  1
  O  O15  1  0.86130036  0.05642898  0.61467492  1
  O  O16  1  0.11013556  0.68347237  0.04451959  1
  O  O17  1  0.88986444  0.31652763  0.95548041  1
  O  O18  1  0.27505927  0.02728158  0.08698021  1
  O  O19  1  0.72494073  0.97271842  0.91301979  1
  O  O20  1  0.18562521  0.38458907  0.39908292  1
  O  O21  1  0.81437479  0.61541093  0.60091708  1
