# generated using pymatgen
data_Ca2(ZnSn2)3
_symmetry_space_group_name_H-M   'P 1'
_cell_length_a   6.39326973
_cell_length_b   6.39485430
_cell_length_c   14.02294562
_cell_angle_alpha   103.18017069
_cell_angle_beta   90.00000000
_cell_angle_gamma   90.00000000
_symmetry_Int_Tables_number   1
_chemical_formula_structural   Ca2(ZnSn2)3
_chemical_formula_sum   'Ca4 Zn6 Sn12'
_cell_volume   558.21218414
_cell_formula_units_Z   2
loop_
 _symmetry_equiv_pos_site_id
 _symmetry_equiv_pos_as_xyz
  1  'x, y, z'
loop_
 _atom_site_type_symbol
 _atom_site_label
 _atom_site_symmetry_multiplicity
 _atom_site_fract_x
 _atom_site_fract_y
 _atom_site_fract_z
 _atom_site_occupancy
  Ca  Ca0  1  0.75000000  0.59855934  0.19711869  1
  Ca  Ca1  1  0.25000000  0.40144066  0.80288131  1
  Ca  Ca2  1  0.75000000  0.90291290  0.80582581  1
  Ca  Ca3  1  0.25000000  0.09708710  0.19417419  1
  Zn  Zn4  1  0.50000000  0.28098907  0.00000000  1
  Zn  Zn5  1  -0.00000000  0.28098907  0.00000000  1
  Zn  Zn6  1  0.50000000  0.71901093  1.00000000  1
  Zn  Zn7  1  -0.00000000  0.71901093  1.00000000  1
  Zn  Zn8  1  0.75000000  0.14943392  0.29886785  1
  Zn  Zn9  1  0.25000000  0.85056608  0.70113215  1
  Sn  Sn10  1  0.51935073  0.53456564  0.60671984  1
  Sn  Sn11  1  0.48064927  0.92784580  0.39328016  1
  Sn  Sn12  1  0.98064927  0.53456564  0.60671984  1
  Sn  Sn13  1  0.01935073  0.92784580  0.39328016  1
  Sn  Sn14  1  0.48064927  0.46543436  0.39328016  1
  Sn  Sn15  1  0.51935073  0.07215420  0.60671984  1
  Sn  Sn16  1  0.01935073  0.46543436  0.39328016  1
  Sn  Sn17  1  0.98064927  0.07215420  0.60671984  1
  Sn  Sn18  1  0.75000000  0.05194324  0.10388648  1
  Sn  Sn19  1  0.25000000  0.94805676  0.89611352  1
  Sn  Sn20  1  0.75000000  0.43053414  0.86106828  1
  Sn  Sn21  1  0.25000000  0.56946586  0.13893172  1
