# generated using pymatgen
data_Gd3MnGaS7
_symmetry_space_group_name_H-M   'P 1'
_cell_length_a   6.08776470
_cell_length_b   9.82876600
_cell_length_c   9.83239216
_cell_angle_alpha   120.02332945
_cell_angle_beta   90.00000000
_cell_angle_gamma   90.00000000
_symmetry_Int_Tables_number   1
_chemical_formula_structural   Gd3MnGaS7
_chemical_formula_sum   'Gd6 Mn2 Ga2 S14'
_cell_volume   509.38310213
_cell_formula_units_Z   2
loop_
 _symmetry_equiv_pos_site_id
 _symmetry_equiv_pos_as_xyz
  1  'x, y, z'
loop_
 _atom_site_type_symbol
 _atom_site_label
 _atom_site_symmetry_multiplicity
 _atom_site_fract_x
 _atom_site_fract_y
 _atom_site_fract_z
 _atom_site_occupancy
  Gd  Gd0  1  0.26187777  0.23500172  0.37569582  1
  Gd  Gd1  1  0.26181393  0.62428041  0.85930809  1
  Gd  Gd2  1  0.26184720  0.14067615  0.76493473  1
  Gd  Gd3  1  0.76187777  0.76499828  0.62430418  1
  Gd  Gd4  1  0.76181393  0.37571959  0.14069191  1
  Gd  Gd5  1  0.76184720  0.85932385  0.23506527  1
  Mn  Mn6  1  0.47913912  0.00002139  0.00005437  1
  Mn  Mn7  1  0.97913912  0.99997861  0.99994563  1
  Ga  Ga8  1  0.83539214  0.33337759  0.66674024  1
  Ga  Ga9  1  0.33539214  0.66662241  0.33325976  1
  S  S10  1  0.70052884  0.14653795  0.24097903  1
  S  S11  1  0.70043607  0.75895406  0.90540736  1
  S  S12  1  0.70041094  0.09449038  0.85356310  1
  S  S13  1  0.20052884  0.85346205  0.75902097  1
  S  S14  1  0.20043607  0.24104594  0.09459264  1
  S  S15  1  0.20041094  0.90550962  0.14643690  1
  S  S16  1  0.99701624  0.09335125  0.51478182  1
  S  S17  1  0.99692083  0.48515070  0.57863428  1
  S  S18  1  0.99692197  0.42153450  0.90662179  1
  S  S19  1  0.49701624  0.90664875  0.48521818  1
  S  S20  1  0.49692083  0.51484930  0.42136572  1
  S  S21  1  0.49692197  0.57846550  0.09337821  1
  S  S22  1  0.46569495  0.33337832  0.66664802  1
  S  S23  1  0.96569495  0.66662168  0.33335198  1
