# generated using pymatgen
data_Nb6Sn5
_symmetry_space_group_name_H-M   'P 1'
_cell_length_a   5.69599665
_cell_length_b   9.30751515
_cell_length_c   10.09522481
_cell_angle_alpha   117.45075236
_cell_angle_beta   106.38638034
_cell_angle_gamma   90.00000000
_symmetry_Int_Tables_number   1
_chemical_formula_structural   Nb6Sn5
_chemical_formula_sum   'Nb12 Sn10'
_cell_volume   450.30485136
_cell_formula_units_Z   2
loop_
 _symmetry_equiv_pos_site_id
 _symmetry_equiv_pos_as_xyz
  1  'x, y, z'
loop_
 _atom_site_type_symbol
 _atom_site_label
 _atom_site_symmetry_multiplicity
 _atom_site_fract_x
 _atom_site_fract_y
 _atom_site_fract_z
 _atom_site_occupancy
  Nb  Nb0  1  0.65379064  0.65379064  0.30758128  1
  Nb  Nb1  1  0.34620936  0.34620936  0.69241872  1
  Nb  Nb2  1  0.75963208  0.00000000  0.00000000  1
  Nb  Nb3  1  0.24036792  0.00000000  0.00000000  1
  Nb  Nb4  1  0.00000000  0.50000000  0.50000000  1
  Nb  Nb5  1  0.50000000  0.00000000  0.50000000  1
  Nb  Nb6  1  0.00000000  0.00000000  0.50000000  1
  Nb  Nb7  1  0.50000000  0.50000000  0.50000000  1
  Nb  Nb8  1  0.91617099  0.64504880  0.83234197  1
  Nb  Nb9  1  0.91617099  0.18729317  0.83234197  1
  Nb  Nb10  1  0.08382901  0.81270683  0.16765803  1
  Nb  Nb11  1  0.08382901  0.35495120  0.16765803  1
  Sn  Sn12  1  0.83163071  0.83163071  0.66326142  1
  Sn  Sn13  1  0.16836929  0.16836929  0.33673858  1
  Sn  Sn14  1  0.79424009  0.29424009  0.58848018  1
  Sn  Sn15  1  0.20575991  0.70575991  0.41151982  1
  Sn  Sn16  1  0.74423392  0.50000000  0.00000000  1
  Sn  Sn17  1  0.25576608  0.50000000  0.00000000  1
  Sn  Sn18  1  0.60366643  0.29701039  0.20733286  1
  Sn  Sn19  1  0.60366643  0.91032247  0.20733286  1
  Sn  Sn20  1  0.39633357  0.08967753  0.79266714  1
  Sn  Sn21  1  0.39633357  0.70298961  0.79266714  1
