# generated using pymatgen
data_TaTe4Ru
_symmetry_space_group_name_H-M   'P 1'
_cell_length_a   3.76761616
_cell_length_b   12.64664688
_cell_length_c   13.63600287
_cell_angle_alpha   90.00000000
_cell_angle_beta   90.00000000
_cell_angle_gamma   90.00000000
_symmetry_Int_Tables_number   1
_chemical_formula_structural   TaTe4Ru
_chemical_formula_sum   'Ta4 Te16 Ru4'
_cell_volume   649.72432606
_cell_formula_units_Z   4
loop_
 _symmetry_equiv_pos_site_id
 _symmetry_equiv_pos_as_xyz
  1  'x, y, z'
loop_
 _atom_site_type_symbol
 _atom_site_label
 _atom_site_symmetry_multiplicity
 _atom_site_fract_x
 _atom_site_fract_y
 _atom_site_fract_z
 _atom_site_occupancy
  Ta  Ta0  1  0.50000000  0.94131015  0.50551658  1
  Ta  Ta1  1  -0.00000000  0.05868985  0.00551658  1
  Ta  Ta2  1  0.50000000  0.72472694  0.98999173  1
  Ta  Ta3  1  0.00000000  0.27527306  0.48999173  1
  Te  Te4  1  0.50000000  0.93406675  0.89606690  1
  Te  Te5  1  0.00000000  0.06593325  0.39606690  1
  Te  Te6  1  0.50000000  0.80439778  0.35320407  1
  Te  Te7  1  0.00000000  0.19560222  0.85320407  1
  Te  Te8  1  0.50000000  0.65176064  0.58963134  1
  Te  Te9  1  -0.00000000  0.34823936  0.08963134  1
  Te  Te10  1  0.50000000  0.58457189  0.13867870  1
  Te  Te11  1  0.00000000  0.41542811  0.63867870  1
  Te  Te12  1  0.50000000  0.43406927  0.90118802  1
  Te  Te13  1  -0.00000000  0.56593073  0.40118802  1
  Te  Te14  1  0.50000000  0.32480339  0.34784584  1
  Te  Te15  1  0.00000000  0.67519661  0.84784584  1
  Te  Te16  1  0.50000000  0.15109110  0.60278886  1
  Te  Te17  1  0.00000000  0.84890890  0.10278886  1
  Te  Te18  1  0.50000000  0.10843463  0.14727392  1
  Te  Te19  1  0.00000000  0.89156537  0.64727392  1
  Ru  Ru20  1  0.50000000  0.45535727  0.50311586  1
  Ru  Ru21  1  0.00000000  0.54464273  0.00311586  1
  Ru  Ru22  1  0.50000000  0.23699373  0.98869817  1
  Ru  Ru23  1  0.00000000  0.76300627  0.48869817  1
