# generated using pymatgen
data_Mg(BH4)2
_symmetry_space_group_name_H-M   'P 1'
_cell_length_a   7.65334419
_cell_length_b   7.65334419
_cell_length_c   7.86751868
_cell_angle_alpha   116.02629350
_cell_angle_beta   116.02629350
_cell_angle_gamma   95.61679665
_symmetry_Int_Tables_number   1
_chemical_formula_structural   Mg(BH4)2
_chemical_formula_sum   'Mg2 B4 H16'
_cell_volume   347.20703415
_cell_formula_units_Z   2
loop_
 _symmetry_equiv_pos_site_id
 _symmetry_equiv_pos_as_xyz
  1  'x, y, z'
loop_
 _atom_site_type_symbol
 _atom_site_label
 _atom_site_symmetry_multiplicity
 _atom_site_fract_x
 _atom_site_fract_y
 _atom_site_fract_z
 _atom_site_occupancy
  Mg  Mg0  1  0.25000000  0.75000000  0.50000000  1
  Mg  Mg1  1  0.00000000  0.00000000  -0.00000000  1
  B  B2  1  0.15338452  0.37960505  0.23811193  1
  B  B3  1  0.08472741  0.85850688  0.23811193  1
  B  B4  1  0.14149312  0.91527259  0.76188807  1
  B  B5  1  0.62039495  0.84661548  0.76188807  1
  H  H6  1  0.99312193  0.28817394  0.05185203  1
  H  H7  1  0.05873010  0.76367809  0.05185203  1
  H  H8  1  0.23632191  0.94126990  0.94814797  1
  H  H9  1  0.71182606  0.00687807  0.94814797  1
  H  H10  1  0.10310735  0.44579149  0.37610735  1
  H  H11  1  0.27300000  0.93031586  0.37610735  1
  H  H12  1  0.06968414  0.72700000  0.62389265  1
  H  H13  1  0.55420851  0.89689265  0.62389265  1
  H  H14  1  0.25367611  0.27171274  0.27711010  1
  H  H15  1  0.02343398  0.00539735  0.27711010  1
  H  H16  1  0.99460265  0.97656602  0.72288990  1
  H  H17  1  0.72828726  0.74632389  0.72288990  1
  H  H18  1  0.26599107  0.51334057  0.24708056  1
  H  H19  1  0.98108949  0.73373999  0.24708056  1
  H  H20  1  0.26626001  0.01891051  0.75291944  1
  H  H21  1  0.48665943  0.73400893  0.75291944  1
