# generated using pymatgen
data_HfZn2
_symmetry_space_group_name_H-M   'P 1'
_cell_length_a   5.22094058
_cell_length_b   5.22094058
_cell_length_c   16.83360162
_cell_angle_alpha   90.00000000
_cell_angle_beta   90.00000000
_cell_angle_gamma   119.97428214
_symmetry_Int_Tables_number   1
_chemical_formula_structural   HfZn2
_chemical_formula_sum   'Hf8 Zn16'
_cell_volume   397.48218348
_cell_formula_units_Z   8
loop_
 _symmetry_equiv_pos_site_id
 _symmetry_equiv_pos_as_xyz
  1  'x, y, z'
loop_
 _atom_site_type_symbol
 _atom_site_label
 _atom_site_symmetry_multiplicity
 _atom_site_fract_x
 _atom_site_fract_y
 _atom_site_fract_z
 _atom_site_occupancy
  Hf  Hf0  1  0.00000604  0.99999396  0.59154208  1
  Hf  Hf1  1  0.99999396  0.00000604  0.40845792  1
  Hf  Hf2  1  0.99999396  0.00000604  0.09154208  1
  Hf  Hf3  1  0.00000604  0.99999396  0.90845792  1
  Hf  Hf4  1  0.66672004  0.33327996  0.34235665  1
  Hf  Hf5  1  0.33327996  0.66672004  0.65764335  1
  Hf  Hf6  1  0.33327996  0.66672004  0.84235665  1
  Hf  Hf7  1  0.66672004  0.33327996  0.15764335  1
  Zn  Zn8  1  0.66675656  0.33324344  0.62682912  1
  Zn  Zn9  1  0.33324344  0.66675656  0.37317088  1
  Zn  Zn10  1  0.33324344  0.66675656  0.12682912  1
  Zn  Zn11  1  0.66675656  0.33324344  0.87317088  1
  Zn  Zn12  1  0.50000000  0.00000000  0.50000000  1
  Zn  Zn13  1  0.50000000  0.50000000  0.50000000  1
  Zn  Zn14  1  0.00000000  0.50000000  0.50000000  1
  Zn  Zn15  1  0.50000000  0.00000000  -0.00000000  1
  Zn  Zn16  1  0.50000000  0.50000000  -0.00000000  1
  Zn  Zn17  1  0.00000000  0.50000000  -0.00000000  1
  Zn  Zn18  1  0.83897315  0.67802743  0.75000000  1
  Zn  Zn19  1  0.83902821  0.16097179  0.75000000  1
  Zn  Zn20  1  0.32197257  0.16102685  0.75000000  1
  Zn  Zn21  1  0.16102685  0.32197257  0.25000000  1
  Zn  Zn22  1  0.16097179  0.83902821  0.25000000  1
  Zn  Zn23  1  0.67802743  0.83897315  0.25000000  1
