# generated using pymatgen
data_BaLuCo4O7
_symmetry_space_group_name_H-M   'P 1'
_cell_length_a   6.30536639
_cell_length_b   6.33657839
_cell_length_c   10.31184710
_cell_angle_alpha   90.19895671
_cell_angle_beta   90.39988544
_cell_angle_gamma   60.16280135
_symmetry_Int_Tables_number   1
_chemical_formula_structural   BaLuCo4O7
_chemical_formula_sum   'Ba2 Lu2 Co8 O14'
_cell_volume   357.38126419
_cell_formula_units_Z   2
loop_
 _symmetry_equiv_pos_site_id
 _symmetry_equiv_pos_as_xyz
  1  'x, y, z'
loop_
 _atom_site_type_symbol
 _atom_site_label
 _atom_site_symmetry_multiplicity
 _atom_site_fract_x
 _atom_site_fract_y
 _atom_site_fract_z
 _atom_site_occupancy
  Ba  Ba0  1  0.67322803  0.66345092  0.99691991  1
  Ba  Ba1  1  0.33667895  0.33654908  0.49691991  1
  Lu  Lu2  1  0.66783755  0.66331561  0.62130913  1
  Lu  Lu3  1  0.33115316  0.33668439  0.12130913  1
  Co  Co4  1  0.00137033  0.00212678  0.05740295  1
  Co  Co5  1  0.00349711  0.99787322  0.55740295  1
  Co  Co6  1  0.34490762  0.83882198  0.31151818  1
  Co  Co7  1  0.18372960  0.16117802  0.81151818  1
  Co  Co8  1  0.65838420  0.18753299  0.81194223  1
  Co  Co9  1  0.84591719  0.81246701  0.31194223  1
  Co  Co10  1  0.82052068  0.34148207  0.31516587  1
  Co  Co11  1  0.16200275  0.65851793  0.81516587  1
  O  O12  1  0.99091139  0.48929260  0.23432186  1
  O  O13  1  0.48020398  0.51070740  0.73432186  1
  O  O14  1  0.98721468  0.48167692  0.75670069  1
  O  O15  1  0.46889160  0.51832308  0.25670069  1
  O  O16  1  0.49802070  0.01015855  0.25374926  1
  O  O17  1  0.50817925  0.98984145  0.75374926  1
  O  O18  1  0.00841121  0.99632544  0.25216553  1
  O  O19  1  0.00473665  0.00367456  0.75216553  1
  O  O20  1  0.66324116  0.22487702  0.00181412  1
  O  O21  1  0.88811818  0.77512298  0.50181412  1
  O  O22  1  0.79133221  0.33572955  0.50225852  1
  O  O23  1  0.12706177  0.66427045  0.00225852  1
  O  O24  1  0.34150914  0.88143180  0.49383176  1
  O  O25  1  0.22294094  0.11856820  0.99383176  1
