# generated using pymatgen
data_Eu5Cd2Sb5O
_symmetry_space_group_name_H-M   'P 1'
_cell_length_a   4.69511726
_cell_length_b   11.24426511
_cell_length_c   14.85070892
_cell_angle_alpha   90.00000000
_cell_angle_beta   90.00000000
_cell_angle_gamma   102.05076983
_symmetry_Int_Tables_number   1
_chemical_formula_structural   Eu5Cd2Sb5O
_chemical_formula_sum   'Eu10 Cd4 Sb10 O2'
_cell_volume   766.73823992
_cell_formula_units_Z   2
loop_
 _symmetry_equiv_pos_site_id
 _symmetry_equiv_pos_as_xyz
  1  'x, y, z'
loop_
 _atom_site_type_symbol
 _atom_site_label
 _atom_site_symmetry_multiplicity
 _atom_site_fract_x
 _atom_site_fract_y
 _atom_site_fract_z
 _atom_site_occupancy
  Eu  Eu0  1  0.27665257  0.55330514  0.87179481  1
  Eu  Eu1  1  0.72334743  0.44669486  0.12820519  1
  Eu  Eu2  1  0.27665257  0.55330514  0.62820519  1
  Eu  Eu3  1  0.72334743  0.44669486  0.37179481  1
  Eu  Eu4  1  0.10677947  0.21355895  0.25000000  1
  Eu  Eu5  1  0.89322053  0.78644105  0.75000000  1
  Eu  Eu6  1  0.90408209  0.80816417  0.25000000  1
  Eu  Eu7  1  0.09591791  0.19183583  0.75000000  1
  Eu  Eu8  1  -0.00000000  0.00000000  0.50000000  1
  Eu  Eu9  1  -0.00000000  -0.00000000  0.00000000  1
  Cd  Cd10  1  0.36827037  0.73654075  0.41442461  1
  Cd  Cd11  1  0.63172963  0.26345925  0.58557539  1
  Cd  Cd12  1  0.36827037  0.73654075  0.08557539  1
  Cd  Cd13  1  0.63172963  0.26345925  0.91442461  1
  Sb  Sb14  1  0.15005347  0.30010693  0.47705772  1
  Sb  Sb15  1  0.84994653  0.69989307  0.52294228  1
  Sb  Sb16  1  0.15005347  0.30010693  0.02294228  1
  Sb  Sb17  1  0.84994653  0.69989307  0.97705772  1
  Sb  Sb18  1  0.49665634  0.99331268  0.34868786  1
  Sb  Sb19  1  0.50334366  0.00668732  0.65131214  1
  Sb  Sb20  1  0.49665634  0.99331268  0.15131214  1
  Sb  Sb21  1  0.50334366  0.00668732  0.84868786  1
  Sb  Sb22  1  0.29312794  0.58625588  0.25000000  1
  Sb  Sb23  1  0.70687206  0.41374412  0.75000000  1
  O  O24  1  0.65844947  0.31689893  0.25000000  1
  O  O25  1  0.34155053  0.68310107  0.75000000  1
