# generated using pymatgen
data_KAsO3
_symmetry_space_group_name_H-M   'P 1'
_cell_length_a   7.65615617
_cell_length_b   7.65592018
_cell_length_c   10.51550160
_cell_angle_alpha   85.50660008
_cell_angle_beta   68.69395240
_cell_angle_gamma   75.62678610
_symmetry_Int_Tables_number   1
_chemical_formula_structural   KAsO3
_chemical_formula_sum   'K6 As6 O18'
_cell_volume   556.21646906
_cell_formula_units_Z   6
loop_
 _symmetry_equiv_pos_site_id
 _symmetry_equiv_pos_as_xyz
  1  'x, y, z'
loop_
 _atom_site_type_symbol
 _atom_site_label
 _atom_site_symmetry_multiplicity
 _atom_site_fract_x
 _atom_site_fract_y
 _atom_site_fract_z
 _atom_site_occupancy
  K  K0  1  0.09509379  0.89710422  0.15946480  1
  K  K1  1  0.90490621  0.10289578  0.84053520  1
  K  K2  1  0.23982984  0.76762765  0.50183891  1
  K  K3  1  0.76017016  0.23237235  0.49816109  1
  K  K4  1  0.69803494  0.51978680  0.17269696  1
  K  K5  1  0.30196506  0.48021320  0.82730304  1
  As  As6  1  0.53192511  0.02632121  0.20403768  1
  As  As7  1  0.46807489  0.97367879  0.79596232  1
  As  As8  1  0.27373237  0.26537804  0.47794155  1
  As  As9  1  0.72626763  0.73462196  0.52205845  1
  As  As10  1  0.18167061  0.36224908  0.20280109  1
  As  As11  1  0.81832939  0.63775092  0.79719891  1
  O  O12  1  0.41713693  0.85900017  0.23605923  1
  O  O13  1  0.58286307  0.14099983  0.76394077  1
  O  O14  1  0.76556764  0.99307270  0.11120499  1
  O  O15  1  0.23443236  0.00692730  0.88879501  1
  O  O16  1  0.50067171  0.13195282  0.36279409  1
  O  O17  1  0.49932829  0.86804718  0.63720591  1
  O  O18  1  0.41553333  0.21217244  0.12314931  1
  O  O19  1  0.58446667  0.78782756  0.87685069  1
  O  O20  1  0.11264014  0.14022252  0.54803016  1
  O  O21  1  0.88735986  0.85977748  0.45196984  1
  O  O22  1  0.34160055  0.38758711  0.56749709  1
  O  O23  1  0.65839945  0.61241289  0.43250291  1
  O  O24  1  0.19980774  0.42643111  0.35908681  1
  O  O25  1  0.80019226  0.57356889  0.64091319  1
  O  O26  1  0.00440671  0.25512077  0.23672440  1
  O  O27  1  0.99559329  0.74487923  0.76327560  1
  O  O28  1  0.18344774  0.54210549  0.10258717  1
  O  O29  1  0.81655226  0.45789451  0.89741283  1
