# generated using pymatgen
data_RbH2(IO3)3
_symmetry_space_group_name_H-M   'P 1'
_cell_length_a   7.62763415
_cell_length_b   7.72717118
_cell_length_c   8.33589021
_cell_angle_alpha   77.81030835
_cell_angle_beta   84.70240678
_cell_angle_gamma   83.51944422
_symmetry_Int_Tables_number   1
_chemical_formula_structural   RbH2(IO3)3
_chemical_formula_sum   'Rb2 H4 I6 O18'
_cell_volume   475.98348078
_cell_formula_units_Z   2
loop_
 _symmetry_equiv_pos_site_id
 _symmetry_equiv_pos_as_xyz
  1  'x, y, z'
loop_
 _atom_site_type_symbol
 _atom_site_label
 _atom_site_symmetry_multiplicity
 _atom_site_fract_x
 _atom_site_fract_y
 _atom_site_fract_z
 _atom_site_occupancy
  Rb  Rb0  1  0.27522359  0.17646024  0.19307104  1
  Rb  Rb1  1  0.55699023  0.80584220  0.50375753  1
  H  H2  1  0.99765135  0.58562986  0.00960624  1
  H  H3  1  0.44422401  0.48814112  0.88095971  1
  H  H4  1  0.40081808  0.05177471  0.83010838  1
  H  H5  1  0.84166229  0.40047971  0.67571873  1
  I  I6  1  0.82117215  0.11569560  0.00271521  1
  I  I7  1  0.02471907  0.87044529  0.67576118  1
  I  I8  1  0.06876843  0.67323698  0.25899081  1
  I  I9  1  0.58232766  0.69367732  0.00959501  1
  I  I10  1  0.24965073  0.32855416  0.66069886  1
  I  I11  1  0.76231605  0.31705452  0.42733482  1
  O  O12  1  0.87168324  0.19447122  0.18486968  1
  O  O13  1  0.01557286  0.95443347  0.99945575  1
  O  O14  1  0.65071995  0.96635738  0.10103670  1
  O  O15  1  0.83322610  0.03408101  0.68718023  1
  O  O16  1  0.19367156  0.01538976  0.57456691  1
  O  O17  1  0.95937022  0.79257942  0.49664594  1
  O  O18  1  0.28372236  0.75310667  0.25002005  1
  O  O19  1  0.10745615  0.45404356  0.39811479  1
  O  O20  1  0.11137166  0.56248168  0.06692236  1
  O  O21  1  0.80278541  0.66060533  0.90999293  1
  O  O22  1  0.46479660  0.83273848  0.84221071  1
  O  O23  1  0.50848863  0.46586648  0.98422352  1
  O  O24  1  0.32219747  0.53295330  0.69576249  1
  O  O25  1  0.03139308  0.34038296  0.76918776  1
  O  O26  1  0.37318662  0.18009429  0.84264316  1
  O  O27  1  0.54664379  0.23791616  0.43839288  1
  O  O28  1  0.72762570  0.53503694  0.29000109  1
  O  O29  1  0.72432495  0.42086018  0.62294555  1
