# generated using pymatgen
data_Te7IrCl7
_symmetry_space_group_name_H-M   'P 1'
_cell_length_a   9.47734911
_cell_length_b   10.35027058
_cell_length_c   11.66483938
_cell_angle_alpha   68.95598514
_cell_angle_beta   66.66817961
_cell_angle_gamma   66.89494414
_symmetry_Int_Tables_number   1
_chemical_formula_structural   Te7IrCl7
_chemical_formula_sum   'Te14 Ir2 Cl14'
_cell_volume   937.87491763
_cell_formula_units_Z   2
loop_
 _symmetry_equiv_pos_site_id
 _symmetry_equiv_pos_as_xyz
  1  'x, y, z'
loop_
 _atom_site_type_symbol
 _atom_site_label
 _atom_site_symmetry_multiplicity
 _atom_site_fract_x
 _atom_site_fract_y
 _atom_site_fract_z
 _atom_site_occupancy
  Te  Te0  1  0.79350575  0.05120992  0.29837865  1
  Te  Te1  1  0.20649425  0.94879008  0.70162135  1
  Te  Te2  1  0.65336100  0.28740961  0.11993538  1
  Te  Te3  1  0.34663900  0.71259039  0.88006462  1
  Te  Te4  1  0.06860145  0.15443579  0.19562349  1
  Te  Te5  1  0.93139855  0.84556421  0.80437651  1
  Te  Te6  1  0.04474318  0.65930815  0.01608778  1
  Te  Te7  1  0.95525682  0.34069185  0.98391222  1
  Te  Te8  1  0.80743078  0.05349133  0.96904315  1
  Te  Te9  1  0.19256922  0.94650867  0.03095685  1
  Te  Te10  1  0.65986480  0.76378626  0.27254089  1
  Te  Te11  1  0.34013520  0.23621374  0.72745911  1
  Te  Te12  1  0.05675948  0.65820377  0.33957782  1
  Te  Te13  1  0.94324052  0.34179623  0.66042218  1
  Ir  Ir14  1  0.92744728  0.85096548  0.15908221  1
  Ir  Ir15  1  0.07255272  0.14903452  0.84091779  1
  Cl  Cl16  1  0.67425070  0.73970168  0.03830988  1
  Cl  Cl17  1  0.32574930  0.26029832  0.96169012  1
  Cl  Cl18  1  0.80351398  0.49465956  0.31022891  1
  Cl  Cl19  1  0.19648602  0.50534044  0.68977109  1
  Cl  Cl20  1  0.64852163  0.74251298  0.49400972  1
  Cl  Cl21  1  0.35147837  0.25748702  0.50599028  1
  Cl  Cl22  1  0.46863199  0.03180213  0.26819884  1
  Cl  Cl23  1  0.53136801  0.96819787  0.73180116  1
  Cl  Cl24  1  0.20928639  0.46213165  0.20798830  1
  Cl  Cl25  1  0.79071361  0.53786835  0.79201170  1
  Cl  Cl26  1  0.32002130  0.67607483  0.28431422  1
  Cl  Cl27  1  0.67997870  0.32392517  0.71568578  1
  Cl  Cl28  1  0.98094888  0.84417422  0.47022008  1
  Cl  Cl29  1  0.01905112  0.15582578  0.52977992  1
