# generated using pymatgen
data_KNaTe(HO)6
_symmetry_space_group_name_H-M   'P 1'
_cell_length_a   6.69363301
_cell_length_b   6.69360247
_cell_length_c   9.00686580
_cell_angle_alpha   90.00033905
_cell_angle_beta   89.99932202
_cell_angle_gamma   120.00015039
_symmetry_Int_Tables_number   1
_chemical_formula_structural   KNaTe(HO)6
_chemical_formula_sum   'K2 Na2 Te2 H12 O12'
_cell_volume   349.48253631
_cell_formula_units_Z   2
loop_
 _symmetry_equiv_pos_site_id
 _symmetry_equiv_pos_as_xyz
  1  'x, y, z'
loop_
 _atom_site_type_symbol
 _atom_site_label
 _atom_site_symmetry_multiplicity
 _atom_site_fract_x
 _atom_site_fract_y
 _atom_site_fract_z
 _atom_site_occupancy
  K  K0  1  0.66666517  0.33335577  0.28915493  1
  K  K1  1  0.33330940  0.66664423  0.78915493  1
  Na  Na2  1  0.33334051  0.66666078  0.21739237  1
  Na  Na3  1  0.66667973  0.33333922  0.71739237  1
  Te  Te4  1  0.00000572  0.00000377  0.26973867  1
  Te  Te5  1  0.00000195  0.99999623  0.76973867  1
  H  H6  1  0.38074731  0.06010646  0.98630820  1
  H  H7  1  0.67935763  0.61926079  0.98631196  1
  H  H8  1  0.93989958  0.32064393  0.98630644  1
  H  H9  1  0.32064084  0.93989354  0.48630820  1
  H  H10  1  0.06009684  0.38073921  0.48631196  1
  H  H11  1  0.61925565  0.67935607  0.48630644  1
  H  H12  1  0.59712054  0.02795764  0.99622262  1
  H  H13  1  0.43083620  0.40288684  0.99623150  1
  H  H14  1  0.97204812  0.56916375  0.99621719  1
  H  H15  1  0.56916290  0.97204236  0.49622262  1
  H  H16  1  0.02794936  0.59711316  0.49623150  1
  H  H17  1  0.40288437  0.43083625  0.49621719  1
  O  O18  1  0.10105564  0.81251212  0.36291979  1
  O  O19  1  0.71145511  0.89893838  0.36291504  1
  O  O20  1  0.18749034  0.28855314  0.36291272  1
  O  O21  1  0.28854352  0.18748788  0.86291979  1
  O  O22  1  0.81251673  0.10106162  0.86291504  1
  O  O23  1  0.89893720  0.71144686  0.86291272  1
  O  O24  1  0.00437678  0.46083009  0.05234926  1
  O  O25  1  0.45645189  0.99563158  0.05235633  1
  O  O26  1  0.53917737  0.54355079  0.05236297  1
  O  O27  1  0.54354669  0.53916991  0.55234926  1
  O  O28  1  0.46082032  0.00436842  0.55235633  1
  O  O29  1  0.99562658  0.45644921  0.55236297  1
