# generated using pymatgen
data_Na9Sn4
_symmetry_space_group_name_H-M   'P 1'
_cell_length_a   5.46009578
_cell_length_b   5.44785223
_cell_length_c   29.27040038
_cell_angle_alpha   90.00000000
_cell_angle_beta   90.00000000
_cell_angle_gamma   120.07437613
_symmetry_Int_Tables_number   1
_chemical_formula_structural   Na9Sn4
_chemical_formula_sum   'Na18 Sn8'
_cell_volume   753.45774126
_cell_formula_units_Z   2
loop_
 _symmetry_equiv_pos_site_id
 _symmetry_equiv_pos_as_xyz
  1  'x, y, z'
loop_
 _atom_site_type_symbol
 _atom_site_label
 _atom_site_symmetry_multiplicity
 _atom_site_fract_x
 _atom_site_fract_y
 _atom_site_fract_z
 _atom_site_occupancy
  Na  Na0  1  0.82542936  0.65085873  0.25000000  1
  Na  Na1  1  0.17457064  0.34914127  0.75000000  1
  Na  Na2  1  0.16842722  0.33685445  0.09079508  1
  Na  Na3  1  0.83157278  0.66314555  0.90920492  1
  Na  Na4  1  0.16842722  0.33685445  0.40920492  1
  Na  Na5  1  0.83157278  0.66314555  0.59079508  1
  Na  Na6  1  0.50265982  0.00531964  0.32897069  1
  Na  Na7  1  0.49734018  0.99468036  0.67102931  1
  Na  Na8  1  0.50265982  0.00531964  0.17102931  1
  Na  Na9  1  0.49734018  0.99468036  0.82897069  1
  Na  Na10  1  0.16114441  0.32228883  0.86318319  1
  Na  Na11  1  0.83885559  0.67771117  0.13681681  1
  Na  Na12  1  0.16114441  0.32228883  0.63681681  1
  Na  Na13  1  0.83885559  0.67771117  0.36318319  1
  Na  Na14  1  0.16960156  0.33920311  0.97795399  1
  Na  Na15  1  0.83039844  0.66079689  0.02204601  1
  Na  Na16  1  0.16960156  0.33920311  0.52204601  1
  Na  Na17  1  0.83039844  0.66079689  0.47795399  1
  Sn  Sn18  1  0.16536054  0.33072108  0.29848679  1
  Sn  Sn19  1  0.83463946  0.66927892  0.70151321  1
  Sn  Sn20  1  0.16536054  0.33072108  0.20151321  1
  Sn  Sn21  1  0.83463946  0.66927892  0.79848679  1
  Sn  Sn22  1  0.49817722  0.99635444  0.44933347  1
  Sn  Sn23  1  0.50182278  0.00364556  0.55066653  1
  Sn  Sn24  1  0.49817722  0.99635444  0.05066653  1
  Sn  Sn25  1  0.50182278  0.00364556  0.94933347  1
