# generated using pymatgen
data_Mn2ZnP2H2O9
_symmetry_space_group_name_H-M   'P 1'
_cell_length_a   8.36301395
_cell_length_b   9.22222978
_cell_length_c   10.33577273
_cell_angle_alpha   90.00000000
_cell_angle_beta   90.00000000
_cell_angle_gamma   114.43623938
_symmetry_Int_Tables_number   1
_chemical_formula_structural   Mn2ZnP2H2O9
_chemical_formula_sum   'Mn8 Zn4 P8 H8 O36'
_cell_volume   725.74582496
_cell_formula_units_Z   4
loop_
 _symmetry_equiv_pos_site_id
 _symmetry_equiv_pos_as_xyz
  1  'x, y, z'
loop_
 _atom_site_type_symbol
 _atom_site_label
 _atom_site_symmetry_multiplicity
 _atom_site_fract_x
 _atom_site_fract_y
 _atom_site_fract_z
 _atom_site_occupancy
  Mn  Mn0  1  0.38358774  0.96629932  0.14122376  1
  Mn  Mn1  1  0.88358774  0.46629932  0.35877624  1
  Mn  Mn2  1  0.61641226  0.03370068  0.85877624  1
  Mn  Mn3  1  0.11641226  0.53370068  0.64122376  1
  Mn  Mn4  1  0.97931485  0.72003718  0.11671277  1
  Mn  Mn5  1  0.47931485  0.22003718  0.38328723  1
  Mn  Mn6  1  0.02068515  0.27996282  0.88328723  1
  Mn  Mn7  1  0.52068515  0.77996282  0.61671277  1
  Zn  Zn8  1  0.62524745  0.56247159  0.87984592  1
  Zn  Zn9  1  0.12524745  0.06247159  0.62015408  1
  Zn  Zn10  1  0.37475255  0.43752841  0.12015408  1
  Zn  Zn11  1  0.87475255  0.93752841  0.37984592  1
  P  P12  1  0.20375093  0.82803885  0.41582906  1
  P  P13  1  0.70375093  0.32803885  0.08417094  1
  P  P14  1  0.79624907  0.17196115  0.58417094  1
  P  P15  1  0.29624907  0.67196115  0.91582906  1
  P  P16  1  0.88447621  0.86415737  0.82470078  1
  P  P17  1  0.38447621  0.36415737  0.67529922  1
  P  P18  1  0.11552379  0.13584263  0.17529922  1
  P  P19  1  0.61552379  0.63584263  0.32470078  1
  H  H20  1  0.27751174  0.99158505  0.87551098  1
  H  H21  1  0.77751174  0.49158505  0.62448902  1
  H  H22  1  0.72248826  0.00841495  0.12448902  1
  H  H23  1  0.22248826  0.50841495  0.37551098  1
  H  H24  1  0.37704832  0.17394789  0.90157807  1
  H  H25  1  0.87704832  0.67394789  0.59842193  1
  H  H26  1  0.62295168  0.82605211  0.09842193  1
  H  H27  1  0.12295168  0.32605211  0.40157807  1
  O  O28  1  0.08207729  0.90815178  0.46773529  1
  O  O29  1  0.58207729  0.40815178  0.03226471  1
  O  O30  1  0.91792271  0.09184822  0.53226471  1
  O  O31  1  0.41792271  0.59184822  0.96773529  1
  O  O32  1  0.36765881  0.95712711  0.34982425  1
  O  O33  1  0.86765881  0.45712711  0.15017575  1
  O  O34  1  0.63234119  0.04287289  0.65017575  1
  O  O35  1  0.13234119  0.54287289  0.84982425  1
  O  O36  1  0.09295559  0.70032151  0.31617988  1
  O  O37  1  0.59295559  0.20032151  0.18382012  1
  O  O38  1  0.90704441  0.29967849  0.68382012  1
  O  O39  1  0.40704441  0.79967849  0.81617988  1
  O  O40  1  0.26254628  0.75324735  0.53061115  1
  O  O41  1  0.76254628  0.25324735  0.96938885  1
  O  O42  1  0.73745372  0.24675265  0.46938885  1
  O  O43  1  0.23745372  0.74675265  0.03061115  1
  O  O44  1  0.73716519  0.76692663  0.72716560  1
  O  O45  1  0.23716519  0.26692663  0.77283440  1
  O  O46  1  0.26283481  0.23307337  0.27283440  1
  O  O47  1  0.76283481  0.73307337  0.22716560  1
  O  O48  1  0.86392512  0.01648923  0.86847872  1
  O  O49  1  0.36392512  0.51648923  0.63152128  1
  O  O50  1  0.13607488  0.98351077  0.13152128  1
  O  O51  1  0.63607488  0.48351077  0.36847872  1
  O  O52  1  0.07039739  0.91146079  0.76676562  1
  O  O53  1  0.57039739  0.41146079  0.73323438  1
  O  O54  1  0.92960261  0.08853921  0.23323438  1
  O  O55  1  0.42960261  0.58853921  0.26676562  1
  O  O56  1  0.85375811  0.74337321  0.93955573  1
  O  O57  1  0.35375811  0.24337321  0.56044427  1
  O  O58  1  0.14624189  0.25662679  0.06044427  1
  O  O59  1  0.64624189  0.75662679  0.43955573  1
  O  O60  1  0.38492961  0.07197141  0.91643422  1
  O  O61  1  0.88492961  0.57197141  0.58356578  1
  O  O62  1  0.61507039  0.92802859  0.08356578  1
  O  O63  1  0.11507039  0.42802859  0.41643422  1
