# generated using pymatgen
data_Li2Sn(HO)6
_symmetry_space_group_name_H-M   'P 1'
_cell_length_a   5.23099566
_cell_length_b   5.63315469
_cell_length_c   9.27578912
_cell_angle_alpha   90.00000000
_cell_angle_beta   96.87944522
_cell_angle_gamma   90.00000000
_symmetry_Int_Tables_number   1
_chemical_formula_structural   Li2Sn(HO)6
_chemical_formula_sum   'Li4 Sn2 H12 O12'
_cell_volume   271.36187865
_cell_formula_units_Z   2
loop_
 _symmetry_equiv_pos_site_id
 _symmetry_equiv_pos_as_xyz
  1  'x, y, z'
loop_
 _atom_site_type_symbol
 _atom_site_label
 _atom_site_symmetry_multiplicity
 _atom_site_fract_x
 _atom_site_fract_y
 _atom_site_fract_z
 _atom_site_occupancy
  Li  Li0  1  0.40548518  0.26952698  0.34186377  1
  Li  Li1  1  0.90548518  0.23047302  0.84186377  1
  Li  Li2  1  0.59451482  0.73047302  0.65813623  1
  Li  Li3  1  0.09451482  0.76952698  0.15813623  1
  Sn  Sn4  1  0.50000000  0.00000000  0.00000000  1
  Sn  Sn5  1  0.00000000  0.50000000  0.50000000  1
  H  H6  1  0.12387228  0.17752652  0.12057232  1
  H  H7  1  0.62387228  0.32247348  0.62057232  1
  H  H8  1  0.87612772  0.82247348  0.87942768  1
  H  H9  1  0.37612772  0.67752652  0.37942768  1
  H  H10  1  0.27049181  0.57927566  0.93739471  1
  H  H11  1  0.77049181  0.92072434  0.43739471  1
  H  H12  1  0.72950819  0.42072434  0.06260529  1
  H  H13  1  0.22950819  0.07927566  0.56260529  1
  H  H14  1  0.32752964  0.24701587  0.76908569  1
  H  H15  1  0.82752964  0.25298413  0.26908569  1
  H  H16  1  0.67247036  0.75298413  0.23091431  1
  H  H17  1  0.17247036  0.74701587  0.73091431  1
  O  O18  1  0.27983589  0.09364325  0.16583518  1
  O  O19  1  0.77983589  0.40635675  0.66583518  1
  O  O20  1  0.72016411  0.90635675  0.83416482  1
  O  O21  1  0.22016411  0.59364325  0.33416482  1
  O  O22  1  0.20735850  0.74164722  0.95121453  1
  O  O23  1  0.70735850  0.75835278  0.45121453  1
  O  O24  1  0.79264150  0.25835278  0.04878547  1
  O  O25  1  0.29264150  0.24164722  0.54878547  1
  O  O26  1  0.28304520  0.24563330  0.86917321  1
  O  O27  1  0.78304520  0.25436670  0.36917321  1
  O  O28  1  0.71695480  0.75436670  0.13082679  1
  O  O29  1  0.21695480  0.74563330  0.63082679  1
