# generated using pymatgen
data_La2U2Se9
_symmetry_space_group_name_H-M   'P 1'
_cell_length_a   5.58139933
_cell_length_b   10.71015148
_cell_length_c   10.82619602
_cell_angle_alpha   90.00000000
_cell_angle_beta   90.00000000
_cell_angle_gamma   90.00000000
_symmetry_Int_Tables_number   1
_chemical_formula_structural   La2U2Se9
_chemical_formula_sum   'La4 U4 Se18'
_cell_volume   647.16436483
_cell_formula_units_Z   2
loop_
 _symmetry_equiv_pos_site_id
 _symmetry_equiv_pos_as_xyz
  1  'x, y, z'
loop_
 _atom_site_type_symbol
 _atom_site_label
 _atom_site_symmetry_multiplicity
 _atom_site_fract_x
 _atom_site_fract_y
 _atom_site_fract_z
 _atom_site_occupancy
  La  La0  1  0.50000000  0.57274186  0.25000000  1
  La  La1  1  0.50000000  0.42725814  0.75000000  1
  La  La2  1  0.50000000  0.02749511  0.25000000  1
  La  La3  1  0.50000000  0.97250489  0.75000000  1
  U  U4  1  0.00000000  0.25278185  0.49209078  1
  U  U5  1  0.00000000  0.74721815  0.50790922  1
  U  U6  1  0.00000000  0.25278185  0.00790922  1
  U  U7  1  0.00000000  0.74721815  0.99209078  1
  Se  Se8  1  0.00000000  0.68459105  0.25000000  1
  Se  Se9  1  0.00000000  0.31540895  0.75000000  1
  Se  Se10  1  0.50000000  0.19058927  0.94707171  1
  Se  Se11  1  0.50000000  0.80941073  0.05292829  1
  Se  Se12  1  0.50000000  0.19058927  0.55292829  1
  Se  Se13  1  0.50000000  0.80941073  0.44707171  1
  Se  Se14  1  0.00000000  0.00096169  0.37604345  1
  Se  Se15  1  0.00000000  0.99903831  0.62395655  1
  Se  Se16  1  0.00000000  0.00096169  0.12395655  1
  Se  Se17  1  0.00000000  0.99903831  0.87604345  1
  Se  Se18  1  0.75198396  0.50000000  0.50000000  1
  Se  Se19  1  0.75198396  0.50000000  0.00000000  1
  Se  Se20  1  0.24801604  0.50000000  0.50000000  1
  Se  Se21  1  0.24801604  0.50000000  0.00000000  1
  Se  Se22  1  0.75116029  0.28631357  0.25000000  1
  Se  Se23  1  0.75116029  0.71368643  0.75000000  1
  Se  Se24  1  0.24883971  0.71368643  0.75000000  1
  Se  Se25  1  0.24883971  0.28631357  0.25000000  1
