# generated using pymatgen
data_Zn7H10(SO9)2
_symmetry_space_group_name_H-M   'P 1'
_cell_length_a   5.57187944
_cell_length_b   8.16619926
_cell_length_c   9.02969952
_cell_angle_alpha   67.10147805
_cell_angle_beta   86.34062305
_cell_angle_gamma   85.50586591
_symmetry_Int_Tables_number   1
_chemical_formula_structural   Zn7H10(SO9)2
_chemical_formula_sum   'Zn7 H10 S2 O18'
_cell_volume   377.07096789
_cell_formula_units_Z   1
loop_
 _symmetry_equiv_pos_site_id
 _symmetry_equiv_pos_as_xyz
  1  'x, y, z'
loop_
 _atom_site_type_symbol
 _atom_site_label
 _atom_site_symmetry_multiplicity
 _atom_site_fract_x
 _atom_site_fract_y
 _atom_site_fract_z
 _atom_site_occupancy
  Zn  Zn0  1  0.50000000  0.00000000  0.00000000  1
  Zn  Zn1  1  0.00105970  0.19008017  0.81279863  1
  Zn  Zn2  1  0.99894030  0.80991983  0.18720137  1
  Zn  Zn3  1  0.49704372  0.34432472  0.67021869  1
  Zn  Zn4  1  0.50295628  0.65567528  0.32978131  1
  Zn  Zn5  1  0.03282350  0.35259989  0.39232968  1
  Zn  Zn6  1  0.96717650  0.64740011  0.60767032  1
  H  H7  1  0.27145699  0.11213824  0.60107351  1
  H  H8  1  0.72854301  0.88786176  0.39892649  1
  H  H9  1  0.60517481  0.32112120  0.40068173  1
  H  H10  1  0.39482519  0.67887880  0.59931827  1
  H  H11  1  0.71708692  0.66889606  0.05446874  1
  H  H12  1  0.28291308  0.33110394  0.94553126  1
  H  H13  1  0.71518919  0.00337943  0.73977761  1
  H  H14  1  0.28481081  0.99662057  0.26022239  1
  H  H15  1  0.75881935  0.44509341  0.85419230  1
  H  H16  1  0.24118065  0.55490659  0.14580770  1
  S  S17  1  0.78858601  0.21366688  0.18182680  1
  S  S18  1  0.21141399  0.78633312  0.81817320  1
  O  O19  1  0.82309245  0.09377009  0.08681040  1
  O  O20  1  0.17690755  0.90622991  0.91318960  1
  O  O21  1  0.72461976  0.39600161  0.07074565  1
  O  O22  1  0.27538024  0.60399839  0.92925435  1
  O  O23  1  0.39707386  0.85912841  0.68890863  1
  O  O24  1  0.60292614  0.14087159  0.31109137  1
  O  O25  1  0.02710622  0.20446021  0.25781354  1
  O  O26  1  0.97289378  0.79553979  0.74218646  1
  O  O27  1  0.20396107  0.23026024  0.59409163  1
  O  O28  1  0.79603893  0.76973976  0.40590837  1
  O  O29  1  0.68142241  0.40231313  0.43846284  1
  O  O30  1  0.31857759  0.59768687  0.56153716  1
  O  O31  1  0.69780070  0.75410234  0.10693849  1
  O  O32  1  0.30219930  0.24589766  0.89306151  1
  O  O33  1  0.69096583  0.09500925  0.78499957  1
  O  O34  1  0.30903417  0.90499075  0.21500043  1
  O  O35  1  0.79830184  0.43551298  0.74921041  1
  O  O36  1  0.20169816  0.56448702  0.25078959  1
