# generated using pymatgen
data_Zr4CuSb7
_symmetry_space_group_name_H-M   'P 1'
_cell_length_a   8.77293346
_cell_length_b   11.29013109
_cell_length_c   11.29016559
_cell_angle_alpha   90.00000000
_cell_angle_beta   90.00000000
_cell_angle_gamma   90.00000000
_symmetry_Int_Tables_number   1
_chemical_formula_structural   Zr4CuSb7
_chemical_formula_sum   'Zr16 Cu4 Sb28'
_cell_volume   1118.26345312
_cell_formula_units_Z   4
loop_
 _symmetry_equiv_pos_site_id
 _symmetry_equiv_pos_as_xyz
  1  'x, y, z'
loop_
 _atom_site_type_symbol
 _atom_site_label
 _atom_site_symmetry_multiplicity
 _atom_site_fract_x
 _atom_site_fract_y
 _atom_site_fract_z
 _atom_site_occupancy
  Zr  Zr0  1  0.30127833  0.50000000  0.50000000  1
  Zr  Zr1  1  0.30127833  0.00000000  0.00000000  1
  Zr  Zr2  1  0.29330728  0.24574471  0.74573922  1
  Zr  Zr3  1  0.29330728  0.75425529  0.25426078  1
  Zr  Zr4  1  0.29330728  0.25425529  0.24573922  1
  Zr  Zr5  1  0.29330728  0.74574471  0.75426078  1
  Zr  Zr6  1  0.28484756  0.50000000  0.00000000  1
  Zr  Zr7  1  0.28484756  0.00000000  0.50000000  1
  Zr  Zr8  1  0.82039038  0.24879660  0.00492712  1
  Zr  Zr9  1  0.82039038  0.75120340  0.99507288  1
  Zr  Zr10  1  0.82039038  0.25120340  0.50492712  1
  Zr  Zr11  1  0.82039038  0.74879660  0.49507288  1
  Zr  Zr12  1  0.82038973  0.00492712  0.75120287  1
  Zr  Zr13  1  0.82038973  0.99507288  0.24879713  1
  Zr  Zr14  1  0.82038973  0.50492712  0.74879713  1
  Zr  Zr15  1  0.82038973  0.49507288  0.25120287  1
  Cu  Cu16  1  0.55208947  0.37411873  0.87412000  1
  Cu  Cu17  1  0.55208947  0.62588127  0.12588000  1
  Cu  Cu18  1  0.55208947  0.12588127  0.37412000  1
  Cu  Cu19  1  0.55208947  0.87411873  0.62588000  1
  Sb  Sb20  1  0.93309392  0.50000000  0.00000000  1
  Sb  Sb21  1  0.93309392  0.00000000  0.50000000  1
  Sb  Sb22  1  0.94709750  0.50000000  0.50000000  1
  Sb  Sb23  1  0.94709750  0.00000000  0.00000000  1
  Sb  Sb24  1  0.94200314  0.24684365  0.25315627  1
  Sb  Sb25  1  0.94200314  0.75315635  0.74684373  1
  Sb  Sb26  1  0.94200314  0.25315635  0.75315627  1
  Sb  Sb27  1  0.94200314  0.74684365  0.24684373  1
  Sb  Sb28  1  0.55788911  0.39195236  0.10804763  1
  Sb  Sb29  1  0.55788911  0.60804764  0.89195237  1
  Sb  Sb30  1  0.55788911  0.10804764  0.60804763  1
  Sb  Sb31  1  0.55788911  0.89195236  0.39195237  1
  Sb  Sb32  1  0.17488422  0.25084581  0.49718298  1
  Sb  Sb33  1  0.17488422  0.74915419  0.50281702  1
  Sb  Sb34  1  0.17488422  0.24915419  0.99718298  1
  Sb  Sb35  1  0.17488422  0.75084581  0.00281702  1
  Sb  Sb36  1  0.17488496  0.49718494  0.74915414  1
  Sb  Sb37  1  0.17488496  0.50281506  0.25084586  1
  Sb  Sb38  1  0.17488496  0.99718494  0.75084586  1
  Sb  Sb39  1  0.17488496  0.00281506  0.24915414  1
  Sb  Sb40  1  0.55685211  0.37516026  0.64278110  1
  Sb  Sb41  1  0.55685211  0.62483974  0.35721890  1
  Sb  Sb42  1  0.55685211  0.12483974  0.14278110  1
  Sb  Sb43  1  0.55685211  0.87516026  0.85721890  1
  Sb  Sb44  1  0.55685094  0.64278119  0.62484061  1
  Sb  Sb45  1  0.55685094  0.35721881  0.37515939  1
  Sb  Sb46  1  0.55685094  0.14278119  0.87515939  1
  Sb  Sb47  1  0.55685094  0.85721881  0.12484061  1
