# generated using pymatgen
data_K3Lu(PO4)2
_symmetry_space_group_name_H-M   'P 1'
_cell_length_a   5.64772361
_cell_length_b   7.78535151
_cell_length_c   9.45486409
_cell_angle_alpha   91.94173178
_cell_angle_beta   90.00000000
_cell_angle_gamma   90.00000000
_symmetry_Int_Tables_number   1
_chemical_formula_structural   K3Lu(PO4)2
_chemical_formula_sum   'K6 Lu2 P4 O16'
_cell_volume   415.48706566
_cell_formula_units_Z   2
loop_
 _symmetry_equiv_pos_site_id
 _symmetry_equiv_pos_as_xyz
  1  'x, y, z'
loop_
 _atom_site_type_symbol
 _atom_site_label
 _atom_site_symmetry_multiplicity
 _atom_site_fract_x
 _atom_site_fract_y
 _atom_site_fract_z
 _atom_site_occupancy
  K  K0  1  0.75000000  0.22333643  0.07701007  1
  K  K1  1  0.25000000  0.77666357  0.92298993  1
  K  K2  1  0.75000000  0.68577937  0.42301507  1
  K  K3  1  0.25000000  0.31422063  0.57698493  1
  K  K4  1  0.75000000  0.49971859  0.79284014  1
  K  K5  1  0.25000000  0.50028141  0.20715986  1
  Lu  Lu6  1  0.75000000  0.97554054  0.73425518  1
  Lu  Lu7  1  0.25000000  0.02445946  0.26574482  1
  P  P8  1  0.75000000  0.21574896  0.42834165  1
  P  P9  1  0.25000000  0.78425104  0.57165835  1
  P  P10  1  0.25000000  0.22504380  0.90176822  1
  P  P11  1  0.75000000  0.77495620  0.09823178  1
  O  O12  1  0.75000000  0.05148354  0.51711236  1
  O  O13  1  0.25000000  0.94851646  0.48288764  1
  O  O14  1  0.75000000  0.37470902  0.52791412  1
  O  O15  1  0.25000000  0.62529098  0.47208588  1
  O  O16  1  0.52547789  0.21531311  0.32967350  1
  O  O17  1  0.02547789  0.78468689  0.67032650  1
  O  O18  1  0.47452211  0.78468689  0.67032650  1
  O  O19  1  0.97452211  0.21531311  0.32967350  1
  O  O20  1  0.47646271  0.15299265  0.82434745  1
  O  O21  1  0.97646271  0.84700735  0.17565255  1
  O  O22  1  0.52353729  0.84700735  0.17565255  1
  O  O23  1  0.02353729  0.15299265  0.82434745  1
  O  O24  1  0.25000000  0.16190628  0.05734755  1
  O  O25  1  0.75000000  0.83809372  0.94265245  1
  O  O26  1  0.25000000  0.42227720  0.89945975  1
  O  O27  1  0.75000000  0.57772280  0.10054025  1
