# generated using pymatgen
data_La2Co2Se2O3
_symmetry_space_group_name_H-M   'P 1'
_cell_length_a   4.09954218
_cell_length_b   4.09954218
_cell_length_c   9.72751446
_cell_angle_alpha   102.16448202
_cell_angle_beta   102.16448202
_cell_angle_gamma   90.00000000
_symmetry_Int_Tables_number   1
_chemical_formula_structural   La2Co2Se2O3
_chemical_formula_sum   'La2 Co2 Se2 O3'
_cell_volume   156.05521952
_cell_formula_units_Z   1
loop_
 _symmetry_equiv_pos_site_id
 _symmetry_equiv_pos_as_xyz
  1  'x, y, z'
loop_
 _atom_site_type_symbol
 _atom_site_label
 _atom_site_symmetry_multiplicity
 _atom_site_fract_x
 _atom_site_fract_y
 _atom_site_fract_z
 _atom_site_occupancy
  La  La0  1  0.31575646  0.31575646  0.63151292  1
  La  La1  1  0.68424354  0.68424354  0.36848708  1
  Co  Co2  1  -0.00000000  0.50000000  -0.00000000  1
  Co  Co3  1  0.50000000  -0.00000000  -0.00000000  1
  Se  Se4  1  0.90448086  0.90448086  0.80896173  1
  Se  Se5  1  0.09551914  0.09551914  0.19103827  1
  O  O6  1  0.75000000  0.25000000  0.50000000  1
  O  O7  1  0.25000000  0.75000000  0.50000000  1
  O  O8  1  0.50000000  0.50000000  -0.00000000  1
