# generated using pymatgen
data_CsHgBr3
_symmetry_space_group_name_H-M   'P 1'
_cell_length_a   8.41574475
_cell_length_b   12.98808270
_cell_length_c   13.27615076
_cell_angle_alpha   69.45055638
_cell_angle_beta   71.52144272
_cell_angle_gamma   71.09624102
_symmetry_Int_Tables_number   1
_chemical_formula_structural   CsHgBr3
_chemical_formula_sum   'Cs6 Hg6 Br18'
_cell_volume   1251.23113748
_cell_formula_units_Z   6
loop_
 _symmetry_equiv_pos_site_id
 _symmetry_equiv_pos_as_xyz
  1  'x, y, z'
loop_
 _atom_site_type_symbol
 _atom_site_label
 _atom_site_symmetry_multiplicity
 _atom_site_fract_x
 _atom_site_fract_y
 _atom_site_fract_z
 _atom_site_occupancy
  Cs  Cs0  1  0.50000000  0.00000000  0.50000000  1
  Cs  Cs1  1  -0.00000000  0.50000000  0.00000000  1
  Cs  Cs2  1  0.18453154  0.99557245  0.18125609  1
  Cs  Cs3  1  0.36136008  0.50442755  0.31874391  1
  Cs  Cs4  1  0.81546846  0.00442755  0.81874391  1
  Cs  Cs5  1  0.63863992  0.49557245  0.68125609  1
  Hg  Hg6  1  0.26120013  0.25000000  0.75000000  1
  Hg  Hg7  1  0.73879987  0.75000000  0.25000000  1
  Hg  Hg8  1  0.10103261  0.75643365  0.57180724  1
  Hg  Hg9  1  0.42927350  0.74356635  0.92819276  1
  Hg  Hg10  1  0.89896739  0.24356635  0.42819276  1
  Hg  Hg11  1  0.57072650  0.25643365  0.07180724  1
  Br  Br12  1  0.11214560  0.45917497  0.71505679  1
  Br  Br13  1  0.28637736  0.04082503  0.78494321  1
  Br  Br14  1  0.88785440  0.54082503  0.28494321  1
  Br  Br15  1  0.71362264  0.95917497  0.21505679  1
  Br  Br16  1  0.94130082  0.71211910  0.46299640  1
  Br  Br17  1  0.11641632  0.78788090  0.03700360  1
  Br  Br18  1  0.05869918  0.28788090  0.53700360  1
  Br  Br19  1  0.88358368  0.21211910  0.96299640  1
  Br  Br20  1  0.18397837  0.73581809  0.74745157  1
  Br  Br21  1  0.66724803  0.76418191  0.75254843  1
  Br  Br22  1  0.81602163  0.26418191  0.25254843  1
  Br  Br23  1  0.33275197  0.23581809  0.24745157  1
  Br  Br24  1  -0.00000000  0.00000000  0.50000000  1
  Br  Br25  1  0.50000000  0.50000000  0.00000000  1
  Br  Br26  1  0.40829803  0.22212294  0.93055322  1
  Br  Br27  1  0.56097419  0.27787706  0.56944678  1
  Br  Br28  1  0.59170197  0.77787706  0.06944678  1
  Br  Br29  1  0.43902581  0.72212294  0.43055322  1
