# generated using pymatgen
data_Ba3BiIr2O9
_symmetry_space_group_name_H-M   'P 1'
_cell_length_a   5.99688623
_cell_length_b   5.99688623
_cell_length_c   14.97971213
_cell_angle_alpha   91.01537664
_cell_angle_beta   91.01537664
_cell_angle_gamma   119.63594665
_symmetry_Int_Tables_number   1
_chemical_formula_structural   Ba3BiIr2O9
_chemical_formula_sum   'Ba6 Bi2 Ir4 O18'
_cell_volume   467.94767256
_cell_formula_units_Z   2
loop_
 _symmetry_equiv_pos_site_id
 _symmetry_equiv_pos_as_xyz
  1  'x, y, z'
loop_
 _atom_site_type_symbol
 _atom_site_label
 _atom_site_symmetry_multiplicity
 _atom_site_fract_x
 _atom_site_fract_y
 _atom_site_fract_z
 _atom_site_occupancy
  Ba  Ba0  1  0.99295558  0.00704442  0.25000000  1
  Ba  Ba1  1  0.00704442  0.99295558  0.75000000  1
  Ba  Ba2  1  0.32513053  0.65968140  0.40526068  1
  Ba  Ba3  1  0.34031860  0.67486947  0.09473932  1
  Ba  Ba4  1  0.67486947  0.34031860  0.59473932  1
  Ba  Ba5  1  0.65968140  0.32513053  0.90526068  1
  Bi  Bi6  1  0.00000000  0.00000000  0.50000000  1
  Bi  Bi7  1  0.00000000  0.00000000  -0.00000000  1
  Ir  Ir8  1  0.35256036  0.67915625  0.66572808  1
  Ir  Ir9  1  0.32084375  0.64743964  0.83427192  1
  Ir  Ir10  1  0.64743964  0.32084375  0.33427192  1
  Ir  Ir11  1  0.67915625  0.35256036  0.16572808  1
  O  O12  1  0.50473663  0.49526337  0.25000000  1
  O  O13  1  0.49526337  0.50473663  0.75000000  1
  O  O14  1  0.78784435  0.14066800  0.40745778  1
  O  O15  1  0.85933200  0.21215565  0.09254222  1
  O  O16  1  0.21215565  0.85933200  0.59254222  1
  O  O17  1  0.14066800  0.78784435  0.90745778  1
  O  O18  1  0.97288024  0.49529929  0.26091310  1
  O  O19  1  0.50470071  0.02711976  0.23908690  1
  O  O20  1  0.02711976  0.50470071  0.73908690  1
  O  O21  1  0.49529929  0.97288024  0.76091310  1
  O  O22  1  0.31789711  0.13892151  0.39804772  1
  O  O23  1  0.86107849  0.68210289  0.10195228  1
  O  O24  1  0.68210289  0.86107849  0.60195228  1
  O  O25  1  0.13892151  0.31789711  0.89804772  1
  O  O26  1  0.39905935  0.21836961  0.07270731  1
  O  O27  1  0.78163039  0.60094065  0.42729269  1
  O  O28  1  0.60094065  0.78163039  0.92729269  1
  O  O29  1  0.21836961  0.39905935  0.57270731  1
