# generated using pymatgen
data_GdCu6
_symmetry_space_group_name_H-M   'P 1'
_cell_length_a   5.05770749
_cell_length_b   8.02656677
_cell_length_c   9.98297964
_cell_angle_alpha   90.00000000
_cell_angle_beta   90.00000000
_cell_angle_gamma   90.00000000
_symmetry_Int_Tables_number   1
_chemical_formula_structural   GdCu6
_chemical_formula_sum   'Gd4 Cu24'
_cell_volume   405.26930972
_cell_formula_units_Z   4
loop_
 _symmetry_equiv_pos_site_id
 _symmetry_equiv_pos_as_xyz
  1  'x, y, z'
loop_
 _atom_site_type_symbol
 _atom_site_label
 _atom_site_symmetry_multiplicity
 _atom_site_fract_x
 _atom_site_fract_y
 _atom_site_fract_z
 _atom_site_occupancy
  Gd  Gd0  1  0.75000000  0.24094556  0.06476300  1
  Gd  Gd1  1  0.75000000  0.74094556  0.43523700  1
  Gd  Gd2  1  0.25000000  0.75905444  0.93523700  1
  Gd  Gd3  1  0.25000000  0.25905444  0.56476300  1
  Cu  Cu4  1  0.75000000  0.35170497  0.35464098  1
  Cu  Cu5  1  0.75000000  0.85170497  0.14535902  1
  Cu  Cu6  1  0.25000000  0.64829503  0.64535902  1
  Cu  Cu7  1  0.25000000  0.14829503  0.85464098  1
  Cu  Cu8  1  0.75000000  0.18579076  0.75884022  1
  Cu  Cu9  1  0.75000000  0.68579076  0.74115978  1
  Cu  Cu10  1  0.25000000  0.81420924  0.24115978  1
  Cu  Cu11  1  0.25000000  0.31420924  0.25884022  1
  Cu  Cu12  1  0.75000000  0.43822528  0.59411664  1
  Cu  Cu13  1  0.75000000  0.93822528  0.90588336  1
  Cu  Cu14  1  0.25000000  0.56177472  0.40588336  1
  Cu  Cu15  1  0.25000000  0.06177472  0.09411664  1
  Cu  Cu16  1  0.75000000  0.10417000  0.51850230  1
  Cu  Cu17  1  0.75000000  0.60417000  0.98149770  1
  Cu  Cu18  1  0.25000000  0.89583000  0.48149770  1
  Cu  Cu19  1  0.25000000  0.39583000  0.01850230  1
  Cu  Cu20  1  0.00708489  0.43822434  0.80898481  1
  Cu  Cu21  1  0.49291511  0.93822434  0.69101519  1
  Cu  Cu22  1  0.50708489  0.56177566  0.19101519  1
  Cu  Cu23  1  0.99291511  0.06177566  0.30898481  1
  Cu  Cu24  1  0.99291511  0.56177566  0.19101519  1
  Cu  Cu25  1  0.50708489  0.06177566  0.30898481  1
  Cu  Cu26  1  0.49291511  0.43822434  0.80898481  1
  Cu  Cu27  1  0.00708489  0.93822434  0.69101519  1
