# generated using pymatgen
data_Ca2H26I4O13
_symmetry_space_group_name_H-M   'P 1'
_cell_length_a   8.50333319
_cell_length_b   9.35330506
_cell_length_c   17.67133207
_cell_angle_alpha   78.53607973
_cell_angle_beta   76.07823015
_cell_angle_gamma   62.96317616
_symmetry_Int_Tables_number   1
_chemical_formula_structural   Ca2H26I4O13
_chemical_formula_sum   'Ca4 H52 I8 O26'
_cell_volume   1208.59294787
_cell_formula_units_Z   2
loop_
 _symmetry_equiv_pos_site_id
 _symmetry_equiv_pos_as_xyz
  1  'x, y, z'
loop_
 _atom_site_type_symbol
 _atom_site_label
 _atom_site_symmetry_multiplicity
 _atom_site_fract_x
 _atom_site_fract_y
 _atom_site_fract_z
 _atom_site_occupancy
  Ca  Ca0  1  0.80847176  0.13171848  0.65628540  1
  Ca  Ca1  1  0.59647564  0.36828152  0.84371460  1
  Ca  Ca2  1  0.19152824  0.86828152  0.34371460  1
  Ca  Ca3  1  0.40352436  0.63171848  0.15628540  1
  H  H4  1  0.64258922  0.30007001  0.51221314  1
  H  H5  1  0.45487237  0.19992999  0.98778686  1
  H  H6  1  0.35741078  0.69992999  0.48778686  1
  H  H7  1  0.54512763  0.80007001  0.01221314  1
  H  H8  1  0.93840524  0.33351069  0.72503769  1
  H  H9  1  0.99695362  0.16648931  0.77496231  1
  H  H10  1  0.06159476  0.66648931  0.27496231  1
  H  H11  1  0.00304638  0.83351069  0.22503769  1
  H  H12  1  0.10706377  0.24234269  0.57792248  1
  H  H13  1  0.92732893  0.25765731  0.92207752  1
  H  H14  1  0.89293623  0.75765731  0.42207752  1
  H  H15  1  0.07267107  0.74234269  0.07792248  1
  H  H16  1  0.20267266  0.05335205  0.58529830  1
  H  H17  1  0.84132301  0.44664795  0.91470170  1
  H  H18  1  0.79732734  0.94664795  0.41470170  1
  H  H19  1  0.15867699  0.55335205  0.08529830  1
  H  H20  1  0.02906427  0.83583657  0.76845273  1
  H  H21  1  0.63335356  0.66416343  0.73154727  1
  H  H22  1  0.97093573  0.16416343  0.23154727  1
  H  H23  1  0.36664644  0.33583657  0.26845273  1
  H  H24  1  0.97385630  0.79959639  0.60655085  1
  H  H25  1  0.38000355  0.70040361  0.89344915  1
  H  H26  1  0.02614370  0.20040361  0.39344915  1
  H  H27  1  0.61999645  0.29959639  0.10655085  1
  H  H28  1  0.76625291  0.38581185  0.50439361  1
  H  H29  1  0.65645837  0.11418815  0.99560639  1
  H  H30  1  0.23374709  0.61418815  0.49560639  1
  H  H31  1  0.34354163  0.88581185  0.00439361  1
  H  H32  1  0.90696516  0.89518659  0.52858585  1
  H  H33  1  0.33073760  0.60481341  0.97141415  1
  H  H34  1  0.09303484  0.10481341  0.47141415  1
  H  H35  1  0.66926240  0.39518659  0.02858585  1
  H  H36  1  0.54306046  0.02067592  0.62890023  1
  H  H37  1  0.19263661  0.47932408  0.87109977  1
  H  H38  1  0.45693954  0.97932408  0.37109977  1
  H  H39  1  0.80736339  0.52067592  0.12890023  1
  H  H40  1  0.42045434  0.20259484  0.64413466  1
  H  H41  1  0.26718384  0.29740516  0.85586534  1
  H  H42  1  0.57954566  0.79740516  0.35586534  1
  H  H43  1  0.73281616  0.70259484  0.14413466  1
  H  H44  1  0.16531666  0.85224097  0.69223117  1
  H  H45  1  0.70978879  0.64775903  0.80776883  1
  H  H46  1  0.83468334  0.14775903  0.30776883  1
  H  H47  1  0.29021121  0.35224097  0.19223117  1
  H  H48  1  0.72067911  0.99964621  0.83162129  1
  H  H49  1  0.55194661  0.50035379  0.66837871  1
  H  H50  1  0.27932089  0.00035379  0.16837871  1
  H  H51  1  0.44805339  0.49964621  0.33162129  1
  H  H52  1  0.54522539  0.08485460  0.79761394  1
  H  H53  1  0.42769393  0.41514540  0.70238606  1
  H  H54  1  0.45477461  0.91514540  0.20238606  1
  H  H55  1  0.57230607  0.58485460  0.29761394  1
  I  I56  1  0.48060529  0.78490663  0.60090522  1
  I  I57  1  0.86641714  0.71509337  0.89909478  1
  I  I58  1  0.51939471  0.21509337  0.39909478  1
  I  I59  1  0.13358286  0.28490663  0.10090522  1
  I  I60  1  0.13656638  0.46511413  0.63520678  1
  I  I61  1  0.23688728  0.03488587  0.86479322  1
  I  I62  1  0.86343362  0.53488587  0.36479322  1
  I  I63  1  0.76311272  0.96511413  0.13520678  1
  O  O64  1  0.03904075  0.90087120  0.71802373  1
  O  O65  1  0.65793568  0.59912880  0.78197627  1
  O  O66  1  0.96095925  0.09912880  0.28197627  1
  O  O67  1  0.34206432  0.40087120  0.21802373  1
  O  O68  1  0.65705952  0.09406639  0.79574321  1
  O  O69  1  0.54686911  0.40593361  0.70425679  1
  O  O70  1  0.34294048  0.90593361  0.20425679  1
  O  O71  1  0.45313089  0.59406639  0.29574321  1
  O  O72  1  0.89543306  0.25000000  0.75000000  1
  O  O73  1  0.10456694  0.75000000  0.25000000  1
  O  O74  1  0.08947109  0.14639163  0.57448253  1
  O  O75  1  0.81034525  0.35360837  0.92551747  1
  O  O76  1  0.91052891  0.85360837  0.42551747  1
  O  O77  1  0.18965475  0.64639163  0.07448253  1
  O  O78  1  0.91198643  0.90892587  0.58170078  1
  O  O79  1  0.40261308  0.59107413  0.91829922  1
  O  O80  1  0.08801357  0.09107413  0.41829922  1
  O  O81  1  0.59738692  0.40892587  0.08170078  1
  O  O82  1  0.71679370  0.31694754  0.54120555  1
  O  O83  1  0.57494680  0.18305246  0.95879445  1
  O  O84  1  0.28320630  0.68305246  0.45879445  1
  O  O85  1  0.42505320  0.81694754  0.04120555  1
  O  O86  1  0.54058963  0.11416025  0.64755465  1
  O  O87  1  0.30230454  0.38583975  0.85244535  1
  O  O88  1  0.45941037  0.88583975  0.35244535  1
  O  O89  1  0.69769546  0.61416025  0.14755465  1
