# generated using pymatgen
data_Nd6Al43W4
_symmetry_space_group_name_H-M   'P 1'
_cell_length_a   11.12385123
_cell_length_b   11.12373691
_cell_length_c   17.82412340
_cell_angle_alpha   90.00000000
_cell_angle_beta   90.00000000
_cell_angle_gamma   120.00034056
_symmetry_Int_Tables_number   1
_chemical_formula_structural   Nd6Al43W4
_chemical_formula_sum   'Nd12 Al86 W8'
_cell_volume   1910.04325407
_cell_formula_units_Z   2
loop_
 _symmetry_equiv_pos_site_id
 _symmetry_equiv_pos_as_xyz
  1  'x, y, z'
loop_
 _atom_site_type_symbol
 _atom_site_label
 _atom_site_symmetry_multiplicity
 _atom_site_fract_x
 _atom_site_fract_y
 _atom_site_fract_z
 _atom_site_occupancy
  Nd  Nd0  1  0.53017773  -0.00000000  0.59547695  1
  Nd  Nd1  1  0.46981573  0.46982319  0.59547707  1
  Nd  Nd2  1  0.99999254  0.53017681  0.59547707  1
  Nd  Nd3  1  0.46982227  0.00000000  0.40452305  1
  Nd  Nd4  1  0.53018427  0.53017681  0.40452293  1
  Nd  Nd5  1  0.00000746  0.46982319  0.40452293  1
  Nd  Nd6  1  0.46982227  0.00000000  0.09547695  1
  Nd  Nd7  1  0.53018427  0.53017681  0.09547707  1
  Nd  Nd8  1  0.00000746  0.46982319  0.09547707  1
  Nd  Nd9  1  0.53017773  -0.00000000  0.90452305  1
  Nd  Nd10  1  0.46981573  0.46982319  0.90452293  1
  Nd  Nd11  1  0.99999254  0.53017681  0.90452293  1
  Al  Al12  1  0.15823356  0.39321793  0.66504908  1
  Al  Al13  1  0.23497757  0.84177084  0.66505051  1
  Al  Al14  1  0.60678072  0.76501995  0.66504997  1
  Al  Al15  1  0.76501563  0.60678207  0.66504908  1
  Al  Al16  1  0.39320673  0.15822916  0.66505051  1
  Al  Al17  1  0.84176077  0.23498005  0.66504997  1
  Al  Al18  1  0.84176644  0.60678207  0.33495092  1
  Al  Al19  1  0.76502243  0.15822916  0.33494949  1
  Al  Al20  1  0.39321928  0.23498005  0.33495003  1
  Al  Al21  1  0.23498437  0.39321793  0.33495092  1
  Al  Al22  1  0.60679327  0.84177084  0.33494949  1
  Al  Al23  1  0.15823923  0.76501995  0.33495003  1
  Al  Al24  1  0.84176644  0.60678207  0.16504908  1
  Al  Al25  1  0.76502243  0.15822916  0.16505051  1
  Al  Al26  1  0.39321928  0.23498005  0.16504997  1
  Al  Al27  1  0.23498437  0.39321793  0.16504908  1
  Al  Al28  1  0.60679327  0.84177084  0.16505051  1
  Al  Al29  1  0.15823923  0.76501995  0.16504997  1
  Al  Al30  1  0.15823356  0.39321793  0.83495092  1
  Al  Al31  1  0.23497757  0.84177084  0.83494949  1
  Al  Al32  1  0.60678072  0.76501995  0.83495003  1
  Al  Al33  1  0.76501563  0.60678207  0.83495092  1
  Al  Al34  1  0.39320673  0.15822916  0.83494949  1
  Al  Al35  1  0.84176077  0.23498005  0.83495003  1
  Al  Al36  1  0.15778382  1.00000000  0.11554142  1
  Al  Al37  1  0.84221753  0.84221519  0.11554058  1
  Al  Al38  1  0.00000234  0.15778481  0.11554058  1
  Al  Al39  1  0.84221618  0.00000000  0.88445858  1
  Al  Al40  1  0.15778247  0.15778481  0.88445942  1
  Al  Al41  1  0.99999766  0.84221519  0.88445942  1
  Al  Al42  1  0.84221618  0.00000000  0.61554142  1
  Al  Al43  1  0.15778247  0.15778481  0.61554058  1
  Al  Al44  1  0.99999766  0.84221519  0.61554058  1
  Al  Al45  1  0.15778382  1.00000000  0.38445858  1
  Al  Al46  1  0.84221753  0.84221519  0.38445942  1
  Al  Al47  1  0.00000234  0.15778481  0.38445942  1
  Al  Al48  1  0.25104806  1.00000000  0.53122852  1
  Al  Al49  1  0.74895111  0.74894908  0.53122928  1
  Al  Al50  1  0.00000203  0.25105092  0.53122928  1
  Al  Al51  1  0.74895194  0.00000000  0.46877148  1
  Al  Al52  1  0.25104889  0.25105092  0.46877072  1
  Al  Al53  1  0.99999797  0.74894908  0.46877072  1
  Al  Al54  1  0.74895194  0.00000000  0.03122852  1
  Al  Al55  1  0.25104889  0.25105092  0.03122928  1
  Al  Al56  1  0.99999797  0.74894908  0.03122928  1
  Al  Al57  1  0.25104806  1.00000000  0.96877148  1
  Al  Al58  1  0.74895111  0.74894908  0.96877072  1
  Al  Al59  1  0.00000203  0.25105092  0.96877072  1
  Al  Al60  1  0.14776273  0.59593332  0.75000000  1
  Al  Al61  1  0.44816064  0.85222928  0.75000000  1
  Al  Al62  1  0.40406107  0.55184224  0.75000000  1
  Al  Al63  1  0.55182941  0.40406668  0.75000000  1
  Al  Al64  1  0.59593136  0.14777072  0.75000000  1
  Al  Al65  1  0.85221882  0.44815776  0.75000000  1
  Al  Al66  1  0.85223727  0.40406668  0.25000000  1
  Al  Al67  1  0.55183936  0.14777072  0.25000000  1
  Al  Al68  1  0.59593893  0.44815776  0.25000000  1
  Al  Al69  1  0.44817059  0.59593332  0.25000000  1
  Al  Al70  1  0.40406864  0.85222928  0.25000000  1
  Al  Al71  1  0.14778118  0.55184224  0.25000000  1
  Al  Al72  1  0.24683599  0.49367199  0.50000000  1
  Al  Al73  1  0.24683131  0.75316403  0.49999683  1
  Al  Al74  1  0.50633272  0.75316403  0.50000317  1
  Al  Al75  1  0.75316401  0.50632801  0.50000000  1
  Al  Al76  1  0.49366728  0.24683597  0.49999683  1
  Al  Al77  1  0.75316869  0.24683597  0.50000317  1
  Al  Al78  1  0.75316401  0.50632801  0.00000000  1
  Al  Al79  1  0.75316869  0.24683597  0.99999683  1
  Al  Al80  1  0.49366728  0.24683597  0.00000317  1
  Al  Al81  1  0.24683599  0.49367199  0.00000000  1
  Al  Al82  1  0.50633272  0.75316403  0.99999683  1
  Al  Al83  1  0.24683131  0.75316403  0.00000317  1
  Al  Al84  1  0.33333205  0.66666656  0.62711478  1
  Al  Al85  1  0.66666549  0.33333344  0.62711478  1
  Al  Al86  1  0.66666795  0.33333344  0.37288522  1
  Al  Al87  1  0.33333451  0.66666656  0.37288522  1
  Al  Al88  1  0.66666795  0.33333344  0.12711478  1
  Al  Al89  1  0.33333451  0.66666656  0.12711478  1
  Al  Al90  1  0.33333205  0.66666656  0.87288522  1
  Al  Al91  1  0.66666549  0.33333344  0.87288522  1
  Al  Al92  1  0.14660052  1.00000000  0.75000000  1
  Al  Al93  1  0.85338996  0.85339122  0.75000000  1
  Al  Al94  1  0.99999874  0.14660878  0.75000000  1
  Al  Al95  1  0.85339948  0.00000000  0.25000000  1
  Al  Al96  1  0.14661004  0.14660878  0.25000000  1
  Al  Al97  1  0.00000126  0.85339122  0.25000000  1
  W  W98  1  0.73049221  0.00000000  0.75000000  1
  W  W99  1  0.26950127  0.26950697  0.75000000  1
  W  W100  1  0.99999430  0.73049303  0.75000000  1
  W  W101  1  0.26950779  1.00000000  0.25000000  1
  W  W102  1  0.73049873  0.73049303  0.25000000  1
  W  W103  1  0.00000570  0.26950697  0.25000000  1
  W  W104  1  -0.00000000  -0.00000000  0.50000000  1
  W  W105  1  -0.00000000  -0.00000000  0.00000000  1
