# generated using pymatgen
data_Na2ZnB6O11
_symmetry_space_group_name_H-M   'P 1'
_cell_length_a   6.59503240
_cell_length_b   6.59503240
_cell_length_c   11.42855981
_cell_angle_alpha   96.23685556
_cell_angle_beta   105.18411486
_cell_angle_gamma   110.96847521
_symmetry_Int_Tables_number   1
_chemical_formula_structural   Na2ZnB6O11
_chemical_formula_sum   'Na4 Zn2 B12 O22'
_cell_volume   436.51616832
_cell_formula_units_Z   2
loop_
 _symmetry_equiv_pos_site_id
 _symmetry_equiv_pos_as_xyz
  1  'x, y, z'
loop_
 _atom_site_type_symbol
 _atom_site_label
 _atom_site_symmetry_multiplicity
 _atom_site_fract_x
 _atom_site_fract_y
 _atom_site_fract_z
 _atom_site_occupancy
  Na  Na0  1  0.26542994  0.44921259  0.89867125  1
  Na  Na1  1  0.94945866  0.63324131  0.39867125  1
  Na  Na2  1  0.66370855  0.34024712  0.83126788  1
  Na  Na3  1  0.99102076  0.16755933  0.33126788  1
  Zn  Zn4  1  0.35289303  0.02698041  0.11707799  1
  Zn  Zn5  1  0.59009758  0.76418496  0.61707799  1
  B  B6  1  0.91531728  0.15712150  0.02095122  1
  B  B7  1  0.36382971  0.10563394  0.52095122  1
  B  B8  1  0.35295327  0.59515536  0.35542247  1
  B  B9  1  0.26026710  0.00246920  0.85542247  1
  B  B10  1  0.14627305  0.56964443  0.13354629  1
  B  B11  1  0.06390186  0.98727324  0.63354629  1
  B  B12  1  0.88436079  0.80873751  0.10372951  1
  B  B13  1  0.79499201  0.21936873  0.60372951  1
  B  B14  1  0.58911545  0.17990446  0.38033969  1
  B  B15  1  0.70043523  0.79122424  0.88033969  1
  B  B16  1  0.57352236  0.68355886  0.21289635  1
  B  B17  1  0.02933749  0.63937399  0.71289635  1
  O  O18  1  0.97344953  0.05882774  0.11704088  1
  O  O19  1  0.55821314  0.14359135  0.61704088  1
  O  O20  1  0.15173909  0.51659383  0.25587978  1
  O  O21  1  0.23928594  0.10414068  0.75587978  1
  O  O22  1  0.98387900  0.38101736  0.02914196  1
  O  O23  1  0.14812460  0.04526296  0.52914196  1
  O  O24  1  0.56397367  0.66237637  0.33242963  1
  O  O25  1  0.17005326  0.76845596  0.83242963  1
  O  O26  1  0.78176493  0.02490567  0.90176350  1
  O  O27  1  0.37685783  0.11999857  0.40176350  1
  O  O28  1  0.09452931  0.76774644  0.12503217  1
  O  O29  1  0.85728573  0.03050286  0.62503217  1
  O  O30  1  0.36928845  0.13430643  0.97091261  1
  O  O31  1  0.33660618  0.60162416  0.47091261  1
  O  O32  1  0.37861820  0.63730777  0.11636102  1
  O  O33  1  0.97905325  0.73774281  0.61636102  1
  O  O34  1  0.79078167  0.75666298  0.20562356  1
  O  O35  1  0.94896058  0.41484189  0.70562356  1
  O  O36  1  0.60618362  0.16623594  0.26539056  1
  O  O37  1  0.59915462  0.65920694  0.76539056  1
  O  O38  1  0.71841747  0.68899588  0.98010170  1
  O  O39  1  0.79110582  0.26168423  0.48010170  1
