# generated using pymatgen
data_TiP2(HO4)2
_symmetry_space_group_name_H-M   'P 1'
_cell_length_a   5.25237784
_cell_length_b   6.40387582
_cell_length_c   18.73303905
_cell_angle_alpha   90.00000000
_cell_angle_beta   89.83612156
_cell_angle_gamma   90.00000000
_symmetry_Int_Tables_number   1
_chemical_formula_structural   TiP2(HO4)2
_chemical_formula_sum   'Ti4 P8 H8 O32'
_cell_volume   630.09397149
_cell_formula_units_Z   4
loop_
 _symmetry_equiv_pos_site_id
 _symmetry_equiv_pos_as_xyz
  1  'x, y, z'
loop_
 _atom_site_type_symbol
 _atom_site_label
 _atom_site_symmetry_multiplicity
 _atom_site_fract_x
 _atom_site_fract_y
 _atom_site_fract_z
 _atom_site_occupancy
  Ti  Ti0  1  0.76186015  0.74794062  0.66884895  1
  Ti  Ti1  1  0.76186015  0.75205938  0.16884895  1
  Ti  Ti2  1  0.23813985  0.25205938  0.33115105  1
  Ti  Ti3  1  0.23813985  0.24794062  0.83115105  1
  P  P4  1  0.24765575  0.83525861  0.56135709  1
  P  P5  1  0.24765575  0.66474139  0.06135709  1
  P  P6  1  0.75234425  0.16474139  0.43864291  1
  P  P7  1  0.75234425  0.33525861  0.93864291  1
  P  P8  1  0.73332591  0.25253524  0.71450888  1
  P  P9  1  0.73332591  0.24746476  0.21450888  1
  P  P10  1  0.26667409  0.74746476  0.28549112  1
  P  P11  1  0.26667409  0.75253524  0.78549112  1
  H  H12  1  0.60992625  0.84467730  0.44405220  1
  H  H13  1  0.60992625  0.65532270  0.94405220  1
  H  H14  1  0.39007375  0.15532270  0.55594780  1
  H  H15  1  0.39007375  0.34467730  0.05594780  1
  H  H16  1  0.17706037  0.82155172  0.44411659  1
  H  H17  1  0.17706037  0.67844828  0.94411659  1
  H  H18  1  0.82293963  0.17844828  0.55588341  1
  H  H19  1  0.82293963  0.32155172  0.05588341  1
  O  O20  1  0.76157714  0.44636860  0.66644171  1
  O  O21  1  0.76157714  0.05363140  0.16644171  1
  O  O22  1  0.23842286  0.55363140  0.33355829  1
  O  O23  1  0.23842286  0.94636860  0.83355829  1
  O  O24  1  0.47029982  0.24526955  0.25181899  1
  O  O25  1  0.47029982  0.25473045  0.75181899  1
  O  O26  1  0.52970018  0.75473045  0.74818101  1
  O  O27  1  0.52970018  0.74526955  0.24818101  1
  O  O28  1  0.75558030  0.44084875  0.16609824  1
  O  O29  1  0.75558030  0.05915125  0.66609824  1
  O  O30  1  0.24441970  0.55915125  0.83390176  1
  O  O31  1  0.24441970  0.94084875  0.33390176  1
  O  O32  1  0.94505378  0.25451243  0.77168731  1
  O  O33  1  0.94505378  0.24548757  0.27168731  1
  O  O34  1  0.05494622  0.74548757  0.22831269  1
  O  O35  1  0.05494622  0.75451243  0.72831269  1
  O  O36  1  0.01320213  0.24737079  0.41866667  1
  O  O37  1  0.01320213  0.25262921  0.91866667  1
  O  O38  1  0.98679787  0.75262921  0.58133333  1
  O  O39  1  0.98679787  0.74737079  0.08133333  1
  O  O40  1  0.52665188  0.24448357  0.89930649  1
  O  O41  1  0.52665188  0.25551643  0.39930649  1
  O  O42  1  0.47334812  0.75551643  0.10069351  1
  O  O43  1  0.47334812  0.74448357  0.60069351  1
  O  O44  1  0.23026398  0.41890844  0.06948052  1
  O  O45  1  0.23026398  0.08109156  0.56948052  1
  O  O46  1  0.76973602  0.58109156  0.93051948  1
  O  O47  1  0.76973602  0.91890844  0.43051948  1
  O  O48  1  0.69168879  0.28349849  0.02068460  1
  O  O49  1  0.69168879  0.21650151  0.52068460  1
  O  O50  1  0.30831121  0.71650151  0.97931540  1
  O  O51  1  0.30831121  0.78349849  0.47931540  1
