# generated using pymatgen
data_Ca5P3O13
_symmetry_space_group_name_H-M   'P 1'
_cell_length_a   6.92464374
_cell_length_b   9.53416425
_cell_length_c   9.53416159
_cell_angle_alpha   120.00052896
_cell_angle_beta   90.00000000
_cell_angle_gamma   90.00000000
_symmetry_Int_Tables_number   1
_chemical_formula_structural   Ca5P3O13
_chemical_formula_sum   'Ca10 P6 O26'
_cell_volume   545.11845965
_cell_formula_units_Z   2
loop_
 _symmetry_equiv_pos_site_id
 _symmetry_equiv_pos_as_xyz
  1  'x, y, z'
loop_
 _atom_site_type_symbol
 _atom_site_label
 _atom_site_symmetry_multiplicity
 _atom_site_fract_x
 _atom_site_fract_y
 _atom_site_fract_z
 _atom_site_occupancy
  Ca  Ca0  1  0.50136247  0.66664775  0.33332419  1
  Ca  Ca1  1  0.00136247  0.33335225  0.66667581  1
  Ca  Ca2  1  0.49863753  0.33335225  0.66667581  1
  Ca  Ca3  1  0.99863753  0.66664775  0.33332419  1
  Ca  Ca4  1  0.75000000  0.24978540  0.00360067  1
  Ca  Ca5  1  0.75000000  0.99638682  0.24618910  1
  Ca  Ca6  1  0.75000000  0.75382645  0.75020759  1
  Ca  Ca7  1  0.25000000  0.75021460  0.99639933  1
  Ca  Ca8  1  0.25000000  0.00361318  0.75381090  1
  Ca  Ca9  1  0.25000000  0.24617355  0.24979241  1
  P  P10  1  0.75000000  0.02974510  0.63101701  1
  P  P11  1  0.75000000  0.36898645  0.39872749  1
  P  P12  1  0.75000000  0.60127086  0.97025759  1
  P  P13  1  0.25000000  0.97025490  0.36898299  1
  P  P14  1  0.25000000  0.63101355  0.60127251  1
  P  P15  1  0.25000000  0.39872914  0.02974241  1
  O  O16  1  0.75000000  0.84489636  0.51228164  1
  O  O17  1  0.75000000  0.48770754  0.33260903  1
  O  O18  1  0.75000000  0.66738700  0.15510001  1
  O  O19  1  0.25000000  0.15510364  0.48771836  1
  O  O20  1  0.25000000  0.51229246  0.66739097  1
  O  O21  1  0.25000000  0.33261300  0.84489999  1
  O  O22  1  0.75000000  0.12497818  0.53719452  1
  O  O23  1  0.75000000  0.46281575  0.58778286  1
  O  O24  1  0.75000000  0.41221149  0.87502780  1
  O  O25  1  0.25000000  0.87502182  0.46280548  1
  O  O26  1  0.25000000  0.53718425  0.41221714  1
  O  O27  1  0.25000000  0.58778851  0.12497220  1
  O  O28  1  0.56968451  0.08370491  0.74304793  1
  O  O29  1  0.56968233  0.25695443  0.34066234  1
  O  O30  1  0.56968253  0.65933506  0.91629003  1
  O  O31  1  0.06968451  0.91629509  0.25695207  1
  O  O32  1  0.06968233  0.74304557  0.65933766  1
  O  O33  1  0.06968253  0.34066494  0.08370997  1
  O  O34  1  0.43031549  0.91629509  0.25695207  1
  O  O35  1  0.43031767  0.74304557  0.65933766  1
  O  O36  1  0.43031747  0.34066494  0.08370997  1
  O  O37  1  0.93031549  0.08370491  0.74304793  1
  O  O38  1  0.93031767  0.25695443  0.34066234  1
  O  O39  1  0.93031747  0.65933506  0.91629003  1
  O  O40  1  0.75000000  0.99999898  0.00000268  1
  O  O41  1  0.25000000  0.00000102  0.99999732  1
