# generated using pymatgen
data_Cs2Zn5P6(HO2)14
_symmetry_space_group_name_H-M   'P 1'
_cell_length_a   8.60916688
_cell_length_b   10.00245276
_cell_length_c   10.01873471
_cell_angle_alpha   111.16971446
_cell_angle_beta   111.34342631
_cell_angle_gamma   98.88554776
_symmetry_Int_Tables_number   1
_chemical_formula_structural   Cs2Zn5P6(HO2)14
_chemical_formula_sum   'Cs2 Zn5 P6 H14 O28'
_cell_volume   707.58295165
_cell_formula_units_Z   1
loop_
 _symmetry_equiv_pos_site_id
 _symmetry_equiv_pos_as_xyz
  1  'x, y, z'
loop_
 _atom_site_type_symbol
 _atom_site_label
 _atom_site_symmetry_multiplicity
 _atom_site_fract_x
 _atom_site_fract_y
 _atom_site_fract_z
 _atom_site_occupancy
  Cs  Cs0  1  0.01415667  0.50033734  0.74360948  1
  Cs  Cs1  1  0.98584333  0.49966266  0.25639052  1
  Zn  Zn2  1  0.55687188  0.16575721  0.72658314  1
  Zn  Zn3  1  0.44312812  0.83424279  0.27341686  1
  Zn  Zn4  1  0.07411625  0.16416339  0.92683316  1
  Zn  Zn5  1  0.92588375  0.83583661  0.07316684  1
  Zn  Zn6  1  0.50000000  0.50000000  0.50000000  1
  P  P7  1  0.73368111  0.05447612  0.96682205  1
  P  P8  1  0.26631889  0.94552388  0.03317795  1
  P  P9  1  0.62941959  0.51443312  0.86710333  1
  P  P10  1  0.37058041  0.48556688  0.13289667  1
  P  P11  1  0.81051399  0.05756774  0.57009468  1
  P  P12  1  0.18948601  0.94243226  0.42990532  1
  H  H13  1  0.70167022  0.77384851  0.55098687  1
  H  H14  1  0.29832978  0.22615149  0.44901313  1
  H  H15  1  0.73691056  0.77871112  0.71932514  1
  H  H16  1  0.26308944  0.22128888  0.28067486  1
  H  H17  1  0.39500619  0.64579013  0.70822706  1
  H  H18  1  0.60499381  0.35420987  0.29177294  1
  H  H19  1  0.37603859  0.72627873  0.59627512  1
  H  H20  1  0.62396141  0.27372127  0.40372488  1
  H  H21  1  0.63267216  0.06117551  0.14535783  1
  H  H22  1  0.36732784  0.93882449  0.85464217  1
  H  H23  1  0.45987441  0.61425264  0.97096447  1
  H  H24  1  0.54012559  0.38574736  0.02903553  1
  H  H25  1  0.92540757  0.06467169  0.40552365  1
  H  H26  1  0.07459243  0.93532831  0.59447635  1
  O  O27  1  0.76657169  0.90069178  0.93074172  1
  O  O28  1  0.23342831  0.09930822  0.06925828  1
  O  O29  1  0.88392542  0.17958199  0.99142503  1
  O  O30  1  0.11607458  0.82041801  0.00857497  1
  O  O31  1  0.55345039  0.02873419  0.83054897  1
  O  O32  1  0.44654961  0.97126581  0.16945103  1
  O  O33  1  0.72644484  0.12210784  0.13471019  1
  O  O34  1  0.27355516  0.87789216  0.86528981  1
  O  O35  1  0.58478848  0.36778884  0.88741748  1
  O  O36  1  0.41521152  0.63221116  0.11258252  1
  O  O37  1  0.62612072  0.47819699  0.70537266  1
  O  O38  1  0.37387928  0.52180301  0.29462734  1
  O  O39  1  0.80678163  0.62428186  0.01316909  1
  O  O40  1  0.19321837  0.37571814  0.98683091  1
  O  O41  1  0.47751253  0.58909976  0.86999207  1
  O  O42  1  0.52248747  0.41090024  0.13000793  1
  O  O43  1  0.67488395  0.89622451  0.45794654  1
  O  O44  1  0.32511605  0.10377549  0.54205346  1
  O  O45  1  0.97384957  0.04390721  0.69227379  1
  O  O46  1  0.02615043  0.95609279  0.30772621  1
  O  O47  1  0.73702082  0.17479308  0.65010129  1
  O  O48  1  0.26297918  0.82520692  0.34989871  1
  O  O49  1  0.87297877  0.12605898  0.46958421  1
  O  O50  1  0.12702123  0.87394102  0.53041579  1
  O  O51  1  0.71241822  0.71054751  0.60904838  1
  O  O52  1  0.28758178  0.28945249  0.39095162  1
  O  O53  1  0.34853390  0.62730194  0.59475766  1
  O  O54  1  0.65146610  0.37269806  0.40524234  1
