# generated using pymatgen
data_HfAsOs
_symmetry_space_group_name_H-M   'P 1'
_cell_length_a   3.98210239
_cell_length_b   6.58613769
_cell_length_c   6.59174646
_cell_angle_alpha   119.97185231
_cell_angle_beta   90.00000000
_cell_angle_gamma   90.00000000
_symmetry_Int_Tables_number   1
_chemical_formula_structural   HfAsOs
_chemical_formula_sum   'Hf3 As3 Os3'
_cell_volume   149.76056366
_cell_formula_units_Z   3
loop_
 _symmetry_equiv_pos_site_id
 _symmetry_equiv_pos_as_xyz
  1  'x, y, z'
loop_
 _atom_site_type_symbol
 _atom_site_label
 _atom_site_symmetry_multiplicity
 _atom_site_fract_x
 _atom_site_fract_y
 _atom_site_fract_z
 _atom_site_occupancy
  Hf  Hf0  1  0.50000000  0.58032011  0.00000000  1
  Hf  Hf1  1  0.50000000  0.41961583  0.41959372  1
  Hf  Hf2  1  0.50000000  0.00002211  0.58040628  1
  As  As3  1  0.00000000  0.33333257  0.66673334  1
  As  As4  1  0.00000000  0.66659923  0.33326666  1
  As  As5  1  0.50000000  0.00005250  0.00000000  1
  Os  Os6  1  -0.00000000  0.24670544  0.00000000  1
  Os  Os7  1  -0.00000000  0.75340074  0.75354927  1
  Os  Os8  1  -0.00000000  0.99985147  0.24645073  1
