# generated using pymatgen
data_Ba7Ga4P9
_symmetry_space_group_name_H-M   'P 1'
_cell_length_a   6.76931539
_cell_length_b   9.93484172
_cell_length_c   16.79706075
_cell_angle_alpha   90.00000000
_cell_angle_beta   90.00000000
_cell_angle_gamma   90.00000000
_symmetry_Int_Tables_number   1
_chemical_formula_structural   Ba7Ga4P9
_chemical_formula_sum   'Ba14 Ga8 P18'
_cell_volume   1129.63722213
_cell_formula_units_Z   2
loop_
 _symmetry_equiv_pos_site_id
 _symmetry_equiv_pos_as_xyz
  1  'x, y, z'
loop_
 _atom_site_type_symbol
 _atom_site_label
 _atom_site_symmetry_multiplicity
 _atom_site_fract_x
 _atom_site_fract_y
 _atom_site_fract_z
 _atom_site_occupancy
  Ba  Ba0  1  0.44766183  0.75000000  0.03351990  1
  Ba  Ba1  1  0.44766183  0.75000000  0.46648010  1
  Ba  Ba2  1  0.55233817  0.25000000  0.96648010  1
  Ba  Ba3  1  0.55233817  0.25000000  0.53351990  1
  Ba  Ba4  1  0.94094108  0.52938665  0.12517170  1
  Ba  Ba5  1  0.94094108  0.97061335  0.12517170  1
  Ba  Ba6  1  0.94094108  0.52938665  0.37482830  1
  Ba  Ba7  1  0.94094108  0.97061335  0.37482830  1
  Ba  Ba8  1  0.05905892  0.47061335  0.87482830  1
  Ba  Ba9  1  0.05905892  0.02938665  0.87482830  1
  Ba  Ba10  1  0.05905892  0.47061335  0.62517170  1
  Ba  Ba11  1  0.05905892  0.02938665  0.62517170  1
  Ba  Ba12  1  0.40044321  0.75000000  0.75000000  1
  Ba  Ba13  1  0.59955679  0.25000000  0.25000000  1
  Ga  Ga14  1  0.76705822  0.75000000  0.62742057  1
  Ga  Ga15  1  0.76705822  0.75000000  0.87257943  1
  Ga  Ga16  1  0.23294178  0.25000000  0.37257943  1
  Ga  Ga17  1  0.23294178  0.25000000  0.12742057  1
  Ga  Ga18  1  0.57461951  0.07807063  0.75000000  1
  Ga  Ga19  1  0.57461951  0.42192937  0.75000000  1
  Ga  Ga20  1  0.42538049  0.92192937  0.25000000  1
  Ga  Ga21  1  0.42538049  0.57807063  0.25000000  1
  P  P22  1  0.56458340  0.54161507  0.62395703  1
  P  P23  1  0.56458340  0.95838493  0.62395703  1
  P  P24  1  0.56458340  0.54161507  0.87604297  1
  P  P25  1  0.56458340  0.95838493  0.87604297  1
  P  P26  1  0.43541660  0.45838493  0.37604297  1
  P  P27  1  0.43541660  0.04161507  0.37604297  1
  P  P28  1  0.43541660  0.45838493  0.12395703  1
  P  P29  1  0.43541660  0.04161507  0.12395703  1
  P  P30  1  0.97683112  0.75000000  0.51458967  1
  P  P31  1  0.97683112  0.75000000  0.98541033  1
  P  P32  1  0.02316888  0.25000000  0.48541033  1
  P  P33  1  0.02316888  0.25000000  0.01458967  1
  P  P34  1  0.69073239  0.75000000  0.25000000  1
  P  P35  1  0.30926761  0.25000000  0.75000000  1
  P  P36  1  0.16148906  0.75000000  0.25000000  1
  P  P37  1  0.83851094  0.25000000  0.75000000  1
  P  P38  1  0.95109435  0.75000000  0.75000000  1
  P  P39  1  0.04890565  0.25000000  0.25000000  1
