# generated using pymatgen
data_Rb2Th(MoO4)3
_symmetry_space_group_name_H-M   'P 1'
_cell_length_a   5.47548407
_cell_length_b   11.21006247
_cell_length_c   11.21006247
_cell_angle_alpha   69.22770044
_cell_angle_beta   77.70648697
_cell_angle_gamma   77.70648697
_symmetry_Int_Tables_number   1
_chemical_formula_structural   Rb2Th(MoO4)3
_chemical_formula_sum   'Rb4 Th2 Mo6 O24'
_cell_volume   621.44913172
_cell_formula_units_Z   2
loop_
 _symmetry_equiv_pos_site_id
 _symmetry_equiv_pos_as_xyz
  1  'x, y, z'
loop_
 _atom_site_type_symbol
 _atom_site_label
 _atom_site_symmetry_multiplicity
 _atom_site_fract_x
 _atom_site_fract_y
 _atom_site_fract_z
 _atom_site_occupancy
  Rb  Rb0  1  0.57080664  0.78927966  0.54381447  1
  Rb  Rb1  1  0.92919336  0.45618553  0.21072034  1
  Rb  Rb2  1  0.42919336  0.21072034  0.45618553  1
  Rb  Rb3  1  0.07080664  0.54381447  0.78927966  1
  Th  Th4  1  0.75000000  0.87600241  0.12399759  1
  Th  Th5  1  0.25000000  0.12399759  0.87600241  1
  Mo  Mo6  1  0.25000000  0.65461904  0.34538096  1
  Mo  Mo7  1  0.75000000  0.34538096  0.65461904  1
  Mo  Mo8  1  0.10546725  0.04634320  0.25623065  1
  Mo  Mo9  1  0.39453275  0.74376935  0.95365680  1
  Mo  Mo10  1  0.89453275  0.95365680  0.74376935  1
  Mo  Mo11  1  0.60546725  0.25623065  0.04634320  1
  O  O12  1  0.35395600  0.03138218  0.11031210  1
  O  O13  1  0.14604400  0.88968790  0.96861782  1
  O  O14  1  0.64604400  0.96861782  0.88968790  1
  O  O15  1  0.85395600  0.11031210  0.03138218  1
  O  O16  1  0.89868496  0.92685007  0.28423685  1
  O  O17  1  0.60131504  0.71576315  0.07314993  1
  O  O18  1  0.10131504  0.07314993  0.71576315  1
  O  O19  1  0.39868496  0.28423685  0.92685007  1
  O  O20  1  0.03209265  0.69815863  0.22558345  1
  O  O21  1  0.46790735  0.77441655  0.30184137  1
  O  O22  1  0.96790735  0.30184137  0.77441655  1
  O  O23  1  0.53209265  0.22558345  0.69815863  1
  O  O24  1  0.24174196  0.00767879  0.39492578  1
  O  O25  1  0.25825804  0.60507422  0.99232121  1
  O  O26  1  0.75825804  0.99232121  0.60507422  1
  O  O27  1  0.74174196  0.39492578  0.00767879  1
  O  O28  1  0.89873503  0.19297514  0.24083115  1
  O  O29  1  0.60126497  0.75916885  0.80702486  1
  O  O30  1  0.10126497  0.80702486  0.75916885  1
  O  O31  1  0.39873503  0.24083115  0.19297514  1
  O  O32  1  0.08097149  0.64630417  0.49912140  1
  O  O33  1  0.41902851  0.50087860  0.35369583  1
  O  O34  1  0.91902851  0.35369583  0.50087860  1
  O  O35  1  0.58097149  0.49912140  0.64630417  1
