# generated using pymatgen
data_Ti4Fe(PO4)6
_symmetry_space_group_name_H-M   'P 1'
_cell_length_a   8.64924440
_cell_length_b   8.64741568
_cell_length_c   8.65629204
_cell_angle_alpha   60.03703199
_cell_angle_beta   60.03200684
_cell_angle_gamma   60.00873722
_symmetry_Int_Tables_number   1
_chemical_formula_structural   Ti4Fe(PO4)6
_chemical_formula_sum   'Ti4 Fe1 P6 O24'
_cell_volume   458.07491055
_cell_formula_units_Z   1
loop_
 _symmetry_equiv_pos_site_id
 _symmetry_equiv_pos_as_xyz
  1  'x, y, z'
loop_
 _atom_site_type_symbol
 _atom_site_label
 _atom_site_symmetry_multiplicity
 _atom_site_fract_x
 _atom_site_fract_y
 _atom_site_fract_z
 _atom_site_occupancy
  Ti  Ti0  1  0.85339422  0.85330037  0.43993380  1
  Ti  Ti1  1  0.14660331  0.14669524  0.56007529  1
  Ti  Ti2  1  0.63524670  0.63517647  0.09441508  1
  Ti  Ti3  1  0.36475368  0.36482565  0.90558274  1
  Fe  Fe4  1  0.99998656  0.00000097  0.00002164  1
  P  P5  1  0.54407646  0.24691140  0.24053959  1
  P  P6  1  0.24682417  0.96854727  0.24050524  1
  P  P7  1  0.96849032  0.54425418  0.24049008  1
  P  P8  1  0.45592597  0.75309210  0.75945861  1
  P  P9  1  0.75317741  0.03145074  0.75949430  1
  P  P10  1  0.03150871  0.45574991  0.75950849  1
  O  O11  1  0.54825062  0.42036894  0.24389976  1
  O  O12  1  0.42041077  0.78743433  0.24389714  1
  O  O13  1  0.78742692  0.54824759  0.24389498  1
  O  O14  1  0.45174992  0.57962962  0.75610015  1
  O  O15  1  0.57958732  0.21256654  0.75610310  1
  O  O16  1  0.21257036  0.45175293  0.75610505  1
  O  O17  1  0.73975831  0.08529094  0.23898911  1
  O  O18  1  0.08530908  0.93591363  0.23902314  1
  O  O19  1  0.93592539  0.73970145  0.23908782  1
  O  O20  1  0.26023850  0.91471217  0.76101111  1
  O  O21  1  0.91469324  0.06408730  0.76097558  1
  O  O22  1  0.06407227  0.26029635  0.76091397  1
  O  O23  1  0.61741110  0.81475094  0.57662028  1
  O  O24  1  0.81473851  0.99121720  0.57660963  1
  O  O25  1  0.99118404  0.61749555  0.57655813  1
  O  O26  1  0.38258468  0.18524555  0.42338611  1
  O  O27  1  0.18525989  0.00878351  0.42339164  1
  O  O28  1  0.00881688  0.38250046  0.42344593  1
  O  O29  1  0.50865598  0.28349135  0.06708791  1
  O  O30  1  0.28350598  0.14076724  0.06709683  1
  O  O31  1  0.14079916  0.50861820  0.06706749  1
  O  O32  1  0.49134489  0.71650823  0.93291002  1
  O  O33  1  0.71649349  0.85923378  0.93290133  1
  O  O34  1  0.85920218  0.49138188  0.93293192  1
