# generated using pymatgen
data_Er15Si9C
_symmetry_space_group_name_H-M   'P 1'
_cell_length_a   6.28277649
_cell_length_b   14.52189542
_cell_length_c   14.52189542
_cell_angle_alpha   120.00073660
_cell_angle_beta   90.00000000
_cell_angle_gamma   90.00000000
_symmetry_Int_Tables_number   1
_chemical_formula_structural   Er15Si9C
_chemical_formula_sum   'Er30 Si18 C2'
_cell_volume   1147.42848716
_cell_formula_units_Z   2
loop_
 _symmetry_equiv_pos_site_id
 _symmetry_equiv_pos_as_xyz
  1  'x, y, z'
loop_
 _atom_site_type_symbol
 _atom_site_label
 _atom_site_symmetry_multiplicity
 _atom_site_fract_x
 _atom_site_fract_y
 _atom_site_fract_z
 _atom_site_occupancy
  Er  Er0  1  0.50040869  0.00979074  0.33875740  1
  Er  Er1  1  0.50041439  0.32897076  0.99021988  1
  Er  Er2  1  0.50041818  0.66124835  0.67102820  1
  Er  Er3  1  0.50041818  0.32897180  0.33875165  1
  Er  Er4  1  0.50040869  0.66124260  0.99020926  1
  Er  Er5  1  0.50041439  0.00978012  0.67102924  1
  Er  Er6  1  0.00040869  0.99020926  0.66124260  1
  Er  Er7  1  0.00041439  0.67102924  0.00978012  1
  Er  Er8  1  0.00041818  0.33875165  0.32897180  1
  Er  Er9  1  0.00041818  0.67102820  0.66124835  1
  Er  Er10  1  0.00040869  0.33875740  0.00979074  1
  Er  Er11  1  0.00041439  0.99021988  0.32897076  1
  Er  Er12  1  0.78830717  0.41238811  0.82477786  1
  Er  Er13  1  0.78831701  0.41238815  0.58761185  1
  Er  Er14  1  0.78830717  0.17522214  0.58761189  1
  Er  Er15  1  0.28830717  0.58761189  0.17522214  1
  Er  Er16  1  0.28831701  0.58761185  0.41238815  1
  Er  Er17  1  0.28830717  0.82477786  0.41238811  1
  Er  Er18  1  0.23499725  0.25385131  0.50770070  1
  Er  Er19  1  0.23496991  0.25384401  0.74615599  1
  Er  Er20  1  0.23499725  0.49229930  0.74614869  1
  Er  Er21  1  0.73499725  0.74614869  0.49229930  1
  Er  Er22  1  0.73496991  0.74615599  0.25384401  1
  Er  Er23  1  0.73499725  0.50770070  0.25385131  1
  Er  Er24  1  0.75726261  0.08100275  0.16200310  1
  Er  Er25  1  0.75725606  0.08099646  0.91900354  1
  Er  Er26  1  0.75726261  0.83799690  0.91899725  1
  Er  Er27  1  0.25726261  0.91899725  0.83799690  1
  Er  Er28  1  0.25725606  0.91900354  0.08099646  1
  Er  Er29  1  0.25726261  0.16200310  0.08100275  1
  Si  Si30  1  0.23431730  0.13212876  0.26425443  1
  Si  Si31  1  0.23432032  0.13212480  0.86787520  1
  Si  Si32  1  0.23431730  0.73574557  0.86787124  1
  Si  Si33  1  0.73431730  0.86787124  0.73574557  1
  Si  Si34  1  0.73432032  0.86787520  0.13212480  1
  Si  Si35  1  0.73431730  0.26425443  0.13212876  1
  Si  Si36  1  0.23985232  0.46687591  0.93375018  1
  Si  Si37  1  0.23985002  0.46687294  0.53312706  1
  Si  Si38  1  0.23985232  0.06624982  0.53312409  1
  Si  Si39  1  0.73985232  0.53312409  0.06624982  1
  Si  Si40  1  0.73985002  0.53312706  0.46687294  1
  Si  Si41  1  0.73985232  0.93375018  0.46687591  1
  Si  Si42  1  0.77288251  0.19966855  0.39934415  1
  Si  Si43  1  0.77287768  0.19967059  0.80032941  1
  Si  Si44  1  0.77288251  0.60065585  0.80033145  1
  Si  Si45  1  0.27288251  0.80033145  0.60065585  1
  Si  Si46  1  0.27287768  0.80032941  0.19967059  1
  Si  Si47  1  0.27288251  0.39934415  0.19966855  1
  C  C48  1  0.01368818  0.33333115  0.66666885  1
  C  C49  1  0.51368818  0.66666885  0.33333115  1
