# generated using pymatgen
data_Tm2Zn17
_symmetry_space_group_name_H-M   'P 1'
_cell_length_a   8.69129896
_cell_length_b   9.01085849
_cell_length_c   9.01085849
_cell_angle_alpha   120.02043017
_cell_angle_beta   90.00000000
_cell_angle_gamma   90.00000000
_symmetry_Int_Tables_number   1
_chemical_formula_structural   Tm2Zn17
_chemical_formula_sum   'Tm4 Zn34'
_cell_volume   611.02392497
_cell_formula_units_Z   2
loop_
 _symmetry_equiv_pos_site_id
 _symmetry_equiv_pos_as_xyz
  1  'x, y, z'
loop_
 _atom_site_type_symbol
 _atom_site_label
 _atom_site_symmetry_multiplicity
 _atom_site_fract_x
 _atom_site_fract_y
 _atom_site_fract_z
 _atom_site_occupancy
  Tm  Tm0  1  0.75000000  0.99995187  0.00004813  1
  Tm  Tm1  1  0.25000000  0.00004813  0.99995187  1
  Tm  Tm2  1  0.25000000  0.66661882  0.33338118  1
  Tm  Tm3  1  0.75000000  0.33338118  0.66661882  1
  Zn  Zn4  1  0.59698432  0.66665973  0.33334027  1
  Zn  Zn5  1  0.40301568  0.33334027  0.66665973  1
  Zn  Zn6  1  0.09698432  0.33334027  0.66665973  1
  Zn  Zn7  1  0.90301568  0.66665973  0.33334027  1
  Zn  Zn8  1  0.50000000  0.50000000  -0.00000000  1
  Zn  Zn9  1  0.50000000  0.50000000  0.50000000  1
  Zn  Zn10  1  0.50000000  0.00000000  0.50000000  1
  Zn  Zn11  1  -0.00000000  0.50000000  -0.00000000  1
  Zn  Zn12  1  -0.00000000  0.50000000  0.50000000  1
  Zn  Zn13  1  -0.00000000  0.00000000  0.50000000  1
  Zn  Zn14  1  0.75000000  0.67046677  0.03083495  1
  Zn  Zn15  1  0.75000000  0.36065501  0.33005564  1
  Zn  Zn16  1  0.75000000  0.96948178  0.63969379  1
  Zn  Zn17  1  0.75000000  0.36030621  0.03051822  1
  Zn  Zn18  1  0.75000000  0.96916505  0.32953323  1
  Zn  Zn19  1  0.75000000  0.66994436  0.63934499  1
  Zn  Zn20  1  0.25000000  0.32953323  0.96916505  1
  Zn  Zn21  1  0.25000000  0.63934499  0.66994436  1
  Zn  Zn22  1  0.25000000  0.03051822  0.36030621  1
  Zn  Zn23  1  0.25000000  0.63969379  0.96948178  1
  Zn  Zn24  1  0.25000000  0.03083495  0.67046677  1
  Zn  Zn25  1  0.25000000  0.33005564  0.36065501  1
  Zn  Zn26  1  0.48319883  0.83842722  0.67687892  1
  Zn  Zn27  1  0.48306274  0.83851614  0.16148386  1
  Zn  Zn28  1  0.48319883  0.32312108  0.16157278  1
  Zn  Zn29  1  0.51680117  0.16157278  0.32312108  1
  Zn  Zn30  1  0.51693726  0.16148386  0.83851614  1
  Zn  Zn31  1  0.51680117  0.67687892  0.83842722  1
  Zn  Zn32  1  0.98319883  0.16157278  0.32312108  1
  Zn  Zn33  1  0.98306274  0.16148386  0.83851614  1
  Zn  Zn34  1  0.98319883  0.67687892  0.83842722  1
  Zn  Zn35  1  0.01680117  0.83842722  0.67687892  1
  Zn  Zn36  1  0.01693726  0.83851614  0.16148386  1
  Zn  Zn37  1  0.01680117  0.32312108  0.16157278  1
