# generated using pymatgen
data_MgZrP2(H2O3)4
_symmetry_space_group_name_H-M   'P 1'
_cell_length_a   5.35973355
_cell_length_b   9.51928209
_cell_length_c   9.71297019
_cell_angle_alpha   97.09551881
_cell_angle_beta   91.61176507
_cell_angle_gamma   90.42219607
_symmetry_Int_Tables_number   1
_chemical_formula_structural   MgZrP2(H2O3)4
_chemical_formula_sum   'Mg2 Zr2 P4 H16 O24'
_cell_volume   491.54450541
_cell_formula_units_Z   2
loop_
 _symmetry_equiv_pos_site_id
 _symmetry_equiv_pos_as_xyz
  1  'x, y, z'
loop_
 _atom_site_type_symbol
 _atom_site_label
 _atom_site_symmetry_multiplicity
 _atom_site_fract_x
 _atom_site_fract_y
 _atom_site_fract_z
 _atom_site_occupancy
  Mg  Mg0  1  -0.00000000  -0.00000000  -0.00000000  1
  Mg  Mg1  1  0.50000000  0.50000000  -0.00000000  1
  Zr  Zr2  1  0.74639026  0.25170501  0.50989492  1
  Zr  Zr3  1  0.25360974  0.74829499  0.49010508  1
  P  P4  1  0.73557325  0.54989088  0.31870398  1
  P  P5  1  0.26442675  0.45010912  0.68129602  1
  P  P6  1  0.76806744  0.93872705  0.67837090  1
  P  P7  1  0.23193256  0.06127295  0.32162910  1
  H  H8  1  0.55820592  0.09270823  0.12499729  1
  H  H9  1  0.44179408  0.90729177  0.87500271  1
  H  H10  1  0.79648934  0.17541024  0.19407105  1
  H  H11  1  0.20351066  0.82458976  0.80592895  1
  H  H12  1  0.85843722  0.74136183  0.05773374  1
  H  H13  1  0.14156278  0.25863817  0.94226626  1
  H  H14  1  0.90469100  0.83708641  0.20058490  1
  H  H15  1  0.09530900  0.16291359  0.79941510  1
  H  H16  1  0.93356618  0.55154979  0.86662662  1
  H  H17  1  0.06643382  0.44845021  0.13337338  1
  H  H18  1  0.72508155  0.64097054  0.80024597  1
  H  H19  1  0.27491845  0.35902946  0.19975403  1
  H  H20  1  0.67204199  0.23663087  0.97608935  1
  H  H21  1  0.32795801  0.76336913  0.02391065  1
  H  H22  1  0.58976327  0.27894322  0.82580675  1
  H  H23  1  0.41023673  0.72105678  0.17419325  1
  O  O24  1  0.68338906  0.41085263  0.38139714  1
  O  O25  1  0.31661094  0.58914737  0.61860286  1
  O  O26  1  0.76518566  0.51608339  0.16097719  1
  O  O27  1  0.23481434  0.48391661  0.83902281  1
  O  O28  1  0.51681434  0.65471939  0.34972837  1
  O  O29  1  0.48318566  0.34528061  0.65027163  1
  O  O30  1  0.97740727  0.62224738  0.38412448  1
  O  O31  1  0.02259273  0.37775262  0.61587552  1
  O  O32  1  0.99532449  0.84429388  0.63409883  1
  O  O33  1  0.00467551  0.15570612  0.36590117  1
  O  O34  1  0.74033738  0.94503841  0.83675280  1
  O  O35  1  0.25966262  0.05496159  0.16324720  1
  O  O36  1  0.52962006  0.87312613  0.60293932  1
  O  O37  1  0.47037994  0.12687387  0.39706068  1
  O  O38  1  0.81316424  0.09067314  0.63961243  1
  O  O39  1  0.18683576  0.90932686  0.36038757  1
  O  O40  1  0.72731216  0.13081414  0.10409580  1
  O  O41  1  0.27268784  0.86918586  0.89590420  1
  O  O42  1  0.85247199  0.83921847  0.10333370  1
  O  O43  1  0.14752801  0.16078153  0.89666630  1
  O  O44  1  0.77425711  0.60385068  0.88612426  1
  O  O45  1  0.22574289  0.39614932  0.11387574  1
  O  O46  1  0.65599103  0.31519453  0.91859583  1
  O  O47  1  0.34400897  0.68480547  0.08140417  1
