# generated using pymatgen
data_Lu4Ga21Ni10
_symmetry_space_group_name_H-M   'P 1'
_cell_length_a   4.02197293
_cell_length_b   10.49622999
_cell_length_c   13.06684459
_cell_angle_alpha   80.71676062
_cell_angle_beta   81.14699866
_cell_angle_gamma   78.95433415
_symmetry_Int_Tables_number   1
_chemical_formula_structural   Lu4Ga21Ni10
_chemical_formula_sum   'Lu4 Ga21 Ni10'
_cell_volume   529.98932749
_cell_formula_units_Z   1
loop_
 _symmetry_equiv_pos_site_id
 _symmetry_equiv_pos_as_xyz
  1  'x, y, z'
loop_
 _atom_site_type_symbol
 _atom_site_label
 _atom_site_symmetry_multiplicity
 _atom_site_fract_x
 _atom_site_fract_y
 _atom_site_fract_z
 _atom_site_occupancy
  Lu  Lu0  1  0.87990700  0.90696066  0.33322534  1
  Lu  Lu1  1  0.12009300  0.09303934  0.66677466  1
  Lu  Lu2  1  0.22964562  0.36554473  0.17516404  1
  Lu  Lu3  1  0.77035438  0.63445527  0.82483596  1
  Ga  Ga4  1  0.45900632  0.71336528  0.36862208  1
  Ga  Ga5  1  0.54099368  0.28663472  0.63137792  1
  Ga  Ga6  1  0.79803854  0.39979956  0.00412336  1
  Ga  Ga7  1  0.20196146  0.60020044  0.99587664  1
  Ga  Ga8  1  0.70194582  0.09850778  0.49760059  1
  Ga  Ga9  1  0.29805418  0.90149222  0.50239941  1
  Ga  Ga10  1  0.88364835  0.68118878  0.55151453  1
  Ga  Ga11  1  0.11635165  0.31881122  0.44848547  1
  Ga  Ga12  1  0.61563750  0.47143291  0.29729208  1
  Ga  Ga13  1  0.38436250  0.52856709  0.70270792  1
  Ga  Ga14  1  0.75222377  0.20191289  0.29363957  1
  Ga  Ga15  1  0.24777623  0.79808711  0.70636043  1
  Ga  Ga16  1  0.60245493  0.79247975  0.00261039  1
  Ga  Ga17  1  0.39754507  0.20752025  0.99738961  1
  Ga  Ga18  1  0.99356174  0.92184130  0.09103523  1
  Ga  Ga19  1  0.00643826  0.07815870  0.90896477  1
  Ga  Ga20  1  0.93527184  0.33373800  0.79571832  1
  Ga  Ga21  1  0.06472816  0.66626200  0.20428168  1
  Ga  Ga22  1  0.50000000  0.50000000  0.50000000  1
  Ga  Ga23  1  0.37219558  0.05856768  0.19704116  1
  Ga  Ga24  1  0.62780442  0.94143232  0.80295884  1
  Ni  Ni25  1  0.49754472  0.81862897  0.18628159  1
  Ni  Ni26  1  0.50245528  0.18137103  0.81371841  1
  Ni  Ni27  1  0.86581964  0.16299748  0.10536325  1
  Ni  Ni28  1  0.13418036  0.83700252  0.89463675  1
  Ni  Ni29  1  0.75009818  0.88522952  0.61457411  1
  Ni  Ni30  1  0.24990182  0.11477048  0.38542589  1
  Ni  Ni31  1  0.65289637  0.57949638  0.11471087  1
  Ni  Ni32  1  0.34710363  0.42050362  0.88528913  1
  Ni  Ni33  1  0.97538087  0.44118782  0.60805044  1
  Ni  Ni34  1  0.02461913  0.55881218  0.39194956  1
