# generated using pymatgen
data_Nd6Fe13Ag
_symmetry_space_group_name_H-M   'P 1'
_cell_length_a   8.07263519
_cell_length_b   8.07263519
_cell_length_c   12.87743912
_cell_angle_alpha   108.26672722
_cell_angle_beta   108.26672722
_cell_angle_gamma   90.00000000
_symmetry_Int_Tables_number   1
_chemical_formula_structural   Nd6Fe13Ag
_chemical_formula_sum   'Nd12 Fe26 Ag2'
_cell_volume   752.23864921
_cell_formula_units_Z   2
loop_
 _symmetry_equiv_pos_site_id
 _symmetry_equiv_pos_as_xyz
  1  'x, y, z'
loop_
 _atom_site_type_symbol
 _atom_site_label
 _atom_site_symmetry_multiplicity
 _atom_site_fract_x
 _atom_site_fract_y
 _atom_site_fract_z
 _atom_site_occupancy
  Nd  Nd0  1  0.97616212  0.47616212  0.62842227  1
  Nd  Nd1  1  0.65226015  0.15226015  0.62842227  1
  Nd  Nd2  1  0.15226015  0.97616212  0.62842227  1
  Nd  Nd3  1  0.47616212  0.65226015  0.62842227  1
  Nd  Nd4  1  0.02383788  0.52383788  0.37157773  1
  Nd  Nd5  1  0.34773985  0.84773985  0.37157773  1
  Nd  Nd6  1  0.84773985  0.02383788  0.37157773  1
  Nd  Nd7  1  0.52383788  0.34773985  0.37157773  1
  Nd  Nd8  1  0.60565672  0.60565672  0.21131343  1
  Nd  Nd9  1  0.10565672  0.10565672  0.21131343  1
  Nd  Nd10  1  0.39434328  0.39434328  0.78868657  1
  Nd  Nd11  1  0.89434328  0.89434328  0.78868657  1
  Fe  Fe12  1  0.11915704  0.61915704  0.88111045  1
  Fe  Fe13  1  0.76195341  0.26195341  0.88111045  1
  Fe  Fe14  1  0.26195341  0.11915704  0.88111045  1
  Fe  Fe15  1  0.61915704  0.76195341  0.88111045  1
  Fe  Fe16  1  0.88084296  0.38084296  0.11888955  1
  Fe  Fe17  1  0.23804659  0.73804659  0.11888955  1
  Fe  Fe18  1  0.73804659  0.88084296  0.11888955  1
  Fe  Fe19  1  0.38084296  0.23804659  0.11888955  1
  Fe  Fe20  1  0.71041250  0.56668152  0.00000000  1
  Fe  Fe21  1  0.28958750  0.43331848  1.00000000  1
  Fe  Fe22  1  0.78958750  0.06668152  1.00000000  1
  Fe  Fe23  1  0.21041250  0.93331848  0.00000000  1
  Fe  Fe24  1  0.56668152  0.28958750  1.00000000  1
  Fe  Fe25  1  0.43331848  0.71041250  0.00000000  1
  Fe  Fe26  1  0.06668152  0.21041250  0.00000000  1
  Fe  Fe27  1  0.93331848  0.78958750  1.00000000  1
  Fe  Fe28  1  0.29050961  0.79050961  0.80859738  1
  Fe  Fe29  1  0.51808777  0.01808777  0.80859738  1
  Fe  Fe30  1  0.01808777  0.29050961  0.80859738  1
  Fe  Fe31  1  0.79050961  0.51808777  0.80859738  1
  Fe  Fe32  1  0.70949039  0.20949039  0.19140262  1
  Fe  Fe33  1  0.48191223  0.98191223  0.19140262  1
  Fe  Fe34  1  0.98191223  0.70949039  0.19140262  1
  Fe  Fe35  1  0.20949039  0.48191223  0.19140262  1
  Fe  Fe36  1  0.00000000  0.50000000  -0.00000000  1
  Fe  Fe37  1  0.50000000  -0.00000000  -0.00000000  1
  Ag  Ag38  1  0.25000000  0.25000000  0.50000000  1
  Ag  Ag39  1  0.75000000  0.75000000  0.50000000  1
