# generated using pymatgen
data_SmV2IO9
_symmetry_space_group_name_H-M   'P 1'
_cell_length_a   7.06086209
_cell_length_b   7.27972654
_cell_length_c   14.58919232
_cell_angle_alpha   90.00000000
_cell_angle_beta   90.00000000
_cell_angle_gamma   90.00000000
_symmetry_Int_Tables_number   1
_chemical_formula_structural   SmV2IO9
_chemical_formula_sum   'Sm4 V8 I4 O36'
_cell_volume   749.90119209
_cell_formula_units_Z   4
loop_
 _symmetry_equiv_pos_site_id
 _symmetry_equiv_pos_as_xyz
  1  'x, y, z'
loop_
 _atom_site_type_symbol
 _atom_site_label
 _atom_site_symmetry_multiplicity
 _atom_site_fract_x
 _atom_site_fract_y
 _atom_site_fract_z
 _atom_site_occupancy
  Sm  Sm0  1  0.14941083  0.25000000  0.54780276  1
  Sm  Sm1  1  0.85058917  0.75000000  0.45219724  1
  Sm  Sm2  1  0.14941083  0.75000000  0.95219724  1
  Sm  Sm3  1  0.85058917  0.25000000  0.04780276  1
  V  V4  1  0.53988845  0.50000000  0.25000000  1
  V  V5  1  0.46011155  0.00000000  0.75000000  1
  V  V6  1  0.46011155  0.50000000  0.75000000  1
  V  V7  1  0.53988845  -0.00000000  0.25000000  1
  V  V8  1  0.18091994  0.25000000  0.27152024  1
  V  V9  1  0.81908006  0.75000000  0.72847976  1
  V  V10  1  0.18091994  0.75000000  0.22847976  1
  V  V11  1  0.81908006  0.25000000  0.77152024  1
  I  I12  1  0.70158845  0.25000000  0.44562922  1
  I  I13  1  0.29841155  0.75000000  0.55437078  1
  I  I14  1  0.70158845  0.75000000  0.05437078  1
  I  I15  1  0.29841155  0.25000000  0.94562922  1
  O  O16  1  0.82760459  0.43106854  0.51081069  1
  O  O17  1  0.17239541  0.93106854  0.48918931  1
  O  O18  1  0.82760459  0.56893146  0.98918931  1
  O  O19  1  0.17239541  0.06893146  0.01081069  1
  O  O20  1  0.17239541  0.56893146  0.48918931  1
  O  O21  1  0.82760459  0.06893146  0.51081069  1
  O  O22  1  0.17239541  0.43106854  0.01081069  1
  O  O23  1  0.82760459  0.93106854  0.98918931  1
  O  O24  1  0.47205869  0.25000000  0.50119964  1
  O  O25  1  0.52794131  0.75000000  0.49880036  1
  O  O26  1  0.47205869  0.75000000  0.99880036  1
  O  O27  1  0.52794131  0.25000000  0.00119964  1
  O  O28  1  0.67528254  0.54704558  0.34286555  1
  O  O29  1  0.32471746  0.04704558  0.65713445  1
  O  O30  1  0.67528254  0.45295442  0.15713445  1
  O  O31  1  0.32471746  0.95295442  0.84286555  1
  O  O32  1  0.32471746  0.45295442  0.65713445  1
  O  O33  1  0.67528254  0.95295442  0.34286555  1
  O  O34  1  0.32471746  0.54704558  0.84286555  1
  O  O35  1  0.67528254  0.04704558  0.15713445  1
  O  O36  1  0.47166817  0.75000000  0.21908755  1
  O  O37  1  0.52833183  0.25000000  0.78091245  1
  O  O38  1  0.47166817  0.25000000  0.28091245  1
  O  O39  1  0.52833183  0.75000000  0.71908755  1
  O  O40  1  0.26236343  0.50000000  0.25000000  1
  O  O41  1  0.73763657  0.00000000  0.75000000  1
  O  O42  1  0.73763657  0.50000000  0.75000000  1
  O  O43  1  0.26236343  0.00000000  0.25000000  1
  O  O44  1  0.01116760  0.25000000  0.19128311  1
  O  O45  1  0.98883240  0.75000000  0.80871689  1
  O  O46  1  0.01116760  0.75000000  0.30871689  1
  O  O47  1  0.98883240  0.25000000  0.69128311  1
  O  O48  1  0.08185842  0.25000000  0.37661235  1
  O  O49  1  0.91814158  0.75000000  0.62338765  1
  O  O50  1  0.08185842  0.75000000  0.12338765  1
  O  O51  1  0.91814158  0.25000000  0.87661235  1
