# generated using pymatgen
data_NdTmS3
_symmetry_space_group_name_H-M   'P 1'
_cell_length_a   3.95062931
_cell_length_b   11.01284753
_cell_length_c   21.52027138
_cell_angle_alpha   101.49506423
_cell_angle_beta   90.00000000
_cell_angle_gamma   90.00000000
_symmetry_Int_Tables_number   1
_chemical_formula_structural   NdTmS3
_chemical_formula_sum   'Nd8 Tm8 S24'
_cell_volume   917.51668027
_cell_formula_units_Z   8
loop_
 _symmetry_equiv_pos_site_id
 _symmetry_equiv_pos_as_xyz
  1  'x, y, z'
loop_
 _atom_site_type_symbol
 _atom_site_label
 _atom_site_symmetry_multiplicity
 _atom_site_fract_x
 _atom_site_fract_y
 _atom_site_fract_z
 _atom_site_occupancy
  Nd  Nd0  1  0.25000000  0.69656548  0.76547669  1
  Nd  Nd1  1  0.75000000  0.30343452  0.23452331  1
  Nd  Nd2  1  0.25000000  0.09252375  0.86312710  1
  Nd  Nd3  1  0.75000000  0.90747625  0.13687290  1
  Nd  Nd4  1  0.25000000  0.30746849  0.73184819  1
  Nd  Nd5  1  0.75000000  0.69253151  0.26815181  1
  Nd  Nd6  1  0.25000000  0.20125609  0.53636558  1
  Nd  Nd7  1  0.75000000  0.79874391  0.46363442  1
  Tm  Tm8  1  0.25000000  0.44726126  0.41703970  1
  Tm  Tm9  1  0.75000000  0.55273874  0.58296030  1
  Tm  Tm10  1  0.25000000  0.02937776  0.35179073  1
  Tm  Tm11  1  0.75000000  0.97062224  0.64820927  1
  Tm  Tm12  1  0.25000000  0.17959591  0.04649747  1
  Tm  Tm13  1  0.75000000  0.82040409  0.95350253  1
  Tm  Tm14  1  0.25000000  0.52291660  0.08847414  1
  Tm  Tm15  1  0.75000000  0.47708340  0.91152586  1
  S  S16  1  0.25000000  0.91474250  0.03757732  1
  S  S17  1  0.75000000  0.08525750  0.96242268  1
  S  S18  1  0.25000000  0.79542621  0.36656968  1
  S  S19  1  0.75000000  0.20457379  0.63343032  1
  S  S20  1  0.25000000  0.25384238  0.32371114  1
  S  S21  1  0.75000000  0.74615762  0.67628886  1
  S  S22  1  0.25000000  0.36394152  0.96375634  1
  S  S23  1  0.75000000  0.63605848  0.03624366  1
  S  S24  1  0.25000000  0.49539337  0.22100995  1
  S  S25  1  0.75000000  0.50460663  0.77899005  1
  S  S26  1  0.25000000  0.74700522  0.17428844  1
  S  S27  1  0.75000000  0.25299478  0.82571156  1
  S  S28  1  0.25000000  0.12453783  0.16392222  1
  S  S29  1  0.75000000  0.87546217  0.83607778  1
  S  S30  1  0.25000000  0.64494176  0.51475304  1
  S  S31  1  0.75000000  0.35505824  0.48524696  1
  S  S32  1  0.25000000  0.94270915  0.55508638  1
  S  S33  1  0.75000000  0.05729085  0.44491362  1
  S  S34  1  0.25000000  0.03899311  0.72870568  1
  S  S35  1  0.75000000  0.96100689  0.27129432  1
  S  S36  1  0.25000000  0.45139777  0.63344825  1
  S  S37  1  0.75000000  0.54860223  0.36655175  1
  S  S38  1  0.25000000  0.65781162  0.90034987  1
  S  S39  1  0.75000000  0.34218838  0.09965013  1
