# generated using pymatgen
data_Pr14C14Cl9
_symmetry_space_group_name_H-M   'P 1'
_cell_length_a   6.91152408
_cell_length_b   7.69263966
_cell_length_c   29.93499365
_cell_angle_alpha   90.00000000
_cell_angle_beta   90.00000000
_cell_angle_gamma   103.85898873
_symmetry_Int_Tables_number   1
_chemical_formula_structural   Pr14C14Cl9
_chemical_formula_sum   'Pr28 C28 Cl18'
_cell_volume   1545.24590372
_cell_formula_units_Z   2
loop_
 _symmetry_equiv_pos_site_id
 _symmetry_equiv_pos_as_xyz
  1  'x, y, z'
loop_
 _atom_site_type_symbol
 _atom_site_label
 _atom_site_symmetry_multiplicity
 _atom_site_fract_x
 _atom_site_fract_y
 _atom_site_fract_z
 _atom_site_occupancy
  Pr  Pr0  1  0.02124072  0.60237284  0.61279935  1
  Pr  Pr1  1  0.52124072  0.60237284  0.38720065  1
  Pr  Pr2  1  0.28001132  0.22939004  0.60385306  1
  Pr  Pr3  1  0.78001132  0.22939004  0.39614694  1
  Pr  Pr4  1  0.50739863  0.59583113  0.81873916  1
  Pr  Pr5  1  0.00739863  0.59583113  0.18126084  1
  Pr  Pr6  1  0.51579410  0.52785032  0.68543159  1
  Pr  Pr7  1  0.01579410  0.52785032  0.31456841  1
  Pr  Pr8  1  0.79215942  0.15206989  0.67123361  1
  Pr  Pr9  1  0.29215942  0.15206989  0.32876639  1
  Pr  Pr10  1  0.78218176  0.30546802  0.53119402  1
  Pr  Pr11  1  0.28218176  0.30546802  0.46880598  1
  Pr  Pr12  1  0.51010765  0.68042806  0.54386460  1
  Pr  Pr13  1  0.01010765  0.68042806  0.45613540  1
  Pr  Pr14  1  0.99287399  0.66992510  0.88476563  1
  Pr  Pr15  1  0.49287399  0.66992510  0.11523437  1
  Pr  Pr16  1  0.25784973  0.29582155  0.89797942  1
  Pr  Pr17  1  0.75784973  0.29582155  0.10202058  1
  Pr  Pr18  1  0.76959255  0.22006096  0.83008292  1
  Pr  Pr19  1  0.26959255  0.22006096  0.16991708  1
  Pr  Pr20  1  0.75203707  0.37276533  0.96840861  1
  Pr  Pr21  1  0.25203707  0.37276533  0.03159139  1
  Pr  Pr22  1  0.47808961  0.74341410  0.95525238  1
  Pr  Pr23  1  0.97808961  0.74341410  0.04474762  1
  Pr  Pr24  1  0.28803650  0.14826105  0.75932259  1
  Pr  Pr25  1  0.78803650  0.14826105  0.24067741  1
  Pr  Pr26  1  0.01383647  0.52250509  0.74760426  1
  Pr  Pr27  1  0.51383647  0.52250509  0.25239574  1
  C  C28  1  0.67798154  0.35764886  0.62133530  1
  C  C29  1  0.17798154  0.35764886  0.37866470  1
  C  C30  1  0.65954206  0.42097370  0.88006446  1
  C  C31  1  0.15954206  0.42097370  0.11993554  1
  C  C32  1  0.17433926  0.42613607  0.55127377  1
  C  C33  1  0.67433926  0.42613607  0.44872623  1
  C  C34  1  0.59756253  0.54100806  0.90596232  1
  C  C35  1  0.09756253  0.54100806  0.09403768  1
  C  C36  1  0.16846923  0.34741331  0.80941783  1
  C  C37  1  0.66846923  0.34741331  0.19058217  1
  C  C38  1  0.10547151  0.46558373  0.83542307  1
  C  C39  1  0.60547151  0.46558373  0.16457693  1
  C  C40  1  0.62221773  0.39943359  0.76702708  1
  C  C41  1  0.12221773  0.39943359  0.23297292  1
  C  C42  1  0.14231058  0.49744932  0.94883621  1
  C  C43  1  0.64231058  0.49744932  0.05116379  1
  C  C44  1  0.62614420  0.53436250  0.48041574  1
  C  C45  1  0.12614420  0.53436250  0.51958426  1
  C  C46  1  0.12698556  0.40422715  0.66521483  1
  C  C47  1  0.62698556  0.40422715  0.33478517  1
  C  C48  1  0.17504974  0.29497095  0.69661885  1
  C  C49  1  0.67504974  0.29497095  0.30338115  1
  C  C50  1  0.62162210  0.47856427  0.59538360  1
  C  C51  1  0.12162210  0.47856427  0.40461640  1
  C  C52  1  0.08942754  0.60107606  0.98066888  1
  C  C53  1  0.58942754  0.60107606  0.01933112  1
  C  C54  1  0.67472023  0.29298209  0.73575884  1
  C  C55  1  0.17472023  0.29298209  0.26424116  1
  Cl  Cl56  1  0.39978550  0.79422088  0.74439466  1
  Cl  Cl57  1  0.89978550  0.79422088  0.25560534  1
  Cl  Cl58  1  0.39630437  0.03978200  0.52698065  1
  Cl  Cl59  1  0.89630437  0.03978200  0.47301935  1
  Cl  Cl60  1  0.40829810  0.86415330  0.63216372  1
  Cl  Cl61  1  0.90829810  0.86415330  0.36783628  1
  Cl  Cl62  1  0.89073203  0.96944229  0.58411714  1
  Cl  Cl63  1  0.39073203  0.96944229  0.41588286  1
  Cl  Cl64  1  0.89989855  0.86033423  0.80252629  1
  Cl  Cl65  1  0.39989855  0.86033423  0.19747371  1
  Cl  Cl66  1  0.86572122  0.03167668  0.91259053  1
  Cl  Cl67  1  0.36572122  0.03167668  0.08740947  1
  Cl  Cl68  1  0.90405123  0.79243395  0.68996244  1
  Cl  Cl69  1  0.40405123  0.79243395  0.31003756  1
  Cl  Cl70  1  0.36557703  0.09688622  0.97339519  1
  Cl  Cl71  1  0.86557703  0.09688622  0.02660481  1
  Cl  Cl72  1  0.38177867  0.94607728  0.85767590  1
  Cl  Cl73  1  0.88177867  0.94607728  0.14232410  1
