# generated using pymatgen
data_LaIO3
_symmetry_space_group_name_H-M   'P 1'
_cell_length_a   4.11206372
_cell_length_b   4.48483392
_cell_length_c   11.88629026
_cell_angle_alpha   114.32911556
_cell_angle_beta   99.96084104
_cell_angle_gamma   90.00000000
_symmetry_Int_Tables_number   1
_chemical_formula_structural   LaIO3
_chemical_formula_sum   'La2 I2 O6'
_cell_volume   196.10724962
_cell_formula_units_Z   2
loop_
 _symmetry_equiv_pos_site_id
 _symmetry_equiv_pos_as_xyz
  1  'x, y, z'
loop_
 _atom_site_type_symbol
 _atom_site_label
 _atom_site_symmetry_multiplicity
 _atom_site_fract_x
 _atom_site_fract_y
 _atom_site_fract_z
 _atom_site_occupancy
  La  La0  1  0.69579443  0.12527386  0.39158886  1
  La  La1  1  0.30420557  0.87472614  0.60841114  1
  I  I2  1  0.08543591  0.29582336  0.17087181  1
  I  I3  1  0.91456409  0.70417664  0.82912819  1
  O  O4  1  0.40317745  0.75090391  0.80635489  1
  O  O5  1  0.59682255  0.24909609  0.19364511  1
  O  O6  1  0.87747001  0.23846233  0.75494003  1
  O  O7  1  0.12252999  0.76153767  0.24505997  1
  O  O8  1  0.74415427  0.73129394  0.48830854  1
  O  O9  1  0.25584573  0.26870606  0.51169146  1
