# generated using pymatgen
data_Tb11Cd45
_symmetry_space_group_name_H-M   'P 1'
_cell_length_a   15.42686617
_cell_length_b   15.42686617
_cell_length_c   15.42686617
_cell_angle_alpha   60.00000000
_cell_angle_beta   60.00000000
_cell_angle_gamma   60.00000000
_symmetry_Int_Tables_number   1
_chemical_formula_structural   Tb11Cd45
_chemical_formula_sum   'Tb22 Cd90'
_cell_volume   2596.08039774
_cell_formula_units_Z   2
loop_
 _symmetry_equiv_pos_site_id
 _symmetry_equiv_pos_as_xyz
  1  'x, y, z'
loop_
 _atom_site_type_symbol
 _atom_site_label
 _atom_site_symmetry_multiplicity
 _atom_site_fract_x
 _atom_site_fract_y
 _atom_site_fract_z
 _atom_site_occupancy
  Tb  Tb0  1  0.00000000  0.00000000  0.00000000  1
  Tb  Tb1  1  0.36073434  0.66653907  0.98636329  1
  Tb  Tb2  1  0.36073434  0.98636329  0.98636329  1
  Tb  Tb3  1  0.36073434  0.98636329  0.66653907  1
  Tb  Tb4  1  0.66653907  0.36073434  0.98636329  1
  Tb  Tb5  1  0.98636329  0.36073434  0.66653907  1
  Tb  Tb6  1  0.98636329  0.36073434  0.98636329  1
  Tb  Tb7  1  0.98636329  0.98636329  0.36073434  1
  Tb  Tb8  1  0.98636329  0.66653907  0.36073434  1
  Tb  Tb9  1  0.66653907  0.98636329  0.36073434  1
  Tb  Tb10  1  0.98636329  0.98636329  0.66653907  1
  Tb  Tb11  1  0.66653907  0.98636329  0.98636329  1
  Tb  Tb12  1  0.98636329  0.66653907  0.98636329  1
  Tb  Tb13  1  0.75000000  0.75000000  0.75000000  1
  Tb  Tb14  1  0.21915168  0.59361611  0.59361611  1
  Tb  Tb15  1  0.59361611  0.21915168  0.59361611  1
  Tb  Tb16  1  0.59361611  0.59361611  0.21915168  1
  Tb  Tb17  1  0.59361611  0.59361611  0.59361611  1
  Tb  Tb18  1  0.98658539  0.33780487  0.33780487  1
  Tb  Tb19  1  0.33780487  0.98658539  0.33780487  1
  Tb  Tb20  1  0.33780487  0.33780487  0.98658539  1
  Tb  Tb21  1  0.33780487  0.33780487  0.33780487  1
  Cd  Cd22  1  0.25004007  0.91665331  0.91665331  1
  Cd  Cd23  1  0.91665331  0.25004007  0.91665331  1
  Cd  Cd24  1  0.91665331  0.91665331  0.25004007  1
  Cd  Cd25  1  0.91665331  0.91665331  0.91665331  1
  Cd  Cd26  1  0.73994662  0.08668446  0.08668446  1
  Cd  Cd27  1  0.08668446  0.73994662  0.08668446  1
  Cd  Cd28  1  0.08668446  0.08668446  0.73994662  1
  Cd  Cd29  1  0.08668446  0.08668446  0.08668446  1
  Cd  Cd30  1  0.15633812  0.84366188  0.84366188  1
  Cd  Cd31  1  0.15633812  0.84366188  0.15633812  1
  Cd  Cd32  1  0.15633812  0.15633812  0.84366188  1
  Cd  Cd33  1  0.84366188  0.15633812  0.15633812  1
  Cd  Cd34  1  0.84366188  0.15633812  0.84366188  1
  Cd  Cd35  1  0.84366188  0.84366188  0.15633812  1
  Cd  Cd36  1  0.98225365  0.79922579  0.60926028  1
  Cd  Cd37  1  0.98225365  0.60926028  0.60926028  1
  Cd  Cd38  1  0.98225365  0.60926028  0.79922579  1
  Cd  Cd39  1  0.79922579  0.98225365  0.60926028  1
  Cd  Cd40  1  0.60926028  0.98225365  0.79922579  1
  Cd  Cd41  1  0.60926028  0.98225365  0.60926028  1
  Cd  Cd42  1  0.60926028  0.60926028  0.98225365  1
  Cd  Cd43  1  0.60926028  0.79922579  0.98225365  1
  Cd  Cd44  1  0.79922579  0.60926028  0.98225365  1
  Cd  Cd45  1  0.60926028  0.60926028  0.79922579  1
  Cd  Cd46  1  0.79922579  0.60926028  0.60926028  1
  Cd  Cd47  1  0.60926028  0.79922579  0.60926028  1
  Cd  Cd48  1  0.49001942  0.83666019  0.83666019  1
  Cd  Cd49  1  0.83666019  0.49001942  0.83666019  1
  Cd  Cd50  1  0.83666019  0.83666019  0.49001942  1
  Cd  Cd51  1  0.83666019  0.83666019  0.83666019  1
  Cd  Cd52  1  0.13804740  0.38839778  0.73677741  1
  Cd  Cd53  1  0.13804740  0.73677741  0.73677741  1
  Cd  Cd54  1  0.13804740  0.73677741  0.38839778  1
  Cd  Cd55  1  0.38839778  0.13804740  0.73677741  1
  Cd  Cd56  1  0.73677741  0.13804740  0.38839778  1
  Cd  Cd57  1  0.73677741  0.13804740  0.73677741  1
  Cd  Cd58  1  0.73677741  0.73677741  0.13804740  1
  Cd  Cd59  1  0.73677741  0.38839778  0.13804740  1
  Cd  Cd60  1  0.38839778  0.73677741  0.13804740  1
  Cd  Cd61  1  0.73677741  0.73677741  0.38839778  1
  Cd  Cd62  1  0.38839778  0.73677741  0.73677741  1
  Cd  Cd63  1  0.73677741  0.38839778  0.73677741  1
  Cd  Cd64  1  0.50000000  0.50000000  0.50000000  1
  Cd  Cd65  1  0.73126121  0.54992466  0.35940707  1
  Cd  Cd66  1  0.73126121  0.35940707  0.35940707  1
  Cd  Cd67  1  0.73126121  0.35940707  0.54992466  1
  Cd  Cd68  1  0.54992466  0.73126121  0.35940707  1
  Cd  Cd69  1  0.35940707  0.73126121  0.54992466  1
  Cd  Cd70  1  0.35940707  0.73126121  0.35940707  1
  Cd  Cd71  1  0.35940707  0.35940707  0.73126121  1
  Cd  Cd72  1  0.35940707  0.54992466  0.73126121  1
  Cd  Cd73  1  0.54992466  0.35940707  0.73126121  1
  Cd  Cd74  1  0.35940707  0.35940707  0.54992466  1
  Cd  Cd75  1  0.54992466  0.35940707  0.35940707  1
  Cd  Cd76  1  0.35940707  0.54992466  0.35940707  1
  Cd  Cd77  1  0.85859371  0.16638868  0.48750880  1
  Cd  Cd78  1  0.85859371  0.48750880  0.48750880  1
  Cd  Cd79  1  0.85859371  0.48750880  0.16638868  1
  Cd  Cd80  1  0.16638868  0.85859371  0.48750880  1
  Cd  Cd81  1  0.48750880  0.85859371  0.16638868  1
  Cd  Cd82  1  0.48750880  0.85859371  0.48750880  1
  Cd  Cd83  1  0.48750880  0.48750880  0.85859371  1
  Cd  Cd84  1  0.48750880  0.16638868  0.85859371  1
  Cd  Cd85  1  0.16638868  0.48750880  0.85859371  1
  Cd  Cd86  1  0.48750880  0.48750880  0.16638868  1
  Cd  Cd87  1  0.16638868  0.48750880  0.48750880  1
  Cd  Cd88  1  0.48750880  0.16638868  0.48750880  1
  Cd  Cd89  1  0.25000000  0.25000000  0.25000000  1
  Cd  Cd90  1  0.49015337  0.16994888  0.16994888  1
  Cd  Cd91  1  0.16994888  0.49015337  0.16994888  1
  Cd  Cd92  1  0.16994888  0.16994888  0.49015337  1
  Cd  Cd93  1  0.16994888  0.16994888  0.16994888  1
  Cd  Cd94  1  0.41158966  0.08841034  0.08841034  1
  Cd  Cd95  1  0.41158966  0.08841034  0.41158966  1
  Cd  Cd96  1  0.41158966  0.41158966  0.08841034  1
  Cd  Cd97  1  0.08841034  0.41158966  0.41158966  1
  Cd  Cd98  1  0.08841034  0.41158966  0.08841034  1
  Cd  Cd99  1  0.08841034  0.08841034  0.41158966  1
  Cd  Cd100  1  0.59555613  0.93236368  0.23604010  1
  Cd  Cd101  1  0.59555613  0.23604010  0.23604010  1
  Cd  Cd102  1  0.59555613  0.23604010  0.93236368  1
  Cd  Cd103  1  0.93236368  0.59555613  0.23604010  1
  Cd  Cd104  1  0.23604010  0.59555613  0.93236368  1
  Cd  Cd105  1  0.23604010  0.59555613  0.23604010  1
  Cd  Cd106  1  0.23604010  0.23604010  0.59555613  1
  Cd  Cd107  1  0.23604010  0.93236368  0.59555613  1
  Cd  Cd108  1  0.93236368  0.23604010  0.59555613  1
  Cd  Cd109  1  0.23604010  0.23604010  0.93236368  1
  Cd  Cd110  1  0.93236368  0.23604010  0.23604010  1
  Cd  Cd111  1  0.23604010  0.93236368  0.23604010  1
