# generated using pymatgen
data_Re3N4
_symmetry_space_group_name_H-M   'P 1'
_cell_length_a   10.05312706
_cell_length_b   5.87324148
_cell_length_c   5.27499819
_cell_angle_alpha   90.00000000
_cell_angle_beta   90.00000000
_cell_angle_gamma   90.00000000
_symmetry_Int_Tables_number   1
_chemical_formula_structural   Re3N4
_chemical_formula_sum   'Re12 N16'
_cell_volume   311.45932918
_cell_formula_units_Z   4
loop_
 _symmetry_equiv_pos_site_id
 _symmetry_equiv_pos_as_xyz
  1  'x, y, z'
loop_
 _atom_site_type_symbol
 _atom_site_label
 _atom_site_symmetry_multiplicity
 _atom_site_fract_x
 _atom_site_fract_y
 _atom_site_fract_z
 _atom_site_occupancy
  Re  Re0  1  0.50000000  -0.00000000  0.50000000  1
  Re  Re1  1  -0.00000000  0.50000000  -0.00000000  1
  Re  Re2  1  0.50000000  0.50000000  0.50000000  1
  Re  Re3  1  0.00000000  0.00000000  -0.00000000  1
  Re  Re4  1  0.74554904  0.25000000  0.49048177  1
  Re  Re5  1  0.24554904  0.25000000  0.00951823  1
  Re  Re6  1  0.25445096  0.75000000  0.50951823  1
  Re  Re7  1  0.75445096  0.75000000  0.99048177  1
  Re  Re8  1  0.58245678  0.25000000  0.10162293  1
  Re  Re9  1  0.08245678  0.25000000  0.39837707  1
  Re  Re10  1  0.41754322  0.75000000  0.89837707  1
  Re  Re11  1  0.91754322  0.75000000  0.60162293  1
  N  N12  1  0.58419791  0.25000000  0.74014539  1
  N  N13  1  0.08419791  0.25000000  0.75985461  1
  N  N14  1  0.41580209  0.75000000  0.25985461  1
  N  N15  1  0.91580209  0.75000000  0.24014539  1
  N  N16  1  0.90830933  0.25000000  0.24862735  1
  N  N17  1  0.40830933  0.25000000  0.25137265  1
  N  N18  1  0.09169067  0.75000000  0.75137265  1
  N  N19  1  0.59169067  0.75000000  0.74862735  1
  N  N20  1  0.67062506  0.98492799  0.24624632  1
  N  N21  1  0.17062506  0.51507201  0.25375368  1
  N  N22  1  0.32937494  0.48492799  0.75375368  1
  N  N23  1  0.82937494  0.01507201  0.74624632  1
  N  N24  1  0.32937494  0.01507201  0.75375368  1
  N  N25  1  0.82937494  0.48492799  0.74624632  1
  N  N26  1  0.67062506  0.51507201  0.24624632  1
  N  N27  1  0.17062506  0.98492799  0.25375368  1
