# generated using pymatgen
data_Al2Tl3(PO4)3
_symmetry_space_group_name_H-M   'P 1'
_cell_length_a   6.22034735
_cell_length_b   10.54433634
_cell_length_c   18.04840203
_cell_angle_alpha   90.00000000
_cell_angle_beta   90.00000000
_cell_angle_gamma   90.00000000
_symmetry_Int_Tables_number   1
_chemical_formula_structural   Al2Tl3(PO4)3
_chemical_formula_sum   'Al8 Tl12 P12 O48'
_cell_volume   1183.78448476
_cell_formula_units_Z   4
loop_
 _symmetry_equiv_pos_site_id
 _symmetry_equiv_pos_as_xyz
  1  'x, y, z'
loop_
 _atom_site_type_symbol
 _atom_site_label
 _atom_site_symmetry_multiplicity
 _atom_site_fract_x
 _atom_site_fract_y
 _atom_site_fract_z
 _atom_site_occupancy
  Al  Al0  1  0.75248657  0.41711280  0.28860084  1
  Al  Al1  1  0.24751343  0.58288720  0.78860084  1
  Al  Al2  1  0.74751343  0.91711280  0.78860084  1
  Al  Al3  1  0.25248657  0.08288720  0.28860084  1
  Al  Al4  1  0.76085924  0.41727984  0.95447577  1
  Al  Al5  1  0.23914076  0.58272016  0.45447577  1
  Al  Al6  1  0.73914076  0.91727984  0.45447577  1
  Al  Al7  1  0.26085924  0.08272016  0.95447577  1
  Tl  Tl8  1  0.73371656  0.14061704  0.12015047  1
  Tl  Tl9  1  0.26628344  0.85938296  0.62015047  1
  Tl  Tl10  1  0.76628344  0.64061704  0.62015047  1
  Tl  Tl11  1  0.23371656  0.35938296  0.12015047  1
  Tl  Tl12  1  0.75928217  0.33747821  0.72927197  1
  Tl  Tl13  1  0.24071783  0.66252179  0.22927197  1
  Tl  Tl14  1  0.74071783  0.83747821  0.22927197  1
  Tl  Tl15  1  0.25928217  0.16252179  0.72927197  1
  Tl  Tl16  1  0.76211995  0.34201441  0.51255077  1
  Tl  Tl17  1  0.23788005  0.65798559  0.01255077  1
  Tl  Tl18  1  0.73788005  0.84201441  0.01255077  1
  Tl  Tl19  1  0.26211995  0.15798559  0.51255077  1
  P  P20  1  0.76043319  0.00848222  0.62206644  1
  P  P21  1  0.23956681  0.99151778  0.12206644  1
  P  P22  1  0.73956681  0.50848222  0.12206644  1
  P  P23  1  0.26043319  0.49151778  0.62206644  1
  P  P24  1  0.74631350  0.12676807  0.33093979  1
  P  P25  1  0.25368650  0.87323193  0.83093979  1
  P  P26  1  0.75368650  0.62676807  0.83093979  1
  P  P27  1  0.24631350  0.37323193  0.33093979  1
  P  P28  1  0.75474060  0.12824096  0.91178599  1
  P  P29  1  0.24525940  0.87175904  0.41178599  1
  P  P30  1  0.74525940  0.62824096  0.41178599  1
  P  P31  1  0.25474060  0.37175904  0.91178599  1
  O  O32  1  0.55432371  0.08985789  0.62274504  1
  O  O33  1  0.44567629  0.91014211  0.12274504  1
  O  O34  1  0.94567629  0.58985789  0.12274504  1
  O  O35  1  0.05432371  0.41014211  0.62274504  1
  O  O36  1  0.96828406  0.08834970  0.62237003  1
  O  O37  1  0.03171594  0.91165030  0.12237003  1
  O  O38  1  0.53171594  0.58834970  0.12237003  1
  O  O39  1  0.46828406  0.41165030  0.62237003  1
  O  O40  1  0.73927307  0.41343833  0.18893922  1
  O  O41  1  0.26072693  0.58656167  0.68893922  1
  O  O42  1  0.76072693  0.91343833  0.68893922  1
  O  O43  1  0.23927307  0.08656167  0.18893922  1
  O  O44  1  0.74201382  0.41601418  0.05415297  1
  O  O45  1  0.25798618  0.58398582  0.55415297  1
  O  O46  1  0.75798618  0.91601418  0.55415297  1
  O  O47  1  0.24201382  0.08398582  0.05415297  1
  O  O48  1  0.55943070  0.08943273  0.27859291  1
  O  O49  1  0.44056930  0.91056727  0.77859291  1
  O  O50  1  0.94056930  0.58943273  0.77859291  1
  O  O51  1  0.05943070  0.41056727  0.27859291  1
  O  O52  1  0.94941682  0.07424069  0.29320153  1
  O  O53  1  0.05058318  0.92575931  0.79320153  1
  O  O54  1  0.55058318  0.57424069  0.79320153  1
  O  O55  1  0.44941682  0.42575931  0.29320153  1
  O  O56  1  0.75625236  0.27214765  0.34225056  1
  O  O57  1  0.24374764  0.72785235  0.84225056  1
  O  O58  1  0.74374764  0.77214765  0.84225056  1
  O  O59  1  0.25625236  0.22785235  0.34225056  1
  O  O60  1  0.71375237  0.06994638  0.40942212  1
  O  O61  1  0.28624763  0.93005362  0.90942212  1
  O  O62  1  0.78624763  0.56994638  0.90942212  1
  O  O63  1  0.21375237  0.43005362  0.40942212  1
  O  O64  1  0.72471652  0.07002746  0.83380451  1
  O  O65  1  0.27528348  0.92997254  0.33380451  1
  O  O66  1  0.77528348  0.57002746  0.33380451  1
  O  O67  1  0.22471652  0.42997254  0.83380451  1
  O  O68  1  0.76350586  0.27314863  0.89979468  1
  O  O69  1  0.23649414  0.72685137  0.39979468  1
  O  O70  1  0.73649414  0.77314863  0.39979468  1
  O  O71  1  0.26350586  0.22685137  0.89979468  1
  O  O72  1  0.56734622  0.09171163  0.96456737  1
  O  O73  1  0.43265378  0.90828837  0.46456737  1
  O  O74  1  0.93265378  0.59171163  0.46456737  1
  O  O75  1  0.06734622  0.40828837  0.96456737  1
  O  O76  1  0.95695850  0.07629479  0.95055701  1
  O  O77  1  0.04304150  0.92370521  0.45055701  1
  O  O78  1  0.54304150  0.57629479  0.45055701  1
  O  O79  1  0.45695850  0.42370521  0.95055701  1
