# generated using pymatgen
data_K3InF6
_symmetry_space_group_name_H-M   'P 1'
_cell_length_a   12.86236135
_cell_length_b   12.86236135
_cell_length_c   12.86236135
_cell_angle_alpha   60.00000000
_cell_angle_beta   60.00000000
_cell_angle_gamma   60.00000000
_symmetry_Int_Tables_number   1
_chemical_formula_structural   K3InF6
_chemical_formula_sum   'K24 In8 F48'
_cell_volume   1504.69029802
_cell_formula_units_Z   8
loop_
 _symmetry_equiv_pos_site_id
 _symmetry_equiv_pos_as_xyz
  1  'x, y, z'
loop_
 _atom_site_type_symbol
 _atom_site_label
 _atom_site_symmetry_multiplicity
 _atom_site_fract_x
 _atom_site_fract_y
 _atom_site_fract_z
 _atom_site_occupancy
  K  K0  1  0.12500000  0.12500000  0.12500000  1
  K  K1  1  0.87500000  0.87500000  0.87500000  1
  K  K2  1  0.62500000  0.62500000  0.62500000  1
  K  K3  1  0.37500000  0.37500000  0.37500000  1
  K  K4  1  0.24474830  0.24474830  0.76575511  1
  K  K5  1  0.76575511  0.24474830  0.24474830  1
  K  K6  1  0.24474830  0.76575511  0.24474830  1
  K  K7  1  0.24474830  0.24474830  0.24474830  1
  K  K8  1  0.75525170  0.75525170  0.23424489  1
  K  K9  1  0.23424489  0.75525170  0.75525170  1
  K  K10  1  0.75525170  0.23424489  0.75525170  1
  K  K11  1  0.75525170  0.75525170  0.75525170  1
  K  K12  1  0.86438319  0.38561681  0.86438319  1
  K  K13  1  0.38561681  0.86438319  0.38561681  1
  K  K14  1  0.38561681  0.86438319  0.86438319  1
  K  K15  1  0.86438319  0.38561681  0.38561681  1
  K  K16  1  0.86438319  0.86438319  0.38561681  1
  K  K17  1  0.38561681  0.38561681  0.86438319  1
  K  K18  1  0.13561681  0.61438319  0.13561681  1
  K  K19  1  0.61438319  0.13561681  0.61438319  1
  K  K20  1  0.61438319  0.13561681  0.13561681  1
  K  K21  1  0.13561681  0.61438319  0.61438319  1
  K  K22  1  0.13561681  0.13561681  0.61438319  1
  K  K23  1  0.61438319  0.61438319  0.13561681  1
  In  In24  1  0.00000000  -0.00000000  0.50000000  1
  In  In25  1  0.50000000  -0.00000000  0.00000000  1
  In  In26  1  0.00000000  0.50000000  0.00000000  1
  In  In27  1  0.00000000  -0.00000000  0.00000000  1
  In  In28  1  0.50000000  0.50000000  0.00000000  1
  In  In29  1  0.00000000  0.50000000  0.50000000  1
  In  In30  1  0.50000000  -0.00000000  0.50000000  1
  In  In31  1  0.50000000  0.50000000  0.50000000  1
  F  F32  1  0.89908077  0.05258458  0.38356282  1
  F  F33  1  0.38356282  0.16477183  0.89908077  1
  F  F34  1  0.16477183  0.38356282  0.05258458  1
  F  F35  1  0.05258458  0.89908077  0.16477183  1
  F  F36  1  0.05258458  0.38356282  0.89908077  1
  F  F37  1  0.16477183  0.89908077  0.38356282  1
  F  F38  1  0.38356282  0.05258458  0.16477183  1
  F  F39  1  0.89908077  0.16477183  0.05258458  1
  F  F40  1  0.38356282  0.89908077  0.05258458  1
  F  F41  1  0.89908077  0.38356282  0.16477183  1
  F  F42  1  0.05258458  0.16477183  0.38356282  1
  F  F43  1  0.16477183  0.05258458  0.89908077  1
  F  F44  1  0.10091923  0.94741542  0.61643718  1
  F  F45  1  0.61643718  0.83522817  0.10091923  1
  F  F46  1  0.83522817  0.61643718  0.94741542  1
  F  F47  1  0.94741542  0.10091923  0.83522817  1
  F  F48  1  0.94741542  0.61643718  0.10091923  1
  F  F49  1  0.83522817  0.10091923  0.61643718  1
  F  F50  1  0.61643718  0.94741542  0.83522817  1
  F  F51  1  0.10091923  0.83522817  0.94741542  1
  F  F52  1  0.61643718  0.10091923  0.94741542  1
  F  F53  1  0.10091923  0.61643718  0.83522817  1
  F  F54  1  0.94741542  0.83522817  0.61643718  1
  F  F55  1  0.83522817  0.94741542  0.10091923  1
  F  F56  1  0.38742962  0.59293332  0.88319552  1
  F  F57  1  0.88319552  0.63644154  0.38742962  1
  F  F58  1  0.63644154  0.88319552  0.59293332  1
  F  F59  1  0.59293332  0.38742962  0.63644154  1
  F  F60  1  0.59293332  0.88319552  0.38742962  1
  F  F61  1  0.63644154  0.38742962  0.88319552  1
  F  F62  1  0.88319552  0.59293332  0.63644154  1
  F  F63  1  0.38742962  0.63644154  0.59293332  1
  F  F64  1  0.88319552  0.38742962  0.59293332  1
  F  F65  1  0.38742962  0.88319552  0.63644154  1
  F  F66  1  0.59293332  0.63644154  0.88319552  1
  F  F67  1  0.63644154  0.59293332  0.38742962  1
  F  F68  1  0.61257038  0.40706668  0.11680448  1
  F  F69  1  0.11680448  0.36355846  0.61257038  1
  F  F70  1  0.36355846  0.11680448  0.40706668  1
  F  F71  1  0.40706668  0.61257038  0.36355846  1
  F  F72  1  0.40706668  0.11680448  0.61257038  1
  F  F73  1  0.36355846  0.61257038  0.11680448  1
  F  F74  1  0.11680448  0.40706668  0.36355846  1
  F  F75  1  0.61257038  0.36355846  0.40706668  1
  F  F76  1  0.11680448  0.61257038  0.40706668  1
  F  F77  1  0.61257038  0.11680448  0.36355846  1
  F  F78  1  0.40706668  0.36355846  0.11680448  1
  F  F79  1  0.36355846  0.40706668  0.61257038  1
