# generated using pymatgen
data_Ba2InAgS4
_symmetry_space_group_name_H-M   'P 1'
_cell_length_a   7.39111486
_cell_length_b   8.47333565
_cell_length_c   14.80429309
_cell_angle_alpha   73.49834966
_cell_angle_beta   90.00000000
_cell_angle_gamma   90.00000000
_symmetry_Int_Tables_number   1
_chemical_formula_structural   Ba2InAgS4
_chemical_formula_sum   'Ba8 In4 Ag4 S16'
_cell_volume   888.96629468
_cell_formula_units_Z   4
loop_
 _symmetry_equiv_pos_site_id
 _symmetry_equiv_pos_as_xyz
  1  'x, y, z'
loop_
 _atom_site_type_symbol
 _atom_site_label
 _atom_site_symmetry_multiplicity
 _atom_site_fract_x
 _atom_site_fract_y
 _atom_site_fract_z
 _atom_site_occupancy
  Ba  Ba0  1  0.84384637  0.80275612  0.14248568  1
  Ba  Ba1  1  0.34384637  0.69724388  0.35751432  1
  Ba  Ba2  1  0.15615363  0.19724388  0.85751432  1
  Ba  Ba3  1  0.65615363  0.30275612  0.64248568  1
  Ba  Ba4  1  0.84238036  0.30853593  0.13619399  1
  Ba  Ba5  1  0.34238036  0.19146407  0.36380601  1
  Ba  Ba6  1  0.15761964  0.69146407  0.86380601  1
  Ba  Ba7  1  0.65761964  0.80853593  0.63619399  1
  In  In8  1  0.81910748  0.43579470  0.37723800  1
  In  In9  1  0.31910748  0.06420530  0.12276200  1
  In  In10  1  0.18089252  0.56420530  0.62276200  1
  In  In11  1  0.68089252  0.93579470  0.87723800  1
  Ag  Ag12  1  0.86619500  0.92294305  0.39927746  1
  Ag  Ag13  1  0.36619500  0.57705695  0.10072254  1
  Ag  Ag14  1  0.13380500  0.07705695  0.60072254  1
  Ag  Ag15  1  0.63380500  0.42294305  0.89927746  1
  S  S16  1  0.24291445  0.86708208  0.03099444  1
  S  S17  1  0.74291445  0.63291792  0.46900556  1
  S  S18  1  0.75708555  0.13291792  0.96900556  1
  S  S19  1  0.25708555  0.36708208  0.53099444  1
  S  S20  1  0.07474802  0.48847872  0.26709872  1
  S  S21  1  0.57474802  0.01152128  0.23290128  1
  S  S22  1  0.92525198  0.51152128  0.73290128  1
  S  S23  1  0.42525198  0.98847872  0.76709872  1
  S  S24  1  0.57639488  0.49740945  0.24615726  1
  S  S25  1  0.07639488  0.00259055  0.25384274  1
  S  S26  1  0.42360512  0.50259055  0.75384274  1
  S  S27  1  0.92360512  0.99740945  0.74615726  1
  S  S28  1  0.74897453  0.14615632  0.47106595  1
  S  S29  1  0.24897453  0.35384368  0.02893405  1
  S  S30  1  0.25102547  0.85384368  0.52893405  1
  S  S31  1  0.75102547  0.64615632  0.97106595  1
