# generated using pymatgen
data_ZnBP(HO3)2
_symmetry_space_group_name_H-M   'P 1'
_cell_length_a   9.05233555
_cell_length_b   9.26281142
_cell_length_c   10.73738816
_cell_angle_alpha   90.00000000
_cell_angle_beta   90.00000000
_cell_angle_gamma   90.00000000
_symmetry_Int_Tables_number   1
_chemical_formula_structural   ZnBP(HO3)2
_chemical_formula_sum   'Zn8 B8 P8 H16 O48'
_cell_volume   900.33082518
_cell_formula_units_Z   8
loop_
 _symmetry_equiv_pos_site_id
 _symmetry_equiv_pos_as_xyz
  1  'x, y, z'
loop_
 _atom_site_type_symbol
 _atom_site_label
 _atom_site_symmetry_multiplicity
 _atom_site_fract_x
 _atom_site_fract_y
 _atom_site_fract_z
 _atom_site_occupancy
  Zn  Zn0  1  0.13906952  0.50000000  0.25000000  1
  Zn  Zn1  1  0.36093048  0.00000000  0.75000000  1
  Zn  Zn2  1  0.86093048  0.50000000  0.75000000  1
  Zn  Zn3  1  0.63906952  0.00000000  0.25000000  1
  Zn  Zn4  1  0.12773760  0.00000000  0.25000000  1
  Zn  Zn5  1  0.37226240  0.50000000  0.75000000  1
  Zn  Zn6  1  0.87226240  0.00000000  0.75000000  1
  Zn  Zn7  1  0.62773760  0.50000000  0.25000000  1
  B  B8  1  0.52632057  0.75771962  0.42171281  1
  B  B9  1  0.97367943  0.74228038  0.92171281  1
  B  B10  1  0.97367943  0.25771962  0.57828719  1
  B  B11  1  0.52632057  0.24228038  0.07828719  1
  B  B12  1  0.47367943  0.24228038  0.57828719  1
  B  B13  1  0.02632057  0.25771962  0.07828719  1
  B  B14  1  0.02632057  0.74228038  0.42171281  1
  B  B15  1  0.47367943  0.75771962  0.92171281  1
  P  P16  1  0.22772700  0.76326114  0.07395292  1
  P  P17  1  0.27227300  0.73673886  0.57395292  1
  P  P18  1  0.27227300  0.26326114  0.92604708  1
  P  P19  1  0.22772700  0.23673886  0.42604708  1
  P  P20  1  0.77227300  0.23673886  0.92604708  1
  P  P21  1  0.72772700  0.26326114  0.42604708  1
  P  P22  1  0.72772700  0.73673886  0.07395292  1
  P  P23  1  0.77227300  0.76326114  0.57395292  1
  H  H24  1  0.41508620  0.95772746  0.38719611  1
  H  H25  1  0.08491380  0.54227254  0.88719611  1
  H  H26  1  0.08491380  0.45772746  0.61280389  1
  H  H27  1  0.41508620  0.04227254  0.11280389  1
  H  H28  1  0.58491380  0.04227254  0.61280389  1
  H  H29  1  0.91508620  0.45772746  0.11280389  1
  H  H30  1  0.91508620  0.54227254  0.38719611  1
  H  H31  1  0.58491380  0.95772746  0.88719611  1
  H  H32  1  0.40787714  0.66358800  0.27456310  1
  H  H33  1  0.09212286  0.83641200  0.77456310  1
  H  H34  1  0.09212286  0.16358800  0.72543690  1
  H  H35  1  0.40787714  0.33641200  0.22543690  1
  H  H36  1  0.59212286  0.33641200  0.72543690  1
  H  H37  1  0.90787714  0.16358800  0.22543690  1
  H  H38  1  0.90787714  0.83641200  0.27456310  1
  H  H39  1  0.59212286  0.66358800  0.77456310  1
  O  O40  1  0.26323792  0.64707528  0.17169222  1
  O  O41  1  0.23676208  0.85292472  0.67169222  1
  O  O42  1  0.23676208  0.14707528  0.82830778  1
  O  O43  1  0.26323792  0.35292472  0.32830778  1
  O  O44  1  0.73676208  0.35292472  0.82830778  1
  O  O45  1  0.76323792  0.14707528  0.32830778  1
  O  O46  1  0.76323792  0.85292472  0.17169222  1
  O  O47  1  0.73676208  0.64707528  0.67169222  1
  O  O48  1  0.50523308  0.90212589  0.36653622  1
  O  O49  1  0.99476692  0.59787411  0.86653622  1
  O  O50  1  0.99476692  0.40212589  0.63346378  1
  O  O51  1  0.50523308  0.09787411  0.13346378  1
  O  O52  1  0.49476692  0.09787411  0.63346378  1
  O  O53  1  0.00523308  0.40212589  0.13346378  1
  O  O54  1  0.00523308  0.59787411  0.36653622  1
  O  O55  1  0.49476692  0.90212589  0.86653622  1
  O  O56  1  0.26029711  0.91488100  0.12465747  1
  O  O57  1  0.23970289  0.58511900  0.62465747  1
  O  O58  1  0.23970289  0.41488100  0.87534253  1
  O  O59  1  0.26029711  0.08511900  0.37534253  1
  O  O60  1  0.73970289  0.08511900  0.87534253  1
  O  O61  1  0.76029711  0.41488100  0.37534253  1
  O  O62  1  0.76029711  0.58511900  0.12465747  1
  O  O63  1  0.73970289  0.91488100  0.62465747  1
  O  O64  1  0.49323834  0.64356687  0.33023369  1
  O  O65  1  0.00676166  0.85643313  0.83023369  1
  O  O66  1  0.00676166  0.14356687  0.66976631  1
  O  O67  1  0.49323834  0.35643313  0.16976631  1
  O  O68  1  0.50676166  0.35643313  0.66976631  1
  O  O69  1  0.99323834  0.14356687  0.16976631  1
  O  O70  1  0.99323834  0.85643313  0.33023369  1
  O  O71  1  0.50676166  0.64356687  0.83023369  1
  O  O72  1  0.18416206  0.76291597  0.45120178  1
  O  O73  1  0.31583794  0.73708403  0.95120178  1
  O  O74  1  0.31583794  0.26291597  0.54879822  1
  O  O75  1  0.18416206  0.23708403  0.04879822  1
  O  O76  1  0.81583794  0.23708403  0.54879822  1
  O  O77  1  0.68416206  0.26291597  0.04879822  1
  O  O78  1  0.68416206  0.73708403  0.45120178  1
  O  O79  1  0.81583794  0.76291597  0.95120178  1
  O  O80  1  0.06133318  0.75017884  0.03820189  1
  O  O81  1  0.43866682  0.74982116  0.53820189  1
  O  O82  1  0.43866682  0.25017884  0.96179811  1
  O  O83  1  0.06133318  0.24982116  0.46179811  1
  O  O84  1  0.93866682  0.24982116  0.96179811  1
  O  O85  1  0.56133318  0.25017884  0.46179811  1
  O  O86  1  0.56133318  0.74982116  0.03820189  1
  O  O87  1  0.93866682  0.75017884  0.53820189  1
