# generated using pymatgen
data_Ag2AsS2
_symmetry_space_group_name_H-M   'P 1'
_cell_length_a   6.92834035
_cell_length_b   9.75737441
_cell_length_c   13.19459235
_cell_angle_alpha   90.00000000
_cell_angle_beta   90.00000000
_cell_angle_gamma   98.70096148
_symmetry_Int_Tables_number   1
_chemical_formula_structural   Ag2AsS2
_chemical_formula_sum   'Ag16 As8 S16'
_cell_volume   881.72069379
_cell_formula_units_Z   8
loop_
 _symmetry_equiv_pos_site_id
 _symmetry_equiv_pos_as_xyz
  1  'x, y, z'
loop_
 _atom_site_type_symbol
 _atom_site_label
 _atom_site_symmetry_multiplicity
 _atom_site_fract_x
 _atom_site_fract_y
 _atom_site_fract_z
 _atom_site_occupancy
  Ag  Ag0  1  0.92053382  0.23713025  0.40557605  1
  Ag  Ag1  1  0.42053382  0.23713025  0.59442395  1
  Ag  Ag2  1  0.22372790  0.04131549  0.08880810  1
  Ag  Ag3  1  0.72372790  0.04131549  0.91119190  1
  Ag  Ag4  1  0.62464361  0.69331050  0.09303465  1
  Ag  Ag5  1  0.12464361  0.69331050  0.90696535  1
  Ag  Ag6  1  0.13029585  0.35782825  0.10729928  1
  Ag  Ag7  1  0.63029585  0.35782825  0.89270072  1
  Ag  Ag8  1  0.39838885  0.56674363  0.39439744  1
  Ag  Ag9  1  0.89838885  0.56674363  0.60560256  1
  Ag  Ag10  1  0.80684503  0.95990157  0.20820427  1
  Ag  Ag11  1  0.30684503  0.95990157  0.79179573  1
  Ag  Ag12  1  0.15137236  0.84023971  0.50560888  1
  Ag  Ag13  1  0.65137236  0.84023971  0.49439112  1
  Ag  Ag14  1  0.35653286  0.96238570  0.31506457  1
  Ag  Ag15  1  0.85653286  0.96238570  0.68493543  1
  As  As16  1  0.44059569  0.31362240  0.31281442  1
  As  As17  1  0.94059569  0.31362240  0.68718558  1
  As  As18  1  0.85107431  0.61674098  0.31728101  1
  As  As19  1  0.35107431  0.61674098  0.68271899  1
  As  As20  1  0.68518672  0.30704056  0.16699313  1
  As  As21  1  0.18518672  0.30704056  0.83300687  1
  As  As22  1  0.10740443  0.62625554  0.17682683  1
  As  As23  1  0.60740443  0.62625554  0.82317317  1
  S  S24  1  0.54869877  0.15664939  0.41839694  1
  S  S25  1  0.04869877  0.15664939  0.58160306  1
  S  S26  1  0.99638923  0.79323467  0.08157016  1
  S  S27  1  0.49638923  0.79323467  0.91842984  1
  S  S28  1  0.15317708  0.19070734  0.25528038  1
  S  S29  1  0.65317708  0.19070734  0.74471962  1
  S  S30  1  0.38990282  0.73278430  0.24644090  1
  S  S31  1  0.88990282  0.73278430  0.75355910  1
  S  S32  1  0.91063918  0.84638989  0.36939739  1
  S  S33  1  0.41063918  0.84638989  0.63060261  1
  S  S34  1  0.01886062  0.51185047  0.43225899  1
  S  S35  1  0.51886062  0.51185047  0.56774101  1
  S  S36  1  0.60323994  0.08979713  0.10096382  1
  S  S37  1  0.10323994  0.08979713  0.89903618  1
  S  S38  1  0.51159094  0.42837223  0.06515792  1
  S  S39  1  0.01159094  0.42837223  0.93484208  1
