# generated using pymatgen
data_La3Te4Br
_symmetry_space_group_name_H-M   'P 1'
_cell_length_a   4.40581477
_cell_length_b   14.41464343
_cell_length_c   16.49131791
_cell_angle_alpha   90.00000000
_cell_angle_beta   90.00000000
_cell_angle_gamma   90.00000000
_symmetry_Int_Tables_number   1
_chemical_formula_structural   La3Te4Br
_chemical_formula_sum   'La12 Te16 Br4'
_cell_volume   1047.33472298
_cell_formula_units_Z   4
loop_
 _symmetry_equiv_pos_site_id
 _symmetry_equiv_pos_as_xyz
  1  'x, y, z'
loop_
 _atom_site_type_symbol
 _atom_site_label
 _atom_site_symmetry_multiplicity
 _atom_site_fract_x
 _atom_site_fract_y
 _atom_site_fract_z
 _atom_site_occupancy
  La  La0  1  0.25000000  0.91000042  0.62608773  1
  La  La1  1  0.25000000  0.58999958  0.12608773  1
  La  La2  1  0.75000000  0.08999958  0.37391227  1
  La  La3  1  0.75000000  0.41000042  0.87391227  1
  La  La4  1  0.75000000  0.25000763  0.61888541  1
  La  La5  1  0.75000000  0.24999237  0.11888541  1
  La  La6  1  0.25000000  0.74999237  0.38111459  1
  La  La7  1  0.25000000  0.75000763  0.88111459  1
  La  La8  1  0.75000000  0.57350063  0.63365312  1
  La  La9  1  0.75000000  0.92649937  0.13365312  1
  La  La10  1  0.25000000  0.42649937  0.36634688  1
  La  La11  1  0.25000000  0.07350063  0.86634688  1
  Te  Te12  1  0.25000000  0.41914912  0.57237177  1
  Te  Te13  1  0.25000000  0.08085088  0.07237177  1
  Te  Te14  1  0.75000000  0.58085088  0.42762823  1
  Te  Te15  1  0.75000000  0.91914912  0.92762823  1
  Te  Te16  1  0.75000000  0.04800214  0.71690345  1
  Te  Te17  1  0.75000000  0.45199786  0.21690345  1
  Te  Te18  1  0.25000000  0.95199786  0.28309655  1
  Te  Te19  1  0.25000000  0.54800214  0.78309655  1
  Te  Te20  1  0.75000000  0.77754083  0.73301628  1
  Te  Te21  1  0.75000000  0.72245917  0.23301628  1
  Te  Te22  1  0.25000000  0.22245917  0.26698372  1
  Te  Te23  1  0.25000000  0.27754083  0.76698372  1
  Te  Te24  1  0.25000000  0.11249432  0.52427202  1
  Te  Te25  1  0.25000000  0.38750568  0.02427202  1
  Te  Te26  1  0.75000000  0.88750568  0.47572798  1
  Te  Te27  1  0.75000000  0.61249432  0.97572798  1
  Br  Br28  1  0.25000000  0.70269554  0.56816437  1
  Br  Br29  1  0.25000000  0.79730446  0.06816437  1
  Br  Br30  1  0.75000000  0.29730446  0.43183563  1
  Br  Br31  1  0.75000000  0.20269554  0.93183563  1
