# generated using pymatgen
data_Na2TiSi4H4O13
_symmetry_space_group_name_H-M   'P 1'
_cell_length_a   7.43688396
_cell_length_b   7.43688396
_cell_length_c   11.00735356
_cell_angle_alpha   90.00000000
_cell_angle_beta   90.00000000
_cell_angle_gamma   90.00000000
_symmetry_Int_Tables_number   1
_chemical_formula_structural   Na2TiSi4H4O13
_chemical_formula_sum   'Na4 Ti2 Si8 H8 O26'
_cell_volume   608.78637851
_cell_formula_units_Z   2
loop_
 _symmetry_equiv_pos_site_id
 _symmetry_equiv_pos_as_xyz
  1  'x, y, z'
loop_
 _atom_site_type_symbol
 _atom_site_label
 _atom_site_symmetry_multiplicity
 _atom_site_fract_x
 _atom_site_fract_y
 _atom_site_fract_z
 _atom_site_occupancy
  Na  Na0  1  0.50000000  0.50000000  0.17291703  1
  Na  Na1  1  -0.00000000  -0.00000000  0.82708297  1
  Na  Na2  1  0.50000000  0.50000000  0.82708297  1
  Na  Na3  1  -0.00000000  -0.00000000  0.17291703  1
  Ti  Ti4  1  0.00000000  0.50000000  0.22143498  1
  Ti  Ti5  1  0.50000000  -0.00000000  0.77856502  1
  Si  Si6  1  0.26136838  0.81718102  0.35774132  1
  Si  Si7  1  0.73863162  0.18281898  0.35774132  1
  Si  Si8  1  0.76136838  0.68281898  0.64225868  1
  Si  Si9  1  0.23863162  0.31718102  0.64225868  1
  Si  Si10  1  0.81718102  0.26136838  0.64225868  1
  Si  Si11  1  0.18281898  0.73863162  0.64225868  1
  Si  Si12  1  0.68281898  0.76136838  0.35774132  1
  Si  Si13  1  0.31718102  0.23863162  0.35774132  1
  H  H14  1  0.22551365  0.62449365  0.01243955  1
  H  H15  1  0.77448635  0.37550635  0.01243955  1
  H  H16  1  0.72551365  0.87550635  0.98756045  1
  H  H17  1  0.27448635  0.12449365  0.98756045  1
  H  H18  1  0.62449365  0.22551365  0.98756045  1
  H  H19  1  0.37550635  0.77448635  0.98756045  1
  H  H20  1  0.87550635  0.72551365  0.01243955  1
  H  H21  1  0.12449365  0.27448635  0.01243955  1
  O  O22  1  0.46613826  0.74735485  0.32950802  1
  O  O23  1  0.53386174  0.25264515  0.32950802  1
  O  O24  1  0.96613826  0.75264515  0.67049198  1
  O  O25  1  0.03386174  0.24735485  0.67049198  1
  O  O26  1  0.74735485  0.46613826  0.67049198  1
  O  O27  1  0.25264515  0.53386174  0.67049198  1
  O  O28  1  0.75264515  0.96613826  0.32950802  1
  O  O29  1  0.24735485  0.03386174  0.32950802  1
  O  O30  1  0.11998400  0.72568386  0.26613561  1
  O  O31  1  0.88001600  0.27431614  0.26613561  1
  O  O32  1  0.61998400  0.77431614  0.73386439  1
  O  O33  1  0.38001600  0.22568386  0.73386439  1
  O  O34  1  0.72568386  0.11998400  0.73386439  1
  O  O35  1  0.27431614  0.88001600  0.73386439  1
  O  O36  1  0.77431614  0.61998400  0.26613561  1
  O  O37  1  0.22568386  0.38001600  0.26613561  1
  O  O38  1  -0.00000000  0.50000000  0.06347451  1
  O  O39  1  0.50000000  -0.00000000  0.93652549  1
  O  O40  1  0.21790413  0.78209587  0.50000000  1
  O  O41  1  0.78209587  0.21790413  0.50000000  1
  O  O42  1  0.71790413  0.71790413  0.50000000  1
  O  O43  1  0.28209587  0.28209587  0.50000000  1
  O  O44  1  0.35546236  0.64453764  -0.00000000  1
  O  O45  1  0.64453764  0.35546236  -0.00000000  1
  O  O46  1  0.85546236  0.85546236  -0.00000000  1
  O  O47  1  0.14453764  0.14453764  -0.00000000  1
