# generated using pymatgen
data_Sr4Mn3O10
_symmetry_space_group_name_H-M   'P 1'
_cell_length_a   5.54223409
_cell_length_b   12.61368594
_cell_length_c   12.82642031
_cell_angle_alpha   90.00000000
_cell_angle_beta   90.00000000
_cell_angle_gamma   90.00000000
_symmetry_Int_Tables_number   1
_chemical_formula_structural   Sr4Mn3O10
_chemical_formula_sum   'Sr16 Mn12 O40'
_cell_volume   896.66939382
_cell_formula_units_Z   4
loop_
 _symmetry_equiv_pos_site_id
 _symmetry_equiv_pos_as_xyz
  1  'x, y, z'
loop_
 _atom_site_type_symbol
 _atom_site_label
 _atom_site_symmetry_multiplicity
 _atom_site_fract_x
 _atom_site_fract_y
 _atom_site_fract_z
 _atom_site_occupancy
  Sr  Sr0  1  0.75350139  0.26236621  0.10376859  1
  Sr  Sr1  1  0.75350139  0.73763379  0.89623141  1
  Sr  Sr2  1  0.24649861  0.73763379  0.60376859  1
  Sr  Sr3  1  0.24649861  0.26236621  0.39623141  1
  Sr  Sr4  1  0.25573874  0.76222164  0.10622940  1
  Sr  Sr5  1  0.25573874  0.23777836  0.89377060  1
  Sr  Sr6  1  0.74426126  0.23777836  0.60622940  1
  Sr  Sr7  1  0.74426126  0.76222164  0.39377060  1
  Sr  Sr8  1  0.74743804  0.47075934  0.35572572  1
  Sr  Sr9  1  0.74743804  0.52924066  0.64427428  1
  Sr  Sr10  1  0.25256196  0.52924066  0.85572572  1
  Sr  Sr11  1  0.25256196  0.47075934  0.14427428  1
  Sr  Sr12  1  0.24857656  0.97137983  0.35384376  1
  Sr  Sr13  1  0.24857656  0.02862017  0.64615624  1
  Sr  Sr14  1  0.75142344  0.02862017  0.85384376  1
  Sr  Sr15  1  0.75142344  0.97137983  0.14615624  1
  Mn  Mn16  1  0.74762135  0.13526956  0.34903578  1
  Mn  Mn17  1  0.74762135  0.86473044  0.65096422  1
  Mn  Mn18  1  0.25237865  0.86473044  0.84903578  1
  Mn  Mn19  1  0.25237865  0.13526956  0.15096422  1
  Mn  Mn20  1  0.24790378  0.63360473  0.34804465  1
  Mn  Mn21  1  0.24790378  0.36639527  0.65195535  1
  Mn  Mn22  1  0.75209622  0.36639527  0.84804465  1
  Mn  Mn23  1  0.75209622  0.63360473  0.15195535  1
  Mn  Mn24  1  0.75121305  -0.00000000  0.50000000  1
  Mn  Mn25  1  0.24878695  -0.00000000  -0.00000000  1
  Mn  Mn26  1  0.24252499  0.50000000  0.50000000  1
  Mn  Mn27  1  0.75747501  0.50000000  -0.00000000  1
  O  O28  1  0.51999210  0.10704094  0.46288519  1
  O  O29  1  0.51999210  0.89295906  0.53711481  1
  O  O30  1  0.48000790  0.89295906  0.96288519  1
  O  O31  1  0.48000790  0.10704094  0.03711481  1
  O  O32  1  0.52636166  0.60718680  0.03742456  1
  O  O33  1  0.52636166  0.39281320  0.96257544  1
  O  O34  1  0.47363834  0.39281320  0.53742456  1
  O  O35  1  0.47363834  0.60718680  0.46257544  1
  O  O36  1  0.01580362  0.60943899  0.46263365  1
  O  O37  1  0.01580362  0.39056101  0.53736635  1
  O  O38  1  0.98419638  0.39056101  0.96263365  1
  O  O39  1  0.98419638  0.60943899  0.03736635  1
  O  O40  1  0.02099231  0.10850815  0.03754080  1
  O  O41  1  0.02099231  0.89149185  0.96245920  1
  O  O42  1  0.97900769  0.89149185  0.53754080  1
  O  O43  1  0.97900769  0.10850815  0.46245920  1
  O  O44  1  0.50000000  0.12039600  0.25000000  1
  O  O45  1  0.50000000  0.87960400  0.75000000  1
  O  O46  1  0.00000000  0.62092750  0.25000000  1
  O  O47  1  0.00000000  0.37907250  0.75000000  1
  O  O48  1  0.00000000  0.12985833  0.25000000  1
  O  O49  1  0.00000000  0.87014167  0.75000000  1
  O  O50  1  0.50000000  0.61712780  0.25000000  1
  O  O51  1  0.50000000  0.38287220  0.75000000  1
  O  O52  1  0.75968630  0.46321236  0.14581186  1
  O  O53  1  0.75968630  0.53678764  0.85418814  1
  O  O54  1  0.24031370  0.53678764  0.64581186  1
  O  O55  1  0.24031370  0.46321236  0.35418814  1
  O  O56  1  0.24640855  0.96378295  0.14630346  1
  O  O57  1  0.24640855  0.03621705  0.85369654  1
  O  O58  1  0.75359145  0.03621705  0.64630346  1
  O  O59  1  0.75359145  0.96378295  0.35369654  1
  O  O60  1  0.73704597  0.27796652  0.36152993  1
  O  O61  1  0.73704597  0.72203348  0.63847007  1
  O  O62  1  0.26295403  0.72203348  0.86152993  1
  O  O63  1  0.26295403  0.27796652  0.13847007  1
  O  O64  1  0.25243180  0.77728527  0.35391099  1
  O  O65  1  0.25243180  0.22271473  0.64608901  1
  O  O66  1  0.74756820  0.22271473  0.85391099  1
  O  O67  1  0.74756820  0.77728527  0.14608901  1
