# generated using pymatgen
data_V4Fe2O13
_symmetry_space_group_name_H-M   'P 1'
_cell_length_a   8.59668728
_cell_length_b   9.56080112
_cell_length_c   14.89908962
_cell_angle_alpha   90.00000000
_cell_angle_beta   103.84785790
_cell_angle_gamma   90.00000000
_symmetry_Int_Tables_number   1
_chemical_formula_structural   V4Fe2O13
_chemical_formula_sum   'V16 Fe8 O52'
_cell_volume   1188.98169242
_cell_formula_units_Z   4
loop_
 _symmetry_equiv_pos_site_id
 _symmetry_equiv_pos_as_xyz
  1  'x, y, z'
loop_
 _atom_site_type_symbol
 _atom_site_label
 _atom_site_symmetry_multiplicity
 _atom_site_fract_x
 _atom_site_fract_y
 _atom_site_fract_z
 _atom_site_occupancy
  V  V0  1  0.51351821  0.24089452  0.42602854  1
  V  V1  1  0.48648179  0.74089452  0.07397146  1
  V  V2  1  0.48648179  0.75910548  0.57397146  1
  V  V3  1  0.51351821  0.25910548  0.92602854  1
  V  V4  1  0.12238509  0.25311876  0.42608426  1
  V  V5  1  0.87761491  0.75311876  0.07391574  1
  V  V6  1  0.87761491  0.74688124  0.57391574  1
  V  V7  1  0.12238509  0.24688124  0.92608426  1
  V  V8  1  0.71884345  0.22082762  0.65739828  1
  V  V9  1  0.28115655  0.72082762  0.84260172  1
  V  V10  1  0.28115655  0.77917238  0.34260172  1
  V  V11  1  0.71884345  0.27917238  0.15739828  1
  V  V12  1  0.20902708  0.29750932  0.66024642  1
  V  V13  1  0.79097292  0.79750932  0.83975358  1
  V  V14  1  0.79097292  0.70249068  0.33975358  1
  V  V15  1  0.20902708  0.20249068  0.16024642  1
  Fe  Fe16  1  0.94395005  0.49991045  0.77025025  1
  Fe  Fe17  1  0.05604995  0.99991045  0.72974975  1
  Fe  Fe18  1  0.05604995  0.50008955  0.22974975  1
  Fe  Fe19  1  0.94395005  0.00008955  0.27025025  1
  Fe  Fe20  1  0.56145084  0.49830135  0.75386969  1
  Fe  Fe21  1  0.43854916  0.99830135  0.74613031  1
  Fe  Fe22  1  0.43854916  0.50169865  0.24613031  1
  Fe  Fe23  1  0.56145084  0.00169865  0.25386969  1
  O  O24  1  0.10951272  0.31199678  0.53894467  1
  O  O25  1  0.89048728  0.81199678  0.96105533  1
  O  O26  1  0.89048728  0.68800322  0.46105533  1
  O  O27  1  0.10951272  0.18800322  0.03894467  1
  O  O28  1  0.32211935  0.18409040  0.44040792  1
  O  O29  1  0.67788065  0.68409040  0.05959208  1
  O  O30  1  0.67788065  0.81590960  0.55959208  1
  O  O31  1  0.32211935  0.31590960  0.94040792  1
  O  O32  1  0.64212608  0.26829790  0.53752719  1
  O  O33  1  0.35787392  0.76829790  0.96247281  1
  O  O34  1  0.35787392  0.73170210  0.46247281  1
  O  O35  1  0.64212608  0.23170210  0.03752719  1
  O  O36  1  0.74439330  0.38146546  0.71916334  1
  O  O37  1  0.25560670  0.88146546  0.78083666  1
  O  O38  1  0.25560670  0.61853454  0.28083666  1
  O  O39  1  0.74439330  0.11853454  0.21916334  1
  O  O40  1  0.76446046  0.61810139  0.80609422  1
  O  O41  1  0.23553954  0.11810139  0.69390578  1
  O  O42  1  0.23553954  0.38189861  0.19390578  1
  O  O43  1  0.76446046  0.88189861  0.30609422  1
  O  O44  1  0.58918536  0.38491161  0.86855583  1
  O  O45  1  0.41081464  0.88491161  0.63144417  1
  O  O46  1  0.41081464  0.61508839  0.13144417  1
  O  O47  1  0.58918536  0.11508839  0.36855583  1
  O  O48  1  0.51578302  0.60975170  0.63657716  1
  O  O49  1  0.48421698  0.10975170  0.86342284  1
  O  O50  1  0.48421698  0.39024830  0.36342284  1
  O  O51  1  0.51578302  0.89024830  0.13657716  1
  O  O52  1  0.09985314  0.64319905  0.83266813  1
  O  O53  1  0.90014686  0.14319905  0.66733187  1
  O  O54  1  0.90014686  0.35680095  0.16733187  1
  O  O55  1  0.09985314  0.85680095  0.33266813  1
  O  O56  1  0.90637771  0.61127140  0.64902374  1
  O  O57  1  0.09362229  0.11127140  0.85097626  1
  O  O58  1  0.09362229  0.38872860  0.35097626  1
  O  O59  1  0.90637771  0.88872860  0.14902374  1
  O  O60  1  0.39646204  0.36590977  0.68071227  1
  O  O61  1  0.60353796  0.86590977  0.81928773  1
  O  O62  1  0.60353796  0.63409023  0.31928773  1
  O  O63  1  0.39646204  0.13409023  0.18071227  1
  O  O64  1  0.99296531  0.37968757  0.88593962  1
  O  O65  1  0.00703469  0.87968757  0.61406038  1
  O  O66  1  0.00703469  0.62031243  0.11406038  1
  O  O67  1  0.99296531  0.12031243  0.38593962  1
  O  O68  1  0.40635611  0.61246582  0.80363400  1
  O  O69  1  0.59364389  0.11246582  0.69636600  1
  O  O70  1  0.59364389  0.38753418  0.19636600  1
  O  O71  1  0.40635611  0.88753418  0.30363400  1
  O  O72  1  0.10397370  0.38623017  0.72493079  1
  O  O73  1  0.89602630  0.88623017  0.77506921  1
  O  O74  1  0.89602630  0.61376983  0.27506921  1
  O  O75  1  0.10397370  0.11376983  0.22493079  1
