# generated using pymatgen
data_B10H13I
_symmetry_space_group_name_H-M   'P 1'
_cell_length_a   7.63467505
_cell_length_b   10.62778814
_cell_length_c   15.50782543
_cell_angle_alpha   90.00000000
_cell_angle_beta   90.00000000
_cell_angle_gamma   102.93367378
_symmetry_Int_Tables_number   1
_chemical_formula_structural   B10H13I
_chemical_formula_sum   'B40 H52 I4'
_cell_volume   1226.37712969
_cell_formula_units_Z   4
loop_
 _symmetry_equiv_pos_site_id
 _symmetry_equiv_pos_as_xyz
  1  'x, y, z'
loop_
 _atom_site_type_symbol
 _atom_site_label
 _atom_site_symmetry_multiplicity
 _atom_site_fract_x
 _atom_site_fract_y
 _atom_site_fract_z
 _atom_site_occupancy
  B  B0  1  0.22520108  0.46615777  0.81243435  1
  B  B1  1  0.72520108  0.96615777  0.68756565  1
  B  B2  1  0.77479892  0.53384223  0.18756565  1
  B  B3  1  0.27479892  0.03384223  0.31243435  1
  B  B4  1  0.17574361  0.40365400  0.91801617  1
  B  B5  1  0.67574361  0.90365400  0.58198383  1
  B  B6  1  0.82425639  0.59634600  0.08198383  1
  B  B7  1  0.32425639  0.09634600  0.41801617  1
  B  B8  1  0.38289960  0.39682417  0.86835898  1
  B  B9  1  0.88289960  0.89682417  0.63164102  1
  B  B10  1  0.61710040  0.60317583  0.13164102  1
  B  B11  1  0.11710040  0.10317583  0.36835898  1
  B  B12  1  0.37649298  0.39381980  0.75399291  1
  B  B13  1  0.87649298  0.89381980  0.74600709  1
  B  B14  1  0.62350702  0.60618020  0.24600709  1
  B  B15  1  0.12350702  0.10618020  0.25399291  1
  B  B16  1  0.01051718  0.37211845  0.83331778  1
  B  B17  1  0.51051718  0.87211845  0.66668222  1
  B  B18  1  0.98948282  0.62788155  0.16668222  1
  B  B19  1  0.48948282  0.12788155  0.33331778  1
  B  B20  1  0.02831982  0.25505051  0.91385218  1
  B  B21  1  0.52831982  0.75505051  0.58614782  1
  B  B22  1  0.97168018  0.74494949  0.08614782  1
  B  B23  1  0.47168018  0.24494949  0.41385218  1
  B  B24  1  0.26353534  0.26016794  0.92272894  1
  B  B25  1  0.76353534  0.76016794  0.57727106  1
  B  B26  1  0.73646466  0.73983206  0.07727106  1
  B  B27  1  0.23646466  0.23983206  0.42272894  1
  B  B28  1  0.39489220  0.25409563  0.81449024  1
  B  B29  1  0.89489220  0.75409563  0.68550976  1
  B  B30  1  0.60510780  0.74590437  0.18550976  1
  B  B31  1  0.10510780  0.24590437  0.31449024  1
  B  B32  1  0.27072208  0.24390042  0.71615149  1
  B  B33  1  0.77072208  0.74390042  0.78384851  1
  B  B34  1  0.72927792  0.75609958  0.28384851  1
  B  B35  1  0.22927792  0.25609958  0.21615149  1
  B  B36  1  0.14399291  0.36579603  0.72501803  1
  B  B37  1  0.64399291  0.86579603  0.77498197  1
  B  B38  1  0.85600709  0.63420397  0.27498197  1
  B  B39  1  0.35600709  0.13420397  0.22501803  1
  H  H40  1  0.22958316  0.57799161  0.80159081  1
  H  H41  1  0.72958316  0.07799161  0.69840919  1
  H  H42  1  0.77041684  0.42200839  0.19840919  1
  H  H43  1  0.27041684  0.92200839  0.30159081  1
  H  H44  1  0.17112246  0.47389001  0.97742530  1
  H  H45  1  0.67112246  0.97389001  0.52257470  1
  H  H46  1  0.82887754  0.52610999  0.02257470  1
  H  H47  1  0.32887754  0.02610999  0.47742530  1
  H  H48  1  0.51773781  0.45079914  0.90355680  1
  H  H49  1  0.01773781  0.95079914  0.59644320  1
  H  H50  1  0.48226219  0.54920086  0.09644320  1
  H  H51  1  0.98226219  0.04920086  0.40355680  1
  H  H52  1  0.49681828  0.45880964  0.71403942  1
  H  H53  1  0.99681828  0.95880964  0.78596058  1
  H  H54  1  0.50318172  0.54119036  0.28596058  1
  H  H55  1  0.00318172  0.04119036  0.21403942  1
  H  H56  1  0.87657302  0.41169253  0.83039523  1
  H  H57  1  0.37657302  0.91169253  0.66960477  1
  H  H58  1  0.12342698  0.58830747  0.16960477  1
  H  H59  1  0.62342698  0.08830747  0.33039523  1
  H  H60  1  0.31828604  0.21721843  0.98551172  1
  H  H61  1  0.81828604  0.71721843  0.51448828  1
  H  H62  1  0.68171396  0.78278157  0.01448828  1
  H  H63  1  0.18171396  0.28278157  0.48551172  1
  H  H64  1  0.52358281  0.20875451  0.81787590  1
  H  H65  1  0.02358281  0.70875451  0.68212410  1
  H  H66  1  0.47641719  0.79124549  0.18212410  1
  H  H67  1  0.97641719  0.29124549  0.31787590  1
  H  H68  1  0.08504531  0.40500940  0.66184834  1
  H  H69  1  0.58504531  0.90500940  0.83815166  1
  H  H70  1  0.91495469  0.59499060  0.33815166  1
  H  H71  1  0.41495469  0.09499060  0.16184834  1
  H  H72  1  0.29632123  0.18786509  0.65261617  1
  H  H73  1  0.79632123  0.68786509  0.84738383  1
  H  H74  1  0.70367877  0.81213491  0.34738383  1
  H  H75  1  0.20367877  0.31213491  0.15261617  1
  H  H76  1  0.95412896  0.24500733  0.83399502  1
  H  H77  1  0.45412896  0.74500733  0.66600498  1
  H  H78  1  0.04587104  0.75499267  0.16600498  1
  H  H79  1  0.54587104  0.25499267  0.33399502  1
  H  H80  1  0.12745283  0.16770334  0.89605499  1
  H  H81  1  0.62745283  0.66770334  0.60394501  1
  H  H82  1  0.87254717  0.83229666  0.10394501  1
  H  H83  1  0.37254717  0.33229666  0.39605499  1
  H  H84  1  0.26704698  0.16075144  0.78180019  1
  H  H85  1  0.76704698  0.66075144  0.71819981  1
  H  H86  1  0.73295302  0.83924856  0.21819981  1
  H  H87  1  0.23295302  0.33924856  0.28180019  1
  H  H88  1  0.09286446  0.23840170  0.71971319  1
  H  H89  1  0.59286446  0.73840170  0.78028681  1
  H  H90  1  0.90713554  0.76159830  0.28028681  1
  H  H91  1  0.40713554  0.26159830  0.21971319  1
  I  I92  1  0.82111116  0.16611662  0.00279363  1
  I  I93  1  0.32111116  0.66611662  0.49720637  1
  I  I94  1  0.17888884  0.83388338  0.99720637  1
  I  I95  1  0.67888884  0.33388338  0.50279363  1
