# generated using pymatgen
data_CsThMo2ClO8
_symmetry_space_group_name_H-M   'P 1'
_cell_length_a   9.81797827
_cell_length_b   10.19181914
_cell_length_c   10.34858438
_cell_angle_alpha   90.00000000
_cell_angle_beta   95.88922629
_cell_angle_gamma   90.00000000
_symmetry_Int_Tables_number   1
_chemical_formula_structural   CsThMo2ClO8
_chemical_formula_sum   'Cs4 Th4 Mo8 Cl4 O32'
_cell_volume   1030.04571358
_cell_formula_units_Z   4
loop_
 _symmetry_equiv_pos_site_id
 _symmetry_equiv_pos_as_xyz
  1  'x, y, z'
loop_
 _atom_site_type_symbol
 _atom_site_label
 _atom_site_symmetry_multiplicity
 _atom_site_fract_x
 _atom_site_fract_y
 _atom_site_fract_z
 _atom_site_occupancy
  Cs  Cs0  1  0.49430171  0.77628707  0.48257797  1
  Cs  Cs1  1  0.00569829  0.27628707  0.51742203  1
  Cs  Cs2  1  0.50569829  0.22371293  0.51742203  1
  Cs  Cs3  1  0.99430171  0.72371293  0.48257797  1
  Th  Th4  1  0.19625701  0.96553885  0.83148430  1
  Th  Th5  1  0.30374299  0.46553885  0.16851570  1
  Th  Th6  1  0.80374299  0.03446115  0.16851570  1
  Th  Th7  1  0.69625701  0.53446115  0.83148430  1
  Mo  Mo8  1  0.00449163  0.27729873  0.91757926  1
  Mo  Mo9  1  0.49550837  0.77729873  0.08242074  1
  Mo  Mo10  1  0.99550837  0.72270127  0.08242074  1
  Mo  Mo11  1  0.50449163  0.22270127  0.91757926  1
  Mo  Mo12  1  0.28956641  0.59091783  0.79305294  1
  Mo  Mo13  1  0.21043359  0.09091783  0.20694706  1
  Mo  Mo14  1  0.71043359  0.40908217  0.20694706  1
  Mo  Mo15  1  0.78956641  0.90908217  0.79305294  1
  Cl  Cl16  1  0.27211992  0.50484427  0.43589009  1
  Cl  Cl17  1  0.22788008  0.00484427  0.56410991  1
  Cl  Cl18  1  0.72788008  0.49515573  0.56410991  1
  Cl  Cl19  1  0.77211992  0.99515573  0.43589009  1
  O  O20  1  0.09513813  0.82976168  0.99273280  1
  O  O21  1  0.40486187  0.32976168  0.00726720  1
  O  O22  1  0.90486187  0.17023832  0.00726720  1
  O  O23  1  0.59513813  0.67023832  0.99273280  1
  O  O24  1  0.38380341  0.87008902  0.96722743  1
  O  O25  1  0.11619659  0.37008902  0.03277257  1
  O  O26  1  0.61619659  0.12991098  0.03277257  1
  O  O27  1  0.88380341  0.62991098  0.96722743  1
  O  O28  1  0.29814501  0.58538806  0.96787724  1
  O  O29  1  0.20185499  0.08538806  0.03212276  1
  O  O30  1  0.70185499  0.41461194  0.03212276  1
  O  O31  1  0.79814501  0.91461194  0.96787724  1
  O  O32  1  0.38995979  0.11248993  0.82503641  1
  O  O33  1  0.11004021  0.61248993  0.17496359  1
  O  O34  1  0.61004021  0.88751007  0.17496359  1
  O  O35  1  0.88995979  0.38751007  0.82503641  1
  O  O36  1  0.08786196  0.18051141  0.80188976  1
  O  O37  1  0.41213804  0.68051141  0.19811024  1
  O  O38  1  0.91213804  0.81948859  0.19811024  1
  O  O39  1  0.58786196  0.31948859  0.80188976  1
  O  O40  1  0.46253631  0.57109367  0.74618799  1
  O  O41  1  0.03746369  0.07109367  0.25381201  1
  O  O42  1  0.53746369  0.42890633  0.25381201  1
  O  O43  1  0.96253631  0.92890633  0.74618799  1
  O  O44  1  0.21937424  0.74967728  0.73811061  1
  O  O45  1  0.28062576  0.24967728  0.26188939  1
  O  O46  1  0.78062576  0.25032272  0.26188939  1
  O  O47  1  0.71937424  0.75032272  0.73811061  1
  O  O48  1  0.32029052  0.96639580  0.26883610  1
  O  O49  1  0.17970948  0.46639580  0.73116390  1
  O  O50  1  0.67970948  0.03360420  0.73116390  1
  O  O51  1  0.82029052  0.53360420  0.26883610  1
