# generated using pymatgen
data_Ho2Zn17
_symmetry_space_group_name_H-M   'P 1'
_cell_length_a   8.65023206
_cell_length_b   9.06609534
_cell_length_c   9.06609534
_cell_angle_alpha   120.01100176
_cell_angle_beta   90.00000000
_cell_angle_gamma   90.00000000
_symmetry_Int_Tables_number   1
_chemical_formula_structural   Ho2Zn17
_chemical_formula_sum   'Ho4 Zn34'
_cell_volume   615.67397570
_cell_formula_units_Z   2
loop_
 _symmetry_equiv_pos_site_id
 _symmetry_equiv_pos_as_xyz
  1  'x, y, z'
loop_
 _atom_site_type_symbol
 _atom_site_label
 _atom_site_symmetry_multiplicity
 _atom_site_fract_x
 _atom_site_fract_y
 _atom_site_fract_z
 _atom_site_occupancy
  Ho  Ho0  1  0.75000000  0.99997937  0.00002063  1
  Ho  Ho1  1  0.25000000  0.00002063  0.99997937  1
  Ho  Ho2  1  0.25000000  0.66663361  0.33336639  1
  Ho  Ho3  1  0.75000000  0.33336639  0.66663361  1
  Zn  Zn4  1  0.59708335  0.66668959  0.33331041  1
  Zn  Zn5  1  0.40291665  0.33331041  0.66668959  1
  Zn  Zn6  1  0.09708335  0.33331041  0.66668959  1
  Zn  Zn7  1  0.90291665  0.66668959  0.33331041  1
  Zn  Zn8  1  0.50000000  0.50000000  -0.00000000  1
  Zn  Zn9  1  0.50000000  0.50000000  0.50000000  1
  Zn  Zn10  1  0.50000000  0.00000000  0.50000000  1
  Zn  Zn11  1  0.00000000  0.50000000  -0.00000000  1
  Zn  Zn12  1  0.00000000  0.50000000  0.50000000  1
  Zn  Zn13  1  0.00000000  0.00000000  0.50000000  1
  Zn  Zn14  1  0.75000000  0.67054394  0.03074705  1
  Zn  Zn15  1  0.75000000  0.36040376  0.32984629  1
  Zn  Zn16  1  0.75000000  0.96955577  0.63989111  1
  Zn  Zn17  1  0.75000000  0.36010889  0.03044423  1
  Zn  Zn18  1  0.75000000  0.96925295  0.32945606  1
  Zn  Zn19  1  0.75000000  0.67015371  0.63959624  1
  Zn  Zn20  1  0.25000000  0.32945606  0.96925295  1
  Zn  Zn21  1  0.25000000  0.63959624  0.67015371  1
  Zn  Zn22  1  0.25000000  0.03044423  0.36010889  1
  Zn  Zn23  1  0.25000000  0.63989111  0.96955577  1
  Zn  Zn24  1  0.25000000  0.03074705  0.67054394  1
  Zn  Zn25  1  0.25000000  0.32984629  0.36040376  1
  Zn  Zn26  1  0.48313627  0.83874972  0.67753472  1
  Zn  Zn27  1  0.48295869  0.83881663  0.16118337  1
  Zn  Zn28  1  0.48313627  0.32246528  0.16125028  1
  Zn  Zn29  1  0.51686373  0.16125028  0.32246528  1
  Zn  Zn30  1  0.51704131  0.16118337  0.83881663  1
  Zn  Zn31  1  0.51686373  0.67753472  0.83874972  1
  Zn  Zn32  1  0.98313627  0.16125028  0.32246528  1
  Zn  Zn33  1  0.98295869  0.16118337  0.83881663  1
  Zn  Zn34  1  0.98313627  0.67753472  0.83874972  1
  Zn  Zn35  1  0.01686373  0.83874972  0.67753472  1
  Zn  Zn36  1  0.01704131  0.83881663  0.16118337  1
  Zn  Zn37  1  0.01686373  0.32246528  0.16125028  1
