# generated using pymatgen
data_ZnNi13Ge8
_symmetry_space_group_name_H-M   'P 1'
_cell_length_a   7.87916873
_cell_length_b   7.87934295
_cell_length_c   15.19165888
_cell_angle_alpha   90.00095863
_cell_angle_beta   89.99945523
_cell_angle_gamma   119.99966389
_symmetry_Int_Tables_number   1
_chemical_formula_structural   ZnNi13Ge8
_chemical_formula_sum   'Zn3 Ni39 Ge24'
_cell_volume   816.78491281
_cell_formula_units_Z   3
loop_
 _symmetry_equiv_pos_site_id
 _symmetry_equiv_pos_as_xyz
  1  'x, y, z'
loop_
 _atom_site_type_symbol
 _atom_site_label
 _atom_site_symmetry_multiplicity
 _atom_site_fract_x
 _atom_site_fract_y
 _atom_site_fract_z
 _atom_site_occupancy
  Zn  Zn0  1  0.50327428  0.50327172  0.16666630  1
  Zn  Zn1  1  0.49672632  0.00000095  0.49999121  1
  Zn  Zn2  1  0.99999905  0.49672838  0.83332139  1
  Ni  Ni3  1  0.00088030  0.00087574  0.66664447  1
  Ni  Ni4  1  0.99915885  0.00002367  0.99998234  1
  Ni  Ni5  1  0.99999305  0.99913500  0.33331254  1
  Ni  Ni6  1  0.49871676  0.49871105  0.66665628  1
  Ni  Ni7  1  0.50126556  0.99999024  0.99998250  1
  Ni  Ni8  1  0.00001242  0.50128852  0.33331095  1
  Ni  Ni9  1  0.00065099  0.00066378  0.16664740  1
  Ni  Ni10  1  0.99932847  0.99997658  0.49997849  1
  Ni  Ni11  1  0.00002063  0.99933671  0.83331516  1
  Ni  Ni12  1  0.49467551  0.49760648  0.33254855  1
  Ni  Ni13  1  0.50240812  0.99707474  0.66588812  1
  Ni  Ni14  1  0.00292162  0.50533534  0.99921501  1
  Ni  Ni15  1  0.50530003  0.00296614  0.33411528  1
  Ni  Ni16  1  0.99704195  0.50234370  0.66744949  1
  Ni  Ni17  1  0.49764651  0.49468730  0.00078646  1
  Ni  Ni18  1  0.49926340  0.49966345  0.49941931  1
  Ni  Ni19  1  0.50032891  0.99959374  0.83275328  1
  Ni  Ni20  1  0.00040792  0.50073965  0.16608364  1
  Ni  Ni21  1  0.50078182  0.00042078  0.16723665  1
  Ni  Ni22  1  0.99956694  0.50035226  0.50056918  1
  Ni  Ni23  1  0.49964322  0.49921218  0.83390356  1
  Ni  Ni24  1  0.65885671  0.32198522  0.58040099  1
  Ni  Ni25  1  0.67800459  0.33686731  0.91373483  1
  Ni  Ni26  1  0.66313290  0.34113800  0.24706962  1
  Ni  Ni27  1  0.34113028  0.66313543  0.08625760  1
  Ni  Ni28  1  0.33685629  0.67799603  0.41959088  1
  Ni  Ni29  1  0.32201240  0.65887010  0.75292210  1
  Ni  Ni30  1  0.83804417  0.66177630  0.75694560  1
  Ni  Ni31  1  0.33823636  0.17627346  0.09028087  1
  Ni  Ni32  1  0.82371953  0.16194960  0.42361727  1
  Ni  Ni33  1  0.16192752  0.82369143  0.90971463  1
  Ni  Ni34  1  0.17630492  0.33823412  0.24304719  1
  Ni  Ni35  1  0.66176710  0.83806916  0.57637950  1
  Ni  Ni36  1  0.82402253  0.66398399  0.08476197  1
  Ni  Ni37  1  0.33601994  0.16004498  0.41809267  1
  Ni  Ni38  1  0.83996098  0.17597199  0.75142786  1
  Ni  Ni39  1  0.17600122  0.83994516  0.58190222  1
  Ni  Ni40  1  0.16004995  0.33605671  0.91523946  1
  Ni  Ni41  1  0.66394343  0.82400680  0.24857036  1
  Ge  Ge42  1  0.88034052  0.69049681  0.25181825  1
  Ge  Ge43  1  0.30950175  0.18984460  0.58515288  1
  Ge  Ge44  1  0.81015553  0.11965734  0.91848561  1
  Ge  Ge45  1  0.11964478  0.81014420  0.41482772  1
  Ge  Ge46  1  0.18985885  0.30950375  0.74816490  1
  Ge  Ge47  1  0.69049926  0.88035483  0.08149472  1
  Ge  Ge48  1  0.68628799  0.37614213  0.41161939  1
  Ge  Ge49  1  0.62385764  0.31014634  0.74495570  1
  Ge  Ge50  1  0.68985704  0.31371411  0.07828485  1
  Ge  Ge51  1  0.31371393  0.68986286  0.25503541  1
  Ge  Ge52  1  0.31013413  0.62385001  0.58837320  1
  Ge  Ge53  1  0.37615073  0.68628318  0.92170479  1
  Ge  Ge54  1  0.83246062  0.66555569  0.58397783  1
  Ge  Ge55  1  0.33444250  0.16690582  0.91731044  1
  Ge  Ge56  1  0.83309843  0.16753750  0.25064352  1
  Ge  Ge57  1  0.16754029  0.83308944  0.08268363  1
  Ge  Ge58  1  0.16690876  0.33445063  0.41601875  1
  Ge  Ge59  1  0.66554951  0.83246126  0.74935182  1
  Ge  Ge60  1  0.81064309  0.68585837  0.92192815  1
  Ge  Ge61  1  0.31414031  0.12478882  0.25525930  1
  Ge  Ge62  1  0.87521012  0.18935320  0.58859625  1
  Ge  Ge63  1  0.18935398  0.87521089  0.74472845  1
  Ge  Ge64  1  0.12478972  0.31414557  0.07805819  1
  Ge  Ge65  1  0.68585708  0.81064877  0.41139309  1
