# generated using pymatgen
data_HNO3
_symmetry_space_group_name_H-M   'P 1'
_cell_length_a   8.08962560
_cell_length_b   8.08369849
_cell_length_c   8.69044006
_cell_angle_alpha   90.00000000
_cell_angle_beta   90.00000000
_cell_angle_gamma   117.06873214
_symmetry_Int_Tables_number   1
_chemical_formula_structural   HNO3
_chemical_formula_sum   'H8 N8 O24'
_cell_volume   506.05222057
_cell_formula_units_Z   8
loop_
 _symmetry_equiv_pos_site_id
 _symmetry_equiv_pos_as_xyz
  1  'x, y, z'
loop_
 _atom_site_type_symbol
 _atom_site_label
 _atom_site_symmetry_multiplicity
 _atom_site_fract_x
 _atom_site_fract_y
 _atom_site_fract_z
 _atom_site_occupancy
  H  H0  1  0.75168097  0.72144658  0.44891052  1
  H  H1  1  0.25168097  0.22144658  0.05108948  1
  H  H2  1  0.24831903  0.27855342  0.55108948  1
  H  H3  1  0.74831903  0.77855342  0.94891052  1
  H  H4  1  0.69599533  0.20817318  0.20783326  1
  H  H5  1  0.19599533  0.70817318  0.29216674  1
  H  H6  1  0.30400467  0.79182682  0.79216674  1
  H  H7  1  0.80400467  0.29182682  0.70783326  1
  N  N8  1  0.73186349  0.71902709  0.22941278  1
  N  N9  1  0.23186349  0.21902709  0.27058722  1
  N  N10  1  0.26813651  0.28097291  0.77058722  1
  N  N11  1  0.76813651  0.78097291  0.72941278  1
  N  N12  1  0.72086858  0.23855464  0.42652126  1
  N  N13  1  0.22086858  0.73855464  0.07347874  1
  N  N14  1  0.27913142  0.76144536  0.57347874  1
  N  N15  1  0.77913142  0.26144536  0.92652126  1
  O  O16  1  0.77681569  0.88486949  0.23609829  1
  O  O17  1  0.27681569  0.38486949  0.26390171  1
  O  O18  1  0.22318431  0.11513051  0.76390171  1
  O  O19  1  0.72318431  0.61513051  0.73609829  1
  O  O20  1  0.69680187  0.62085115  0.11330187  1
  O  O21  1  0.19680187  0.12085115  0.38669813  1
  O  O22  1  0.30319813  0.37914885  0.88669813  1
  O  O23  1  0.80319813  0.87914885  0.61330187  1
  O  O24  1  0.71760614  0.62480908  0.36540630  1
  O  O25  1  0.21760614  0.12480908  0.13459370  1
  O  O26  1  0.28239386  0.37519092  0.63459370  1
  O  O27  1  0.78239386  0.87519092  0.86540630  1
  O  O28  1  0.88677400  0.28711711  0.41212754  1
  O  O29  1  0.38677400  0.78711711  0.08787246  1
  O  O30  1  0.11322600  0.71288289  0.58787246  1
  O  O31  1  0.61322600  0.21288289  0.91212754  1
  O  O32  1  0.63589842  0.22855066  0.54675340  1
  O  O33  1  0.13589842  0.72855066  0.95324660  1
  O  O34  1  0.36410158  0.77144934  0.45324660  1
  O  O35  1  0.86410158  0.27144934  0.04675340  1
  O  O36  1  0.60930662  0.18765862  0.29683586  1
  O  O37  1  0.10930662  0.68765862  0.20316414  1
  O  O38  1  0.39069338  0.81234138  0.70316414  1
  O  O39  1  0.89069338  0.31234138  0.79683586  1
