# generated using pymatgen
data_Er(PO3)3
_symmetry_space_group_name_H-M   'P 1'
_cell_length_a   10.18823810
_cell_length_b   11.44036527
_cell_length_c   20.29628312
_cell_angle_alpha   90.00000000
_cell_angle_beta   90.00000000
_cell_angle_gamma   97.71853664
_symmetry_Int_Tables_number   1
_chemical_formula_structural   Er(PO3)3
_chemical_formula_sum   'Er12 P36 O108'
_cell_volume   2344.24371762
_cell_formula_units_Z   12
loop_
 _symmetry_equiv_pos_site_id
 _symmetry_equiv_pos_as_xyz
  1  'x, y, z'
loop_
 _atom_site_type_symbol
 _atom_site_label
 _atom_site_symmetry_multiplicity
 _atom_site_fract_x
 _atom_site_fract_y
 _atom_site_fract_z
 _atom_site_occupancy
  Er  Er0  1  0.47634706  0.50252184  0.82402117  1
  Er  Er1  1  0.02365294  0.49747816  0.32402117  1
  Er  Er2  1  0.52365294  0.49747816  0.17597883  1
  Er  Er3  1  0.97634706  0.50252184  0.67597883  1
  Er  Er4  1  0.01656077  0.99917417  0.34413877  1
  Er  Er5  1  0.48343923  0.00082583  0.84413877  1
  Er  Er6  1  0.98343923  0.00082583  0.65586123  1
  Er  Er7  1  0.51656077  0.99917417  0.15586123  1
  Er  Er8  1  0.00000000  0.50000000  0.00000000  1
  Er  Er9  1  0.50000000  0.50000000  0.50000000  1
  Er  Er10  1  0.00000000  0.00000000  0.00000000  1
  Er  Er11  1  0.50000000  0.00000000  0.50000000  1
  P  P12  1  0.03111736  0.26707098  0.44718742  1
  P  P13  1  0.46888264  0.73292902  0.94718742  1
  P  P14  1  0.96888264  0.73292902  0.55281258  1
  P  P15  1  0.53111736  0.26707098  0.05281258  1
  P  P16  1  0.18188707  0.82412264  0.45818360  1
  P  P17  1  0.31811293  0.17587736  0.95818360  1
  P  P18  1  0.81811293  0.17587736  0.54181640  1
  P  P19  1  0.68188707  0.82412264  0.04181640  1
  P  P20  1  0.67849502  0.34761768  0.62393649  1
  P  P21  1  0.82150498  0.65238232  0.12393649  1
  P  P22  1  0.32150498  0.65238232  0.37606351  1
  P  P23  1  0.17849502  0.34761768  0.87606351  1
  P  P24  1  0.49349619  0.23908622  0.72642420  1
  P  P25  1  0.00650381  0.76091378  0.22642420  1
  P  P26  1  0.50650381  0.76091378  0.27357580  1
  P  P27  1  0.99349619  0.23908622  0.77357580  1
  P  P28  1  0.80814087  0.14721046  0.88313053  1
  P  P29  1  0.69185913  0.85278954  0.38313053  1
  P  P30  1  0.19185913  0.85278954  0.11686947  1
  P  P31  1  0.30814087  0.14721046  0.61686947  1
  P  P32  1  0.69072949  0.36102687  0.93557643  1
  P  P33  1  0.80927051  0.63897313  0.43557643  1
  P  P34  1  0.30927051  0.63897313  0.06442357  1
  P  P35  1  0.19072949  0.36102687  0.56442357  1
  P  P36  1  0.80461412  0.67252416  0.79094231  1
  P  P37  1  0.69538588  0.32747584  0.29094231  1
  P  P38  1  0.19538588  0.32747584  0.20905769  1
  P  P39  1  0.30461412  0.67252416  0.70905769  1
  P  P40  1  0.82249681  0.13515269  0.22198701  1
  P  P41  1  0.67750319  0.86484731  0.72198701  1
  P  P42  1  0.17750319  0.86484731  0.77801299  1
  P  P43  1  0.32249681  0.13515269  0.27801299  1
  P  P44  1  0.97897186  0.24655103  0.11052965  1
  P  P45  1  0.52102814  0.75344897  0.61052965  1
  P  P46  1  0.02102814  0.75344897  0.88947035  1
  P  P47  1  0.47897186  0.24655103  0.38947035  1
  O  O48  1  0.04575909  0.38197648  0.41099738  1
  O  O49  1  0.45424091  0.61802352  0.91099738  1
  O  O50  1  0.95424091  0.61802352  0.58900262  1
  O  O51  1  0.54575909  0.38197648  0.08900262  1
  O  O52  1  0.04217980  0.15647785  0.40922280  1
  O  O53  1  0.45782020  0.84352215  0.90922280  1
  O  O54  1  0.95782020  0.84352215  0.59077720  1
  O  O55  1  0.54217980  0.15647785  0.09077720  1
  O  O56  1  0.30785918  0.89048840  0.48366899  1
  O  O57  1  0.19214082  0.10951160  0.98366899  1
  O  O58  1  0.69214082  0.10951160  0.51633101  1
  O  O59  1  0.80785918  0.89048840  0.01633101  1
  O  O60  1  0.08382984  0.89067412  0.42480055  1
  O  O61  1  0.41617016  0.10932588  0.92480055  1
  O  O62  1  0.91617016  0.10932588  0.57519945  1
  O  O63  1  0.58382984  0.89067412  0.07519945  1
  O  O64  1  0.57951735  0.38258825  0.57561840  1
  O  O65  1  0.92048265  0.61741175  0.07561840  1
  O  O66  1  0.42048265  0.61741175  0.42438160  1
  O  O67  1  0.07951735  0.38258825  0.92438160  1
  O  O68  1  0.75952936  0.44251132  0.66296392  1
  O  O69  1  0.74047064  0.55748868  0.16296392  1
  O  O70  1  0.24047064  0.55748868  0.33703608  1
  O  O71  1  0.25952936  0.44251132  0.83703608  1
  O  O72  1  0.46795555  0.36194475  0.74368006  1
  O  O73  1  0.03204445  0.63805525  0.24368006  1
  O  O74  1  0.53204445  0.63805525  0.25631994  1
  O  O75  1  0.96795555  0.36194475  0.75631994  1
  O  O76  1  0.52494748  0.16118202  0.78178134  1
  O  O77  1  0.97505252  0.83881798  0.28178134  1
  O  O78  1  0.47505252  0.83881798  0.21821866  1
  O  O79  1  0.02494748  0.16118202  0.71821866  1
  O  O80  1  0.91082273  0.12403590  0.93259622  1
  O  O81  1  0.58917727  0.87596410  0.43259622  1
  O  O82  1  0.08917727  0.87596410  0.06740378  1
  O  O83  1  0.41082273  0.12403590  0.56740378  1
  O  O84  1  0.68835685  0.05620134  0.87825748  1
  O  O85  1  0.81164315  0.94379866  0.37825748  1
  O  O86  1  0.31164315  0.94379866  0.12174252  1
  O  O87  1  0.18835685  0.05620134  0.62174252  1
  O  O88  1  0.57545585  0.39332947  0.89680129  1
  O  O89  1  0.92454415  0.60667053  0.39680129  1
  O  O90  1  0.42454415  0.60667053  0.10319871  1
  O  O91  1  0.07545585  0.39332947  0.60319871  1
  O  O92  1  0.79222897  0.45796492  0.96086142  1
  O  O93  1  0.70777103  0.54203508  0.46086142  1
  O  O94  1  0.20777103  0.54203508  0.03913858  1
  O  O95  1  0.29222897  0.45796492  0.53913858  1
  O  O96  1  0.11096268  0.74461437  0.51669897  1
  O  O97  1  0.38903732  0.25538563  0.01669897  1
  O  O98  1  0.88903732  0.25538563  0.48330103  1
  O  O99  1  0.61096268  0.74461437  0.98330103  1
  O  O100  1  0.21297061  0.72282917  0.40886490  1
  O  O101  1  0.28702939  0.27717083  0.90886490  1
  O  O102  1  0.78702939  0.27717083  0.59113510  1
  O  O103  1  0.71297061  0.72282917  0.09113510  1
  O  O104  1  0.60943550  0.24489050  0.67221446  1
  O  O105  1  0.89056450  0.75510950  0.17221446  1
  O  O106  1  0.39056450  0.75510950  0.32778554  1
  O  O107  1  0.10943550  0.24489050  0.82778554  1
  O  O108  1  0.87054599  0.16384068  0.81058474  1
  O  O109  1  0.62945401  0.83615932  0.31058474  1
  O  O110  1  0.12945401  0.83615932  0.18941526  1
  O  O111  1  0.37054599  0.16384068  0.68941526  1
  O  O112  1  0.76800310  0.27688531  0.89149990  1
  O  O113  1  0.73199690  0.72311469  0.39149990  1
  O  O114  1  0.23199690  0.72311469  0.10850010  1
  O  O115  1  0.26800310  0.27688531  0.60850010  1
  O  O116  1  0.13807212  0.27141560  0.50565417  1
  O  O117  1  0.36192788  0.72858440  0.00565417  1
  O  O118  1  0.86192788  0.72858440  0.49434583  1
  O  O119  1  0.63807212  0.27141560  0.99434583  1
  O  O120  1  0.68028845  0.59148270  0.80595153  1
  O  O121  1  0.81971155  0.40851730  0.30595153  1
  O  O122  1  0.31971155  0.40851730  0.19404847  1
  O  O123  1  0.18028845  0.59148270  0.69404847  1
  O  O124  1  0.90182750  0.63258934  0.74327236  1
  O  O125  1  0.59817250  0.36741066  0.24327236  1
  O  O126  1  0.09817250  0.36741066  0.25672764  1
  O  O127  1  0.40182750  0.63258934  0.75672764  1
  O  O128  1  0.93523783  0.09762843  0.26058929  1
  O  O129  1  0.56476217  0.90237157  0.76058929  1
  O  O130  1  0.06476217  0.90237157  0.73941071  1
  O  O131  1  0.43523783  0.09762843  0.23941071  1
  O  O132  1  0.72962509  0.04275141  0.18678266  1
  O  O133  1  0.77037491  0.95724859  0.68678266  1
  O  O134  1  0.27037491  0.95724859  0.81321734  1
  O  O135  1  0.22962509  0.04275141  0.31321734  1
  O  O136  1  0.94829985  0.34323168  0.06563811  1
  O  O137  1  0.55170015  0.65676832  0.56563811  1
  O  O138  1  0.05170015  0.65676832  0.93436189  1
  O  O139  1  0.44829985  0.34323168  0.43436189  1
  O  O140  1  0.97875144  0.12437968  0.08367113  1
  O  O141  1  0.52124856  0.87562032  0.58367113  1
  O  O142  1  0.02124856  0.87562032  0.91632887  1
  O  O143  1  0.47875144  0.12437968  0.41632887  1
  O  O144  1  0.76745329  0.79894365  0.77013498  1
  O  O145  1  0.73254671  0.20105635  0.27013498  1
  O  O146  1  0.23254671  0.20105635  0.22986502  1
  O  O147  1  0.26745329  0.79894365  0.72986502  1
  O  O148  1  0.87767190  0.24112590  0.17198752  1
  O  O149  1  0.62232810  0.75887410  0.67198752  1
  O  O150  1  0.12232810  0.75887410  0.82801248  1
  O  O151  1  0.37767190  0.24112590  0.32801248  1
  O  O152  1  0.87706884  0.70957611  0.85904117  1
  O  O153  1  0.62293116  0.29042389  0.35904117  1
  O  O154  1  0.12293116  0.29042389  0.14095883  1
  O  O155  1  0.37706884  0.70957611  0.64095883  1
