# generated using pymatgen
data_K2Zn(H2N)4
_symmetry_space_group_name_H-M   'P 1'
_cell_length_a   7.33037699
_cell_length_b   7.71889829
_cell_length_c   13.45083032
_cell_angle_alpha   106.05557882
_cell_angle_beta   90.00000000
_cell_angle_gamma   90.00000000
_symmetry_Int_Tables_number   1
_chemical_formula_structural   K2Zn(H2N)4
_chemical_formula_sum   'K8 Zn4 H32 N16'
_cell_volume   731.39390728
_cell_formula_units_Z   4
loop_
 _symmetry_equiv_pos_site_id
 _symmetry_equiv_pos_as_xyz
  1  'x, y, z'
loop_
 _atom_site_type_symbol
 _atom_site_label
 _atom_site_symmetry_multiplicity
 _atom_site_fract_x
 _atom_site_fract_y
 _atom_site_fract_z
 _atom_site_occupancy
  K  K0  1  0.61909392  0.07449837  0.89656167  1
  K  K1  1  0.11909392  0.92550163  0.60343833  1
  K  K2  1  0.38090608  0.92550163  0.10343833  1
  K  K3  1  0.88090608  0.07449837  0.39656167  1
  K  K4  1  0.62998705  0.57780208  0.89894903  1
  K  K5  1  0.12998705  0.42219792  0.60105097  1
  K  K6  1  0.37001295  0.42219792  0.10105097  1
  K  K7  1  0.87001295  0.57780208  0.39894903  1
  Zn  Zn8  1  0.72027388  0.20529606  0.65062936  1
  Zn  Zn9  1  0.22027388  0.79470394  0.84937064  1
  Zn  Zn10  1  0.27972612  0.79470394  0.34937064  1
  Zn  Zn11  1  0.77972612  0.20529606  0.15062936  1
  H  H12  1  0.72749771  0.86402256  0.60898353  1
  H  H13  1  0.22749771  0.13597744  0.89101647  1
  H  H14  1  0.27250229  0.13597744  0.39101647  1
  H  H15  1  0.77250229  0.86402256  0.10898353  1
  H  H16  1  0.61802053  0.91599176  0.51808595  1
  H  H17  1  0.11802053  0.08400824  0.98191405  1
  H  H18  1  0.38197947  0.08400824  0.48191405  1
  H  H19  1  0.88197947  0.91599176  0.01808595  1
  H  H20  1  0.62177321  0.36069489  0.51551108  1
  H  H21  1  0.12177321  0.63930511  0.98448892  1
  H  H22  1  0.37822679  0.63930511  0.48448892  1
  H  H23  1  0.87822679  0.36069489  0.01551108  1
  H  H24  1  0.73728923  0.50027381  0.60336299  1
  H  H25  1  0.23728923  0.49972619  0.89663701  1
  H  H26  1  0.26271077  0.49972619  0.39663701  1
  H  H27  1  0.76271077  0.50027381  0.10336299  1
  H  H28  1  0.96608372  0.16543154  0.78433541  1
  H  H29  1  0.46608372  0.83456846  0.71566459  1
  H  H30  1  0.03391628  0.83456846  0.21566459  1
  H  H31  1  0.53391628  0.16543154  0.28433541  1
  H  H32  1  0.96765543  0.37221882  0.78499295  1
  H  H33  1  0.46765543  0.62778118  0.71500705  1
  H  H34  1  0.03234457  0.62778118  0.21500705  1
  H  H35  1  0.53234457  0.37221882  0.28499295  1
  H  H36  1  0.41485685  0.35470001  0.73458253  1
  H  H37  1  0.91485685  0.64529999  0.76541747  1
  H  H38  1  0.58514315  0.64529999  0.26541747  1
  H  H39  1  0.08514315  0.35470001  0.23458253  1
  H  H40  1  0.41012215  0.14872844  0.73429160  1
  H  H41  1  0.91012215  0.85127156  0.76570840  1
  H  H42  1  0.58987785  0.85127156  0.26570840  1
  H  H43  1  0.08987785  0.14872844  0.23429160  1
  N  N44  1  0.73892676  0.94156363  0.55816582  1
  N  N45  1  0.23892676  0.05843637  0.94183418  1
  N  N46  1  0.26107324  0.05843637  0.44183418  1
  N  N47  1  0.76107324  0.94156363  0.05816582  1
  N  N48  1  0.74475241  0.37255462  0.55362531  1
  N  N49  1  0.24475241  0.62744538  0.94637469  1
  N  N50  1  0.25524759  0.62744538  0.44637469  1
  N  N51  1  0.75524759  0.37255462  0.05362531  1
  N  N52  1  0.95910725  0.24502329  0.73453670  1
  N  N53  1  0.45910725  0.75497671  0.76546330  1
  N  N54  1  0.04089275  0.75497671  0.26546330  1
  N  N55  1  0.54089275  0.24502329  0.23453670  1
  N  N56  1  0.49791613  0.25667215  0.74849518  1
  N  N57  1  0.99791613  0.74332785  0.75150482  1
  N  N58  1  0.50208387  0.74332785  0.25150482  1
  N  N59  1  0.00208387  0.25667215  0.24849518  1
