# generated using pymatgen
data_K3Mg18Pb11
_symmetry_space_group_name_H-M   'P 1'
_cell_length_a   12.10316789
_cell_length_b   12.10287162
_cell_length_c   14.20950794
_cell_angle_alpha   90.00000000
_cell_angle_beta   90.00000000
_cell_angle_gamma   120.00173467
_symmetry_Int_Tables_number   1
_chemical_formula_structural   K3Mg18Pb11
_chemical_formula_sum   'K6 Mg36 Pb22'
_cell_volume   1802.55931035
_cell_formula_units_Z   2
loop_
 _symmetry_equiv_pos_site_id
 _symmetry_equiv_pos_as_xyz
  1  'x, y, z'
loop_
 _atom_site_type_symbol
 _atom_site_label
 _atom_site_symmetry_multiplicity
 _atom_site_fract_x
 _atom_site_fract_y
 _atom_site_fract_z
 _atom_site_occupancy
  K  K0  1  0.66659051  0.33329861  0.08253291  1
  K  K1  1  0.33340949  0.66670139  0.58253291  1
  K  K2  1  0.33340949  0.66670139  0.91746709  1
  K  K3  1  0.66659051  0.33329861  0.41746709  1
  K  K4  1  0.33342091  0.66671407  0.25000000  1
  K  K5  1  0.66657909  0.33328593  0.75000000  1
  Mg  Mg6  1  0.10511554  0.85614125  0.25000000  1
  Mg  Mg7  1  0.14386725  0.24897248  0.25000000  1
  Mg  Mg8  1  0.75102282  0.89487733  0.25000000  1
  Mg  Mg9  1  0.89488446  0.14385875  0.75000000  1
  Mg  Mg10  1  0.85613275  0.75102752  0.75000000  1
  Mg  Mg11  1  0.24897718  0.10512267  0.75000000  1
  Mg  Mg12  1  0.85017456  0.72992346  0.08337913  1
  Mg  Mg13  1  0.27008221  0.12026971  0.08337348  1
  Mg  Mg14  1  0.87973782  0.14981870  0.08337624  1
  Mg  Mg15  1  0.14982544  0.27007654  0.58337913  1
  Mg  Mg16  1  0.72991779  0.87973029  0.58337348  1
  Mg  Mg17  1  0.12026218  0.85018130  0.58337624  1
  Mg  Mg18  1  0.14982544  0.27007654  0.91662087  1
  Mg  Mg19  1  0.72991779  0.87973029  0.91662652  1
  Mg  Mg20  1  0.12026218  0.85018130  0.91662376  1
  Mg  Mg21  1  0.85017456  0.72992346  0.41662087  1
  Mg  Mg22  1  0.27008221  0.12026971  0.41662652  1
  Mg  Mg23  1  0.87973782  0.14981870  0.41662376  1
  Mg  Mg24  1  0.62653877  0.56865084  0.25000000  1
  Mg  Mg25  1  0.43135388  0.05790313  0.25000000  1
  Mg  Mg26  1  0.94210436  0.37346411  0.25000000  1
  Mg  Mg27  1  0.37346123  0.43134916  0.75000000  1
  Mg  Mg28  1  0.56864612  0.94209687  0.75000000  1
  Mg  Mg29  1  0.05789564  0.62653589  0.75000000  1
  Mg  Mg30  1  0.05511179  0.62286719  0.08396653  1
  Mg  Mg31  1  0.37714476  0.43224806  0.08396701  1
  Mg  Mg32  1  0.56775473  0.94488717  0.08396480  1
  Mg  Mg33  1  0.94488821  0.37713281  0.58396653  1
  Mg  Mg34  1  0.62285524  0.56775194  0.58396701  1
  Mg  Mg35  1  0.43224527  0.05511283  0.58396480  1
  Mg  Mg36  1  0.94488821  0.37713281  0.91603347  1
  Mg  Mg37  1  0.62285524  0.56775194  0.91603299  1
  Mg  Mg38  1  0.43224527  0.05511283  0.91603520  1
  Mg  Mg39  1  0.05511179  0.62286719  0.41603347  1
  Mg  Mg40  1  0.37714476  0.43224806  0.41603299  1
  Mg  Mg41  1  0.56775473  0.94488717  0.41603520  1
  Pb  Pb42  1  0.00000555  0.00000202  0.13382248  1
  Pb  Pb43  1  0.99999445  0.99999798  0.63382248  1
  Pb  Pb44  1  0.99999445  0.99999798  0.86617752  1
  Pb  Pb45  1  0.00000555  0.00000202  0.36617752  1
  Pb  Pb46  1  0.29627937  0.88429816  0.08484118  1
  Pb  Pb47  1  0.11572914  0.41199305  0.08482277  1
  Pb  Pb48  1  0.58804558  0.70374064  0.08483755  1
  Pb  Pb49  1  0.70372063  0.11570184  0.58484118  1
  Pb  Pb50  1  0.88427086  0.58800695  0.58482277  1
  Pb  Pb51  1  0.41195442  0.29625936  0.58483755  1
  Pb  Pb52  1  0.70372063  0.11570184  0.91515882  1
  Pb  Pb53  1  0.88427086  0.58800695  0.91517723  1
  Pb  Pb54  1  0.41195442  0.29625936  0.91516245  1
  Pb  Pb55  1  0.29627937  0.88429816  0.41515882  1
  Pb  Pb56  1  0.11572914  0.41199305  0.41517723  1
  Pb  Pb57  1  0.58804558  0.70374064  0.41516245  1
  Pb  Pb58  1  0.88296720  0.58203915  0.25000000  1
  Pb  Pb59  1  0.41795128  0.30093843  0.25000000  1
  Pb  Pb60  1  0.69905332  0.11701376  0.25000000  1
  Pb  Pb61  1  0.11703280  0.41796085  0.75000000  1
  Pb  Pb62  1  0.58204872  0.69906157  0.75000000  1
  Pb  Pb63  1  0.30094668  0.88298624  0.75000000  1
