# generated using pymatgen
data_UH4(BrO2)2
_symmetry_space_group_name_H-M   'P 1'
_cell_length_a   6.17412812
_cell_length_b   10.81519782
_cell_length_c   10.97123445
_cell_angle_alpha   90.00000000
_cell_angle_beta   90.00000000
_cell_angle_gamma   101.93782339
_symmetry_Int_Tables_number   1
_chemical_formula_structural   UH4(BrO2)2
_chemical_formula_sum   'U4 H16 Br8 O16'
_cell_volume   716.75363306
_cell_formula_units_Z   4
loop_
 _symmetry_equiv_pos_site_id
 _symmetry_equiv_pos_as_xyz
  1  'x, y, z'
loop_
 _atom_site_type_symbol
 _atom_site_label
 _atom_site_symmetry_multiplicity
 _atom_site_fract_x
 _atom_site_fract_y
 _atom_site_fract_z
 _atom_site_occupancy
  U  U0  1  0.91103444  0.39903957  0.69278165  1
  U  U1  1  0.08896556  0.10096043  0.19278165  1
  U  U2  1  0.08896556  0.60096043  0.30721835  1
  U  U3  1  0.91103444  0.89903957  0.80721835  1
  H  H4  1  0.63380276  0.25524704  0.90876922  1
  H  H5  1  0.36619724  0.24475296  0.40876922  1
  H  H6  1  0.36619724  0.74475296  0.09123078  1
  H  H7  1  0.63380276  0.75524704  0.59123078  1
  H  H8  1  0.86873378  0.30918932  0.96832048  1
  H  H9  1  0.13126622  0.19081068  0.46832048  1
  H  H10  1  0.13126622  0.69081068  0.03167952  1
  H  H11  1  0.86873378  0.80918932  0.53167952  1
  H  H12  1  0.49779615  0.17120537  0.67179532  1
  H  H13  1  0.50220385  0.32879463  0.17179532  1
  H  H14  1  0.50220385  0.82879463  0.32820468  1
  H  H15  1  0.49779615  0.67120537  0.82820468  1
  H  H16  1  0.40763812  0.29416526  0.70202152  1
  H  H17  1  0.59236188  0.20583474  0.20202152  1
  H  H18  1  0.59236188  0.70583474  0.29797848  1
  H  H19  1  0.40763812  0.79416526  0.79797848  1
  Br  Br20  1  0.25728650  0.46642041  0.86655869  1
  Br  Br21  1  0.74271350  0.03357959  0.36655869  1
  Br  Br22  1  0.74271350  0.53357959  0.13344131  1
  Br  Br23  1  0.25728650  0.96642041  0.63344131  1
  Br  Br24  1  0.74647478  0.41776660  0.43907335  1
  Br  Br25  1  0.25352522  0.08223340  0.93907335  1
  Br  Br26  1  0.25352522  0.58223340  0.56092665  1
  Br  Br27  1  0.74647478  0.91776660  0.06092665  1
  O  O28  1  0.77380207  0.52221636  0.73814126  1
  O  O29  1  0.22619793  0.97778364  0.23814126  1
  O  O30  1  0.22619793  0.47778364  0.26185874  1
  O  O31  1  0.77380207  0.02221636  0.76185874  1
  O  O32  1  0.03902377  0.27306601  0.63877610  1
  O  O33  1  0.96097623  0.22693399  0.13877610  1
  O  O34  1  0.96097623  0.72693399  0.36122390  1
  O  O35  1  0.03902377  0.77306601  0.86122390  1
  O  O36  1  0.78939525  0.29131516  0.89084249  1
  O  O37  1  0.21060475  0.20868484  0.39084249  1
  O  O38  1  0.21060475  0.70868484  0.10915751  1
  O  O39  1  0.78939525  0.79131516  0.60915751  1
  O  O40  1  0.54129624  0.26376681  0.68021455  1
  O  O41  1  0.45870376  0.23623319  0.18021455  1
  O  O42  1  0.45870376  0.73623319  0.31978545  1
  O  O43  1  0.54129624  0.76376681  0.81978545  1
