# generated using pymatgen
data_Zn3As2
_symmetry_space_group_name_H-M   'P 1'
_cell_length_a   11.93377091
_cell_length_b   11.93377091
_cell_length_c   14.65623266
_cell_angle_alpha   114.02421513
_cell_angle_beta   114.02421513
_cell_angle_gamma   90.00000000
_symmetry_Int_Tables_number   1
_chemical_formula_structural   Zn3As2
_chemical_formula_sum   'Zn48 As32'
_cell_volume   1706.58988710
_cell_formula_units_Z   16
loop_
 _symmetry_equiv_pos_site_id
 _symmetry_equiv_pos_as_xyz
  1  'x, y, z'
loop_
 _atom_site_type_symbol
 _atom_site_label
 _atom_site_symmetry_multiplicity
 _atom_site_fract_x
 _atom_site_fract_y
 _atom_site_fract_z
 _atom_site_occupancy
  Zn  Zn0  1  0.68648852  0.95956570  0.62223068  1
  Zn  Zn1  1  0.18648852  0.16266498  0.62223068  1
  Zn  Zn2  1  0.91266498  0.43648852  0.12223068  1
  Zn  Zn3  1  0.70956570  0.93648852  0.12223068  1
  Zn  Zn4  1  0.93574216  0.66266498  0.62223068  1
  Zn  Zn5  1  0.43574216  0.45956570  0.62223068  1
  Zn  Zn6  1  0.20956570  0.68574216  0.12223068  1
  Zn  Zn7  1  0.41266498  0.18574216  0.12223068  1
  Zn  Zn8  1  0.44233634  0.18712176  0.59962796  1
  Zn  Zn9  1  0.94233634  0.91250621  0.59962796  1
  Zn  Zn10  1  0.66250621  0.19233634  0.09962796  1
  Zn  Zn11  1  0.93712176  0.69233634  0.09962796  1
  Zn  Zn12  1  0.15729163  0.41250621  0.59962796  1
  Zn  Zn13  1  0.65729163  0.68712176  0.59962796  1
  Zn  Zn14  1  0.43712176  0.90729163  0.09962796  1
  Zn  Zn15  1  0.16250621  0.40729163  0.09962796  1
  Zn  Zn16  1  0.43059721  0.93153124  0.63314383  1
  Zn  Zn17  1  0.93059721  0.20161259  0.63314383  1
  Zn  Zn18  1  0.95161259  0.18059721  0.13314383  1
  Zn  Zn19  1  0.68153124  0.68059721  0.13314383  1
  Zn  Zn20  1  0.20254662  0.70161259  0.63314383  1
  Zn  Zn21  1  0.70254662  0.43153124  0.63314383  1
  Zn  Zn22  1  0.18153124  0.95254662  0.13314383  1
  Zn  Zn23  1  0.45161259  0.45254662  0.13314383  1
  Zn  Zn24  1  0.82083788  0.31709820  0.84964745  1
  Zn  Zn25  1  0.32083788  0.03254925  0.84964745  1
  Zn  Zn26  1  0.78254925  0.57083788  0.34964745  1
  Zn  Zn27  1  0.06709820  0.07083788  0.34964745  1
  Zn  Zn28  1  0.02880958  0.53254925  0.84964745  1
  Zn  Zn29  1  0.52880958  0.81709820  0.84964745  1
  Zn  Zn30  1  0.56709820  0.77880958  0.34964745  1
  Zn  Zn31  1  0.28254925  0.27880958  0.34964745  1
  Zn  Zn32  1  0.79099830  0.05482740  0.87078709  1
  Zn  Zn33  1  0.29099830  0.31595969  0.87078709  1
  Zn  Zn34  1  0.06595969  0.54099830  0.37078709  1
  Zn  Zn35  1  0.80482740  0.04099830  0.37078709  1
  Zn  Zn36  1  0.07978879  0.81595969  0.87078709  1
  Zn  Zn37  1  0.57978879  0.55482740  0.87078709  1
  Zn  Zn38  1  0.30482740  0.82978879  0.37078709  1
  Zn  Zn39  1  0.56595969  0.32978879  0.37078709  1
  Zn  Zn40  1  0.55848738  0.30639224  0.88293175  1
  Zn  Zn41  1  0.05848738  0.07653951  0.88293175  1
  Zn  Zn42  1  0.82653951  0.30848738  0.38293175  1
  Zn  Zn43  1  0.05639224  0.80848738  0.38293175  1
  Zn  Zn44  1  0.32444437  0.57653951  0.88293175  1
  Zn  Zn45  1  0.82444437  0.80639224  0.88293175  1
  Zn  Zn46  1  0.55639224  0.07444437  0.38293175  1
  Zn  Zn47  1  0.32653951  0.57444437  0.38293175  1
  As  As48  1  0.74795286  0.24795286  0.49590572  1
  As  As49  1  0.24795286  0.74795286  0.49590572  1
  As  As50  1  0.49795286  0.49795286  0.99590572  1
  As  As51  1  0.99795286  0.99795286  0.99590572  1
  As  As52  1  0.99817545  0.49817545  0.99635090  1
  As  As53  1  0.49817545  0.99817545  0.99635090  1
  As  As54  1  0.74817545  0.74817545  0.49635090  1
  As  As55  1  0.24817545  0.24817545  0.49635090  1
  As  As56  1  0.62016880  0.36647428  0.74109146  1
  As  As57  1  0.12016880  0.87461718  0.74109146  1
  As  As58  1  0.62461718  0.37016880  0.24109146  1
  As  As59  1  0.11647428  0.87016880  0.24109146  1
  As  As60  1  0.12092266  0.37461718  0.74109146  1
  As  As61  1  0.62092266  0.86647428  0.74109146  1
  As  As62  1  0.61647428  0.87092266  0.24109146  1
  As  As63  1  0.12461718  0.37092266  0.24109146  1
  As  As64  1  0.87923666  0.12121550  0.74750283  1
  As  As65  1  0.37923666  0.12628733  0.74750283  1
  As  As66  1  0.87628733  0.62923666  0.24750283  1
  As  As67  1  0.87121550  0.12923666  0.24750283  1
  As  As68  1  0.86826616  0.62628733  0.74750283  1
  As  As69  1  0.36826616  0.62121550  0.74750283  1
  As  As70  1  0.37121550  0.61826616  0.24750283  1
  As  As71  1  0.37628733  0.11826616  0.24750283  1
  As  As72  1  0.49638697  0.99171088  0.49220863  1
  As  As73  1  0.99638697  0.00049775  0.49220863  1
  As  As74  1  0.75049775  0.24638697  0.99220863  1
  As  As75  1  0.74171088  0.74638697  0.99220863  1
  As  As76  1  0.99582166  0.50049775  0.49220863  1
  As  As77  1  0.49582166  0.49171088  0.49220863  1
  As  As78  1  0.24171088  0.74582166  0.99220863  1
  As  As79  1  0.25049775  0.24582166  0.99220863  1
