# generated using pymatgen
data_Nd6Fe13Bi
_symmetry_space_group_name_H-M   'P 1'
_cell_length_a   8.07576567
_cell_length_b   8.07576567
_cell_length_c   13.05429309
_cell_angle_alpha   108.01792959
_cell_angle_beta   108.01792959
_cell_angle_gamma   90.00000000
_symmetry_Int_Tables_number   1
_chemical_formula_structural   Nd6Fe13Bi
_chemical_formula_sum   'Nd12 Fe26 Bi2'
_cell_volume   765.59800649
_cell_formula_units_Z   2
loop_
 _symmetry_equiv_pos_site_id
 _symmetry_equiv_pos_as_xyz
  1  'x, y, z'
loop_
 _atom_site_type_symbol
 _atom_site_label
 _atom_site_symmetry_multiplicity
 _atom_site_fract_x
 _atom_site_fract_y
 _atom_site_fract_z
 _atom_site_occupancy
  Nd  Nd0  1  0.60264240  0.60264240  0.20528480  1
  Nd  Nd1  1  0.10264240  0.10264240  0.20528480  1
  Nd  Nd2  1  0.39735760  0.39735760  0.79471520  1
  Nd  Nd3  1  0.89735760  0.89735760  0.79471520  1
  Nd  Nd4  1  0.97701679  0.47701679  0.63212546  1
  Nd  Nd5  1  0.65510867  0.15510867  0.63212546  1
  Nd  Nd6  1  0.15510867  0.97701679  0.63212546  1
  Nd  Nd7  1  0.47701679  0.65510867  0.63212546  1
  Nd  Nd8  1  0.02298321  0.52298321  0.36787454  1
  Nd  Nd9  1  0.34489133  0.84489133  0.36787454  1
  Nd  Nd10  1  0.84489133  0.02298321  0.36787454  1
  Nd  Nd11  1  0.52298321  0.34489133  0.36787454  1
  Fe  Fe12  1  0.00000000  0.50000000  -0.00000000  1
  Fe  Fe13  1  0.50000000  -0.00000000  -0.00000000  1
  Fe  Fe14  1  0.71075690  0.56682388  0.00000000  1
  Fe  Fe15  1  0.28924310  0.43317612  -0.00000000  1
  Fe  Fe16  1  0.78924310  0.06682388  0.00000000  1
  Fe  Fe17  1  0.21075690  0.93317612  1.00000000  1
  Fe  Fe18  1  0.56682388  0.28924310  0.00000000  1
  Fe  Fe19  1  0.43317612  0.71075690  1.00000000  1
  Fe  Fe20  1  0.06682388  0.21075690  0.00000000  1
  Fe  Fe21  1  0.93317612  0.78924310  -0.00000000  1
  Fe  Fe22  1  0.11995145  0.61995145  0.88332088  1
  Fe  Fe23  1  0.76336943  0.26336943  0.88332088  1
  Fe  Fe24  1  0.26336943  0.11995145  0.88332088  1
  Fe  Fe25  1  0.61995145  0.76336943  0.88332088  1
  Fe  Fe26  1  0.88004855  0.38004855  0.11667912  1
  Fe  Fe27  1  0.23663057  0.73663057  0.11667912  1
  Fe  Fe28  1  0.73663057  0.88004855  0.11667912  1
  Fe  Fe29  1  0.38004855  0.23663057  0.11667912  1
  Fe  Fe30  1  0.29283008  0.79283008  0.81298597  1
  Fe  Fe31  1  0.52015589  0.02015589  0.81298597  1
  Fe  Fe32  1  0.02015589  0.29283008  0.81298597  1
  Fe  Fe33  1  0.79283008  0.52015589  0.81298597  1
  Fe  Fe34  1  0.70716992  0.20716992  0.18701403  1
  Fe  Fe35  1  0.47984411  0.97984411  0.18701403  1
  Fe  Fe36  1  0.97984411  0.70716992  0.18701403  1
  Fe  Fe37  1  0.20716992  0.47984411  0.18701403  1
  Bi  Bi38  1  0.25000000  0.25000000  0.50000000  1
  Bi  Bi39  1  0.75000000  0.75000000  0.50000000  1
