# generated using pymatgen
data_TeAsHO5
_symmetry_space_group_name_H-M   'P 1'
_cell_length_a   4.79927187
_cell_length_b   6.39275840
_cell_length_c   14.39678595
_cell_angle_alpha   94.05239472
_cell_angle_beta   90.00000000
_cell_angle_gamma   90.00000000
_symmetry_Int_Tables_number   1
_chemical_formula_structural   TeAsHO5
_chemical_formula_sum   'Te4 As4 H4 O20'
_cell_volume   440.59749943
_cell_formula_units_Z   4
loop_
 _symmetry_equiv_pos_site_id
 _symmetry_equiv_pos_as_xyz
  1  'x, y, z'
loop_
 _atom_site_type_symbol
 _atom_site_label
 _atom_site_symmetry_multiplicity
 _atom_site_fract_x
 _atom_site_fract_y
 _atom_site_fract_z
 _atom_site_occupancy
  Te  Te0  1  0.14638418  0.85658229  0.17833231  1
  Te  Te1  1  0.64638418  0.14341771  0.32166769  1
  Te  Te2  1  0.85361582  0.14341771  0.82166769  1
  Te  Te3  1  0.35361582  0.85658229  0.67833231  1
  As  As4  1  0.34756137  0.65046717  0.38356915  1
  As  As5  1  0.84756137  0.34953283  0.11643085  1
  As  As6  1  0.65243863  0.34953283  0.61643085  1
  As  As7  1  0.15243863  0.65046717  0.88356915  1
  H  H8  1  0.91170902  0.74804688  0.44159286  1
  H  H9  1  0.41170902  0.25195312  0.05840714  1
  H  H10  1  0.08829098  0.25195312  0.55840714  1
  H  H11  1  0.58829098  0.74804688  0.94159286  1
  O  O12  1  0.43643458  0.39725577  0.40133575  1
  O  O13  1  0.93643458  0.60274423  0.09866425  1
  O  O14  1  0.56356542  0.60274423  0.59866425  1
  O  O15  1  0.06356542  0.39725577  0.90133575  1
  O  O16  1  0.18103714  0.64135712  0.27465858  1
  O  O17  1  0.68103714  0.35864288  0.22534142  1
  O  O18  1  0.81896286  0.35864288  0.72534142  1
  O  O19  1  0.31896286  0.64135712  0.77465858  1
  O  O20  1  0.77172697  0.93033186  0.21333620  1
  O  O21  1  0.27172697  0.06966814  0.28666380  1
  O  O22  1  0.22827303  0.06966814  0.78666380  1
  O  O23  1  0.72827303  0.93033186  0.71333620  1
  O  O24  1  0.62231040  0.82002845  0.39645298  1
  O  O25  1  0.12231040  0.17997155  0.10354702  1
  O  O26  1  0.37768960  0.17997155  0.60354702  1
  O  O27  1  0.87768960  0.82002845  0.89645298  1
  O  O28  1  0.10587241  0.73313983  0.46868659  1
  O  O29  1  0.60587241  0.26686017  0.03131341  1
  O  O30  1  0.89412759  0.26686017  0.53131341  1
  O  O31  1  0.39412759  0.73313983  0.96868659  1
