# generated using pymatgen
data_CsH4CN3
_symmetry_space_group_name_H-M   'P 1'
_cell_length_a   7.38886947
_cell_length_b   7.22357815
_cell_length_c   8.16326912
_cell_angle_alpha   90.00000000
_cell_angle_beta   90.00000000
_cell_angle_gamma   90.00000000
_symmetry_Int_Tables_number   1
_chemical_formula_structural   CsH4CN3
_chemical_formula_sum   'Cs4 H16 C4 N12'
_cell_volume   435.70694688
_cell_formula_units_Z   4
loop_
 _symmetry_equiv_pos_site_id
 _symmetry_equiv_pos_as_xyz
  1  'x, y, z'
loop_
 _atom_site_type_symbol
 _atom_site_label
 _atom_site_symmetry_multiplicity
 _atom_site_fract_x
 _atom_site_fract_y
 _atom_site_fract_z
 _atom_site_occupancy
  Cs  Cs0  1  0.50551750  0.25000000  0.90431483  1
  Cs  Cs1  1  0.00551750  0.25000000  0.59568517  1
  Cs  Cs2  1  0.49448250  0.75000000  0.09568517  1
  Cs  Cs3  1  0.99448250  0.75000000  0.40431483  1
  H  H4  1  0.94714787  0.37016861  0.95632502  1
  H  H5  1  0.44714787  0.12983139  0.54367498  1
  H  H6  1  0.05285213  0.87016861  0.04367498  1
  H  H7  1  0.55285213  0.62983139  0.45632502  1
  H  H8  1  0.05285213  0.62983139  0.04367498  1
  H  H9  1  0.55285213  0.87016861  0.45632502  1
  H  H10  1  0.94714787  0.12983139  0.95632502  1
  H  H11  1  0.44714787  0.37016861  0.54367498  1
  H  H12  1  0.72103746  0.59923710  0.73685008  1
  H  H13  1  0.22103746  0.90076290  0.76314992  1
  H  H14  1  0.27896254  0.09923710  0.26314992  1
  H  H15  1  0.77896254  0.40076290  0.23685008  1
  H  H16  1  0.27896254  0.40076290  0.26314992  1
  H  H17  1  0.77896254  0.09923710  0.23685008  1
  H  H18  1  0.72103746  0.90076290  0.73685008  1
  H  H19  1  0.22103746  0.59923710  0.76314992  1
  C  C20  1  0.86719868  0.75000000  0.88115110  1
  C  C21  1  0.36719868  0.75000000  0.61884890  1
  C  C22  1  0.13280132  0.25000000  0.11884890  1
  C  C23  1  0.63280132  0.25000000  0.38115110  1
  N  N24  1  0.01388121  0.25000000  0.98716929  1
  N  N25  1  0.51388121  0.25000000  0.51283071  1
  N  N26  1  0.98611879  0.75000000  0.01283071  1
  N  N27  1  0.48611879  0.75000000  0.48716929  1
  N  N28  1  0.81362932  0.58137578  0.82936888  1
  N  N29  1  0.31362932  0.91862422  0.67063112  1
  N  N30  1  0.18637068  0.08137578  0.17063112  1
  N  N31  1  0.68637068  0.41862422  0.32936888  1
  N  N32  1  0.18637068  0.41862422  0.17063112  1
  N  N33  1  0.68637068  0.08137578  0.32936888  1
  N  N34  1  0.81362932  0.91862422  0.82936888  1
  N  N35  1  0.31362932  0.58137578  0.67063112  1
