# generated using pymatgen
data_SrFeBP2(HO5)2
_symmetry_space_group_name_H-M   'P 1'
_cell_length_a   6.68054770
_cell_length_b   6.73991635
_cell_length_c   9.39288750
_cell_angle_alpha   109.84407415
_cell_angle_beta   101.88956476
_cell_angle_gamma   103.59674193
_symmetry_Int_Tables_number   1
_chemical_formula_structural   SrFeBP2(HO5)2
_chemical_formula_sum   'Sr2 Fe2 B2 P4 H4 O20'
_cell_volume   367.28265897
_cell_formula_units_Z   2
loop_
 _symmetry_equiv_pos_site_id
 _symmetry_equiv_pos_as_xyz
  1  'x, y, z'
loop_
 _atom_site_type_symbol
 _atom_site_label
 _atom_site_symmetry_multiplicity
 _atom_site_fract_x
 _atom_site_fract_y
 _atom_site_fract_z
 _atom_site_occupancy
  Sr  Sr0  1  0.65474132  0.88850923  0.26563135  1
  Sr  Sr1  1  0.34525868  0.11149077  0.73436865  1
  Fe  Fe2  1  -0.00000000  0.50000000  0.00000000  1
  Fe  Fe3  1  0.50000000  0.50000000  0.50000000  1
  B  B4  1  0.97104468  0.72550140  0.75340907  1
  B  B5  1  0.02895532  0.27449860  0.24659093  1
  P  P6  1  0.64286725  0.37493967  0.16714856  1
  P  P7  1  0.35713275  0.62506033  0.83285144  1
  P  P8  1  0.79182393  0.03530640  0.67621595  1
  P  P9  1  0.20817607  0.96469360  0.32378405  1
  H  H10  1  0.79456515  0.74834317  0.91698989  1
  H  H11  1  0.20543485  0.25165683  0.08301011  1
  H  H12  1  0.84368552  0.39273877  0.58866852  1
  H  H13  1  0.15631448  0.60726123  0.41133148  1
  O  O14  1  0.58103240  0.52201139  0.30770186  1
  O  O15  1  0.41896760  0.47798861  0.69229814  1
  O  O16  1  0.78175350  0.54035655  0.11419155  1
  O  O17  1  0.21824650  0.45964345  0.88580845  1
  O  O18  1  0.44041433  0.20485928  0.03674847  1
  O  O19  1  0.55958567  0.79514072  0.96325153  1
  O  O20  1  0.79914046  0.26080276  0.23521597  1
  O  O21  1  0.20085954  0.73919724  0.76478403  1
  O  O22  1  0.86894659  0.13121080  0.56411564  1
  O  O23  1  0.13105341  0.86878920  0.43588436  1
  O  O24  1  0.57200459  0.83907213  0.59078125  1
  O  O25  1  0.42799541  0.16092787  0.40921875  1
  O  O26  1  0.76285410  0.21737438  0.81662108  1
  O  O27  1  0.23714590  0.78262562  0.18337892  1
  O  O28  1  0.96639985  0.94189830  0.74758079  1
  O  O29  1  0.03360015  0.05810170  0.25241921  1
  O  O30  1  0.92389433  0.70713985  0.89582758  1
  O  O31  1  0.07610567  0.29286015  0.10417242  1
  O  O32  1  0.81926842  0.53920664  0.60450239  1
  O  O33  1  0.18073158  0.46079336  0.39549761  1
