# generated using pymatgen
data_CeH8(SO6)2
_symmetry_space_group_name_H-M   'P 1'
_cell_length_a   5.84536349
_cell_length_b   11.17078955
_cell_length_c   14.86036710
_cell_angle_alpha   90.00000000
_cell_angle_beta   90.00000000
_cell_angle_gamma   90.00000000
_symmetry_Int_Tables_number   1
_chemical_formula_structural   CeH8(SO6)2
_chemical_formula_sum   'Ce4 H32 S8 O48'
_cell_volume   970.34222594
_cell_formula_units_Z   4
loop_
 _symmetry_equiv_pos_site_id
 _symmetry_equiv_pos_as_xyz
  1  'x, y, z'
loop_
 _atom_site_type_symbol
 _atom_site_label
 _atom_site_symmetry_multiplicity
 _atom_site_fract_x
 _atom_site_fract_y
 _atom_site_fract_z
 _atom_site_occupancy
  Ce  Ce0  1  0.87475726  0.75000000  0.67227141  1
  Ce  Ce1  1  0.62524274  0.75000000  0.17227141  1
  Ce  Ce2  1  0.12524274  0.25000000  0.32772859  1
  Ce  Ce3  1  0.37475726  0.25000000  0.82772859  1
  H  H4  1  0.53822220  0.82001618  0.82271183  1
  H  H5  1  0.96177780  0.67998382  0.32271183  1
  H  H6  1  0.46177780  0.32001618  0.17728817  1
  H  H7  1  0.03822220  0.17998382  0.67728817  1
  H  H8  1  0.46177780  0.17998382  0.17728817  1
  H  H9  1  0.03822220  0.32001618  0.67728817  1
  H  H10  1  0.53822220  0.67998382  0.82271183  1
  H  H11  1  0.96177780  0.82001618  0.32271183  1
  H  H12  1  0.12431508  0.87503507  0.50979469  1
  H  H13  1  0.37568492  0.62496493  0.00979469  1
  H  H14  1  0.87568492  0.37503507  0.49020531  1
  H  H15  1  0.62431508  0.12496493  0.99020531  1
  H  H16  1  0.87568492  0.12496493  0.49020531  1
  H  H17  1  0.62431508  0.37503507  0.99020531  1
  H  H18  1  0.12431508  0.62496493  0.50979469  1
  H  H19  1  0.37568492  0.87503507  0.00979469  1
  H  H20  1  0.19641720  0.94554549  0.59723447  1
  H  H21  1  0.30358280  0.55445451  0.09723447  1
  H  H22  1  0.80358280  0.44554549  0.40276553  1
  H  H23  1  0.69641720  0.05445451  0.90276553  1
  H  H24  1  0.80358280  0.05445451  0.40276553  1
  H  H25  1  0.69641720  0.44554549  0.90276553  1
  H  H26  1  0.19641720  0.55445451  0.59723447  1
  H  H27  1  0.30358280  0.94554549  0.09723447  1
  H  H28  1  0.64487325  0.82103400  0.49040856  1
  H  H29  1  0.85512675  0.67896600  0.99040856  1
  H  H30  1  0.35512675  0.32103400  0.50959144  1
  H  H31  1  0.14487325  0.17896600  0.00959144  1
  H  H32  1  0.35512675  0.17896600  0.50959144  1
  H  H33  1  0.14487325  0.32103400  0.00959144  1
  H  H34  1  0.64487325  0.67896600  0.49040856  1
  H  H35  1  0.85512675  0.82103400  0.99040856  1
  S  S36  1  0.11835200  0.94486826  0.85083092  1
  S  S37  1  0.38164800  0.55513174  0.35083092  1
  S  S38  1  0.88164800  0.44486826  0.14916908  1
  S  S39  1  0.61835200  0.05513174  0.64916908  1
  S  S40  1  0.88164800  0.05513174  0.14916908  1
  S  S41  1  0.61835200  0.44486826  0.64916908  1
  S  S42  1  0.11835200  0.55513174  0.85083092  1
  S  S43  1  0.38164800  0.94486826  0.35083092  1
  O  O44  1  0.15254307  0.07529932  0.83012760  1
  O  O45  1  0.34745693  0.42470068  0.33012760  1
  O  O46  1  0.84745693  0.57529932  0.16987240  1
  O  O47  1  0.65254307  0.92470068  0.66987240  1
  O  O48  1  0.84745693  0.92470068  0.16987240  1
  O  O49  1  0.65254307  0.57529932  0.66987240  1
  O  O50  1  0.15254307  0.42470068  0.83012760  1
  O  O51  1  0.34745693  0.07529932  0.33012760  1
  O  O52  1  0.08156232  0.88227287  0.76218234  1
  O  O53  1  0.41843768  0.61772713  0.26218234  1
  O  O54  1  0.91843768  0.38227287  0.23781766  1
  O  O55  1  0.58156232  0.11772713  0.73781766  1
  O  O56  1  0.91843768  0.11772713  0.23781766  1
  O  O57  1  0.58156232  0.38227287  0.73781766  1
  O  O58  1  0.08156232  0.61772713  0.76218234  1
  O  O59  1  0.41843768  0.88227287  0.26218234  1
  O  O60  1  0.91282991  0.93314765  0.90786632  1
  O  O61  1  0.58717009  0.56685235  0.40786632  1
  O  O62  1  0.08717009  0.43314765  0.09213368  1
  O  O63  1  0.41282991  0.06685235  0.59213368  1
  O  O64  1  0.08717009  0.06685235  0.09213368  1
  O  O65  1  0.41282991  0.43314765  0.59213368  1
  O  O66  1  0.91282991  0.56685235  0.90786632  1
  O  O67  1  0.58717009  0.93314765  0.40786632  1
  O  O68  1  0.32446534  0.89400125  0.89331464  1
  O  O69  1  0.17553466  0.60599875  0.39331464  1
  O  O70  1  0.67553466  0.39400125  0.10668536  1
  O  O71  1  0.82446534  0.10599875  0.60668536  1
  O  O72  1  0.67553466  0.10599875  0.10668536  1
  O  O73  1  0.82446534  0.39400125  0.60668536  1
  O  O74  1  0.32446534  0.60599875  0.89331464  1
  O  O75  1  0.17553466  0.89400125  0.39331464  1
  O  O76  1  0.62368270  0.75000000  0.79948111  1
  O  O77  1  0.87631730  0.75000000  0.29948111  1
  O  O78  1  0.37631730  0.25000000  0.20051889  1
  O  O79  1  0.12368270  0.25000000  0.70051889  1
  O  O80  1  0.10338871  0.87723296  0.57610059  1
  O  O81  1  0.39661129  0.62276704  0.07610059  1
  O  O82  1  0.89661129  0.37723296  0.42389941  1
  O  O83  1  0.60338871  0.12276704  0.92389941  1
  O  O84  1  0.89661129  0.12276704  0.42389941  1
  O  O85  1  0.60338871  0.37723296  0.92389941  1
  O  O86  1  0.10338871  0.62276704  0.57610059  1
  O  O87  1  0.39661129  0.87723296  0.07610059  1
  O  O88  1  0.68549934  0.75000000  0.52724953  1
  O  O89  1  0.81450066  0.75000000  0.02724953  1
  O  O90  1  0.31450066  0.25000000  0.47275047  1
  O  O91  1  0.18549934  0.25000000  0.97275047  1
