# generated using pymatgen
data_Rb11Mn8O16
_symmetry_space_group_name_H-M   'P 1'
_cell_length_a   11.92446158
_cell_length_b   11.92446158
_cell_length_c   23.62950843
_cell_angle_alpha   97.89230509
_cell_angle_beta   97.89230509
_cell_angle_gamma   117.11687643
_symmetry_Int_Tables_number   1
_chemical_formula_structural   Rb11Mn8O16
_chemical_formula_sum   'Rb44 Mn32 O64'
_cell_volume   2885.14087764
_cell_formula_units_Z   4
loop_
 _symmetry_equiv_pos_site_id
 _symmetry_equiv_pos_as_xyz
  1  'x, y, z'
loop_
 _atom_site_type_symbol
 _atom_site_label
 _atom_site_symmetry_multiplicity
 _atom_site_fract_x
 _atom_site_fract_y
 _atom_site_fract_z
 _atom_site_occupancy
  Rb  Rb0  1  0.32299617  0.67700383  0.00000000  1
  Rb  Rb1  1  0.67700383  0.32299617  0.00000000  1
  Rb  Rb2  1  0.90831867  0.09168133  0.50000000  1
  Rb  Rb3  1  0.59168133  0.40831867  0.50000000  1
  Rb  Rb4  1  0.60270879  0.92691923  0.54316753  1
  Rb  Rb5  1  0.94045874  0.61624830  0.54316753  1
  Rb  Rb6  1  0.38375170  0.05954126  0.45683247  1
  Rb  Rb7  1  0.07308077  0.39729121  0.45683247  1
  Rb  Rb8  1  0.40371568  0.22435767  0.13882727  1
  Rb  Rb9  1  0.73511160  0.91446960  0.13882727  1
  Rb  Rb10  1  0.08553040  0.26488840  0.86117273  1
  Rb  Rb11  1  0.77564233  0.59628432  0.86117273  1
  Rb  Rb12  1  0.95593333  0.78422429  0.22695539  1
  Rb  Rb13  1  0.27102206  0.44273111  0.22695539  1
  Rb  Rb14  1  0.55726889  0.72897794  0.77304461  1
  Rb  Rb15  1  0.21577571  0.04406667  0.77304461  1
  Rb  Rb16  1  0.88404357  0.21377642  0.08888745  1
  Rb  Rb17  1  0.20484388  0.87511103  0.08888745  1
  Rb  Rb18  1  0.12488897  0.79515612  0.91111255  1
  Rb  Rb19  1  0.78622358  0.11595643  0.91111255  1
  Rb  Rb20  1  0.03136925  0.86422511  0.40413593  1
  Rb  Rb21  1  0.37276668  0.53991082  0.40413593  1
  Rb  Rb22  1  0.46008918  0.62723332  0.59586407  1
  Rb  Rb23  1  0.13577489  0.96863075  0.59586407  1
  Rb  Rb24  1  0.96894945  0.30552503  0.28110380  1
  Rb  Rb25  1  0.31215435  0.97557877  0.28110380  1
  Rb  Rb26  1  0.02442123  0.68784565  0.71889620  1
  Rb  Rb27  1  0.69447497  0.03105055  0.71889620  1
  Rb  Rb28  1  0.50509708  0.85389969  0.35411499  1
  Rb  Rb29  1  0.84901791  0.50021530  0.35411499  1
  Rb  Rb30  1  0.49978470  0.15098209  0.64588501  1
  Rb  Rb31  1  0.14610031  0.49490292  0.64588501  1
  Rb  Rb32  1  0.84306374  0.68623962  0.03573021  1
  Rb  Rb33  1  0.19266648  0.34949059  0.03573021  1
  Rb  Rb34  1  0.65050941  0.80733352  0.96426979  1
  Rb  Rb35  1  0.31376038  0.15693626  0.96426979  1
  Rb  Rb36  1  0.42905964  0.74624383  0.18008580  1
  Rb  Rb37  1  0.75102617  0.43384198  0.18008580  1
  Rb  Rb38  1  0.56615802  0.24897383  0.81991420  1
  Rb  Rb39  1  0.25375617  0.57094036  0.81991420  1
  Rb  Rb40  1  0.83586635  0.98372568  0.32368169  1
  Rb  Rb41  1  0.48781533  0.33995601  0.32368169  1
  Rb  Rb42  1  0.66004399  0.51218467  0.67631831  1
  Rb  Rb43  1  0.01627432  0.16413365  0.67631831  1
  Mn  Mn44  1  0.00000000  0.00000000  0.00000000  1
  Mn  Mn45  1  0.50000000  0.50000000  0.00000000  1
  Mn  Mn46  1  0.18818220  0.18818220  0.37636440  1
  Mn  Mn47  1  0.81181780  0.81181780  0.62363560  1
  Mn  Mn48  1  0.62476186  0.62476186  0.24952373  1
  Mn  Mn49  1  0.37523814  0.37523814  0.75047627  1
  Mn  Mn50  1  0.06333834  0.06333834  0.12667667  1
  Mn  Mn51  1  0.93666166  0.93666166  0.87332333  1
  Mn  Mn52  1  0.25102630  0.25102630  0.50205260  1
  Mn  Mn53  1  0.74897370  0.74897370  0.49794740  1
  Mn  Mn54  1  0.12492692  0.12492692  0.24985383  1
  Mn  Mn55  1  0.87507308  0.87507308  0.75014617  1
  Mn  Mn56  1  0.56177356  0.56177356  0.12354712  1
  Mn  Mn57  1  0.43822644  0.43822644  0.87645288  1
  Mn  Mn58  1  0.31281326  0.31281326  0.62562652  1
  Mn  Mn59  1  0.68718674  0.68718674  0.37437348  1
  Mn  Mn60  1  0.90517350  0.40517350  0.81034699  1
  Mn  Mn61  1  0.59482650  0.09482650  0.18965301  1
  Mn  Mn62  1  0.09308330  0.59308330  0.18616661  1
  Mn  Mn63  1  0.40691670  0.90691670  0.81383339  1
  Mn  Mn64  1  0.15611540  0.65611540  0.31223080  1
  Mn  Mn65  1  0.34388460  0.84388460  0.68776920  1
  Mn  Mn66  1  0.96832299  0.46832299  0.93664599  1
  Mn  Mn67  1  0.53167701  0.03167701  0.06335401  1
  Mn  Mn68  1  0.21943876  0.71943876  0.43887753  1
  Mn  Mn69  1  0.28056124  0.78056124  0.56112247  1
  Mn  Mn70  1  0.78157295  0.28157295  0.56314591  1
  Mn  Mn71  1  0.71842705  0.21842705  0.43685409  1
  Mn  Mn72  1  0.03112988  0.53112988  0.06225976  1
  Mn  Mn73  1  0.46887012  0.96887012  0.93774024  1
  Mn  Mn74  1  0.84345480  0.34345480  0.68690959  1
  Mn  Mn75  1  0.65654520  0.15654520  0.31309041  1
  O  O76  1  0.32437728  0.67562272  0.50000000  1
  O  O77  1  0.17562272  0.82437728  0.50000000  1
  O  O78  1  0.64535883  0.14535883  0.50000000  1
  O  O79  1  0.85464117  0.35464117  0.50000000  1
  O  O80  1  0.49377255  0.48399118  0.18656002  1
  O  O81  1  0.69278746  0.70256884  0.18656002  1
  O  O82  1  0.29743116  0.30721254  0.81343998  1
  O  O83  1  0.51600882  0.50622745  0.81343998  1
  O  O84  1  0.37167455  0.94536031  0.00551879  1
  O  O85  1  0.63384424  0.06015849  0.00551879  1
  O  O86  1  0.93984151  0.36615576  0.99448121  1
  O  O87  1  0.05463969  0.62832545  0.99448121  1
  O  O88  1  0.09147282  0.02885688  0.31851792  1
  O  O89  1  0.22704510  0.28966103  0.31851792  1
  O  O90  1  0.71033897  0.77295490  0.68148208  1
  O  O91  1  0.97114312  0.90852718  0.68148208  1
  O  O92  1  0.65664646  0.17678196  0.12608011  1
  O  O93  1  0.46943365  0.94929816  0.12608011  1
  O  O94  1  0.05070184  0.53056635  0.87391989  1
  O  O95  1  0.82321804  0.34335354  0.87391989  1
  O  O96  1  0.52235918  0.60421528  0.30725665  1
  O  O97  1  0.78489747  0.70304137  0.30725665  1
  O  O98  1  0.29695863  0.21510253  0.69274335  1
  O  O99  1  0.39578472  0.47764082  0.69274335  1
  O  O100  1  0.81947574  0.22510516  0.37943690  1
  O  O101  1  0.55996117  0.15433174  0.37943690  1
  O  O102  1  0.84566826  0.44003883  0.62056310  1
  O  O103  1  0.77489484  0.18052426  0.62056310  1
  O  O104  1  0.11131424  0.55511724  0.36921445  1
  O  O105  1  0.25790021  0.81409721  0.36921445  1
  O  O106  1  0.18590279  0.74209979  0.63078555  1
  O  O107  1  0.44488276  0.88868576  0.63078555  1
  O  O108  1  0.90377398  0.95092129  0.05958323  1
  O  O109  1  0.15580925  0.10866194  0.05958323  1
  O  O110  1  0.89133806  0.84419075  0.94041677  1
  O  O111  1  0.04907871  0.09622602  0.94041677  1
  O  O112  1  0.33700585  0.30708961  0.43892834  1
  O  O113  1  0.10192249  0.13183873  0.43892834  1
  O  O114  1  0.86816127  0.89807751  0.56107166  1
  O  O115  1  0.69291039  0.66299415  0.56107166  1
  O  O116  1  0.55461311  0.65979028  0.06595719  1
  O  O117  1  0.51134408  0.40616691  0.06595719  1
  O  O118  1  0.59383309  0.48865592  0.93404281  1
  O  O119  1  0.34020972  0.44538689  0.93404281  1
  O  O120  1  0.00385793  0.54299404  0.24917473  1
  O  O121  1  0.24531680  0.70618069  0.24917473  1
  O  O122  1  0.29381931  0.75468320  0.75082527  1
  O  O123  1  0.45700596  0.99614207  0.75082527  1
  O  O124  1  0.62967327  0.24454636  0.24689331  1
  O  O125  1  0.61722004  0.00234695  0.24689331  1
  O  O126  1  0.99765305  0.38277996  0.75310669  1
  O  O127  1  0.75545364  0.37032673  0.75310669  1
  O  O128  1  0.00303591  0.14617288  0.18629431  1
  O  O129  1  0.18325840  0.04012143  0.18629431  1
  O  O130  1  0.95987857  0.81674160  0.81370569  1
  O  O131  1  0.85382712  0.99696409  0.81370569  1
  O  O132  1  0.96304790  0.59495455  0.12855230  1
  O  O133  1  0.16550440  0.53359775  0.12855230  1
  O  O134  1  0.46640225  0.83449560  0.87144770  1
  O  O135  1  0.40504545  0.03695210  0.87144770  1
  O  O136  1  0.39234748  0.26781077  0.55956777  1
  O  O137  1  0.16722029  0.29175700  0.55956777  1
  O  O138  1  0.70824300  0.83277971  0.44043223  1
  O  O139  1  0.73218923  0.60765252  0.44043223  1
