# generated using pymatgen
data_Tm15C19
_symmetry_space_group_name_H-M   'P 1'
_cell_length_a   8.01453541
_cell_length_b   8.01453541
_cell_length_c   15.26521173
_cell_angle_alpha   90.00000000
_cell_angle_beta   90.00000000
_cell_angle_gamma   90.00000000
_symmetry_Int_Tables_number   1
_chemical_formula_structural   Tm15C19
_chemical_formula_sum   'Tm30 C38'
_cell_volume   980.52695371
_cell_formula_units_Z   2
loop_
 _symmetry_equiv_pos_site_id
 _symmetry_equiv_pos_as_xyz
  1  'x, y, z'
loop_
 _atom_site_type_symbol
 _atom_site_label
 _atom_site_symmetry_multiplicity
 _atom_site_fract_x
 _atom_site_fract_y
 _atom_site_fract_z
 _atom_site_occupancy
  Tm  Tm0  1  0.70249072  0.90696718  0.49972082  1
  Tm  Tm1  1  0.20249072  0.59303282  0.00027918  1
  Tm  Tm2  1  0.29750928  0.09303282  0.49972082  1
  Tm  Tm3  1  0.79750928  0.40696718  0.00027918  1
  Tm  Tm4  1  0.90696718  0.29750928  0.50027918  1
  Tm  Tm5  1  0.59303282  0.79750928  0.99972082  1
  Tm  Tm6  1  0.09303282  0.70249072  0.50027918  1
  Tm  Tm7  1  0.40696718  0.20249072  0.99972082  1
  Tm  Tm8  1  0.78421057  0.59850126  0.64951126  1
  Tm  Tm9  1  0.28421057  0.90149874  0.85048874  1
  Tm  Tm10  1  0.21578943  0.40149874  0.64951126  1
  Tm  Tm11  1  0.71578943  0.09850126  0.85048874  1
  Tm  Tm12  1  0.59850126  0.21578943  0.35048874  1
  Tm  Tm13  1  0.90149874  0.71578943  0.14951126  1
  Tm  Tm14  1  0.40149874  0.78421057  0.35048874  1
  Tm  Tm15  1  0.09850126  0.28421057  0.14951126  1
  Tm  Tm16  1  0.59769514  0.21542596  0.64941250  1
  Tm  Tm17  1  0.09769514  0.28457404  0.85058750  1
  Tm  Tm18  1  0.40230486  0.78457404  0.64941250  1
  Tm  Tm19  1  0.90230486  0.71542596  0.85058750  1
  Tm  Tm20  1  0.21542596  0.40230486  0.35058750  1
  Tm  Tm21  1  0.28457404  0.90230486  0.14941250  1
  Tm  Tm22  1  0.78457404  0.59769514  0.35058750  1
  Tm  Tm23  1  0.71542596  0.09769514  0.14941250  1
  Tm  Tm24  1  -0.00000000  0.00000000  0.33124782  1
  Tm  Tm25  1  0.50000000  0.50000000  0.16875218  1
  Tm  Tm26  1  -0.00000000  -0.00000000  0.66875218  1
  Tm  Tm27  1  0.50000000  0.50000000  0.83124782  1
  Tm  Tm28  1  0.50000000  0.50000000  0.50000000  1
  Tm  Tm29  1  -0.00000000  -0.00000000  -0.00000000  1
  C  C30  1  0.60168136  0.19727245  0.49979865  1
  C  C31  1  0.10168136  0.30272755  0.00020135  1
  C  C32  1  0.39831864  0.80272755  0.49979865  1
  C  C33  1  0.89831864  0.69727245  0.00020135  1
  C  C34  1  0.19727245  0.39831864  0.50020135  1
  C  C35  1  0.30272755  0.89831864  0.99979865  1
  C  C36  1  0.80272755  0.60168136  0.50020135  1
  C  C37  1  0.69727245  0.10168136  0.99979865  1
  C  C38  1  0.69791728  0.90557971  0.66845166  1
  C  C39  1  0.19791728  0.59442029  0.83154834  1
  C  C40  1  0.30208272  0.09442029  0.66845166  1
  C  C41  1  0.80208272  0.40557971  0.83154834  1
  C  C42  1  0.90557971  0.30208272  0.33154834  1
  C  C43  1  0.59442029  0.80208272  0.16845166  1
  C  C44  1  0.09442029  0.69791728  0.33154834  1
  C  C45  1  0.40557971  0.19791728  0.16845166  1
  C  C46  1  0.65286041  0.85072705  0.74819805  1
  C  C47  1  0.15286041  0.64927295  0.75180195  1
  C  C48  1  0.34713959  0.14927295  0.74819805  1
  C  C49  1  0.84713959  0.35072705  0.75180195  1
  C  C50  1  0.85072705  0.34713959  0.25180195  1
  C  C51  1  0.64927295  0.84713959  0.24819805  1
  C  C52  1  0.14927295  0.65286041  0.25180195  1
  C  C53  1  0.35072705  0.15286041  0.24819805  1
  C  C54  1  0.90437693  0.30337681  0.67280685  1
  C  C55  1  0.40437693  0.19662319  0.82719315  1
  C  C56  1  0.09562307  0.69662319  0.67280685  1
  C  C57  1  0.59562307  0.80337681  0.82719315  1
  C  C58  1  0.30337681  0.09562307  0.32719315  1
  C  C59  1  0.19662319  0.59562307  0.17280685  1
  C  C60  1  0.69662319  0.90437693  0.32719315  1
  C  C61  1  0.80337681  0.40437693  0.17280685  1
  C  C62  1  0.50000000  0.50000000  0.66313910  1
  C  C63  1  -0.00000000  -0.00000000  0.83686090  1
  C  C64  1  0.50000000  0.50000000  0.33686090  1
  C  C65  1  -0.00000000  0.00000000  0.16313910  1
  C  C66  1  0.50000000  0.50000000  -0.00000000  1
  C  C67  1  -0.00000000  0.00000000  0.50000000  1
