# generated using pymatgen
data_B10H13
_symmetry_space_group_name_H-M   'P 1'
_cell_length_a   12.14915682
_cell_length_b   14.83434546
_cell_length_c   21.43132621
_cell_angle_alpha   90.00000000
_cell_angle_beta   90.00000000
_cell_angle_gamma   90.00000000
_symmetry_Int_Tables_number   1
_chemical_formula_structural   B10H13
_chemical_formula_sum   'B160 H208'
_cell_volume   3862.45625095
_cell_formula_units_Z   16
loop_
 _symmetry_equiv_pos_site_id
 _symmetry_equiv_pos_as_xyz
  1  'x, y, z'
loop_
 _atom_site_type_symbol
 _atom_site_label
 _atom_site_symmetry_multiplicity
 _atom_site_fract_x
 _atom_site_fract_y
 _atom_site_fract_z
 _atom_site_occupancy
  B  B0  1  0.78042516  0.07411169  0.14379782  1
  B  B1  1  0.28042516  0.42588831  0.85620218  1
  B  B2  1  0.21957484  0.57411169  0.35620218  1
  B  B3  1  0.71957484  0.92588831  0.64379782  1
  B  B4  1  0.21957484  0.92588831  0.85620218  1
  B  B5  1  0.71957484  0.57411169  0.14379782  1
  B  B6  1  0.78042516  0.42588831  0.64379782  1
  B  B7  1  0.28042516  0.07411169  0.35620218  1
  B  B8  1  0.78228247  0.95388994  0.15492456  1
  B  B9  1  0.28228247  0.54611006  0.84507544  1
  B  B10  1  0.21771753  0.45388994  0.34507544  1
  B  B11  1  0.71771753  0.04611006  0.65492456  1
  B  B12  1  0.21771753  0.04611006  0.84507544  1
  B  B13  1  0.71771753  0.45388994  0.15492456  1
  B  B14  1  0.78228247  0.54611006  0.65492456  1
  B  B15  1  0.28228247  0.95388994  0.34507544  1
  B  B16  1  0.69333205  0.02143765  0.20105081  1
  B  B17  1  0.19333205  0.47856235  0.79894919  1
  B  B18  1  0.30666795  0.52143765  0.29894919  1
  B  B19  1  0.80666795  0.97856235  0.70105081  1
  B  B20  1  0.30666795  0.97856235  0.79894919  1
  B  B21  1  0.80666795  0.52143765  0.20105081  1
  B  B22  1  0.69333205  0.47856235  0.70105081  1
  B  B23  1  0.19333205  0.02143765  0.29894919  1
  B  B24  1  0.74119403  0.13273711  0.21334383  1
  B  B25  1  0.24119403  0.36726289  0.78665617  1
  B  B26  1  0.25880597  0.63273711  0.28665617  1
  B  B27  1  0.75880597  0.86726289  0.71334383  1
  B  B28  1  0.25880597  0.86726289  0.78665617  1
  B  B29  1  0.75880597  0.63273711  0.21334383  1
  B  B30  1  0.74119403  0.36726289  0.71334383  1
  B  B31  1  0.24119403  0.13273711  0.28665617  1
  B  B32  1  0.90783950  0.01616923  0.14899409  1
  B  B33  1  0.40783950  0.48383077  0.85100591  1
  B  B34  1  0.09216050  0.51616923  0.35100591  1
  B  B35  1  0.59216050  0.98383077  0.64899409  1
  B  B36  1  0.09216050  0.98383077  0.85100591  1
  B  B37  1  0.59216050  0.51616923  0.14899409  1
  B  B38  1  0.90783950  0.48383077  0.64899409  1
  B  B39  1  0.40783950  0.01616923  0.35100591  1
  B  B40  1  0.89478528  0.92023746  0.19859519  1
  B  B41  1  0.39478528  0.57976254  0.80140481  1
  B  B42  1  0.10521472  0.42023746  0.30140481  1
  B  B43  1  0.60521472  0.07976254  0.69859519  1
  B  B44  1  0.10521472  0.07976254  0.80140481  1
  B  B45  1  0.60521472  0.42023746  0.19859519  1
  B  B46  1  0.89478528  0.57976254  0.69859519  1
  B  B47  1  0.39478528  0.92023746  0.30140481  1
  B  B48  1  0.76621843  0.93408762  0.23690938  1
  B  B49  1  0.26621843  0.56591238  0.76309062  1
  B  B50  1  0.23378157  0.43408762  0.26309062  1
  B  B51  1  0.73378157  0.06591238  0.73690938  1
  B  B52  1  0.23378157  0.06591238  0.76309062  1
  B  B53  1  0.73378157  0.43408762  0.23690938  1
  B  B54  1  0.76621843  0.56591238  0.73690938  1
  B  B55  1  0.26621843  0.93408762  0.26309062  1
  B  B56  1  0.74062225  0.05204985  0.27513967  1
  B  B57  1  0.24062225  0.44795015  0.72486033  1
  B  B58  1  0.25937775  0.55204985  0.22486033  1
  B  B59  1  0.75937775  0.94795015  0.77513967  1
  B  B60  1  0.25937775  0.94795015  0.72486033  1
  B  B61  1  0.75937775  0.55204985  0.27513967  1
  B  B62  1  0.74062225  0.44795015  0.77513967  1
  B  B63  1  0.24062225  0.05204985  0.22486033  1
  B  B64  1  0.84648440  0.13391915  0.26727707  1
  B  B65  1  0.34648440  0.36608085  0.73272293  1
  B  B66  1  0.15351560  0.63391915  0.23272293  1
  B  B67  1  0.65351560  0.86608085  0.76727707  1
  B  B68  1  0.15351560  0.86608085  0.73272293  1
  B  B69  1  0.65351560  0.63391915  0.26727707  1
  B  B70  1  0.84648440  0.36608085  0.76727707  1
  B  B71  1  0.34648440  0.13391915  0.23272293  1
  B  B72  1  0.88041143  0.13438605  0.18656108  1
  B  B73  1  0.38041143  0.36561395  0.81343892  1
  B  B74  1  0.11958857  0.63438605  0.31343892  1
  B  B75  1  0.61958857  0.86561395  0.68656108  1
  B  B76  1  0.11958857  0.86561395  0.81343892  1
  B  B77  1  0.61958857  0.63438605  0.18656108  1
  B  B78  1  0.88041143  0.36561395  0.68656108  1
  B  B79  1  0.38041143  0.13438605  0.31343892  1
  B  B80  1  0.68492241  0.10483283  0.94034345  1
  B  B81  1  0.18492241  0.39516717  0.05965655  1
  B  B82  1  0.31507759  0.60483283  0.55965655  1
  B  B83  1  0.81507759  0.89516717  0.44034345  1
  B  B84  1  0.31507759  0.89516717  0.05965655  1
  B  B85  1  0.81507759  0.60483283  0.94034345  1
  B  B86  1  0.68492241  0.39516717  0.44034345  1
  B  B87  1  0.18492241  0.10483283  0.55965655  1
  B  B88  1  0.64507117  0.08007188  0.01834621  1
  B  B89  1  0.14507117  0.41992812  0.98165379  1
  B  B90  1  0.35492883  0.58007188  0.48165379  1
  B  B91  1  0.85492883  0.91992812  0.51834621  1
  B  B92  1  0.35492883  0.91992812  0.98165379  1
  B  B93  1  0.85492883  0.58007188  0.01834621  1
  B  B94  1  0.64507117  0.41992812  0.51834621  1
  B  B95  1  0.14507117  0.08007188  0.48165379  1
  B  B96  1  0.58092405  0.16984048  0.97721111  1
  B  B97  1  0.08092405  0.33015952  0.02278889  1
  B  B98  1  0.41907595  0.66984048  0.52278889  1
  B  B99  1  0.91907595  0.83015952  0.47721111  1
  B  B100  1  0.41907595  0.83015952  0.02278889  1
  B  B101  1  0.91907595  0.66984048  0.97721111  1
  B  B102  1  0.58092405  0.33015952  0.47721111  1
  B  B103  1  0.08092405  0.16984048  0.52278889  1
  B  B104  1  0.66313722  0.21839359  0.91755859  1
  B  B105  1  0.16313722  0.28160641  0.08244141  1
  B  B106  1  0.33686278  0.71839359  0.58244141  1
  B  B107  1  0.83686278  0.78160641  0.41755859  1
  B  B108  1  0.33686278  0.78160641  0.08244141  1
  B  B109  1  0.83686278  0.71839359  0.91755859  1
  B  B110  1  0.66313722  0.28160641  0.41755859  1
  B  B111  1  0.16313722  0.21839359  0.58244141  1
  B  B112  1  0.78686348  0.08391791  0.99621529  1
  B  B113  1  0.28686348  0.41608209  0.00378471  1
  B  B114  1  0.21313652  0.58391791  0.50378471  1
  B  B115  1  0.71313652  0.91608209  0.49621529  1
  B  B116  1  0.21313652  0.91608209  0.00378471  1
  B  B117  1  0.71313652  0.58391791  0.99621529  1
  B  B118  1  0.78686348  0.41608209  0.49621529  1
  B  B119  1  0.28686348  0.08391791  0.50378471  1
  B  B120  1  0.74114999  0.11827364  0.07256561  1
  B  B121  1  0.24114999  0.38172636  0.92743439  1
  B  B122  1  0.25885001  0.61827364  0.42743439  1
  B  B123  1  0.75885001  0.88172636  0.57256561  1
  B  B124  1  0.25885001  0.88172636  0.92743439  1
  B  B125  1  0.75885001  0.61827364  0.07256561  1
  B  B126  1  0.74114999  0.38172636  0.57256561  1
  B  B127  1  0.24114999  0.11827364  0.42743439  1
  B  B128  1  0.62184891  0.18694530  0.05466814  1
  B  B129  1  0.12184891  0.31305470  0.94533186  1
  B  B130  1  0.37815109  0.68694530  0.44533186  1
  B  B131  1  0.87815109  0.81305470  0.55466814  1
  B  B132  1  0.37815109  0.81305470  0.94533186  1
  B  B133  1  0.87815109  0.68694530  0.05466814  1
  B  B134  1  0.62184891  0.31305470  0.55466814  1
  B  B135  1  0.12184891  0.18694530  0.44533186  1
  B  B136  1  0.63225280  0.27881351  0.98753247  1
  B  B137  1  0.13225280  0.22118649  0.01246753  1
  B  B138  1  0.36774720  0.77881351  0.51246753  1
  B  B139  1  0.86774720  0.72118649  0.48753247  1
  B  B140  1  0.36774720  0.72118649  0.01246753  1
  B  B141  1  0.86774720  0.77881351  0.98753247  1
  B  B142  1  0.63225280  0.22118649  0.48753247  1
  B  B143  1  0.13225280  0.27881351  0.51246753  1
  B  B144  1  0.76148700  0.28830918  0.94927257  1
  B  B145  1  0.26148700  0.21169082  0.05072743  1
  B  B146  1  0.23851300  0.78830918  0.55072743  1
  B  B147  1  0.73851300  0.71169082  0.44927257  1
  B  B148  1  0.23851300  0.71169082  0.05072743  1
  B  B149  1  0.73851300  0.78830918  0.94927257  1
  B  B150  1  0.76148700  0.21169082  0.44927257  1
  B  B151  1  0.26148700  0.28830918  0.55072743  1
  B  B152  1  0.79876049  0.17553958  0.93007847  1
  B  B153  1  0.29876049  0.32446042  0.06992153  1
  B  B154  1  0.20123951  0.67553958  0.56992153  1
  B  B155  1  0.70123951  0.82446042  0.43007847  1
  B  B156  1  0.20123951  0.82446042  0.06992153  1
  B  B157  1  0.70123951  0.67553958  0.93007847  1
  B  B158  1  0.79876049  0.32446042  0.43007847  1
  B  B159  1  0.29876049  0.17553958  0.56992153  1
  H  H160  1  0.74552759  0.90459547  0.11654987  1
  H  H161  1  0.24552759  0.59540453  0.88345013  1
  H  H162  1  0.25447241  0.40459547  0.38345013  1
  H  H163  1  0.75447241  0.09540453  0.61654987  1
  H  H164  1  0.25447241  0.09540453  0.88345013  1
  H  H165  1  0.75447241  0.40459547  0.11654987  1
  H  H166  1  0.74552759  0.59540453  0.61654987  1
  H  H167  1  0.24552759  0.90459547  0.38345013  1
  H  H168  1  0.59617477  0.00811596  0.19853719  1
  H  H169  1  0.09617477  0.49188404  0.80146281  1
  H  H170  1  0.40382523  0.50811596  0.30146281  1
  H  H171  1  0.90382523  0.99188404  0.69853719  1
  H  H172  1  0.40382523  0.99188404  0.80146281  1
  H  H173  1  0.90382523  0.50811596  0.19853719  1
  H  H174  1  0.59617477  0.49188404  0.69853719  1
  H  H175  1  0.09617477  0.00811596  0.30146281  1
  H  H176  1  0.67936267  0.19475019  0.21066982  1
  H  H177  1  0.17936267  0.30524981  0.78933018  1
  H  H178  1  0.32063733  0.69475019  0.28933018  1
  H  H179  1  0.82063733  0.80524981  0.71066982  1
  H  H180  1  0.32063733  0.80524981  0.78933018  1
  H  H181  1  0.82063733  0.69475019  0.21066982  1
  H  H182  1  0.67936267  0.30524981  0.71066982  1
  H  H183  1  0.17936267  0.19475019  0.28933018  1
  H  H184  1  0.97431408  0.01335295  0.10819552  1
  H  H185  1  0.47431408  0.48664705  0.89180448  1
  H  H186  1  0.02568592  0.51335295  0.39180448  1
  H  H187  1  0.52568592  0.98664705  0.60819552  1
  H  H188  1  0.02568592  0.98664705  0.89180448  1
  H  H189  1  0.52568592  0.51335295  0.10819552  1
  H  H190  1  0.97431408  0.48664705  0.60819552  1
  H  H191  1  0.47431408  0.01335295  0.39180448  1
  H  H192  1  0.94736545  0.85294475  0.19596737  1
  H  H193  1  0.44736545  0.64705525  0.80403263  1
  H  H194  1  0.05263455  0.35294475  0.30403263  1
  H  H195  1  0.55263455  0.14705525  0.69596737  1
  H  H196  1  0.05263455  0.14705525  0.80403263  1
  H  H197  1  0.55263455  0.35294475  0.19596737  1
  H  H198  1  0.94736545  0.64705525  0.69596737  1
  H  H199  1  0.44736545  0.85294475  0.30403263  1
  H  H200  1  0.72211473  0.87092467  0.26010051  1
  H  H201  1  0.22211473  0.62907533  0.73989949  1
  H  H202  1  0.27788527  0.37092467  0.23989949  1
  H  H203  1  0.77788527  0.12907533  0.76010051  1
  H  H204  1  0.27788527  0.12907533  0.73989949  1
  H  H205  1  0.77788527  0.37092467  0.26010051  1
  H  H206  1  0.72211473  0.62907533  0.76010051  1
  H  H207  1  0.22211473  0.87092467  0.23989949  1
  H  H208  1  0.68290027  0.05338681  0.31992498  1
  H  H209  1  0.18290027  0.44661319  0.68007502  1
  H  H210  1  0.31709973  0.55338681  0.18007502  1
  H  H211  1  0.81709973  0.94661319  0.81992498  1
  H  H212  1  0.31709973  0.94661319  0.68007502  1
  H  H213  1  0.81709973  0.55338681  0.31992498  1
  H  H214  1  0.68290027  0.44661319  0.81992498  1
  H  H215  1  0.18290027  0.05338681  0.18007502  1
  H  H216  1  0.87144150  0.18977725  0.30429905  1
  H  H217  1  0.37144150  0.31022275  0.69570095  1
  H  H218  1  0.12855850  0.68977725  0.19570095  1
  H  H219  1  0.62855850  0.81022275  0.80429905  1
  H  H220  1  0.12855850  0.81022275  0.69570095  1
  H  H221  1  0.62855850  0.68977725  0.30429905  1
  H  H222  1  0.87144150  0.31022275  0.80429905  1
  H  H223  1  0.37144150  0.18977725  0.19570095  1
  H  H224  1  0.92983421  0.19717835  0.16603599  1
  H  H225  1  0.42983421  0.30282165  0.83396401  1
  H  H226  1  0.07016579  0.69717835  0.33396401  1
  H  H227  1  0.57016579  0.80282165  0.66603599  1
  H  H228  1  0.07016579  0.80282165  0.83396401  1
  H  H229  1  0.57016579  0.69717835  0.16603599  1
  H  H230  1  0.92983421  0.30282165  0.66603599  1
  H  H231  1  0.42983421  0.19717835  0.33396401  1
  H  H232  1  0.96489078  0.98950948  0.19907489  1
  H  H233  1  0.46489078  0.51049052  0.80092511  1
  H  H234  1  0.03510922  0.48950948  0.30092511  1
  H  H235  1  0.53510922  0.01049052  0.69907489  1
  H  H236  1  0.03510922  0.01049052  0.80092511  1
  H  H237  1  0.53510922  0.48950948  0.19907489  1
  H  H238  1  0.96489078  0.51049052  0.69907489  1
  H  H239  1  0.46489078  0.98950948  0.30092511  1
  H  H240  1  0.86798483  0.93157445  0.25897980  1
  H  H241  1  0.36798483  0.56842555  0.74102020  1
  H  H242  1  0.13201517  0.43157445  0.24102020  1
  H  H243  1  0.63201517  0.06842555  0.75897980  1
  H  H244  1  0.13201517  0.06842555  0.74102020  1
  H  H245  1  0.63201517  0.43157445  0.25897980  1
  H  H246  1  0.86798483  0.56842555  0.75897980  1
  H  H247  1  0.36798483  0.93157445  0.24102020  1
  H  H248  1  0.84231660  0.05437210  0.29738923  1
  H  H249  1  0.34231660  0.44562790  0.70261077  1
  H  H250  1  0.15768340  0.55437210  0.20261077  1
  H  H251  1  0.65768340  0.94562790  0.79738923  1
  H  H252  1  0.15768340  0.94562790  0.70261077  1
  H  H253  1  0.65768340  0.55437210  0.29738923  1
  H  H254  1  0.84231660  0.44562790  0.79738923  1
  H  H255  1  0.34231660  0.05437210  0.20261077  1
  H  H256  1  0.93830267  0.11067469  0.23651188  1
  H  H257  1  0.43830267  0.38932531  0.76348812  1
  H  H258  1  0.06169733  0.61067469  0.26348812  1
  H  H259  1  0.56169733  0.88932531  0.73651188  1
  H  H260  1  0.06169733  0.88932531  0.76348812  1
  H  H261  1  0.56169733  0.61067469  0.23651188  1
  H  H262  1  0.93830267  0.38932531  0.73651188  1
  H  H263  1  0.43830267  0.11067469  0.26348812  1
  H  H264  1  0.67476701  0.04690364  0.90201911  1
  H  H265  1  0.17476701  0.45309636  0.09798089  1
  H  H266  1  0.32523299  0.54690364  0.59798089  1
  H  H267  1  0.82523299  0.95309636  0.40201911  1
  H  H268  1  0.32523299  0.95309636  0.09798089  1
  H  H269  1  0.82523299  0.54690364  0.90201911  1
  H  H270  1  0.67476701  0.45309636  0.40201911  1
  H  H271  1  0.17476701  0.04690364  0.59798089  1
  H  H272  1  0.59383426  0.01358968  0.02815734  1
  H  H273  1  0.09383426  0.48641032  0.97184266  1
  H  H274  1  0.40616574  0.51358968  0.47184266  1
  H  H275  1  0.90616574  0.98641032  0.52815734  1
  H  H276  1  0.40616574  0.98641032  0.97184266  1
  H  H277  1  0.90616574  0.51358968  0.02815734  1
  H  H278  1  0.59383426  0.48641032  0.52815734  1
  H  H279  1  0.09383426  0.01358968  0.47184266  1
  H  H280  1  0.48382483  0.16639138  0.96899270  1
  H  H281  1  0.98382483  0.33360862  0.03100730  1
  H  H282  1  0.51617517  0.66639138  0.53100730  1
  H  H283  1  0.01617517  0.83360862  0.46899270  1
  H  H284  1  0.51617517  0.83360862  0.03100730  1
  H  H285  1  0.01617517  0.66639138  0.96899270  1
  H  H286  1  0.48382483  0.33360862  0.46899270  1
  H  H287  1  0.98382483  0.16639138  0.53100730  1
  H  H288  1  0.62360509  0.23491325  0.86807058  1
  H  H289  1  0.12360509  0.26508675  0.13192942  1
  H  H290  1  0.37639491  0.73491325  0.63192942  1
  H  H291  1  0.87639491  0.76508675  0.36807058  1
  H  H292  1  0.37639491  0.76508675  0.13192942  1
  H  H293  1  0.87639491  0.73491325  0.86807058  1
  H  H294  1  0.62360509  0.26508675  0.36807058  1
  H  H295  1  0.12360509  0.23491325  0.63192942  1
  H  H296  1  0.84856389  0.02193827  0.99194694  1
  H  H297  1  0.34856389  0.47806173  0.00805306  1
  H  H298  1  0.15143611  0.52193827  0.50805306  1
  H  H299  1  0.65143611  0.97806173  0.49194694  1
  H  H300  1  0.15143611  0.97806173  0.00805306  1
  H  H301  1  0.65143611  0.52193827  0.99194694  1
  H  H302  1  0.84856389  0.47806173  0.49194694  1
  H  H303  1  0.34856389  0.02193827  0.50805306  1
  H  H304  1  0.55640411  0.20324992  0.09436332  1
  H  H305  1  0.05640411  0.29675008  0.90563668  1
  H  H306  1  0.44359589  0.70324992  0.40563668  1
  H  H307  1  0.94359589  0.79675008  0.59436332  1
  H  H308  1  0.44359589  0.79675008  0.90563668  1
  H  H309  1  0.94359589  0.70324992  0.09436332  1
  H  H310  1  0.55640411  0.29675008  0.59436332  1
  H  H311  1  0.05640411  0.20324992  0.40563668  1
  H  H312  1  0.57384363  0.34319769  0.99105609  1
  H  H313  1  0.07384363  0.15680231  0.00894391  1
  H  H314  1  0.42615637  0.84319769  0.50894391  1
  H  H315  1  0.92615637  0.65680231  0.49105609  1
  H  H316  1  0.42615637  0.65680231  0.00894391  1
  H  H317  1  0.92615637  0.84319769  0.99105609  1
  H  H318  1  0.57384363  0.15680231  0.49105609  1
  H  H319  1  0.07384363  0.34319769  0.50894391  1
  H  H320  1  0.80221211  0.35526031  0.92915759  1
  H  H321  1  0.30221211  0.14473969  0.07084241  1
  H  H322  1  0.19778789  0.85526031  0.57084241  1
  H  H323  1  0.69778789  0.64473969  0.42915759  1
  H  H324  1  0.19778789  0.64473969  0.07084241  1
  H  H325  1  0.69778789  0.85526031  0.92915759  1
  H  H326  1  0.80221211  0.14473969  0.42915759  1
  H  H327  1  0.30221211  0.35526031  0.57084241  1
  H  H328  1  0.86705411  0.16267249  0.89117896  1
  H  H329  1  0.36705411  0.33732751  0.10882104  1
  H  H330  1  0.13294589  0.66267249  0.60882104  1
  H  H331  1  0.63294589  0.83732751  0.39117896  1
  H  H332  1  0.13294589  0.83732751  0.10882104  1
  H  H333  1  0.63294589  0.66267249  0.89117896  1
  H  H334  1  0.86705411  0.33732751  0.39117896  1
  H  H335  1  0.36705411  0.16267249  0.60882104  1
  H  H336  1  0.83173791  0.13767658  0.03837321  1
  H  H337  1  0.33173791  0.36232342  0.96162679  1
  H  H338  1  0.16826209  0.63767658  0.46162679  1
  H  H339  1  0.66826209  0.86232342  0.53837321  1
  H  H340  1  0.16826209  0.86232342  0.96162679  1
  H  H341  1  0.66826209  0.63767658  0.03837321  1
  H  H342  1  0.83173791  0.36232342  0.53837321  1
  H  H343  1  0.33173791  0.13767658  0.46162679  1
  H  H344  1  0.71881940  0.20843172  0.07799585  1
  H  H345  1  0.21881940  0.29156828  0.92200415  1
  H  H346  1  0.28118060  0.70843172  0.42200415  1
  H  H347  1  0.78118060  0.79156828  0.57799585  1
  H  H348  1  0.28118060  0.79156828  0.92200415  1
  H  H349  1  0.78118060  0.70843172  0.07799585  1
  H  H350  1  0.71881940  0.29156828  0.57799585  1
  H  H351  1  0.21881940  0.20843172  0.42200415  1
  H  H352  1  0.72895876  0.30725347  0.00803872  1
  H  H353  1  0.22895876  0.19274653  0.99196128  1
  H  H354  1  0.27104124  0.80725347  0.49196128  1
  H  H355  1  0.77104124  0.69274653  0.50803872  1
  H  H356  1  0.27104124  0.69274653  0.99196128  1
  H  H357  1  0.77104124  0.80725347  0.00803872  1
  H  H358  1  0.72895876  0.19274653  0.50803872  1
  H  H359  1  0.22895876  0.30725347  0.49196128  1
  H  H360  1  0.84386062  0.23477673  0.96876959  1
  H  H361  1  0.34386062  0.26522327  0.03123041  1
  H  H362  1  0.15613938  0.73477673  0.53123041  1
  H  H363  1  0.65613938  0.76522327  0.46876959  1
  H  H364  1  0.15613938  0.76522327  0.03123041  1
  H  H365  1  0.65613938  0.73477673  0.96876959  1
  H  H366  1  0.84386062  0.26522327  0.46876959  1
  H  H367  1  0.34386062  0.23477673  0.53123041  1
