# generated using pymatgen
data_BeH10(NF)3
_symmetry_space_group_name_H-M   'P 1'
_cell_length_a   6.64088343
_cell_length_b   8.41736820
_cell_length_c   10.92741728
_cell_angle_alpha   90.00000000
_cell_angle_beta   90.00000000
_cell_angle_gamma   90.00000000
_symmetry_Int_Tables_number   1
_chemical_formula_structural   BeH10(NF)3
_chemical_formula_sum   'Be4 H40 N12 F12'
_cell_volume   610.82908692
_cell_formula_units_Z   4
loop_
 _symmetry_equiv_pos_site_id
 _symmetry_equiv_pos_as_xyz
  1  'x, y, z'
loop_
 _atom_site_type_symbol
 _atom_site_label
 _atom_site_symmetry_multiplicity
 _atom_site_fract_x
 _atom_site_fract_y
 _atom_site_fract_z
 _atom_site_occupancy
  Be  Be0  1  0.95549601  0.85849142  0.10596403  1
  Be  Be1  1  0.54450399  0.14150858  0.60596403  1
  Be  Be2  1  0.45549601  0.64150858  0.89403597  1
  Be  Be3  1  0.04450399  0.35849142  0.39403597  1
  H  H4  1  0.80657019  0.61606446  0.04202301  1
  H  H5  1  0.69342981  0.38393554  0.54202301  1
  H  H6  1  0.30657019  0.88393554  0.95797699  1
  H  H7  1  0.19342981  0.11606446  0.45797699  1
  H  H8  1  0.05334818  0.61619498  0.01998591  1
  H  H9  1  0.44665182  0.38380502  0.51998591  1
  H  H10  1  0.55334818  0.88380502  0.98001409  1
  H  H11  1  0.94665182  0.11619498  0.48001409  1
  H  H12  1  0.95537788  0.58117884  0.15727838  1
  H  H13  1  0.54462212  0.41882116  0.65727838  1
  H  H14  1  0.45537788  0.91882116  0.84272162  1
  H  H15  1  0.04462212  0.08117884  0.34272162  1
  H  H16  1  0.20111332  0.16145421  0.05055591  1
  H  H17  1  0.29888668  0.83854579  0.55055591  1
  H  H18  1  0.70111332  0.33854579  0.94944409  1
  H  H19  1  0.79888668  0.66145421  0.44944409  1
  H  H20  1  0.29947897  0.34189729  0.03415543  1
  H  H21  1  0.20052103  0.65810271  0.53415543  1
  H  H22  1  0.79947897  0.15810271  0.96584457  1
  H  H23  1  0.70052103  0.84189729  0.46584457  1
  H  H24  1  0.14286910  0.30386528  0.14791416  1
  H  H25  1  0.35713090  0.69613472  0.64791416  1
  H  H26  1  0.64286910  0.19613472  0.85208584  1
  H  H27  1  0.85713090  0.80386528  0.35208584  1
  H  H28  1  0.45638909  0.21305275  0.19555826  1
  H  H29  1  0.04361091  0.78694725  0.69555826  1
  H  H30  1  0.95638909  0.28694725  0.80444174  1
  H  H31  1  0.54361091  0.71305275  0.30444174  1
  H  H32  1  0.68810720  0.26528832  0.26036118  1
  H  H33  1  0.81189280  0.73471168  0.76036118  1
  H  H34  1  0.18810720  0.23471168  0.73963882  1
  H  H35  1  0.31189280  0.76528832  0.23963882  1
  H  H36  1  0.64733926  0.07770713  0.20952857  1
  H  H37  1  0.85266074  0.92229287  0.70952857  1
  H  H38  1  0.14733926  0.42229287  0.79047143  1
  H  H39  1  0.35266074  0.57770713  0.29047143  1
  H  H40  1  0.52983444  0.14290240  0.33792128  1
  H  H41  1  0.97016556  0.85709760  0.83792128  1
  H  H42  1  0.02983444  0.35709760  0.66207872  1
  H  H43  1  0.47016556  0.64290240  0.16207872  1
  N  N44  1  0.94209536  0.65035752  0.07988635  1
  N  N45  1  0.55790464  0.34964248  0.57988635  1
  N  N46  1  0.44209536  0.84964248  0.92011365  1
  N  N47  1  0.05790464  0.15035752  0.42011365  1
  N  N48  1  0.25790934  0.25765076  0.09648097  1
  N  N49  1  0.24209066  0.74234924  0.59648097  1
  N  N50  1  0.75790934  0.24234924  0.90351903  1
  N  N51  1  0.74209066  0.75765076  0.40351903  1
  N  N52  1  0.58063681  0.17592248  0.25170999  1
  N  N53  1  0.91936319  0.82407752  0.75170999  1
  N  N54  1  0.08063681  0.32407752  0.74829001  1
  N  N55  1  0.41936319  0.67592248  0.24829001  1
  F  F56  1  0.09928445  0.88684664  0.21649109  1
  F  F57  1  0.40071555  0.11315336  0.71649109  1
  F  F58  1  0.59928445  0.61315336  0.78350891  1
  F  F59  1  0.90071555  0.38684664  0.28350891  1
  F  F60  1  0.74079502  0.92479722  0.12995310  1
  F  F61  1  0.75920498  0.07520278  0.62995310  1
  F  F62  1  0.24079502  0.57520278  0.87004690  1
  F  F63  1  0.25920498  0.42479722  0.37004690  1
  F  F64  1  0.03802828  0.93382689  0.98451575  1
  F  F65  1  0.46197172  0.06617311  0.48451575  1
  F  F66  1  0.53802828  0.56617311  0.01548425  1
  F  F67  1  0.96197172  0.43382689  0.51548425  1
