# generated using pymatgen
data_NdH6SNO10
_symmetry_space_group_name_H-M   'P 1'
_cell_length_a   6.61416133
_cell_length_b   6.96851822
_cell_length_c   9.11046812
_cell_angle_alpha   90.00000000
_cell_angle_beta   92.35859221
_cell_angle_gamma   90.00000000
_symmetry_Int_Tables_number   1
_chemical_formula_structural   NdH6SNO10
_chemical_formula_sum   'Nd2 H12 S2 N2 O20'
_cell_volume   419.55397527
_cell_formula_units_Z   2
loop_
 _symmetry_equiv_pos_site_id
 _symmetry_equiv_pos_as_xyz
  1  'x, y, z'
loop_
 _atom_site_type_symbol
 _atom_site_label
 _atom_site_symmetry_multiplicity
 _atom_site_fract_x
 _atom_site_fract_y
 _atom_site_fract_z
 _atom_site_occupancy
  Nd  Nd0  1  0.15299877  0.25000000  0.79161536  1
  Nd  Nd1  1  0.84700123  0.75000000  0.20838464  1
  H  H2  1  0.80895699  0.36425893  0.56518592  1
  H  H3  1  0.19104301  0.86425893  0.43481408  1
  H  H4  1  0.19104301  0.63574107  0.43481408  1
  H  H5  1  0.80895699  0.13574107  0.56518592  1
  H  H6  1  0.42095396  0.91717845  0.09929484  1
  H  H7  1  0.57904604  0.41717845  0.90070516  1
  H  H8  1  0.57904604  0.08282155  0.90070516  1
  H  H9  1  0.42095396  0.58282155  0.09929484  1
  H  H10  1  0.48614415  0.04417897  0.23428682  1
  H  H11  1  0.51385585  0.54417897  0.76571318  1
  H  H12  1  0.51385585  0.95582103  0.76571318  1
  H  H13  1  0.48614415  0.45582103  0.23428682  1
  S  S14  1  0.99273428  0.25000000  0.11191169  1
  S  S15  1  0.00726572  0.75000000  0.88808831  1
  N  N16  1  0.31237538  0.25000000  0.48028591  1
  N  N17  1  0.68762462  0.75000000  0.51971409  1
  O  O18  1  0.20467066  0.25000000  0.05843894  1
  O  O19  1  0.79532934  0.75000000  0.94156106  1
  O  O20  1  0.85760487  0.25000000  0.97536506  1
  O  O21  1  0.14239513  0.75000000  0.02463494  1
  O  O22  1  0.95930673  0.42157885  0.20373519  1
  O  O23  1  0.04069327  0.92157885  0.79626481  1
  O  O24  1  0.04069327  0.57842115  0.79626481  1
  O  O25  1  0.95930673  0.07842115  0.20373519  1
  O  O26  1  0.39830887  0.25000000  0.36117566  1
  O  O27  1  0.60169113  0.75000000  0.63882434  1
  O  O28  1  0.26717729  0.40647026  0.54474565  1
  O  O29  1  0.73282271  0.90647026  0.45525435  1
  O  O30  1  0.73282271  0.59352974  0.45525435  1
  O  O31  1  0.26717729  0.09352974  0.54474565  1
  O  O32  1  0.85043505  0.25000000  0.62197350  1
  O  O33  1  0.14956495  0.75000000  0.37802650  1
  O  O34  1  0.46203443  0.04541291  0.83819633  1
  O  O35  1  0.53796557  0.54541291  0.16180367  1
  O  O36  1  0.53796557  0.95458709  0.16180367  1
  O  O37  1  0.46203443  0.45458709  0.83819633  1
