# generated using pymatgen
data_ZnGa4S7
_symmetry_space_group_name_H-M   'P 1'
_cell_length_a   6.14963634
_cell_length_b   6.52198097
_cell_length_c   15.38865043
_cell_angle_alpha   90.00000000
_cell_angle_beta   90.00000000
_cell_angle_gamma   90.00000000
_symmetry_Int_Tables_number   1
_chemical_formula_structural   ZnGa4S7
_chemical_formula_sum   'Zn2 Ga8 S14'
_cell_volume   617.20508579
_cell_formula_units_Z   2
loop_
 _symmetry_equiv_pos_site_id
 _symmetry_equiv_pos_as_xyz
  1  'x, y, z'
loop_
 _atom_site_type_symbol
 _atom_site_label
 _atom_site_symmetry_multiplicity
 _atom_site_fract_x
 _atom_site_fract_y
 _atom_site_fract_z
 _atom_site_occupancy
  Zn  Zn0  1  0.42340839  0.66580942  0.50000000  1
  Zn  Zn1  1  0.92340839  0.33419058  0.00000000  1
  Ga  Ga2  1  0.60065846  0.14031640  0.12677631  1
  Ga  Ga3  1  0.60065846  0.14031640  0.87322369  1
  Ga  Ga4  1  0.10065846  0.85968360  0.37322369  1
  Ga  Ga5  1  0.10065846  0.85968360  0.62677631  1
  Ga  Ga6  1  0.59958895  0.66505038  0.24302762  1
  Ga  Ga7  1  0.59958895  0.66505038  0.75697238  1
  Ga  Ga8  1  0.09958895  0.33494962  0.25697238  1
  Ga  Ga9  1  0.09958895  0.33494962  0.74302762  1
  S  S10  1  0.48409201  0.82278793  0.36999520  1
  S  S11  1  0.48409201  0.82278793  0.63000480  1
  S  S12  1  0.98409201  0.17721207  0.13000480  1
  S  S13  1  0.98409201  0.17721207  0.86999520  1
  S  S14  1  0.48209594  0.81808749  0.12221096  1
  S  S15  1  0.48209594  0.81808749  0.87778904  1
  S  S16  1  0.98209594  0.18191251  0.37778904  1
  S  S17  1  0.98209594  0.18191251  0.62221096  1
  S  S18  1  0.48197239  0.32647230  0.24891711  1
  S  S19  1  0.48197239  0.32647230  0.75108289  1
  S  S20  1  0.98197239  0.67352770  0.25108289  1
  S  S21  1  0.98197239  0.67352770  0.74891711  1
  S  S22  1  0.03577613  0.66903520  0.50000000  1
  S  S23  1  0.53577613  0.33096480  0.00000000  1
