# generated using pymatgen
data_CsSb
_symmetry_space_group_name_H-M   'P 1'
_cell_length_a   7.54336491
_cell_length_b   14.56248469
_cell_length_c   15.62612666
_cell_angle_alpha   113.46965479
_cell_angle_beta   90.00000000
_cell_angle_gamma   90.00000000
_symmetry_Int_Tables_number   1
_chemical_formula_structural   CsSb
_chemical_formula_sum   'Cs16 Sb16'
_cell_volume   1574.52537966
_cell_formula_units_Z   16
loop_
 _symmetry_equiv_pos_site_id
 _symmetry_equiv_pos_as_xyz
  1  'x, y, z'
loop_
 _atom_site_type_symbol
 _atom_site_label
 _atom_site_symmetry_multiplicity
 _atom_site_fract_x
 _atom_site_fract_y
 _atom_site_fract_z
 _atom_site_occupancy
  Cs  Cs0  1  0.38101321  0.64575059  0.13122249  1
  Cs  Cs1  1  0.88101321  0.85424941  0.86877751  1
  Cs  Cs2  1  0.61898679  0.35424941  0.86877751  1
  Cs  Cs3  1  0.11898679  0.14575059  0.13122249  1
  Cs  Cs4  1  0.18797056  0.52837164  0.39115136  1
  Cs  Cs5  1  0.68797056  0.97162836  0.60884864  1
  Cs  Cs6  1  0.81202944  0.47162836  0.60884864  1
  Cs  Cs7  1  0.31202944  0.02837164  0.39115136  1
  Cs  Cs8  1  0.41099809  0.68239358  0.65732273  1
  Cs  Cs9  1  0.91099809  0.81760642  0.34267727  1
  Cs  Cs10  1  0.58900191  0.31760642  0.34267727  1
  Cs  Cs11  1  0.08900191  0.18239358  0.65732273  1
  Cs  Cs12  1  0.14458234  0.54103736  0.85630264  1
  Cs  Cs13  1  0.64458234  0.95896264  0.14369736  1
  Cs  Cs14  1  0.85541766  0.45896264  0.14369736  1
  Cs  Cs15  1  0.35541766  0.04103736  0.85630264  1
  Sb  Sb16  1  0.86624955  0.69813779  0.06874642  1
  Sb  Sb17  1  0.36624955  0.80186221  0.93125358  1
  Sb  Sb18  1  0.13375045  0.30186221  0.93125358  1
  Sb  Sb19  1  0.63375045  0.19813779  0.06874642  1
  Sb  Sb20  1  0.12820273  0.85351589  0.08935703  1
  Sb  Sb21  1  0.62820273  0.64648411  0.91064297  1
  Sb  Sb22  1  0.87179727  0.14648411  0.91064297  1
  Sb  Sb23  1  0.37179727  0.35351589  0.08935703  1
  Sb  Sb24  1  0.42521402  0.76990075  0.41061283  1
  Sb  Sb25  1  0.92521402  0.73009925  0.58938717  1
  Sb  Sb26  1  0.57478598  0.23009925  0.58938717  1
  Sb  Sb27  1  0.07478598  0.26990075  0.41061283  1
  Sb  Sb28  1  0.19162951  0.86666961  0.56906538  1
  Sb  Sb29  1  0.69162951  0.63333039  0.43093462  1
  Sb  Sb30  1  0.80837049  0.13333039  0.43093462  1
  Sb  Sb31  1  0.30837049  0.36666961  0.56906538  1
