# generated using pymatgen
data_BaMg(CO3)2
_symmetry_space_group_name_H-M   'P 1'
_cell_length_a   5.09396340
_cell_length_b   5.09396340
_cell_length_c   11.58602706
_cell_angle_alpha   77.30082289
_cell_angle_beta   77.30082289
_cell_angle_gamma   59.99998469
_symmetry_Int_Tables_number   1
_chemical_formula_structural   BaMg(CO3)2
_chemical_formula_sum   'Ba2 Mg2 C4 O12'
_cell_volume   251.83364221
_cell_formula_units_Z   2
loop_
 _symmetry_equiv_pos_site_id
 _symmetry_equiv_pos_as_xyz
  1  'x, y, z'
loop_
 _atom_site_type_symbol
 _atom_site_label
 _atom_site_symmetry_multiplicity
 _atom_site_fract_x
 _atom_site_fract_y
 _atom_site_fract_z
 _atom_site_occupancy
  Ba  Ba0  1  0.75000000  0.75000000  0.75000000  1
  Ba  Ba1  1  0.25000000  0.25000000  0.25000000  1
  Mg  Mg2  1  0.50000000  0.50000000  0.50000000  1
  Mg  Mg3  1  -0.00000000  0.00000000  -0.00000000  1
  C  C4  1  0.63000540  0.63000540  0.10998379  1
  C  C5  1  0.13000540  0.13000540  0.60998379  1
  C  C6  1  0.36999460  0.36999460  0.89001621  1
  C  C7  1  0.86999460  0.86999460  0.39001621  1
  O  O8  1  0.33665070  0.74600569  0.11317357  1
  O  O9  1  0.74600569  0.80417004  0.11317357  1
  O  O10  1  0.80417003  0.33665070  0.11317357  1
  O  O11  1  0.83665070  0.30417003  0.61317357  1
  O  O12  1  0.30417004  0.24600569  0.61317357  1
  O  O13  1  0.24600569  0.83665070  0.61317357  1
  O  O14  1  0.66334930  0.25399431  0.88682643  1
  O  O15  1  0.25399431  0.19582996  0.88682643  1
  O  O16  1  0.19582997  0.66334930  0.88682643  1
  O  O17  1  0.16334930  0.69582997  0.38682643  1
  O  O18  1  0.69582996  0.75399431  0.38682643  1
  O  O19  1  0.75399431  0.16334930  0.38682643  1
