# generated using pymatgen
data_Sr4V2(Se2O7)3
_symmetry_space_group_name_H-M   'P 1'
_cell_length_a   9.01079109
_cell_length_b   9.01079109
_cell_length_c   14.27682742
_cell_angle_alpha   107.31116676
_cell_angle_beta   107.31116676
_cell_angle_gamma   93.27223771
_symmetry_Int_Tables_number   1
_chemical_formula_structural   Sr4V2(Se2O7)3
_chemical_formula_sum   'Sr8 V4 Se12 O42'
_cell_volume   1042.98737859
_cell_formula_units_Z   2
loop_
 _symmetry_equiv_pos_site_id
 _symmetry_equiv_pos_as_xyz
  1  'x, y, z'
loop_
 _atom_site_type_symbol
 _atom_site_label
 _atom_site_symmetry_multiplicity
 _atom_site_fract_x
 _atom_site_fract_y
 _atom_site_fract_z
 _atom_site_occupancy
  Sr  Sr0  1  0.66224382  0.84941322  0.75759728  1
  Sr  Sr1  1  0.15058678  0.33775618  0.24240272  1
  Sr  Sr2  1  0.15464654  0.84181593  0.74240272  1
  Sr  Sr3  1  0.15818407  0.84535346  0.25759728  1
  Sr  Sr4  1  0.36156107  0.99922287  0.07368630  1
  Sr  Sr5  1  0.00077713  0.63843893  0.92631370  1
  Sr  Sr6  1  0.53787477  0.67553657  0.42631370  1
  Sr  Sr7  1  0.32446343  0.46212523  0.57368630  1
  V  V8  1  0.17216442  0.29996812  0.76151318  1
  V  V9  1  0.70003188  0.82783558  0.23848682  1
  V  V10  1  0.66065124  0.28845494  0.73848682  1
  V  V11  1  0.71154506  0.33934876  0.26151318  1
  Se  Se12  1  0.49352509  0.18748520  0.89891381  1
  Se  Se13  1  0.81251480  0.50647491  0.10108619  1
  Se  Se14  1  0.84461128  0.03857139  0.60108619  1
  Se  Se15  1  0.96142861  0.15538872  0.39891381  1
  Se  Se16  1  0.42243361  0.64792742  0.87609266  1
  Se  Se17  1  0.35207258  0.57756639  0.12390734  1
  Se  Se18  1  0.79634096  0.52183476  0.62390734  1
  Se  Se19  1  0.47816524  0.20365904  0.37609266  1
  Se  Se20  1  0.03421534  0.15855947  0.94981328  1
  Se  Se21  1  0.84144053  0.96578466  0.05018672  1
  Se  Se22  1  0.33440205  0.95874618  0.55018672  1
  Se  Se23  1  0.04125382  0.66559795  0.44981328  1
  O  O24  1  0.06162114  0.38167261  0.83221265  1
  O  O25  1  0.61832739  0.93837886  0.16778735  1
  O  O26  1  0.47940849  0.29945996  0.66778735  1
  O  O27  1  0.70054004  0.52059151  0.33221265  1
  O  O28  1  0.13855288  0.35870608  0.65735896  1
  O  O29  1  0.64129392  0.86144712  0.34264104  1
  O  O30  1  0.73119392  0.45134713  0.84264104  1
  O  O31  1  0.54865287  0.26880608  0.15735896  1
  O  O32  1  0.36619122  0.44592619  0.84910901  1
  O  O33  1  0.55407381  0.63380878  0.15089099  1
  O  O34  1  0.76708221  0.34681717  0.65089099  1
  O  O35  1  0.65318283  0.23291779  0.34910901  1
  O  O36  1  0.30089827  0.14439701  0.80829752  1
  O  O37  1  0.85560299  0.69910173  0.19170248  1
  O  O38  1  0.74260075  0.08609949  0.69170248  1
  O  O39  1  0.91390051  0.25739925  0.30829752  1
  O  O40  1  0.59988336  0.14336982  0.81177289  1
  O  O41  1  0.85663018  0.40011664  0.18822711  1
  O  O42  1  0.03811046  0.08159693  0.68822711  1
  O  O43  1  0.91840307  0.96188954  0.31177289  1
  O  O44  1  0.48743406  0.01806823  0.92712389  1
  O  O45  1  0.98193177  0.51256594  0.07287611  1
  O  O46  1  0.81031017  0.84094434  0.57287611  1
  O  O47  1  0.15905566  0.18968983  0.42712389  1
  O  O48  1  0.18869868  0.22078330  0.06257441  1
  O  O49  1  0.77921670  0.81130132  0.93742559  1
  O  O50  1  0.37612427  0.90820889  0.43742559  1
  O  O51  1  0.09179111  0.62387573  0.56257441  1
  O  O52  1  0.05766863  0.96975662  0.89412851  1
  O  O53  1  0.03024338  0.94233137  0.10587149  1
  O  O54  1  0.41354012  0.82562810  0.60587149  1
  O  O55  1  0.17437190  0.58645988  0.39412851  1
  O  O56  1  0.87051414  0.12948586  0.00000000  1
  O  O57  1  0.12051414  0.87948586  0.50000000  1
  O  O58  1  0.26067435  0.73071179  0.89499634  1
  O  O59  1  0.26928821  0.73932565  0.10500366  1
  O  O60  1  0.61567801  0.58571544  0.60500366  1
  O  O61  1  0.41428456  0.38432199  0.39499634  1
  O  O62  1  0.40969913  0.67093126  0.75829696  1
  O  O63  1  0.32906874  0.59030087  0.24170304  1
  O  O64  1  0.90140217  0.66263430  0.74170304  1
  O  O65  1  0.33736570  0.09859783  0.25829696  1
