# generated using pymatgen
data_Na3LiTi2Si4(HO4)4
_symmetry_space_group_name_H-M   'P 1'
_cell_length_a   5.27908490
_cell_length_b   8.67412991
_cell_length_c   15.07977327
_cell_angle_alpha   106.71481007
_cell_angle_beta   90.37006915
_cell_angle_gamma   90.00000000
_symmetry_Int_Tables_number   1
_chemical_formula_structural   Na3LiTi2Si4(HO4)4
_chemical_formula_sum   'Na6 Li2 Ti4 Si8 H8 O32'
_cell_volume   661.33398663
_cell_formula_units_Z   2
loop_
 _symmetry_equiv_pos_site_id
 _symmetry_equiv_pos_as_xyz
  1  'x, y, z'
loop_
 _atom_site_type_symbol
 _atom_site_label
 _atom_site_symmetry_multiplicity
 _atom_site_fract_x
 _atom_site_fract_y
 _atom_site_fract_z
 _atom_site_occupancy
  Na  Na0  1  0.38427584  0.02532627  0.66848516  1
  Na  Na1  1  0.11572416  0.35684111  0.33151484  1
  Na  Na2  1  0.61572416  0.97467373  0.33151484  1
  Na  Na3  1  0.88427584  0.64315889  0.66848516  1
  Na  Na4  1  0.75000000  0.34942061  1.00000000  1
  Na  Na5  1  0.25000000  0.65057939  0.00000000  1
  Li  Li6  1  0.25000000  0.00979198  1.00000000  1
  Li  Li7  1  0.75000000  0.99020802  0.00000000  1
  Ti  Ti8  1  0.87639767  0.24082332  0.67002238  1
  Ti  Ti9  1  0.62360233  0.57080094  0.32997762  1
  Ti  Ti10  1  0.12360233  0.75917668  0.32997762  1
  Ti  Ti11  1  0.37639767  0.42919906  0.67002238  1
  Si  Si12  1  0.20765858  0.14360754  0.47248056  1
  Si  Si13  1  0.29234142  0.67112698  0.52751944  1
  Si  Si14  1  0.79234142  0.85639246  0.52751944  1
  Si  Si15  1  0.70765858  0.32887302  0.47248056  1
  Si  Si16  1  0.96369513  0.00672050  0.81547371  1
  Si  Si17  1  0.53630487  0.19124678  0.18452629  1
  Si  Si18  1  0.03630487  0.99327950  0.18452629  1
  Si  Si19  1  0.46369513  0.80875322  0.81547371  1
  H  H20  1  0.25921216  0.27484978  0.91153978  1
  H  H21  1  0.24078784  0.36331001  0.08846022  1
  H  H22  1  0.74078784  0.72515022  0.08846022  1
  H  H23  1  0.75921216  0.63668999  0.91153978  1
  H  H24  1  0.42726082  0.34073456  0.84462614  1
  H  H25  1  0.07273918  0.49610842  0.15537386  1
  H  H26  1  0.57273918  0.65926544  0.15537386  1
  H  H27  1  0.92726082  0.50389158  0.84462614  1
  O  O28  1  0.05144574  0.79433879  0.56966644  1
  O  O29  1  0.44855426  0.22467234  0.43033356  1
  O  O30  1  0.94855426  0.20566121  0.43033356  1
  O  O31  1  0.55144574  0.77532766  0.56966644  1
  O  O32  1  0.76200415  0.04835523  0.57334532  1
  O  O33  1  0.73799585  0.47500991  0.42665468  1
  O  O34  1  0.23799585  0.95164477  0.42665468  1
  O  O35  1  0.26200415  0.52499009  0.57334532  1
  O  O36  1  0.00450532  0.12750061  0.75021842  1
  O  O37  1  0.49549468  0.37728219  0.24978158  1
  O  O38  1  0.99549468  0.87249939  0.24978158  1
  O  O39  1  0.50450532  0.62271781  0.75021842  1
  O  O40  1  0.98218728  0.08965714  0.92483072  1
  O  O41  1  0.51781272  0.16482641  0.07516928  1
  O  O42  1  0.01781272  0.91034286  0.07516928  1
  O  O43  1  0.48218728  0.83517359  0.92483072  1
  O  O44  1  0.56775959  0.29445744  0.72725317  1
  O  O45  1  0.93224041  0.56720427  0.27274683  1
  O  O46  1  0.43224041  0.70554256  0.27274683  1
  O  O47  1  0.06775959  0.43279573  0.72725317  1
  O  O48  1  0.69095382  0.91147057  0.77920620  1
  O  O49  1  0.80904618  0.13226436  0.22079380  1
  O  O50  1  0.30904618  0.08852943  0.22079380  1
  O  O51  1  0.19095382  0.86773564  0.77920620  1
  O  O52  1  0.21319400  0.20692627  0.58544907  1
  O  O53  1  0.28680600  0.62147720  0.41455093  1
  O  O54  1  0.78680600  0.79307373  0.41455093  1
  O  O55  1  0.71319400  0.37852280  0.58544907  1
  O  O56  1  0.38963606  0.35543302  0.91065809  1
  O  O57  1  0.11036394  0.44477493  0.08934191  1
  O  O58  1  0.61036394  0.64456698  0.08934191  1
  O  O59  1  0.88963606  0.55522507  0.91065809  1
