# generated using pymatgen
data_SrCa3Mn4O12
_symmetry_space_group_name_H-M   'P 1'
_cell_length_a   15.28300723
_cell_length_b   3.83448647
_cell_length_c   3.83448647
_cell_angle_alpha   90.00000000
_cell_angle_beta   90.00000000
_cell_angle_gamma   90.00000000
_symmetry_Int_Tables_number   1
_chemical_formula_structural   SrCa3Mn4O12
_chemical_formula_sum   'Sr1 Ca3 Mn4 O12'
_cell_volume   224.71043371
_cell_formula_units_Z   1
loop_
 _symmetry_equiv_pos_site_id
 _symmetry_equiv_pos_as_xyz
  1  'x, y, z'
loop_
 _atom_site_type_symbol
 _atom_site_label
 _atom_site_symmetry_multiplicity
 _atom_site_fract_x
 _atom_site_fract_y
 _atom_site_fract_z
 _atom_site_occupancy
  Sr  Sr0  1  0.12500000  0.50000000  0.50000000  1
  Ca  Ca1  1  0.37525216  0.50000000  0.50000000  1
  Ca  Ca2  1  0.62500000  0.50000000  0.50000000  1
  Ca  Ca3  1  0.87474784  0.50000000  0.50000000  1
  Mn  Mn4  1  0.99829591  0.00000000  -0.00000000  1
  Mn  Mn5  1  0.25170409  0.00000000  -0.00000000  1
  Mn  Mn6  1  0.50042697  -0.00000000  0.00000000  1
  Mn  Mn7  1  0.74957303  -0.00000000  0.00000000  1
  O  O8  1  0.12500000  -0.00000000  0.00000000  1
  O  O9  1  0.37670082  0.00000000  0.00000000  1
  O  O10  1  0.62500000  -0.00000000  0.00000000  1
  O  O11  1  0.87329918  -0.00000000  0.00000000  1
  O  O12  1  0.99515048  0.50000000  0.00000000  1
  O  O13  1  0.25484952  0.50000000  0.00000000  1
  O  O14  1  0.50093765  0.50000000  0.00000000  1
  O  O15  1  0.74906235  0.50000000  0.00000000  1
  O  O16  1  0.99515048  -0.00000000  0.50000000  1
  O  O17  1  0.25484952  -0.00000000  0.50000000  1
  O  O18  1  0.50093765  -0.00000000  0.50000000  1
  O  O19  1  0.74906235  -0.00000000  0.50000000  1
