# generated using pymatgen
data_CeAg2
_symmetry_space_group_name_H-M   'P 1'
_cell_length_a   4.92396154
_cell_length_b   5.89781579
_cell_length_c   5.89781579
_cell_angle_alpha   65.67705132
_cell_angle_beta   65.32696383
_cell_angle_gamma   65.32696383
_symmetry_Int_Tables_number   1
_chemical_formula_structural   CeAg2
_chemical_formula_sum   'Ce2 Ag4'
_cell_volume   135.44782866
_cell_formula_units_Z   2
loop_
 _symmetry_equiv_pos_site_id
 _symmetry_equiv_pos_as_xyz
  1  'x, y, z'
loop_
 _atom_site_type_symbol
 _atom_site_label
 _atom_site_symmetry_multiplicity
 _atom_site_fract_x
 _atom_site_fract_y
 _atom_site_fract_z
 _atom_site_occupancy
  Ce  Ce0  1  0.49490381  0.25509619  0.75509619  1
  Ce  Ce1  1  0.50509619  0.74490381  0.24490381  1
  Ag  Ag2  1  0.83273136  0.16153885  0.17299843  1
  Ag  Ag3  1  0.16726864  0.83846115  0.82700157  1
  Ag  Ag4  1  0.83273136  0.67299843  0.66153885  1
  Ag  Ag5  1  0.16726864  0.32700157  0.33846115  1
