# generated using pymatgen
data_ScF3
_symmetry_space_group_name_H-M   'P 1'
_cell_length_a   4.81515508
_cell_length_b   5.47159823
_cell_length_c   6.96614375
_cell_angle_alpha   90.00000000
_cell_angle_beta   90.00000000
_cell_angle_gamma   90.00000000
_symmetry_Int_Tables_number   1
_chemical_formula_structural   ScF3
_chemical_formula_sum   'Sc4 F12'
_cell_volume   183.53416122
_cell_formula_units_Z   4
loop_
 _symmetry_equiv_pos_site_id
 _symmetry_equiv_pos_as_xyz
  1  'x, y, z'
loop_
 _atom_site_type_symbol
 _atom_site_label
 _atom_site_symmetry_multiplicity
 _atom_site_fract_x
 _atom_site_fract_y
 _atom_site_fract_z
 _atom_site_occupancy
  Sc  Sc0  1  0.96041652  0.63117942  0.75000000  1
  Sc  Sc1  1  0.46041652  0.86882058  0.25000000  1
  Sc  Sc2  1  0.53958348  0.13117942  0.75000000  1
  Sc  Sc3  1  0.03958348  0.36882058  0.25000000  1
  F  F4  1  0.31907589  0.15253510  0.42471121  1
  F  F5  1  0.81907589  0.34746490  0.57528879  1
  F  F6  1  0.18092411  0.65253510  0.07528879  1
  F  F7  1  0.68092411  0.84746490  0.92471121  1
  F  F8  1  0.67566562  0.55575617  0.25000000  1
  F  F9  1  0.17566562  0.94424383  0.75000000  1
  F  F10  1  0.82433438  0.05575617  0.25000000  1
  F  F11  1  0.32433438  0.44424383  0.75000000  1
  F  F12  1  0.31907589  0.15253510  0.07528879  1
  F  F13  1  0.81907589  0.34746490  0.92471121  1
  F  F14  1  0.18092411  0.65253510  0.42471121  1
  F  F15  1  0.68092411  0.84746490  0.57528879  1
