# generated using pymatgen
data_Zr8Bi13
_symmetry_space_group_name_H-M   'P 1'
_cell_length_a   7.03398570
_cell_length_b   7.03398570
_cell_length_c   45.67798110
_cell_angle_alpha   90.00000000
_cell_angle_beta   90.00000000
_cell_angle_gamma   90.00000000
_symmetry_Int_Tables_number   1
_chemical_formula_structural   Zr8Bi13
_chemical_formula_sum   'Zr32 Bi52'
_cell_volume   2260.00740751
_cell_formula_units_Z   4
loop_
 _symmetry_equiv_pos_site_id
 _symmetry_equiv_pos_as_xyz
  1  'x, y, z'
loop_
 _atom_site_type_symbol
 _atom_site_label
 _atom_site_symmetry_multiplicity
 _atom_site_fract_x
 _atom_site_fract_y
 _atom_site_fract_z
 _atom_site_occupancy
  Zr  Zr0  1  0.50000000  0.50000000  0.18886959  1
  Zr  Zr1  1  0.50000000  0.50000000  0.81113041  1
  Zr  Zr2  1  0.50000000  0.50000000  0.68886959  1
  Zr  Zr3  1  0.50000000  0.50000000  0.31113041  1
  Zr  Zr4  1  0.00000000  -0.00000000  0.25000000  1
  Zr  Zr5  1  0.00000000  -0.00000000  0.75000000  1
  Zr  Zr6  1  0.00000000  0.50000000  0.40785847  1
  Zr  Zr7  1  0.50000000  -0.00000000  0.59214153  1
  Zr  Zr8  1  0.00000000  0.50000000  0.90785847  1
  Zr  Zr9  1  0.50000000  -0.00000000  0.09214153  1
  Zr  Zr10  1  0.00000000  0.50000000  0.03323560  1
  Zr  Zr11  1  0.50000000  -0.00000000  0.96676440  1
  Zr  Zr12  1  0.00000000  0.50000000  0.53323560  1
  Zr  Zr13  1  0.50000000  -0.00000000  0.46676440  1
  Zr  Zr14  1  0.00000000  0.50000000  0.15552462  1
  Zr  Zr15  1  0.50000000  -0.00000000  0.84447538  1
  Zr  Zr16  1  0.00000000  0.50000000  0.65552462  1
  Zr  Zr17  1  0.50000000  -0.00000000  0.34447538  1
  Zr  Zr18  1  0.00000000  -0.00000000  0.12241377  1
  Zr  Zr19  1  0.00000000  -0.00000000  0.87758623  1
  Zr  Zr20  1  0.00000000  -0.00000000  0.62241377  1
  Zr  Zr21  1  0.00000000  -0.00000000  0.37758623  1
  Zr  Zr22  1  0.00000000  0.50000000  0.27834507  1
  Zr  Zr23  1  0.50000000  -0.00000000  0.72165493  1
  Zr  Zr24  1  0.00000000  0.50000000  0.77834507  1
  Zr  Zr25  1  0.50000000  -0.00000000  0.22165493  1
  Zr  Zr26  1  0.50000000  0.50000000  0.06513399  1
  Zr  Zr27  1  0.50000000  0.50000000  0.93486601  1
  Zr  Zr28  1  0.50000000  0.50000000  0.56513399  1
  Zr  Zr29  1  0.50000000  0.50000000  0.43486601  1
  Zr  Zr30  1  0.00000000  -0.00000000  -0.00000000  1
  Zr  Zr31  1  0.00000000  -0.00000000  0.50000000  1
  Bi  Bi32  1  0.65508330  0.28638853  0.13393865  1
  Bi  Bi33  1  0.34491670  0.71361147  0.13393865  1
  Bi  Bi34  1  0.28638853  0.34491670  0.86606135  1
  Bi  Bi35  1  0.65508330  0.71361147  0.63393865  1
  Bi  Bi36  1  0.71361147  0.65508330  0.86606135  1
  Bi  Bi37  1  0.34491670  0.28638853  0.63393865  1
  Bi  Bi38  1  0.28638853  0.65508330  0.36606135  1
  Bi  Bi39  1  0.71361147  0.34491670  0.36606135  1
  Bi  Bi40  1  0.34532683  0.22808909  0.01989261  1
  Bi  Bi41  1  0.65467317  0.77191091  0.01989261  1
  Bi  Bi42  1  0.22808909  0.65467317  0.98010739  1
  Bi  Bi43  1  0.34532683  0.77191091  0.51989261  1
  Bi  Bi44  1  0.77191091  0.34532683  0.98010739  1
  Bi  Bi45  1  0.65467317  0.22808909  0.51989261  1
  Bi  Bi46  1  0.22808909  0.34532683  0.48010739  1
  Bi  Bi47  1  0.77191091  0.65467317  0.48010739  1
  Bi  Bi48  1  0.32987938  0.32987938  0.25000000  1
  Bi  Bi49  1  0.67012062  0.67012062  0.25000000  1
  Bi  Bi50  1  0.32987938  0.67012062  0.75000000  1
  Bi  Bi51  1  0.67012062  0.32987938  0.75000000  1
  Bi  Bi52  1  0.17737355  0.33530831  0.09608416  1
  Bi  Bi53  1  0.82262645  0.66469169  0.09608416  1
  Bi  Bi54  1  0.33530831  0.82262645  0.90391584  1
  Bi  Bi55  1  0.17737355  0.66469169  0.59608416  1
  Bi  Bi56  1  0.66469169  0.17737355  0.90391584  1
  Bi  Bi57  1  0.82262645  0.33530831  0.59608416  1
  Bi  Bi58  1  0.33530831  0.17737355  0.40391584  1
  Bi  Bi59  1  0.66469169  0.82262645  0.40391584  1
  Bi  Bi60  1  0.18729756  0.16031369  0.55789231  1
  Bi  Bi61  1  0.81270244  0.83968631  0.55789231  1
  Bi  Bi62  1  0.16031369  0.81270244  0.44210769  1
  Bi  Bi63  1  0.18729756  0.83968631  0.05789231  1
  Bi  Bi64  1  0.83968631  0.18729756  0.44210769  1
  Bi  Bi65  1  0.81270244  0.16031369  0.05789231  1
  Bi  Bi66  1  0.16031369  0.18729756  0.94210769  1
  Bi  Bi67  1  0.83968631  0.81270244  0.94210769  1
  Bi  Bi68  1  0.15702270  0.69975828  0.21198550  1
  Bi  Bi69  1  0.84297730  0.30024172  0.21198550  1
  Bi  Bi70  1  0.69975828  0.84297730  0.78801450  1
  Bi  Bi71  1  0.15702270  0.30024172  0.71198550  1
  Bi  Bi72  1  0.30024172  0.15702270  0.78801450  1
  Bi  Bi73  1  0.84297730  0.69975828  0.71198550  1
  Bi  Bi74  1  0.69975828  0.15702270  0.28801450  1
  Bi  Bi75  1  0.30024172  0.84297730  0.28801450  1
  Bi  Bi76  1  0.24271559  0.15510945  0.17335237  1
  Bi  Bi77  1  0.75728441  0.84489055  0.17335237  1
  Bi  Bi78  1  0.15510945  0.75728441  0.82664763  1
  Bi  Bi79  1  0.24271559  0.84489055  0.67335237  1
  Bi  Bi80  1  0.84489055  0.24271559  0.82664763  1
  Bi  Bi81  1  0.75728441  0.15510945  0.67335237  1
  Bi  Bi82  1  0.15510945  0.24271559  0.32664763  1
  Bi  Bi83  1  0.84489055  0.75728441  0.32664763  1
