# generated using pymatgen
data_Tb5SbPt2
_symmetry_space_group_name_H-M   'P 1'
_cell_length_a   7.79654677
_cell_length_b   7.79654677
_cell_length_c   8.79741224
_cell_angle_alpha   116.30285490
_cell_angle_beta   116.30285490
_cell_angle_gamma   90.00000000
_symmetry_Int_Tables_number   1
_chemical_formula_structural   Tb5SbPt2
_chemical_formula_sum   'Tb10 Sb2 Pt4'
_cell_volume   416.73499346
_cell_formula_units_Z   2
loop_
 _symmetry_equiv_pos_site_id
 _symmetry_equiv_pos_as_xyz
  1  'x, y, z'
loop_
 _atom_site_type_symbol
 _atom_site_label
 _atom_site_symmetry_multiplicity
 _atom_site_fract_x
 _atom_site_fract_y
 _atom_site_fract_z
 _atom_site_occupancy
  Tb  Tb0  1  -0.00000000  0.00000000  -0.00000000  1
  Tb  Tb1  1  0.50000000  0.50000000  -0.00000000  1
  Tb  Tb2  1  0.29688016  0.79688016  0.27679768  1
  Tb  Tb3  1  0.70311984  0.20311984  0.72320232  1
  Tb  Tb4  1  0.97991752  0.47991752  0.27679768  1
  Tb  Tb5  1  0.47991752  0.29688016  0.27679768  1
  Tb  Tb6  1  0.20311984  0.02008248  0.72320232  1
  Tb  Tb7  1  0.02008248  0.52008248  0.72320232  1
  Tb  Tb8  1  0.52008248  0.70311984  0.72320232  1
  Tb  Tb9  1  0.79688016  0.97991752  0.27679768  1
  Sb  Sb10  1  0.25000000  0.25000000  0.50000000  1
  Sb  Sb11  1  0.75000000  0.75000000  0.50000000  1
  Pt  Pt12  1  0.63684681  0.13684681  0.00000000  1
  Pt  Pt13  1  0.36315319  0.86315319  1.00000000  1
  Pt  Pt14  1  0.86315319  0.63684681  -0.00000000  1
  Pt  Pt15  1  0.13684681  0.36315319  -0.00000000  1
