# generated using pymatgen
data_UHg(MoO4)4
_symmetry_space_group_name_H-M   'P 1'
_cell_length_a   6.72688349
_cell_length_b   8.43922954
_cell_length_c   11.65404123
_cell_angle_alpha   90.55722857
_cell_angle_beta   90.00000000
_cell_angle_gamma   90.00000000
_symmetry_Int_Tables_number   1
_chemical_formula_structural   UHg(MoO4)4
_chemical_formula_sum   'U2 Hg2 Mo8 O32'
_cell_volume   661.56529799
_cell_formula_units_Z   2
loop_
 _symmetry_equiv_pos_site_id
 _symmetry_equiv_pos_as_xyz
  1  'x, y, z'
loop_
 _atom_site_type_symbol
 _atom_site_label
 _atom_site_symmetry_multiplicity
 _atom_site_fract_x
 _atom_site_fract_y
 _atom_site_fract_z
 _atom_site_occupancy
  U  U0  1  0.69746704  0.75000000  0.75000000  1
  U  U1  1  0.30253296  0.25000000  0.25000000  1
  Hg  Hg2  1  0.69422994  0.25000000  0.75000000  1
  Hg  Hg3  1  0.30577006  0.75000000  0.25000000  1
  Mo  Mo4  1  0.16865262  0.20342383  0.90378279  1
  Mo  Mo5  1  0.83134738  0.79657617  0.09621721  1
  Mo  Mo6  1  0.16865262  0.29657617  0.59621721  1
  Mo  Mo7  1  0.83134738  0.70342383  0.40378279  1
  Mo  Mo8  1  0.16629958  0.79608723  0.59342896  1
  Mo  Mo9  1  0.83370042  0.20391277  0.40657104  1
  Mo  Mo10  1  0.16629958  0.70391277  0.90657104  1
  Mo  Mo11  1  0.83370042  0.29608723  0.09342896  1
  O  O12  1  0.15038587  0.25277167  0.06727570  1
  O  O13  1  0.84961413  0.74722833  0.93272430  1
  O  O14  1  0.15038587  0.24722833  0.43272430  1
  O  O15  1  0.84961413  0.75277167  0.56727570  1
  O  O16  1  0.05907870  0.75000000  0.75000000  1
  O  O17  1  0.94092130  0.25000000  0.25000000  1
  O  O18  1  0.06637867  0.25000000  0.75000000  1
  O  O19  1  0.93362133  0.75000000  0.25000000  1
  O  O20  1  0.15658889  0.00183129  0.59724720  1
  O  O21  1  0.84341111  0.99816871  0.40275280  1
  O  O22  1  0.15658889  0.49816871  0.90275280  1
  O  O23  1  0.84341111  0.50183129  0.09724720  1
  O  O24  1  0.14594265  0.75086840  0.43718363  1
  O  O25  1  0.85405735  0.24913160  0.56281637  1
  O  O26  1  0.14594265  0.74913160  0.06281637  1
  O  O27  1  0.85405735  0.25086840  0.93718363  1
  O  O28  1  0.42202530  0.75720393  0.62924473  1
  O  O29  1  0.57797470  0.24279607  0.37075527  1
  O  O30  1  0.42202530  0.74279607  0.87075527  1
  O  O31  1  0.57797470  0.25720393  0.12924473  1
  O  O32  1  0.42068134  0.23964911  0.87654290  1
  O  O33  1  0.57931866  0.76035089  0.12345710  1
  O  O34  1  0.42068134  0.26035089  0.62345710  1
  O  O35  1  0.57931866  0.73964911  0.37654290  1
  O  O36  1  0.70074677  0.96732935  0.75321531  1
  O  O37  1  0.29925323  0.03267065  0.24678469  1
  O  O38  1  0.70074677  0.53267065  0.74678469  1
  O  O39  1  0.29925323  0.46732935  0.25321531  1
  O  O40  1  0.15306038  0.99747810  0.90314499  1
  O  O41  1  0.84693962  0.00252190  0.09685501  1
  O  O42  1  0.15306038  0.50252190  0.59685501  1
  O  O43  1  0.84693962  0.49747810  0.40314499  1
