# generated using pymatgen
data_Tm3Sc2Al3O12
_symmetry_space_group_name_H-M   'P 1'
_cell_length_a   10.69022474
_cell_length_b   10.69022474
_cell_length_c   10.69022474
_cell_angle_alpha   109.47122063
_cell_angle_beta   109.47122063
_cell_angle_gamma   109.47122063
_symmetry_Int_Tables_number   1
_chemical_formula_structural   Tm3Sc2Al3O12
_chemical_formula_sum   'Tm12 Sc8 Al12 O48'
_cell_volume   940.45628971
_cell_formula_units_Z   4
loop_
 _symmetry_equiv_pos_site_id
 _symmetry_equiv_pos_as_xyz
  1  'x, y, z'
loop_
 _atom_site_type_symbol
 _atom_site_label
 _atom_site_symmetry_multiplicity
 _atom_site_fract_x
 _atom_site_fract_y
 _atom_site_fract_z
 _atom_site_occupancy
  Tm  Tm0  1  0.87500000  0.62500000  0.75000000  1
  Tm  Tm1  1  0.12500000  0.37500000  0.25000000  1
  Tm  Tm2  1  0.62500000  0.87500000  0.25000000  1
  Tm  Tm3  1  0.62500000  0.75000000  0.87500000  1
  Tm  Tm4  1  0.87500000  0.25000000  0.62500000  1
  Tm  Tm5  1  0.37500000  0.12500000  0.75000000  1
  Tm  Tm6  1  0.37500000  0.25000000  0.12500000  1
  Tm  Tm7  1  0.12500000  0.75000000  0.37500000  1
  Tm  Tm8  1  0.75000000  0.87500000  0.62500000  1
  Tm  Tm9  1  0.25000000  0.12500000  0.37500000  1
  Tm  Tm10  1  0.25000000  0.62500000  0.87500000  1
  Tm  Tm11  1  0.75000000  0.37500000  0.12500000  1
  Sc  Sc12  1  0.00000000  0.00000000  0.00000000  1
  Sc  Sc13  1  0.50000000  0.00000000  0.50000000  1
  Sc  Sc14  1  0.50000000  0.50000000  0.00000000  1
  Sc  Sc15  1  0.00000000  0.00000000  0.50000000  1
  Sc  Sc16  1  0.00000000  0.50000000  0.50000000  1
  Sc  Sc17  1  0.50000000  0.50000000  0.50000000  1
  Sc  Sc18  1  0.50000000  0.00000000  0.00000000  1
  Sc  Sc19  1  0.00000000  0.50000000  0.00000000  1
  Al  Al20  1  0.62500000  0.37500000  0.75000000  1
  Al  Al21  1  0.37500000  0.62500000  0.25000000  1
  Al  Al22  1  0.87500000  0.12500000  0.25000000  1
  Al  Al23  1  0.37500000  0.75000000  0.62500000  1
  Al  Al24  1  0.62500000  0.25000000  0.37500000  1
  Al  Al25  1  0.12500000  0.87500000  0.75000000  1
  Al  Al26  1  0.12500000  0.25000000  0.87500000  1
  Al  Al27  1  0.87500000  0.75000000  0.12500000  1
  Al  Al28  1  0.75000000  0.62500000  0.37500000  1
  Al  Al29  1  0.25000000  0.37500000  0.62500000  1
  Al  Al30  1  0.25000000  0.87500000  0.12500000  1
  Al  Al31  1  0.75000000  0.12500000  0.87500000  1
  O  O32  1  0.71559549  0.62726760  0.52801558  1
  O  O33  1  0.28440451  0.37273240  0.47198442  1
  O  O34  1  0.78440451  0.81242009  0.41167212  1
  O  O35  1  0.40074798  0.87273240  0.08832788  1
  O  O36  1  0.62726760  0.52801558  0.71559549  1
  O  O37  1  0.71559549  0.08832788  0.68757991  1
  O  O38  1  0.21559549  0.18757991  0.58832788  1
  O  O39  1  0.59925202  0.12726760  0.91167212  1
  O  O40  1  0.37273240  0.47198442  0.28440451  1
  O  O41  1  0.28440451  0.91167212  0.31242009  1
  O  O42  1  0.09925202  0.68757991  0.97198442  1
  O  O43  1  0.81242009  0.41167212  0.78440451  1
  O  O44  1  0.78440451  0.97198442  0.87273240  1
  O  O45  1  0.90074798  0.31242009  0.02801558  1
  O  O46  1  0.18757991  0.58832788  0.21559549  1
  O  O47  1  0.21559549  0.02801558  0.12726760  1
  O  O48  1  0.87273240  0.08832788  0.40074798  1
  O  O49  1  0.40074798  0.52801558  0.81242009  1
  O  O50  1  0.12726760  0.91167212  0.59925202  1
  O  O51  1  0.59925202  0.47198442  0.18757991  1
  O  O52  1  0.68757991  0.97198442  0.09925202  1
  O  O53  1  0.09925202  0.41167212  0.62726760  1
  O  O54  1  0.31242009  0.02801558  0.90074798  1
  O  O55  1  0.90074798  0.58832788  0.37273240  1
  O  O56  1  0.52801558  0.71559549  0.62726760  1
  O  O57  1  0.62726760  0.09925202  0.41167212  1
  O  O58  1  0.47198442  0.28440451  0.37273240  1
  O  O59  1  0.37273240  0.90074798  0.58832788  1
  O  O60  1  0.08832788  0.40074798  0.87273240  1
  O  O61  1  0.87273240  0.78440451  0.97198442  1
  O  O62  1  0.91167212  0.59925202  0.12726760  1
  O  O63  1  0.12726760  0.21559549  0.02801558  1
  O  O64  1  0.97198442  0.09925202  0.68757991  1
  O  O65  1  0.68757991  0.71559549  0.08832788  1
  O  O66  1  0.02801558  0.90074798  0.31242009  1
  O  O67  1  0.31242009  0.28440451  0.91167212  1
  O  O68  1  0.41167212  0.78440451  0.81242009  1
  O  O69  1  0.81242009  0.40074798  0.52801558  1
  O  O70  1  0.58832788  0.21559549  0.18757991  1
  O  O71  1  0.18757991  0.59925202  0.47198442  1
  O  O72  1  0.08832788  0.68757991  0.71559549  1
  O  O73  1  0.91167212  0.31242009  0.28440451  1
  O  O74  1  0.97198442  0.87273240  0.78440451  1
  O  O75  1  0.02801558  0.12726760  0.21559549  1
  O  O76  1  0.41167212  0.62726760  0.09925202  1
  O  O77  1  0.58832788  0.37273240  0.90074798  1
  O  O78  1  0.52801558  0.81242009  0.40074798  1
  O  O79  1  0.47198442  0.18757991  0.59925202  1
