# generated using pymatgen
data_Tm2AlGe3
_symmetry_space_group_name_H-M   'P 1'
_cell_length_a   4.13392525
_cell_length_b   6.79860658
_cell_length_c   17.53075797
_cell_angle_alpha   90.00000000
_cell_angle_beta   90.00000000
_cell_angle_gamma   90.00000000
_symmetry_Int_Tables_number   1
_chemical_formula_structural   Tm2AlGe3
_chemical_formula_sum   'Tm8 Al4 Ge12'
_cell_volume   492.70075024
_cell_formula_units_Z   4
loop_
 _symmetry_equiv_pos_site_id
 _symmetry_equiv_pos_as_xyz
  1  'x, y, z'
loop_
 _atom_site_type_symbol
 _atom_site_label
 _atom_site_symmetry_multiplicity
 _atom_site_fract_x
 _atom_site_fract_y
 _atom_site_fract_z
 _atom_site_occupancy
  Tm  Tm0  1  0.75000000  0.83400920  0.79678970  1
  Tm  Tm1  1  0.25000000  0.16599080  0.20321030  1
  Tm  Tm2  1  0.25000000  0.66599080  0.29678970  1
  Tm  Tm3  1  0.75000000  0.33400920  0.70321030  1
  Tm  Tm4  1  0.75000000  0.83240207  0.58542525  1
  Tm  Tm5  1  0.25000000  0.16759793  0.41457475  1
  Tm  Tm6  1  0.25000000  0.66759793  0.08542525  1
  Tm  Tm7  1  0.75000000  0.33240207  0.91457475  1
  Al  Al8  1  0.75000000  0.54875491  0.43575022  1
  Al  Al9  1  0.25000000  0.45124509  0.56424978  1
  Al  Al10  1  0.25000000  0.95124509  0.93575022  1
  Al  Al11  1  0.75000000  0.04875491  0.06424978  1
  Ge  Ge12  1  0.75000000  0.74717232  0.96533787  1
  Ge  Ge13  1  0.25000000  0.25282768  0.03466213  1
  Ge  Ge14  1  0.25000000  0.75282768  0.46533787  1
  Ge  Ge15  1  0.75000000  0.24717232  0.53466213  1
  Ge  Ge16  1  0.75000000  0.96397299  0.32826778  1
  Ge  Ge17  1  0.25000000  0.03602701  0.67173222  1
  Ge  Ge18  1  0.25000000  0.53602701  0.82826778  1
  Ge  Ge19  1  0.75000000  0.46397299  0.17173222  1
  Ge  Ge20  1  0.75000000  0.85376835  0.18841999  1
  Ge  Ge21  1  0.25000000  0.14623165  0.81158001  1
  Ge  Ge22  1  0.25000000  0.64623165  0.68841999  1
  Ge  Ge23  1  0.75000000  0.35376835  0.31158001  1
