# generated using pymatgen
data_Rb2Ce2Fe4O11
_symmetry_space_group_name_H-M   'P 1'
_cell_length_a   3.92794445
_cell_length_b   8.03728160
_cell_length_c   15.75746595
_cell_angle_alpha   90.00000000
_cell_angle_beta   90.00000000
_cell_angle_gamma   90.00000000
_symmetry_Int_Tables_number   1
_chemical_formula_structural   Rb2Ce2Fe4O11
_chemical_formula_sum   'Rb4 Ce4 Fe8 O22'
_cell_volume   497.46313156
_cell_formula_units_Z   2
loop_
 _symmetry_equiv_pos_site_id
 _symmetry_equiv_pos_as_xyz
  1  'x, y, z'
loop_
 _atom_site_type_symbol
 _atom_site_label
 _atom_site_symmetry_multiplicity
 _atom_site_fract_x
 _atom_site_fract_y
 _atom_site_fract_z
 _atom_site_occupancy
  Rb  Rb0  1  0.49927916  0.25000000  0.25000000  1
  Rb  Rb1  1  0.50072084  0.75000000  0.25000000  1
  Rb  Rb2  1  0.50072084  0.75000000  0.75000000  1
  Rb  Rb3  1  0.49927916  0.25000000  0.75000000  1
  Ce  Ce4  1  0.49829866  0.23574790  0.50000000  1
  Ce  Ce5  1  0.50170134  0.76425210  0.50000000  1
  Ce  Ce6  1  0.49829866  0.26425210  -0.00000000  1
  Ce  Ce7  1  0.50170134  0.73574790  -0.00000000  1
  Fe  Fe8  1  0.00000000  0.50000000  0.37054348  1
  Fe  Fe9  1  0.00000000  -0.00000000  0.12945652  1
  Fe  Fe10  1  0.00000000  0.50000000  0.62945652  1
  Fe  Fe11  1  0.00000000  -0.00000000  0.87054348  1
  Fe  Fe12  1  0.00000000  0.50000000  0.12570040  1
  Fe  Fe13  1  0.00000000  -0.00000000  0.37429960  1
  Fe  Fe14  1  0.00000000  0.50000000  0.87429960  1
  Fe  Fe15  1  0.00000000  -0.00000000  0.62570040  1
  O  O16  1  0.99932494  0.26289906  0.40669472  1
  O  O17  1  0.00067506  0.73710094  0.40669472  1
  O  O18  1  0.99932494  0.23710094  0.09330528  1
  O  O19  1  0.00067506  0.76289906  0.09330528  1
  O  O20  1  0.00067506  0.73710094  0.59330528  1
  O  O21  1  0.99932494  0.26289906  0.59330528  1
  O  O22  1  0.00067506  0.76289906  0.90669472  1
  O  O23  1  0.99932494  0.23710094  0.90669472  1
  O  O24  1  0.50000000  0.50000000  0.41318782  1
  O  O25  1  0.50000000  -0.00000000  0.08681218  1
  O  O26  1  0.50000000  0.50000000  0.58681218  1
  O  O27  1  0.50000000  -0.00000000  0.91318782  1
  O  O28  1  0.50000000  0.50000000  0.10526090  1
  O  O29  1  0.50000000  -0.00000000  0.39473910  1
  O  O30  1  0.50000000  0.50000000  0.89473910  1
  O  O31  1  0.50000000  -0.00000000  0.60526090  1
  O  O32  1  0.00000000  0.50000000  0.25012174  1
  O  O33  1  0.00000000  -0.00000000  0.24987826  1
  O  O34  1  0.00000000  0.50000000  0.74987826  1
  O  O35  1  0.00000000  -0.00000000  0.75012174  1
  O  O36  1  0.00000000  -0.00000000  0.50000000  1
  O  O37  1  0.00000000  0.50000000  -0.00000000  1
