# generated using pymatgen
data_NpH16C3N4O11
_symmetry_space_group_name_H-M   'P 1'
_cell_length_a   7.30527304
_cell_length_b   7.30527304
_cell_length_c   13.02708919
_cell_angle_alpha   87.43786341
_cell_angle_beta   87.43786341
_cell_angle_gamma   78.98552885
_symmetry_Int_Tables_number   1
_chemical_formula_structural   NpH16C3N4O11
_chemical_formula_sum   'Np2 H32 C6 N8 O22'
_cell_volume   681.26433387
_cell_formula_units_Z   2
loop_
 _symmetry_equiv_pos_site_id
 _symmetry_equiv_pos_as_xyz
  1  'x, y, z'
loop_
 _atom_site_type_symbol
 _atom_site_label
 _atom_site_symmetry_multiplicity
 _atom_site_fract_x
 _atom_site_fract_y
 _atom_site_fract_z
 _atom_site_occupancy
  Np  Np0  1  0.19272809  0.80727191  0.75000000  1
  Np  Np1  1  0.80727191  0.19272809  0.25000000  1
  H  H2  1  0.37858804  0.70440821  0.52639351  1
  H  H3  1  0.62141196  0.29559179  0.47360649  1
  H  H4  1  0.29559179  0.62141196  0.97360649  1
  H  H5  1  0.70440821  0.37858804  0.02639351  1
  H  H6  1  0.64680474  0.13517207  0.83399983  1
  H  H7  1  0.35319526  0.86482793  0.16600017  1
  H  H8  1  0.86482793  0.35319526  0.66600017  1
  H  H9  1  0.13517207  0.64680474  0.33399983  1
  H  H10  1  0.34310496  0.91090796  0.46079486  1
  H  H11  1  0.65689504  0.08909204  0.53920514  1
  H  H12  1  0.08909204  0.65689504  0.03920514  1
  H  H13  1  0.91090796  0.34310496  0.96079486  1
  H  H14  1  0.52765531  0.95814324  0.86067293  1
  H  H15  1  0.47234469  0.04185676  0.13932707  1
  H  H16  1  0.04185676  0.47234469  0.63932707  1
  H  H17  1  0.95814324  0.52765531  0.36067293  1
  H  H18  1  0.73921585  0.94319561  0.91083944  1
  H  H19  1  0.26078415  0.05680439  0.08916056  1
  H  H20  1  0.05680439  0.26078415  0.58916056  1
  H  H21  1  0.94319561  0.73921585  0.41083944  1
  H  H22  1  0.72636503  0.93575871  0.78148783  1
  H  H23  1  0.27363497  0.06424129  0.21851217  1
  H  H24  1  0.06424129  0.27363497  0.71851217  1
  H  H25  1  0.93575871  0.72636503  0.28148783  1
  H  H26  1  0.43677210  0.19837753  0.51015686  1
  H  H27  1  0.56322790  0.80162247  0.48984314  1
  H  H28  1  0.80162247  0.56322790  0.98984314  1
  H  H29  1  0.19837753  0.43677210  0.01015686  1
  H  H30  1  0.71044986  0.44897577  0.90050132  1
  H  H31  1  0.28955014  0.55102423  0.09949868  1
  H  H32  1  0.55102423  0.28955014  0.59949868  1
  H  H33  1  0.44897577  0.71044986  0.40050132  1
  C  C34  1  0.15652892  0.08112701  0.90775515  1
  C  C35  1  0.84347108  0.91887299  0.09224485  1
  C  C36  1  0.91887299  0.84347108  0.59224485  1
  C  C37  1  0.08112701  0.15652892  0.40775515  1
  C  C38  1  0.50368169  0.49631831  0.75000000  1
  C  C39  1  0.49631831  0.50368169  0.25000000  1
  N  N40  1  0.65887052  0.99230429  0.84763091  1
  N  N41  1  0.34112948  0.00769571  0.15236909  1
  N  N42  1  0.00769571  0.34112948  0.65236909  1
  N  N43  1  0.99230429  0.65887052  0.34763091  1
  N  N44  1  0.56624120  0.21902850  0.53152642  1
  N  N45  1  0.43375880  0.78097150  0.46847358  1
  N  N46  1  0.78097150  0.43375880  0.96847358  1
  N  N47  1  0.21902850  0.56624120  0.03152642  1
  O  O48  1  0.33753672  0.94890080  0.67853480  1
  O  O49  1  0.66246328  0.05109920  0.32146520  1
  O  O50  1  0.05109920  0.66246328  0.82146520  1
  O  O51  1  0.94890080  0.33753672  0.17853480  1
  O  O52  1  0.28833911  0.93171355  0.90777696  1
  O  O53  1  0.71166089  0.06828645  0.09222304  1
  O  O54  1  0.06828645  0.71166089  0.59222304  1
  O  O55  1  0.93171355  0.28833911  0.40777696  1
  O  O56  1  0.19912316  0.13801861  0.47869860  1
  O  O57  1  0.80087684  0.86198139  0.52130140  1
  O  O58  1  0.86198139  0.80087684  0.02130140  1
  O  O59  1  0.13801861  0.19912316  0.97869860  1
  O  O60  1  0.09925006  0.04392644  0.33168534  1
  O  O61  1  0.90074994  0.95607356  0.66831466  1
  O  O62  1  0.95607356  0.90074994  0.16831466  1
  O  O63  1  0.04392644  0.09925006  0.83168534  1
  O  O64  1  0.46318770  0.60495900  0.82817413  1
  O  O65  1  0.53681230  0.39504100  0.17182587  1
  O  O66  1  0.39504100  0.53681230  0.67182587  1
  O  O67  1  0.60495900  0.46318770  0.32817413  1
  O  O68  1  0.64127412  0.35872588  0.75000000  1
  O  O69  1  0.35872588  0.64127412  0.25000000  1
