# generated using pymatgen
data_Na2TmMoPO8
_symmetry_space_group_name_H-M   'P 1'
_cell_length_a   6.86912813
_cell_length_b   11.44794233
_cell_length_c   11.44794233
_cell_angle_alpha   64.06374298
_cell_angle_beta   72.54144780
_cell_angle_gamma   72.54144780
_symmetry_Int_Tables_number   1
_chemical_formula_structural   Na2TmMoPO8
_chemical_formula_sum   'Na8 Tm4 Mo4 P4 O32'
_cell_volume   757.17453042
_cell_formula_units_Z   4
loop_
 _symmetry_equiv_pos_site_id
 _symmetry_equiv_pos_as_xyz
  1  'x, y, z'
loop_
 _atom_site_type_symbol
 _atom_site_label
 _atom_site_symmetry_multiplicity
 _atom_site_fract_x
 _atom_site_fract_y
 _atom_site_fract_z
 _atom_site_occupancy
  Na  Na0  1  0.83375311  0.09062291  0.21436549  1
  Na  Na1  1  0.16624689  0.90937709  0.78563451  1
  Na  Na2  1  0.86125849  0.71436549  0.59062291  1
  Na  Na3  1  0.66624689  0.78563451  0.90937709  1
  Na  Na4  1  0.13874151  0.28563451  0.40937709  1
  Na  Na5  1  0.33375311  0.21436549  0.09062291  1
  Na  Na6  1  0.63874151  0.40937709  0.28563451  1
  Na  Na7  1  0.36125849  0.59062291  0.71436549  1
  Tm  Tm8  1  0.75000000  0.67807675  0.32192325  1
  Tm  Tm9  1  0.25000000  0.32192325  0.67807675  1
  Tm  Tm10  1  0.25000000  0.82192325  0.17807675  1
  Tm  Tm11  1  0.75000000  0.17807675  0.82192325  1
  Mo  Mo12  1  0.67735427  0.07264573  0.57264573  1
  Mo  Mo13  1  0.32264573  0.92735427  0.42735427  1
  Mo  Mo14  1  0.82264573  0.42735427  0.92735427  1
  Mo  Mo15  1  0.17735427  0.57264573  0.07264573  1
  P  P16  1  0.75000000  0.93109733  0.06890267  1
  P  P17  1  0.25000000  0.06890267  0.93109733  1
  P  P18  1  0.25000000  0.56890267  0.43109733  1
  P  P19  1  0.75000000  0.43109733  0.56890267  1
  O  O20  1  0.30367587  0.42460160  0.43959846  1
  O  O21  1  0.69632413  0.57539840  0.56040154  1
  O  O22  1  0.83212407  0.93959846  0.92460160  1
  O  O23  1  0.19632413  0.56040154  0.57539840  1
  O  O24  1  0.16787593  0.06040154  0.07539840  1
  O  O25  1  0.80367587  0.43959846  0.42460160  1
  O  O26  1  0.66787593  0.07539840  0.06040154  1
  O  O27  1  0.33212407  0.92460160  0.93959846  1
  O  O28  1  0.91780470  0.85896597  0.15757476  1
  O  O29  1  0.08219530  0.14103403  0.84242524  1
  O  O30  1  0.06565457  0.65757476  0.35896597  1
  O  O31  1  0.58219530  0.84242524  0.14103403  1
  O  O32  1  0.93434543  0.34242524  0.64103403  1
  O  O33  1  0.41780470  0.15757476  0.85896597  1
  O  O34  1  0.43434543  0.64103403  0.34242524  1
  O  O35  1  0.56565457  0.35896597  0.65757476  1
  O  O36  1  0.59226885  0.84493545  0.39467961  1
  O  O37  1  0.40773115  0.15506455  0.60532039  1
  O  O38  1  0.16811610  0.89467961  0.34493545  1
  O  O39  1  0.90773115  0.60532039  0.15506455  1
  O  O40  1  0.83188390  0.10532039  0.65506455  1
  O  O41  1  0.09226885  0.39467961  0.84493545  1
  O  O42  1  0.33188390  0.65506455  0.10532039  1
  O  O43  1  0.66811610  0.34493545  0.89467961  1
  O  O44  1  0.68907375  0.89871532  0.63701007  1
  O  O45  1  0.31092625  0.10128468  0.36298993  1
  O  O46  1  0.77520086  0.13701007  0.39871532  1
  O  O47  1  0.81092625  0.36298993  0.10128468  1
  O  O48  1  0.22479914  0.86298993  0.60128468  1
  O  O49  1  0.18907375  0.63701007  0.89871532  1
  O  O50  1  0.72479914  0.60128468  0.86298993  1
  O  O51  1  0.27520086  0.39871532  0.13701007  1
