# generated using pymatgen
data_Tb12Ni6Pb
_symmetry_space_group_name_H-M   'P 1'
_cell_length_a   8.41791903
_cell_length_b   8.41791903
_cell_length_c   8.41791903
_cell_angle_alpha   109.47122063
_cell_angle_beta   109.47122063
_cell_angle_gamma   109.47122063
_symmetry_Int_Tables_number   1
_chemical_formula_structural   Tb12Ni6Pb
_chemical_formula_sum   'Tb12 Ni6 Pb1'
_cell_volume   459.18991573
_cell_formula_units_Z   1
loop_
 _symmetry_equiv_pos_site_id
 _symmetry_equiv_pos_as_xyz
  1  'x, y, z'
loop_
 _atom_site_type_symbol
 _atom_site_label
 _atom_site_symmetry_multiplicity
 _atom_site_fract_x
 _atom_site_fract_y
 _atom_site_fract_z
 _atom_site_occupancy
  Tb  Tb0  1  0.81084987  0.69655607  0.50740594  1
  Tb  Tb1  1  0.18915013  0.30344393  0.49259406  1
  Tb  Tb2  1  0.18915013  0.69655607  0.88570620  1
  Tb  Tb3  1  0.81084987  0.30344393  0.11429380  1
  Tb  Tb4  1  0.69655607  0.50740594  0.81084987  1
  Tb  Tb5  1  0.30344393  0.49259406  0.18915013  1
  Tb  Tb6  1  0.69655607  0.88570620  0.18915013  1
  Tb  Tb7  1  0.30344393  0.11429380  0.81084987  1
  Tb  Tb8  1  0.50740594  0.81084987  0.69655607  1
  Tb  Tb9  1  0.49259406  0.18915013  0.30344393  1
  Tb  Tb10  1  0.11429380  0.81084987  0.30344393  1
  Tb  Tb11  1  0.88570620  0.18915013  0.69655607  1
  Ni  Ni12  1  0.87743292  0.37743292  0.50000000  1
  Ni  Ni13  1  0.12256708  0.62256708  0.50000000  1
  Ni  Ni14  1  0.37743292  0.50000000  0.87743292  1
  Ni  Ni15  1  0.62256708  0.50000000  0.12256708  1
  Ni  Ni16  1  0.50000000  0.87743292  0.37743292  1
  Ni  Ni17  1  0.50000000  0.12256708  0.62256708  1
  Pb  Pb18  1  -0.00000000  -0.00000000  -0.00000000  1
