# generated using pymatgen
data_Sm2MgPtO6
_symmetry_space_group_name_H-M   'P 1'
_cell_length_a   5.45716674
_cell_length_b   5.76001190
_cell_length_c   7.83286666
_cell_angle_alpha   90.00000000
_cell_angle_beta   90.30163229
_cell_angle_gamma   90.00000000
_symmetry_Int_Tables_number   1
_chemical_formula_structural   Sm2MgPtO6
_chemical_formula_sum   'Sm4 Mg2 Pt2 O12'
_cell_volume   246.20979090
_cell_formula_units_Z   2
loop_
 _symmetry_equiv_pos_site_id
 _symmetry_equiv_pos_as_xyz
  1  'x, y, z'
loop_
 _atom_site_type_symbol
 _atom_site_label
 _atom_site_symmetry_multiplicity
 _atom_site_fract_x
 _atom_site_fract_y
 _atom_site_fract_z
 _atom_site_occupancy
  Sm  Sm0  1  0.01928589  0.43340057  0.25099486  1
  Sm  Sm1  1  0.98071411  0.56659943  0.74900514  1
  Sm  Sm2  1  0.48071411  0.93340057  0.24900514  1
  Sm  Sm3  1  0.51928589  0.06659943  0.75099486  1
  Mg  Mg4  1  0.00000000  -0.00000000  0.50000000  1
  Mg  Mg5  1  0.50000000  0.50000000  0.00000000  1
  Pt  Pt6  1  0.00000000  -0.00000000  0.00000000  1
  Pt  Pt7  1  0.50000000  0.50000000  0.50000000  1
  O  O8  1  0.89104991  0.03826523  0.24790007  1
  O  O9  1  0.10895009  0.96173477  0.75209993  1
  O  O10  1  0.60895009  0.53826523  0.25209993  1
  O  O11  1  0.39104991  0.46173477  0.74790007  1
  O  O12  1  0.19212221  0.70202332  0.05722980  1
  O  O13  1  0.80787779  0.29797668  0.94277020  1
  O  O14  1  0.30787779  0.20202332  0.44277020  1
  O  O15  1  0.69212221  0.79797668  0.55722980  1
  O  O16  1  0.30369690  0.19805267  0.05437765  1
  O  O17  1  0.69630310  0.80194733  0.94562235  1
  O  O18  1  0.19630310  0.69805267  0.44562235  1
  O  O19  1  0.80369690  0.30194733  0.55437765  1
