# generated using pymatgen
data_Rb3GeF7
_symmetry_space_group_name_H-M   'P 1'
_cell_length_a   5.98627552
_cell_length_b   8.26298104
_cell_length_c   8.26298104
_cell_angle_alpha   90.00000000
_cell_angle_beta   90.00000000
_cell_angle_gamma   90.00000000
_symmetry_Int_Tables_number   1
_chemical_formula_structural   Rb3GeF7
_chemical_formula_sum   'Rb6 Ge2 F14'
_cell_volume   408.72406966
_cell_formula_units_Z   2
loop_
 _symmetry_equiv_pos_site_id
 _symmetry_equiv_pos_as_xyz
  1  'x, y, z'
loop_
 _atom_site_type_symbol
 _atom_site_label
 _atom_site_symmetry_multiplicity
 _atom_site_fract_x
 _atom_site_fract_y
 _atom_site_fract_z
 _atom_site_occupancy
  Rb  Rb0  1  0.50000000  0.19912202  0.69912202  1
  Rb  Rb1  1  0.50000000  0.80087798  0.30087798  1
  Rb  Rb2  1  0.50000000  0.30087798  0.19912202  1
  Rb  Rb3  1  0.50000000  0.69912202  0.80087798  1
  Rb  Rb4  1  0.00000000  -0.00000000  -0.00000000  1
  Rb  Rb5  1  0.00000000  0.50000000  0.50000000  1
  Ge  Ge6  1  0.00000000  0.00000000  0.50000000  1
  Ge  Ge7  1  0.00000000  0.50000000  -0.00000000  1
  F  F8  1  0.21893884  0.60958251  0.10958251  1
  F  F9  1  0.78106116  0.39041749  0.89041749  1
  F  F10  1  0.21893884  0.39041749  0.89041749  1
  F  F11  1  0.21893884  0.89041749  0.60958251  1
  F  F12  1  0.78106116  0.89041749  0.60958251  1
  F  F13  1  0.78106116  0.60958251  0.10958251  1
  F  F14  1  0.78106116  0.10958251  0.39041749  1
  F  F15  1  0.21893884  0.10958251  0.39041749  1
  F  F16  1  0.00000000  0.15688965  0.65688965  1
  F  F17  1  -0.00000000  0.84311035  0.34311035  1
  F  F18  1  -0.00000000  0.34311035  0.15688965  1
  F  F19  1  0.00000000  0.65688965  0.84311035  1
  F  F20  1  0.50000000  0.00000000  0.00000000  1
  F  F21  1  0.50000000  0.50000000  0.50000000  1
