# generated using pymatgen
data_RbMo3(PO7)2
_symmetry_space_group_name_H-M   'P 1'
_cell_length_a   6.51421748
_cell_length_b   9.13422933
_cell_length_c   10.89187070
_cell_angle_alpha   110.92746069
_cell_angle_beta   90.00000000
_cell_angle_gamma   90.00000000
_symmetry_Int_Tables_number   1
_chemical_formula_structural   RbMo3(PO7)2
_chemical_formula_sum   'Rb2 Mo6 P4 O28'
_cell_volume   605.33954173
_cell_formula_units_Z   2
loop_
 _symmetry_equiv_pos_site_id
 _symmetry_equiv_pos_as_xyz
  1  'x, y, z'
loop_
 _atom_site_type_symbol
 _atom_site_label
 _atom_site_symmetry_multiplicity
 _atom_site_fract_x
 _atom_site_fract_y
 _atom_site_fract_z
 _atom_site_occupancy
  Rb  Rb0  1  0.75000000  0.01025427  0.25169883  1
  Rb  Rb1  1  0.25000000  0.98974573  0.74830117  1
  Mo  Mo2  1  0.75000000  0.73590849  0.82498881  1
  Mo  Mo3  1  0.25000000  0.26409151  0.17501119  1
  Mo  Mo4  1  0.75000000  0.34685502  0.88064045  1
  Mo  Mo5  1  0.25000000  0.65314498  0.11935955  1
  Mo  Mo6  1  0.75000000  0.72092200  0.50438772  1
  Mo  Mo7  1  0.25000000  0.27907800  0.49561228  1
  P  P8  1  0.75000000  0.39144355  0.19861804  1
  P  P9  1  0.25000000  0.60855645  0.80138196  1
  P  P10  1  0.75000000  0.35891226  0.56836463  1
  P  P11  1  0.25000000  0.64108774  0.43163537  1
  O  O12  1  0.75000000  0.56679077  0.88674380  1
  O  O13  1  0.25000000  0.43320923  0.11325620  1
  O  O14  1  0.75000000  0.90028833  0.96384896  1
  O  O15  1  0.25000000  0.09971167  0.03615104  1
  O  O16  1  0.43874363  0.71540217  0.80925835  1
  O  O17  1  0.56125637  0.28459783  0.19074165  1
  O  O18  1  0.93874363  0.28459783  0.19074165  1
  O  O19  1  0.06125637  0.71540217  0.80925835  1
  O  O20  1  0.75000000  0.83514989  0.69956374  1
  O  O21  1  0.25000000  0.16485011  0.30043626  1
  O  O22  1  0.75000000  0.87809545  0.45452021  1
  O  O23  1  0.25000000  0.12190455  0.54547979  1
  O  O24  1  0.96545103  0.23427348  0.87383079  1
  O  O25  1  0.03454897  0.76572652  0.12616921  1
  O  O26  1  0.46545103  0.76572652  0.12616921  1
  O  O27  1  0.53454897  0.23427348  0.87383079  1
  O  O28  1  0.43842305  0.70827939  0.52024483  1
  O  O29  1  0.56157695  0.29172061  0.47975517  1
  O  O30  1  0.93842305  0.29172061  0.47975517  1
  O  O31  1  0.06157695  0.70827939  0.52024483  1
  O  O32  1  0.75000000  0.53398132  0.32732346  1
  O  O33  1  0.25000000  0.46601868  0.67267654  1
  O  O34  1  0.75000000  0.44992250  0.08132423  1
  O  O35  1  0.25000000  0.55007750  0.91867577  1
  O  O36  1  0.75000000  0.29940581  0.68406700  1
  O  O37  1  0.25000000  0.70059419  0.31593300  1
  O  O38  1  0.75000000  0.53997247  0.61583339  1
  O  O39  1  0.25000000  0.46002753  0.38416661  1
