# generated using pymatgen
data_MgGaBO4
_symmetry_space_group_name_H-M   'P 1'
_cell_length_a   3.11364058
_cell_length_b   9.31558500
_cell_length_c   9.40029930
_cell_angle_alpha   90.00000000
_cell_angle_beta   90.00000000
_cell_angle_gamma   90.00000000
_symmetry_Int_Tables_number   1
_chemical_formula_structural   MgGaBO4
_chemical_formula_sum   'Mg4 Ga4 B4 O16'
_cell_volume   272.65928605
_cell_formula_units_Z   4
loop_
 _symmetry_equiv_pos_site_id
 _symmetry_equiv_pos_as_xyz
  1  'x, y, z'
loop_
 _atom_site_type_symbol
 _atom_site_label
 _atom_site_symmetry_multiplicity
 _atom_site_fract_x
 _atom_site_fract_y
 _atom_site_fract_z
 _atom_site_occupancy
  Mg  Mg0  1  0.75000000  0.89607366  0.31265236  1
  Mg  Mg1  1  0.25000000  0.10392634  0.68734764  1
  Mg  Mg2  1  0.25000000  0.60392634  0.81265236  1
  Mg  Mg3  1  0.75000000  0.39607366  0.18734764  1
  Ga  Ga4  1  0.75000000  0.88458267  0.92979761  1
  Ga  Ga5  1  0.25000000  0.11541733  0.07020239  1
  Ga  Ga6  1  0.25000000  0.61541733  0.42979761  1
  Ga  Ga7  1  0.75000000  0.38458267  0.57020239  1
  B  B8  1  0.75000000  0.83628972  0.62705568  1
  B  B9  1  0.25000000  0.16371028  0.37294432  1
  B  B10  1  0.25000000  0.66371028  0.12705568  1
  B  B11  1  0.75000000  0.33628972  0.87294432  1
  O  O12  1  0.75000000  0.49198182  0.38559144  1
  O  O13  1  0.25000000  0.50801818  0.61440856  1
  O  O14  1  0.25000000  0.00801818  0.88559144  1
  O  O15  1  0.75000000  0.99198182  0.11440856  1
  O  O16  1  0.75000000  0.97998781  0.62923567  1
  O  O17  1  0.25000000  0.02001219  0.37076433  1
  O  O18  1  0.25000000  0.52001219  0.12923567  1
  O  O19  1  0.75000000  0.47998781  0.87076433  1
  O  O20  1  0.75000000  0.75915992  0.49688132  1
  O  O21  1  0.25000000  0.24084008  0.50311868  1
  O  O22  1  0.25000000  0.74084008  0.99688132  1
  O  O23  1  0.75000000  0.25915992  0.00311868  1
  O  O24  1  0.75000000  0.75840804  0.75600069  1
  O  O25  1  0.25000000  0.24159196  0.24399931  1
  O  O26  1  0.25000000  0.74159196  0.25600069  1
  O  O27  1  0.75000000  0.25840804  0.74399931  1
