# generated using pymatgen
data_Mn4Zn3H10(CO8)2
_symmetry_space_group_name_H-M   'P 1'
_cell_length_a   5.65977241
_cell_length_b   8.19520230
_cell_length_c   16.69498999
_cell_angle_alpha   95.69034701
_cell_angle_beta   90.00000000
_cell_angle_gamma   110.20072711
_symmetry_Int_Tables_number   1
_chemical_formula_structural   Mn4Zn3H10(CO8)2
_chemical_formula_sum   'Mn8 Zn6 H20 C4 O32'
_cell_volume   722.66393614
_cell_formula_units_Z   2
loop_
 _symmetry_equiv_pos_site_id
 _symmetry_equiv_pos_as_xyz
  1  'x, y, z'
loop_
 _atom_site_type_symbol
 _atom_site_label
 _atom_site_symmetry_multiplicity
 _atom_site_fract_x
 _atom_site_fract_y
 _atom_site_fract_z
 _atom_site_occupancy
  Mn  Mn0  1  0.47084903  0.43401646  0.58985691  1
  Mn  Mn1  1  0.52915097  0.56598354  0.41014309  1
  Mn  Mn2  1  0.03683257  0.56598354  0.91014309  1
  Mn  Mn3  1  0.96316743  0.43401646  0.08985691  1
  Mn  Mn4  1  0.56454783  0.60633389  0.81548714  1
  Mn  Mn5  1  0.43545217  0.39366611  0.18451286  1
  Mn  Mn6  1  0.95821393  0.39366611  0.68451286  1
  Mn  Mn7  1  0.04178607  0.60633389  0.31548714  1
  Zn  Zn8  1  0.38360426  0.27381459  0.96149590  1
  Zn  Zn9  1  0.61639574  0.72618541  0.03850410  1
  Zn  Zn10  1  0.10978967  0.72618541  0.53850410  1
  Zn  Zn11  1  0.89021033  0.27381459  0.46149590  1
  Zn  Zn12  1  0.77817418  0.00000000  0.75000000  1
  Zn  Zn13  1  0.22182582  0.00000000  0.25000000  1
  H  H14  1  0.20892633  0.18355265  0.71557957  1
  H  H15  1  0.79107367  0.81644735  0.28442043  1
  H  H16  1  0.02537368  0.81644735  0.78442043  1
  H  H17  1  0.97462632  0.18355265  0.21557957  1
  H  H18  1  0.20442881  0.32050464  0.83422841  1
  H  H19  1  0.79557119  0.67949536  0.16577159  1
  H  H20  1  0.88392417  0.67949536  0.66577159  1
  H  H21  1  0.11607583  0.32050464  0.33422841  1
  H  H22  1  0.90275119  0.84046711  0.93053266  1
  H  H23  1  0.09724881  0.15953289  0.06946734  1
  H  H24  1  0.06228408  0.15953289  0.56946734  1
  H  H25  1  0.93771592  0.84046711  0.43053266  1
  H  H26  1  0.53582935  0.75191058  0.55768588  1
  H  H27  1  0.46417065  0.24808942  0.44231412  1
  H  H28  1  0.78391876  0.24808942  0.94231412  1
  H  H29  1  0.21608124  0.75191058  0.05768588  1
  H  H30  1  0.37865335  0.67304626  0.68614766  1
  H  H31  1  0.62134665  0.32695374  0.31385234  1
  H  H32  1  0.70560709  0.32695374  0.81385234  1
  H  H33  1  0.29439291  0.67304626  0.18614766  1
  C  C34  1  0.39535164  0.95394584  0.87310645  1
  C  C35  1  0.60464836  0.04605416  0.12689355  1
  C  C36  1  0.44140580  0.04605416  0.62689355  1
  C  C37  1  0.55859420  0.95394584  0.37310645  1
  O  O38  1  0.28541844  0.40741295  0.88194154  1
  O  O39  1  0.71458156  0.59258705  0.11805846  1
  O  O40  1  0.87800550  0.59258705  0.61805846  1
  O  O41  1  0.12199450  0.40741295  0.38194154  1
  O  O42  1  0.78383428  0.72145912  0.93411813  1
  O  O43  1  0.21616572  0.27854088  0.06588187  1
  O  O44  1  0.06237517  0.27854088  0.56588187  1
  O  O45  1  0.93762483  0.72145912  0.43411813  1
  O  O46  1  0.53690291  0.93786186  0.65437213  1
  O  O47  1  0.46309709  0.06213814  0.34562787  1
  O  O48  1  0.59904105  0.06213814  0.84562787  1
  O  O49  1  0.40095895  0.93786186  0.15437213  1
  O  O50  1  0.26125642  0.01398127  0.92267001  1
  O  O51  1  0.73874358  0.98601873  0.07732999  1
  O  O52  1  0.24727515  0.98601873  0.57732999  1
  O  O53  1  0.75272485  0.01398127  0.42267001  1
  O  O54  1  0.35677750  0.55559657  0.69988370  1
  O  O55  1  0.64322250  0.44440343  0.30011630  1
  O  O56  1  0.80118093  0.44440343  0.80011630  1
  O  O57  1  0.19881907  0.55559657  0.19988370  1
  O  O58  1  0.53542611  0.21295994  0.64998899  1
  O  O59  1  0.46457389  0.78704006  0.35001101  1
  O  O60  1  0.32246617  0.78704006  0.85001101  1
  O  O61  1  0.67753383  0.21295994  0.14998899  1
  O  O62  1  0.58869062  0.34950421  0.47280804  1
  O  O63  1  0.41130938  0.65049579  0.52719196  1
  O  O64  1  0.23918641  0.65049579  0.02719196  1
  O  O65  1  0.76081359  0.34950421  0.97280804  1
  O  O66  1  0.86578956  0.79228163  0.75493268  1
  O  O67  1  0.13421044  0.20771837  0.24506732  1
  O  O68  1  0.07350793  0.20771837  0.74506732  1
  O  O69  1  0.92649207  0.79228163  0.25493268  1
