# generated using pymatgen
data_InH9(SO6)2
_symmetry_space_group_name_H-M   'P 1'
_cell_length_a   5.64774694
_cell_length_b   10.08673159
_cell_length_c   18.73586920
_cell_angle_alpha   90.00000000
_cell_angle_beta   90.00000000
_cell_angle_gamma   90.00000000
_symmetry_Int_Tables_number   1
_chemical_formula_structural   InH9(SO6)2
_chemical_formula_sum   'In4 H36 S8 O48'
_cell_volume   1067.33202147
_cell_formula_units_Z   4
loop_
 _symmetry_equiv_pos_site_id
 _symmetry_equiv_pos_as_xyz
  1  'x, y, z'
loop_
 _atom_site_type_symbol
 _atom_site_label
 _atom_site_symmetry_multiplicity
 _atom_site_fract_x
 _atom_site_fract_y
 _atom_site_fract_z
 _atom_site_occupancy
  In  In0  1  0.00000000  0.00000000  -0.00000000  1
  In  In1  1  0.50000000  0.50000000  -0.00000000  1
  In  In2  1  0.00000000  0.00000000  0.50000000  1
  In  In3  1  0.50000000  0.50000000  0.50000000  1
  H  H4  1  0.55123174  0.49829783  0.25000000  1
  H  H5  1  0.44876826  0.50170217  0.75000000  1
  H  H6  1  0.05123174  0.00170217  0.75000000  1
  H  H7  1  0.94876826  0.99829783  0.25000000  1
  H  H8  1  0.65456580  0.09215557  0.10000024  1
  H  H9  1  0.34543420  0.90784443  0.89999976  1
  H  H10  1  0.15456580  0.40784443  0.89999976  1
  H  H11  1  0.34543420  0.90784443  0.60000024  1
  H  H12  1  0.84543420  0.59215557  0.10000024  1
  H  H13  1  0.65456580  0.09215557  0.39999976  1
  H  H14  1  0.84543420  0.59215557  0.39999976  1
  H  H15  1  0.15456580  0.40784443  0.60000024  1
  H  H16  1  0.35373807  0.06521195  0.59731247  1
  H  H17  1  0.64626193  0.93478805  0.40268753  1
  H  H18  1  0.85373807  0.43478805  0.40268753  1
  H  H19  1  0.64626193  0.93478805  0.09731247  1
  H  H20  1  0.14626193  0.56521195  0.59731247  1
  H  H21  1  0.35373807  0.06521195  0.90268753  1
  H  H22  1  0.14626193  0.56521195  0.90268753  1
  H  H23  1  0.85373807  0.43478805  0.09731247  1
  H  H24  1  0.52590147  0.65993038  0.20554345  1
  H  H25  1  0.47409853  0.34006962  0.79445655  1
  H  H26  1  0.02590147  0.84006962  0.79445655  1
  H  H27  1  0.47409853  0.34006962  0.70554345  1
  H  H28  1  0.97409853  0.15993038  0.20554345  1
  H  H29  1  0.52590147  0.65993038  0.29445655  1
  H  H30  1  0.97409853  0.15993038  0.29445655  1
  H  H31  1  0.02590147  0.84006962  0.70554345  1
  H  H32  1  0.50440320  0.31924222  0.20674920  1
  H  H33  1  0.49559680  0.68075778  0.79325080  1
  H  H34  1  0.00440320  0.18075778  0.79325080  1
  H  H35  1  0.49559680  0.68075778  0.70674920  1
  H  H36  1  0.99559680  0.81924222  0.20674920  1
  H  H37  1  0.50440320  0.31924222  0.29325080  1
  H  H38  1  0.99559680  0.81924222  0.29325080  1
  H  H39  1  0.00440320  0.18075778  0.70674920  1
  S  S40  1  0.22222192  0.25966559  0.09152108  1
  S  S41  1  0.77777808  0.74033441  0.90847892  1
  S  S42  1  0.72222192  0.24033441  0.90847892  1
  S  S43  1  0.77777808  0.74033441  0.59152108  1
  S  S44  1  0.27777808  0.75966559  0.09152108  1
  S  S45  1  0.22222192  0.25966559  0.40847892  1
  S  S46  1  0.27777808  0.75966559  0.40847892  1
  S  S47  1  0.72222192  0.24033441  0.59152108  1
  O  O48  1  0.24760895  0.40145500  0.06681563  1
  O  O49  1  0.75239105  0.59854500  0.93318437  1
  O  O50  1  0.74760895  0.09854500  0.93318437  1
  O  O51  1  0.75239105  0.59854500  0.56681563  1
  O  O52  1  0.25239105  0.90145500  0.06681563  1
  O  O53  1  0.24760895  0.40145500  0.43318437  1
  O  O54  1  0.25239105  0.90145500  0.43318437  1
  O  O55  1  0.74760895  0.09854500  0.56681563  1
  O  O56  1  0.19403690  0.17687417  0.02527119  1
  O  O57  1  0.80596310  0.82312583  0.97472881  1
  O  O58  1  0.69403690  0.32312583  0.97472881  1
  O  O59  1  0.80596310  0.82312583  0.52527119  1
  O  O60  1  0.30596310  0.67687417  0.02527119  1
  O  O61  1  0.19403690  0.17687417  0.47472881  1
  O  O62  1  0.30596310  0.67687417  0.47472881  1
  O  O63  1  0.69403690  0.32312583  0.52527119  1
  O  O64  1  0.43546080  0.21684625  0.13121166  1
  O  O65  1  0.56453920  0.78315375  0.86878834  1
  O  O66  1  0.93546080  0.28315375  0.86878834  1
  O  O67  1  0.56453920  0.78315375  0.63121166  1
  O  O68  1  0.06453920  0.71684625  0.13121166  1
  O  O69  1  0.43546080  0.21684625  0.36878834  1
  O  O70  1  0.06453920  0.71684625  0.36878834  1
  O  O71  1  0.93546080  0.28315375  0.63121166  1
  O  O72  1  0.75313042  0.01160773  0.09271618  1
  O  O73  1  0.24686958  0.98839227  0.90728382  1
  O  O74  1  0.25313042  0.48839227  0.90728382  1
  O  O75  1  0.24686958  0.98839227  0.59271618  1
  O  O76  1  0.74686958  0.51160773  0.09271618  1
  O  O77  1  0.75313042  0.01160773  0.40728382  1
  O  O78  1  0.74686958  0.51160773  0.40728382  1
  O  O79  1  0.25313042  0.48839227  0.59271618  1
  O  O80  1  0.55284588  0.36944960  0.25000000  1
  O  O81  1  0.44715412  0.63055040  0.75000000  1
  O  O82  1  0.05284588  0.13055040  0.75000000  1
  O  O83  1  0.94715412  0.86944960  0.25000000  1
  O  O84  1  0.56757628  0.60914424  0.25000000  1
  O  O85  1  0.43242372  0.39085576  0.75000000  1
  O  O86  1  0.06757628  0.89085576  0.75000000  1
  O  O87  1  0.93242372  0.10914424  0.25000000  1
  O  O88  1  0.00562601  0.25706797  0.13574584  1
  O  O89  1  0.99437399  0.74293203  0.86425416  1
  O  O90  1  0.50562601  0.24293203  0.86425416  1
  O  O91  1  0.99437399  0.74293203  0.63574584  1
  O  O92  1  0.49437399  0.75706797  0.13574584  1
  O  O93  1  0.00562601  0.25706797  0.36425416  1
  O  O94  1  0.49437399  0.75706797  0.36425416  1
  O  O95  1  0.50562601  0.24293203  0.63574584  1
