# generated using pymatgen
data_Mg2P2H4O9
_symmetry_space_group_name_H-M   'P 1'
_cell_length_a   6.37804073
_cell_length_b   7.49393848
_cell_length_c   14.16533619
_cell_angle_alpha   90.00000000
_cell_angle_beta   90.00000000
_cell_angle_gamma   94.37244905
_symmetry_Int_Tables_number   1
_chemical_formula_structural   Mg2P2H4O9
_chemical_formula_sum   'Mg8 P8 H16 O36'
_cell_volume   675.08499169
_cell_formula_units_Z   4
loop_
 _symmetry_equiv_pos_site_id
 _symmetry_equiv_pos_as_xyz
  1  'x, y, z'
loop_
 _atom_site_type_symbol
 _atom_site_label
 _atom_site_symmetry_multiplicity
 _atom_site_fract_x
 _atom_site_fract_y
 _atom_site_fract_z
 _atom_site_occupancy
  Mg  Mg0  1  0.54716737  0.84826720  0.25146385  1
  Mg  Mg1  1  0.45283263  0.15173280  0.74853615  1
  Mg  Mg2  1  0.95283263  0.65173280  0.75146385  1
  Mg  Mg3  1  0.04716737  0.34826720  0.24853615  1
  Mg  Mg4  1  0.76533828  0.57769453  0.11196961  1
  Mg  Mg5  1  0.23466172  0.42230547  0.88803039  1
  Mg  Mg6  1  0.73466172  0.92230547  0.61196961  1
  Mg  Mg7  1  0.26533828  0.07769453  0.38803039  1
  P  P8  1  0.06356899  0.93034779  0.18940991  1
  P  P9  1  0.93643101  0.06965221  0.81059009  1
  P  P10  1  0.43643101  0.56965221  0.68940991  1
  P  P11  1  0.56356899  0.43034779  0.31059009  1
  P  P12  1  0.25764421  0.65074221  0.08709443  1
  P  P13  1  0.74235579  0.34925779  0.91290557  1
  P  P14  1  0.24235579  0.84925779  0.58709443  1
  P  P15  1  0.75764421  0.15074221  0.41290557  1
  H  H16  1  0.03025013  0.67436362  0.32190270  1
  H  H17  1  0.96974987  0.32563638  0.67809730  1
  H  H18  1  0.46974987  0.82563638  0.82190270  1
  H  H19  1  0.53025013  0.17436362  0.17809730  1
  H  H20  1  0.36660113  0.30176707  0.54914891  1
  H  H21  1  0.63339887  0.69823293  0.45085109  1
  H  H22  1  0.13339887  0.19823293  0.04914891  1
  H  H23  1  0.86660113  0.80176707  0.95085109  1
  H  H24  1  0.18778033  0.58263955  0.38498025  1
  H  H25  1  0.81221967  0.41736045  0.61501975  1
  H  H26  1  0.31221967  0.91736045  0.88498025  1
  H  H27  1  0.68778033  0.08263955  0.11501975  1
  H  H28  1  0.86666244  0.70339066  0.48418342  1
  H  H29  1  0.13333756  0.29660934  0.51581658  1
  H  H30  1  0.63333756  0.79660934  0.98418342  1
  H  H31  1  0.36666244  0.20339066  0.01581658  1
  O  O32  1  0.96749261  0.87636950  0.83842288  1
  O  O33  1  0.03250739  0.12363050  0.16157712  1
  O  O34  1  0.53250739  0.62363050  0.33842288  1
  O  O35  1  0.46749261  0.37636950  0.66157712  1
  O  O36  1  0.72636191  0.72747889  0.50571212  1
  O  O37  1  0.27363809  0.27252111  0.49428788  1
  O  O38  1  0.77363809  0.77252111  0.00571212  1
  O  O39  1  0.22636191  0.22747889  0.99428788  1
  O  O40  1  0.08676379  0.52397573  0.13448712  1
  O  O41  1  0.91323621  0.47602427  0.86551288  1
  O  O42  1  0.41323621  0.97602427  0.63448712  1
  O  O43  1  0.58676379  0.02397573  0.36551288  1
  O  O44  1  0.21373209  0.87600103  0.48240684  1
  O  O45  1  0.78626791  0.12399897  0.51759316  1
  O  O46  1  0.28626791  0.62399897  0.98240684  1
  O  O47  1  0.71373209  0.37600103  0.01759316  1
  O  O48  1  0.05320190  0.55999563  0.35260363  1
  O  O49  1  0.94679810  0.44000437  0.64739637  1
  O  O50  1  0.44679810  0.94000437  0.85260363  1
  O  O51  1  0.55320190  0.05999563  0.14739637  1
  O  O52  1  0.03334402  0.83841186  0.64174572  1
  O  O53  1  0.96665598  0.16158814  0.35825428  1
  O  O54  1  0.46665598  0.66158814  0.14174572  1
  O  O55  1  0.53334402  0.33841186  0.85825428  1
  O  O56  1  0.16703412  0.84758410  0.09614205  1
  O  O57  1  0.83296588  0.15241590  0.90385795  1
  O  O58  1  0.33296588  0.65241590  0.59614205  1
  O  O59  1  0.66703412  0.34758410  0.40385795  1
  O  O60  1  0.85857219  0.81475296  0.21025470  1
  O  O61  1  0.14142781  0.18524704  0.78974530  1
  O  O62  1  0.64142781  0.68524704  0.71025470  1
  O  O63  1  0.35857219  0.31475296  0.28974530  1
  O  O64  1  0.22551507  0.91040308  0.26947561  1
  O  O65  1  0.77448493  0.08959692  0.73052439  1
  O  O66  1  0.27448493  0.58959692  0.76947561  1
  O  O67  1  0.72551507  0.41040308  0.23052439  1
