# generated using pymatgen
data_KCaCr2F9
_symmetry_space_group_name_H-M   'P 1'
_cell_length_a   7.52821605
_cell_length_b   7.52821605
_cell_length_c   23.81974871
_cell_angle_alpha   90.00000000
_cell_angle_beta   90.00000000
_cell_angle_gamma   119.84949478
_symmetry_Int_Tables_number   1
_chemical_formula_structural   KCaCr2F9
_chemical_formula_sum   'K6 Ca6 Cr12 F54'
_cell_volume   1170.86980582
_cell_formula_units_Z   6
loop_
 _symmetry_equiv_pos_site_id
 _symmetry_equiv_pos_as_xyz
  1  'x, y, z'
loop_
 _atom_site_type_symbol
 _atom_site_label
 _atom_site_symmetry_multiplicity
 _atom_site_fract_x
 _atom_site_fract_y
 _atom_site_fract_z
 _atom_site_occupancy
  K  K0  1  0.49054958  0.50945042  0.75000000  1
  K  K1  1  0.50945042  0.49054958  0.25000000  1
  K  K2  1  0.50617397  0.46392211  0.91662620  1
  K  K3  1  0.49382603  0.53607789  0.41662620  1
  K  K4  1  0.53607789  0.49382603  0.58337380  1
  K  K5  1  0.46392211  0.50617397  0.08337380  1
  Ca  Ca6  1  0.98440990  0.98440990  0.00000000  1
  Ca  Ca7  1  0.01559010  0.01559010  0.50000000  1
  Ca  Ca8  1  0.51398337  0.00071135  0.66670410  1
  Ca  Ca9  1  0.48601663  0.99928865  0.16670410  1
  Ca  Ca10  1  0.99928865  0.48601663  0.83329590  1
  Ca  Ca11  1  0.00071135  0.51398337  0.33329590  1
  Cr  Cr12  1  0.48236863  0.98001036  0.99737428  1
  Cr  Cr13  1  0.51763137  0.01998964  0.49737428  1
  Cr  Cr14  1  0.01998964  0.51763137  0.50262572  1
  Cr  Cr15  1  0.98001036  0.48236863  0.00262572  1
  Cr  Cr16  1  0.50213786  0.98447963  0.83586057  1
  Cr  Cr17  1  0.49786214  0.01552037  0.33586057  1
  Cr  Cr18  1  0.01552037  0.49786214  0.66413943  1
  Cr  Cr19  1  0.98447963  0.50213786  0.16413943  1
  Cr  Cr20  1  0.99647535  0.01226390  0.33083830  1
  Cr  Cr21  1  0.00352465  0.98773610  0.83083830  1
  Cr  Cr22  1  0.98773610  0.00352465  0.16916170  1
  Cr  Cr23  1  0.01226390  0.99647535  0.66916170  1
  F  F24  1  0.62164069  0.82558955  0.98357430  1
  F  F25  1  0.37835931  0.17441045  0.48357430  1
  F  F26  1  0.17441045  0.37835931  0.51642570  1
  F  F27  1  0.82558955  0.62164069  0.01642570  1
  F  F28  1  0.63652397  0.27710382  0.82220409  1
  F  F29  1  0.36347603  0.72289618  0.32220409  1
  F  F30  1  0.72289618  0.36347603  0.67779591  1
  F  F31  1  0.27710382  0.63652397  0.17779591  1
  F  F32  1  0.77550665  0.03045782  0.84632978  1
  F  F33  1  0.22449335  0.96954218  0.34632978  1
  F  F34  1  0.96954218  0.22449335  0.65367022  1
  F  F35  1  0.03045782  0.77550665  0.15367022  1
  F  F36  1  0.51083476  0.92498854  0.75769662  1
  F  F37  1  0.48916524  0.07501146  0.25769662  1
  F  F38  1  0.07501146  0.48916524  0.74230338  1
  F  F39  1  0.92498854  0.51083476  0.24230338  1
  F  F40  1  0.02029309  0.95854608  0.90968931  1
  F  F41  1  0.97970691  0.04145392  0.40968931  1
  F  F42  1  0.04145392  0.97970691  0.59031069  1
  F  F43  1  0.95854608  0.02029309  0.09031069  1
  F  F44  1  0.20877974  0.75216572  0.98626164  1
  F  F45  1  0.79122026  0.24783428  0.48626164  1
  F  F46  1  0.24783428  0.79122026  0.51373836  1
  F  F47  1  0.75216572  0.20877974  0.01373836  1
  F  F48  1  0.98068435  0.01931565  0.75000000  1
  F  F49  1  0.01931565  0.98068435  0.25000000  1
  F  F50  1  0.53556110  0.08742260  0.57582859  1
  F  F51  1  0.46443890  0.91257740  0.07582859  1
  F  F52  1  0.91257740  0.46443890  0.92417141  1
  F  F53  1  0.08742260  0.53556110  0.42417141  1
  F  F54  1  0.71618779  0.83175903  0.66408410  1
  F  F55  1  0.28381221  0.16824097  0.16408410  1
  F  F56  1  0.16824097  0.28381221  0.83591590  1
  F  F57  1  0.83175903  0.71618779  0.33591590  1
  F  F58  1  0.64977547  0.85759146  0.50858963  1
  F  F59  1  0.35022453  0.14240854  0.00858963  1
  F  F60  1  0.14240854  0.35022453  0.99141037  1
  F  F61  1  0.85759146  0.64977547  0.49141037  1
  F  F62  1  0.30781022  0.16045530  0.67740575  1
  F  F63  1  0.69218978  0.83954470  0.17740575  1
  F  F64  1  0.83954470  0.69218978  0.82259425  1
  F  F65  1  0.16045530  0.30781022  0.32259425  1
  F  F66  1  0.23386887  0.94627451  0.81977046  1
  F  F67  1  0.76613113  0.05372549  0.31977046  1
  F  F68  1  0.05372549  0.76613113  0.68022954  1
  F  F69  1  0.94627451  0.23386887  0.18022954  1
  F  F70  1  0.36176134  0.69347711  0.85206357  1
  F  F71  1  0.63823866  0.30652289  0.35206357  1
  F  F72  1  0.30652289  0.63823866  0.64793643  1
  F  F73  1  0.69347711  0.36176134  0.14793643  1
  F  F74  1  0.49565001  0.04954907  0.91648629  1
  F  F75  1  0.50434999  0.95045093  0.41648629  1
  F  F76  1  0.95045093  0.50434999  0.58351371  1
  F  F77  1  0.04954907  0.49565001  0.08351371  1
