# generated using pymatgen
data_K3GdCl6
_symmetry_space_group_name_H-M   'P 1'
_cell_length_a   7.85866962
_cell_length_b   13.28324111
_cell_length_c   12.76859619
_cell_angle_alpha   108.71263693
_cell_angle_beta   90.00000000
_cell_angle_gamma   90.00000000
_symmetry_Int_Tables_number   1
_chemical_formula_structural   K3GdCl6
_chemical_formula_sum   'K12 Gd4 Cl24'
_cell_volume   1262.43843365
_cell_formula_units_Z   4
loop_
 _symmetry_equiv_pos_site_id
 _symmetry_equiv_pos_as_xyz
  1  'x, y, z'
loop_
 _atom_site_type_symbol
 _atom_site_label
 _atom_site_symmetry_multiplicity
 _atom_site_fract_x
 _atom_site_fract_y
 _atom_site_fract_z
 _atom_site_occupancy
  K  K0  1  0.43413629  0.68476537  0.73349263  1
  K  K1  1  0.56586371  0.31523463  0.26650737  1
  K  K2  1  0.93413629  0.31523463  0.76650737  1
  K  K3  1  0.06586371  0.68476537  0.23349263  1
  K  K4  1  0.96714925  0.90207315  0.64191980  1
  K  K5  1  0.03285075  0.09792685  0.35808020  1
  K  K6  1  0.46714925  0.09792685  0.85808020  1
  K  K7  1  0.53285075  0.90207315  0.14191980  1
  K  K8  1  0.93532270  0.67922043  0.88715670  1
  K  K9  1  0.06467730  0.32077957  0.11284330  1
  K  K10  1  0.43532270  0.32077957  0.61284330  1
  K  K11  1  0.56467730  0.67922043  0.38715670  1
  Gd  Gd12  1  0.00000000  0.50000000  0.50000000  1
  Gd  Gd13  1  0.50000000  0.50000000  -0.00000000  1
  Gd  Gd14  1  0.00000000  -0.00000000  -0.00000000  1
  Gd  Gd15  1  0.50000000  -0.00000000  0.50000000  1
  Cl  Cl16  1  0.49882959  0.88065843  0.62956778  1
  Cl  Cl17  1  0.50117041  0.11934157  0.37043222  1
  Cl  Cl18  1  0.99882959  0.11934157  0.87043222  1
  Cl  Cl19  1  0.00117041  0.88065843  0.12956778  1
  Cl  Cl20  1  0.28939170  0.65605054  0.99520931  1
  Cl  Cl21  1  0.71060830  0.34394946  0.00479069  1
  Cl  Cl22  1  0.78939170  0.34394946  0.50479069  1
  Cl  Cl23  1  0.21060830  0.65605054  0.49520931  1
  Cl  Cl24  1  0.78259242  0.65425684  0.60851548  1
  Cl  Cl25  1  0.21740758  0.34574316  0.39148452  1
  Cl  Cl26  1  0.28259242  0.34574316  0.89148452  1
  Cl  Cl27  1  0.71740758  0.65425684  0.10851548  1
  Cl  Cl28  1  0.64378310  0.50006537  0.80762414  1
  Cl  Cl29  1  0.35621690  0.49993463  0.19237586  1
  Cl  Cl30  1  0.14378310  0.49993463  0.69237586  1
  Cl  Cl31  1  0.85621690  0.50006537  0.30762414  1
  Cl  Cl32  1  0.18074031  0.86025283  0.84437241  1
  Cl  Cl33  1  0.81925969  0.13974717  0.15562759  1
  Cl  Cl34  1  0.68074031  0.13974717  0.65562759  1
  Cl  Cl35  1  0.31925969  0.86025283  0.34437241  1
  Cl  Cl36  1  0.71488562  0.89733740  0.90346706  1
  Cl  Cl37  1  0.28511438  0.10266260  0.09653294  1
  Cl  Cl38  1  0.21488562  0.10266260  0.59653294  1
  Cl  Cl39  1  0.78511438  0.89733740  0.40346706  1
