# generated using pymatgen
data_K3Mg2Cl7
_symmetry_space_group_name_H-M   'P 1'
_cell_length_a   5.01694270
_cell_length_b   5.01694270
_cell_length_c   13.41598585
_cell_angle_alpha   100.77637666
_cell_angle_beta   100.77637666
_cell_angle_gamma   90.00000000
_symmetry_Int_Tables_number   1
_chemical_formula_structural   K3Mg2Cl7
_chemical_formula_sum   'K3 Mg2 Cl7'
_cell_volume   325.65740874
_cell_formula_units_Z   1
loop_
 _symmetry_equiv_pos_site_id
 _symmetry_equiv_pos_as_xyz
  1  'x, y, z'
loop_
 _atom_site_type_symbol
 _atom_site_label
 _atom_site_symmetry_multiplicity
 _atom_site_fract_x
 _atom_site_fract_y
 _atom_site_fract_z
 _atom_site_occupancy
  K  K0  1  0.31645062  0.31645062  0.63290123  1
  K  K1  1  0.68354938  0.68354938  0.36709877  1
  K  K2  1  0.50000000  0.50000000  0.00000000  1
  Mg  Mg3  1  0.09814187  0.09814187  0.19628374  1
  Mg  Mg4  1  0.90185813  0.90185813  0.80371626  1
  Cl  Cl5  1  0.09577365  0.59577365  0.19154729  1
  Cl  Cl6  1  0.90422635  0.40422635  0.80845271  1
  Cl  Cl7  1  0.59577365  0.09577365  0.19154729  1
  Cl  Cl8  1  0.40422635  0.90422635  0.80845271  1
  Cl  Cl9  1  0.19420759  0.19420759  0.38841518  1
  Cl  Cl10  1  0.80579241  0.80579241  0.61158482  1
  Cl  Cl11  1  0.00000000  -0.00000000  0.00000000  1
