# generated using pymatgen
data_Lu3In5
_symmetry_space_group_name_H-M   'P 1'
_cell_length_a   6.53186409
_cell_length_b   10.44573554
_cell_length_c   11.84478686
_cell_angle_alpha   90.00000000
_cell_angle_beta   90.00000000
_cell_angle_gamma   90.00000000
_symmetry_Int_Tables_number   1
_chemical_formula_structural   Lu3In5
_chemical_formula_sum   'Lu12 In20'
_cell_volume   808.17128649
_cell_formula_units_Z   4
loop_
 _symmetry_equiv_pos_site_id
 _symmetry_equiv_pos_as_xyz
  1  'x, y, z'
loop_
 _atom_site_type_symbol
 _atom_site_label
 _atom_site_symmetry_multiplicity
 _atom_site_fract_x
 _atom_site_fract_y
 _atom_site_fract_z
 _atom_site_occupancy
  Lu  Lu0  1  0.84634853  0.75000000  0.93541962  1
  Lu  Lu1  1  0.15365147  0.25000000  0.06458038  1
  Lu  Lu2  1  0.34634853  0.25000000  0.56458038  1
  Lu  Lu3  1  0.65365147  0.75000000  0.43541962  1
  Lu  Lu4  1  0.89249296  0.98910914  0.64313604  1
  Lu  Lu5  1  0.10750704  0.01089086  0.35686396  1
  Lu  Lu6  1  0.39249296  0.01089086  0.85686396  1
  Lu  Lu7  1  0.10750704  0.48910914  0.35686396  1
  Lu  Lu8  1  0.60750704  0.98910914  0.14313604  1
  Lu  Lu9  1  0.89249296  0.51089086  0.64313604  1
  Lu  Lu10  1  0.60750704  0.51089086  0.14313604  1
  Lu  Lu11  1  0.39249296  0.48910914  0.85686396  1
  In  In12  1  0.87158165  0.45723248  0.90499340  1
  In  In13  1  0.12841835  0.54276752  0.09500660  1
  In  In14  1  0.37158165  0.54276752  0.59500660  1
  In  In15  1  0.12841835  0.95723248  0.09500660  1
  In  In16  1  0.62841835  0.45723248  0.40499340  1
  In  In17  1  0.87158165  0.04276752  0.90499340  1
  In  In18  1  0.62841835  0.04276752  0.40499340  1
  In  In19  1  0.37158165  0.95723248  0.59500660  1
  In  In20  1  0.15979016  0.75000000  0.75358409  1
  In  In21  1  0.84020984  0.25000000  0.24641591  1
  In  In22  1  0.65979016  0.25000000  0.74641591  1
  In  In23  1  0.34020984  0.75000000  0.25358409  1
  In  In24  1  0.38843771  0.75000000  0.98877642  1
  In  In25  1  0.61156229  0.25000000  0.01122358  1
  In  In26  1  0.88843771  0.25000000  0.51122358  1
  In  In27  1  0.11156229  0.75000000  0.48877642  1
  In  In28  1  0.62453496  0.75000000  0.70584073  1
  In  In29  1  0.37546504  0.25000000  0.29415927  1
  In  In30  1  0.12453496  0.25000000  0.79415927  1
  In  In31  1  0.87546504  0.75000000  0.20584073  1
