# generated using pymatgen
data_La2Cd(SeO)2
_symmetry_space_group_name_H-M   'P 1'
_cell_length_a   4.09289444
_cell_length_b   4.09289444
_cell_length_c   18.90263742
_cell_angle_alpha   90.00000000
_cell_angle_beta   90.00000000
_cell_angle_gamma   90.00000000
_symmetry_Int_Tables_number   1
_chemical_formula_structural   La2Cd(SeO)2
_chemical_formula_sum   'La4 Cd2 Se4 O4'
_cell_volume   316.65291605
_cell_formula_units_Z   2
loop_
 _symmetry_equiv_pos_site_id
 _symmetry_equiv_pos_as_xyz
  1  'x, y, z'
loop_
 _atom_site_type_symbol
 _atom_site_label
 _atom_site_symmetry_multiplicity
 _atom_site_fract_x
 _atom_site_fract_y
 _atom_site_fract_z
 _atom_site_occupancy
  La  La0  1  0.50000000  0.50000000  0.12727714  1
  La  La1  1  0.50000000  0.50000000  0.62727714  1
  La  La2  1  -0.00000000  0.00000000  0.99824334  1
  La  La3  1  -0.00000000  0.00000000  0.49824334  1
  Cd  Cd4  1  -0.00000000  0.50000000  0.31524667  1
  Cd  Cd5  1  0.50000000  0.00000000  0.81524667  1
  Se  Se6  1  -0.00000000  0.00000000  0.22214884  1
  Se  Se7  1  -0.00000000  0.00000000  0.72214884  1
  Se  Se8  1  0.50000000  0.50000000  0.40819993  1
  Se  Se9  1  0.50000000  0.50000000  0.90819993  1
  O  O10  1  -0.00000000  0.50000000  0.56259788  1
  O  O11  1  0.50000000  -0.00000000  0.06259788  1
  O  O12  1  0.00000000  0.50000000  0.06318619  1
  O  O13  1  0.50000000  -0.00000000  0.56318619  1
