# generated using pymatgen
data_Hg3S2BrCl
_symmetry_space_group_name_H-M   'P 1'
_cell_length_a   9.58834543
_cell_length_b   9.49115562
_cell_length_c   10.23936787
_cell_angle_alpha   90.29048043
_cell_angle_beta   117.91815207
_cell_angle_gamma   90.00000000
_symmetry_Int_Tables_number   1
_chemical_formula_structural   Hg3S2BrCl
_chemical_formula_sum   'Hg12 S8 Br4 Cl4'
_cell_volume   823.36612034
_cell_formula_units_Z   4
loop_
 _symmetry_equiv_pos_site_id
 _symmetry_equiv_pos_as_xyz
  1  'x, y, z'
loop_
 _atom_site_type_symbol
 _atom_site_label
 _atom_site_symmetry_multiplicity
 _atom_site_fract_x
 _atom_site_fract_y
 _atom_site_fract_z
 _atom_site_occupancy
  Hg  Hg0  1  0.64409841  0.29906739  0.75090202  1
  Hg  Hg1  1  0.35590159  0.70093261  0.24909798  1
  Hg  Hg2  1  0.89319639  0.70093261  0.24909798  1
  Hg  Hg3  1  0.10680361  0.29906739  0.75090202  1
  Hg  Hg4  1  0.52186991  0.28325940  0.04373983  1
  Hg  Hg5  1  0.47813009  0.71674060  0.95626017  1
  Hg  Hg6  1  0.50000000  0.00000000  0.50000000  1
  Hg  Hg7  1  0.00000000  0.00000000  0.50000000  1
  Hg  Hg8  1  0.22886952  0.28904115  0.45773905  1
  Hg  Hg9  1  0.77113048  0.71095885  0.54226095  1
  Hg  Hg10  1  0.24523814  1.00000000  1.00000000  1
  Hg  Hg11  1  0.75476186  0.00000000  0.00000000  1
  S  S12  1  0.49212408  0.25768215  0.48181607  1
  S  S13  1  0.50787592  0.74231785  0.51818393  1
  S  S14  1  0.01030802  0.74231785  0.51818393  1
  S  S15  1  0.98969198  0.25768215  0.48181607  1
  S  S16  1  0.25611032  0.25671254  0.01894542  1
  S  S17  1  0.74388968  0.74328746  0.98105458  1
  S  S18  1  0.23716491  0.74328746  0.98105458  1
  S  S19  1  0.76283509  0.25671254  0.01894542  1
  Br  Br20  1  0.87502807  0.02230449  0.75005613  1
  Br  Br21  1  0.12497193  0.97769551  0.24994387  1
  Br  Br22  1  0.37482785  0.00637654  0.74965569  1
  Br  Br23  1  0.62517215  0.99362346  0.25034431  1
  Cl  Cl24  1  0.38370940  0.47209620  0.76741879  1
  Cl  Cl25  1  0.61629060  0.52790380  0.23258121  1
  Cl  Cl26  1  0.12818525  0.51899118  0.25637050  1
  Cl  Cl27  1  0.87181475  0.48100882  0.74362950  1
