# generated using pymatgen
data_CrAg(SO4)2
_symmetry_space_group_name_H-M   'P 1'
_cell_length_a   4.81605877
_cell_length_b   4.81605877
_cell_length_c   7.37938584
_cell_angle_alpha   88.22676872
_cell_angle_beta   88.22676872
_cell_angle_gamma   65.91174497
_symmetry_Int_Tables_number   1
_chemical_formula_structural   CrAg(SO4)2
_chemical_formula_sum   'Cr1 Ag1 S2 O8'
_cell_volume   156.14927197
_cell_formula_units_Z   1
loop_
 _symmetry_equiv_pos_site_id
 _symmetry_equiv_pos_as_xyz
  1  'x, y, z'
loop_
 _atom_site_type_symbol
 _atom_site_label
 _atom_site_symmetry_multiplicity
 _atom_site_fract_x
 _atom_site_fract_y
 _atom_site_fract_z
 _atom_site_occupancy
  Cr  Cr0  1  0.00000000  0.00000000  -0.00000000  1
  Ag  Ag1  1  0.00000000  0.00000000  0.50000000  1
  S  S2  1  0.36355445  0.36355445  0.78659821  1
  S  S3  1  0.63644555  0.63644555  0.21340179  1
  O  O4  1  0.29032012  0.29032012  0.60962990  1
  O  O5  1  0.70967988  0.70967988  0.39037010  1
  O  O6  1  0.70600691  0.24028886  0.80280452  1
  O  O7  1  0.29399309  0.75971114  0.19719548  1
  O  O8  1  0.75971114  0.29399309  0.19719548  1
  O  O9  1  0.24028886  0.70600691  0.80280452  1
  O  O10  1  0.24335195  0.24335195  0.94433183  1
  O  O11  1  0.75664805  0.75664805  0.05566817  1
