# generated using pymatgen
data_CeTl2(PO3)5
_symmetry_space_group_name_H-M   'P 1'
_cell_length_a   7.38016949
_cell_length_b   7.38456582
_cell_length_c   13.50352214
_cell_angle_alpha   90.53272589
_cell_angle_beta   90.47751564
_cell_angle_gamma   107.80529301
_symmetry_Int_Tables_number   1
_chemical_formula_structural   CeTl2(PO3)5
_chemical_formula_sum   'Ce2 Tl4 P10 O30'
_cell_volume   700.60421824
_cell_formula_units_Z   2
loop_
 _symmetry_equiv_pos_site_id
 _symmetry_equiv_pos_as_xyz
  1  'x, y, z'
loop_
 _atom_site_type_symbol
 _atom_site_label
 _atom_site_symmetry_multiplicity
 _atom_site_fract_x
 _atom_site_fract_y
 _atom_site_fract_z
 _atom_site_occupancy
  Ce  Ce0  1  0.21197269  0.82399314  0.31037935  1
  Ce  Ce1  1  0.02140363  0.01469243  0.81035141  1
  Tl  Tl2  1  0.83223698  0.22430684  0.31680312  1
  Tl  Tl3  1  0.90553760  0.47093463  0.61316047  1
  Tl  Tl4  1  0.42452129  0.63377649  0.81777185  1
  Tl  Tl5  1  0.66607867  0.70453851  0.11402737  1
  P  P6  1  0.71721947  0.91270353  0.57461478  1
  P  P7  1  0.34822387  0.30071337  0.61845457  1
  P  P8  1  0.30316372  0.89014056  0.59103587  1
  P  P9  1  0.32584759  0.36826299  0.40045386  1
  P  P10  1  0.11086132  0.51866841  0.07488995  1
  P  P11  1  0.49853097  0.14945881  0.11840212  1
  P  P12  1  0.56607375  0.12715106  0.90048180  1
  P  P13  1  0.08773359  0.10446411  0.09152357  1
  P  P14  1  0.89127203  0.48000863  0.88900215  1
  P  P15  1  0.67855539  0.69330922  0.38870692  1
  O  O16  1  0.31254714  0.19235111  0.07719972  1
  O  O17  1  0.49424805  0.83176561  0.60296623  1
  O  O18  1  0.29059840  0.16504278  0.36891867  1
  O  O19  1  0.82436810  0.89726167  0.66761619  1
  O  O20  1  0.17434088  0.24908815  0.68315969  1
  O  O21  1  0.44722150  0.97648185  0.18344818  1
  O  O22  1  0.86054519  0.69910597  0.33736166  1
  O  O23  1  0.52900190  0.43460500  0.65886541  1
  O  O24  1  0.93592049  0.53326415  0.00448519  1
  O  O25  1  0.55775988  0.80860264  0.35016053  1
  O  O26  1  0.28485619  0.38339995  0.51719404  1
  O  O27  1  0.21908628  0.48567722  0.34976612  1
  O  O28  1  0.39155852  0.11487984  0.57731404  1
  O  O29  1  0.58079111  0.08543980  0.01710320  1
  O  O30  1  0.63257172  0.33047771  0.15850951  1
  O  O31  1  0.55488345  0.46973313  0.39291839  1
  O  O32  1  0.00652146  0.35933239  0.84998288  1
  O  O33  1  0.20070124  0.84470279  0.68815567  1
  O  O34  1  0.00079291  0.00180208  0.99752583  1
  O  O35  1  0.20092975  0.80396455  0.49690435  1
  O  O36  1  0.03044235  0.29605803  0.10353448  1
  O  O37  1  0.76567083  0.09421487  0.51903745  1
  O  O38  1  0.68425987  0.02089243  0.84985193  1
  O  O39  1  0.29254711  0.56708143  0.01891701  1
  O  O40  1  0.09597946  0.62631599  0.16763076  1
  O  O41  1  0.66743340  0.35607030  0.89322657  1
  O  O42  1  0.89736549  0.66236352  0.83826933  1
  O  O43  1  0.73302866  0.73815667  0.50409061  1
  O  O44  1  0.36277941  0.09131216  0.86871471  1
  O  O45  1  0.04271669  0.00300350  0.18875248  1
