# generated using pymatgen
data_Ho5CuPb3
_symmetry_space_group_name_H-M   'P 1'
_cell_length_a   6.73109692
_cell_length_b   9.12602592
_cell_length_c   9.12602592
_cell_angle_alpha   119.99999667
_cell_angle_beta   90.00000000
_cell_angle_gamma   90.00000000
_symmetry_Int_Tables_number   1
_chemical_formula_structural   Ho5CuPb3
_chemical_formula_sum   'Ho10 Cu2 Pb6'
_cell_volume   485.48954980
_cell_formula_units_Z   2
loop_
 _symmetry_equiv_pos_site_id
 _symmetry_equiv_pos_as_xyz
  1  'x, y, z'
loop_
 _atom_site_type_symbol
 _atom_site_label
 _atom_site_symmetry_multiplicity
 _atom_site_fract_x
 _atom_site_fract_y
 _atom_site_fract_z
 _atom_site_occupancy
  Ho  Ho0  1  0.75000000  0.74906094  0.74906094  1
  Ho  Ho1  1  0.25000000  0.25093906  0.25093906  1
  Ho  Ho2  1  0.75000000  0.00000000  0.25093906  1
  Ho  Ho3  1  0.25000000  1.00000000  0.74906094  1
  Ho  Ho4  1  0.75000000  0.25093906  0.00000000  1
  Ho  Ho5  1  0.25000000  0.74906094  1.00000000  1
  Ho  Ho6  1  0.00000000  0.66666700  0.33333300  1
  Ho  Ho7  1  -0.00000000  0.33333300  0.66666700  1
  Ho  Ho8  1  0.50000000  0.33333300  0.66666700  1
  Ho  Ho9  1  0.50000000  0.66666700  0.33333300  1
  Cu  Cu10  1  0.00000000  -0.00000000  -0.00000000  1
  Cu  Cu11  1  0.50000000  -0.00000000  -0.00000000  1
  Pb  Pb12  1  0.75000000  0.39504073  0.39504073  1
  Pb  Pb13  1  0.25000000  0.60495927  0.60495927  1
  Pb  Pb14  1  0.75000000  1.00000000  0.60495927  1
  Pb  Pb15  1  0.25000000  0.00000000  0.39504073  1
  Pb  Pb16  1  0.75000000  0.60495927  1.00000000  1
  Pb  Pb17  1  0.25000000  0.39504073  0.00000000  1
