# generated using pymatgen
data_SrMg
_symmetry_space_group_name_H-M   'P 1'
_cell_length_a   5.87227123
_cell_length_b   10.82634092
_cell_length_c   7.04902504
_cell_angle_alpha   90.00000000
_cell_angle_beta   90.00000000
_cell_angle_gamma   90.00000000
_symmetry_Int_Tables_number   1
_chemical_formula_structural   SrMg
_chemical_formula_sum   'Sr6 Mg6'
_cell_volume   448.14324940
_cell_formula_units_Z   6
loop_
 _symmetry_equiv_pos_site_id
 _symmetry_equiv_pos_as_xyz
  1  'x, y, z'
loop_
 _atom_site_type_symbol
 _atom_site_label
 _atom_site_symmetry_multiplicity
 _atom_site_fract_x
 _atom_site_fract_y
 _atom_site_fract_z
 _atom_site_occupancy
  Sr  Sr0  1  0.00000000  -0.00000000  0.61114940  1
  Sr  Sr1  1  0.50000000  0.18384492  0.87866231  1
  Sr  Sr2  1  0.50000000  0.31615508  0.37866231  1
  Sr  Sr3  1  0.00000000  0.50000000  0.11114940  1
  Sr  Sr4  1  0.50000000  0.68384492  0.37866231  1
  Sr  Sr5  1  0.50000000  0.81615508  0.87866231  1
  Mg  Mg6  1  0.00000000  0.35000661  0.66007908  1
  Mg  Mg7  1  0.00000000  0.14999339  0.16007908  1
  Mg  Mg8  1  0.50000000  -0.00000000  0.31136783  1
  Mg  Mg9  1  -0.00000000  0.85000661  0.16007908  1
  Mg  Mg10  1  0.00000000  0.64999339  0.66007908  1
  Mg  Mg11  1  0.50000000  0.50000000  0.81136783  1
