# generated using pymatgen
data_Eu4Ti3O10
_symmetry_space_group_name_H-M   'P 1'
_cell_length_a   3.93942860
_cell_length_b   3.93942860
_cell_length_c   14.23831684
_cell_angle_alpha   97.95174186
_cell_angle_beta   97.95174186
_cell_angle_gamma   90.00000000
_symmetry_Int_Tables_number   1
_chemical_formula_structural   Eu4Ti3O10
_chemical_formula_sum   'Eu4 Ti3 O10'
_cell_volume   216.69579998
_cell_formula_units_Z   1
loop_
 _symmetry_equiv_pos_site_id
 _symmetry_equiv_pos_as_xyz
  1  'x, y, z'
loop_
 _atom_site_type_symbol
 _atom_site_label
 _atom_site_symmetry_multiplicity
 _atom_site_fract_x
 _atom_site_fract_y
 _atom_site_fract_z
 _atom_site_occupancy
  Eu  Eu0  1  0.29828500  0.29828500  0.59656999  1
  Eu  Eu1  1  0.70171500  0.70171500  0.40343001  1
  Eu  Eu2  1  0.43194251  0.43194251  0.86388501  1
  Eu  Eu3  1  0.56805749  0.56805749  0.13611499  1
  Ti  Ti4  1  0.14074133  0.14074133  0.28148266  1
  Ti  Ti5  1  0.85925867  0.85925867  0.71851734  1
  Ti  Ti6  1  -0.00000000  -0.00000000  -0.00000000  1
  O  O7  1  0.21208016  0.21208016  0.42416032  1
  O  O8  1  0.78791984  0.78791984  0.57583968  1
  O  O9  1  0.13997170  0.63997170  0.27994341  1
  O  O10  1  0.86002830  0.36002830  0.72005659  1
  O  O11  1  0.63997170  0.13997170  0.27994341  1
  O  O12  1  0.36002830  0.86002830  0.72005659  1
  O  O13  1  0.06999617  0.06999617  0.13999234  1
  O  O14  1  0.93000383  0.93000383  0.86000766  1
  O  O15  1  -0.00000000  0.50000000  -0.00000000  1
  O  O16  1  0.50000000  -0.00000000  -0.00000000  1
