# generated using pymatgen
data_Ga5CuTe8
_symmetry_space_group_name_H-M   'P 1'
_cell_length_a   5.97689987
_cell_length_b   5.97689987
_cell_length_c   12.10679460
_cell_angle_alpha   90.00000000
_cell_angle_beta   90.00000000
_cell_angle_gamma   90.00000000
_symmetry_Int_Tables_number   1
_chemical_formula_structural   Ga5CuTe8
_chemical_formula_sum   'Ga5 Cu1 Te8'
_cell_volume   432.49504363
_cell_formula_units_Z   1
loop_
 _symmetry_equiv_pos_site_id
 _symmetry_equiv_pos_as_xyz
  1  'x, y, z'
loop_
 _atom_site_type_symbol
 _atom_site_label
 _atom_site_symmetry_multiplicity
 _atom_site_fract_x
 _atom_site_fract_y
 _atom_site_fract_z
 _atom_site_occupancy
  Ga  Ga0  1  0.00000000  0.50000000  0.25434443  1
  Ga  Ga1  1  0.50000000  -0.00000000  0.74565557  1
  Ga  Ga2  1  0.00000000  0.50000000  0.74565557  1
  Ga  Ga3  1  0.50000000  -0.00000000  0.25434443  1
  Ga  Ga4  1  0.00000000  -0.00000000  0.00000000  1
  Cu  Cu5  1  0.50000000  0.50000000  0.50000000  1
  Te  Te6  1  0.27142781  0.27142781  0.11370433  1
  Te  Te7  1  0.72857219  0.72857219  0.11370433  1
  Te  Te8  1  0.27142781  0.72857219  0.88629567  1
  Te  Te9  1  0.72857219  0.27142781  0.88629567  1
  Te  Te10  1  0.23703307  0.23703307  0.61392393  1
  Te  Te11  1  0.76296693  0.76296693  0.61392393  1
  Te  Te12  1  0.23703307  0.76296693  0.38607607  1
  Te  Te13  1  0.76296693  0.23703307  0.38607607  1
