# generated using pymatgen
data_Er3Co2Si3
_symmetry_space_group_name_H-M   'P 1'
_cell_length_a   4.05210038
_cell_length_b   5.54463025
_cell_length_c   13.41981256
_cell_angle_alpha   90.00000000
_cell_angle_beta   90.00000000
_cell_angle_gamma   111.43267691
_symmetry_Int_Tables_number   1
_chemical_formula_structural   Er3Co2Si3
_chemical_formula_sum   'Er6 Co4 Si6'
_cell_volume   280.65824410
_cell_formula_units_Z   2
loop_
 _symmetry_equiv_pos_site_id
 _symmetry_equiv_pos_as_xyz
  1  'x, y, z'
loop_
 _atom_site_type_symbol
 _atom_site_label
 _atom_site_symmetry_multiplicity
 _atom_site_fract_x
 _atom_site_fract_y
 _atom_site_fract_z
 _atom_site_occupancy
  Er  Er0  1  0.36088510  0.72177020  0.25000000  1
  Er  Er1  1  0.63911490  0.27822980  0.75000000  1
  Er  Er2  1  0.07973421  0.15946843  0.11251403  1
  Er  Er3  1  0.92026579  0.84053157  0.88748597  1
  Er  Er4  1  0.92026579  0.84053157  0.61251403  1
  Er  Er5  1  0.07973421  0.15946843  0.38748597  1
  Co  Co6  1  0.21388494  0.42776988  0.58158439  1
  Co  Co7  1  0.78611506  0.57223012  0.41841561  1
  Co  Co8  1  0.78611506  0.57223012  0.08158439  1
  Co  Co9  1  0.21388494  0.42776988  0.91841561  1
  Si  Si10  1  0.66926589  0.33853177  0.25000000  1
  Si  Si11  1  0.33073411  0.66146823  0.75000000  1
  Si  Si12  1  0.38051826  0.76103652  0.03868071  1
  Si  Si13  1  0.61948174  0.23896348  0.96131929  1
  Si  Si14  1  0.61948174  0.23896348  0.53868071  1
  Si  Si15  1  0.38051826  0.76103652  0.46131929  1
