# generated using pymatgen
data_Ca3La2Sb3O14
_symmetry_space_group_name_H-M   'P 1'
_cell_length_a   7.58091951
_cell_length_b   7.58091951
_cell_length_c   7.54827236
_cell_angle_alpha   60.39804189
_cell_angle_beta   60.39804189
_cell_angle_gamma   60.49617785
_symmetry_Int_Tables_number   1
_chemical_formula_structural   Ca3La2Sb3O14
_chemical_formula_sum   'Ca3 La2 Sb3 O14'
_cell_volume   309.73108365
_cell_formula_units_Z   1
loop_
 _symmetry_equiv_pos_site_id
 _symmetry_equiv_pos_as_xyz
  1  'x, y, z'
loop_
 _atom_site_type_symbol
 _atom_site_label
 _atom_site_symmetry_multiplicity
 _atom_site_fract_x
 _atom_site_fract_y
 _atom_site_fract_z
 _atom_site_occupancy
  Ca  Ca0  1  0.50000000  0.50000000  0.00000000  1
  Ca  Ca1  1  0.50000000  0.50000000  0.50000000  1
  Ca  Ca2  1  -0.00000000  -0.00000000  0.00000000  1
  La  La3  1  0.50000000  -0.00000000  0.50000000  1
  La  La4  1  -0.00000000  0.50000000  0.50000000  1
  Sb  Sb5  1  0.50000000  -0.00000000  0.00000000  1
  Sb  Sb6  1  -0.00000000  0.50000000  0.00000000  1
  Sb  Sb7  1  -0.00000000  -0.00000000  0.50000000  1
  O  O8  1  0.31314102  0.31314102  0.91363030  1
  O  O9  1  0.68685898  0.68685898  0.08636970  1
  O  O10  1  0.36906020  0.90737952  0.90602981  1
  O  O11  1  0.63093980  0.09262048  0.09397019  1
  O  O12  1  0.09262048  0.63093980  0.09397019  1
  O  O13  1  0.90737952  0.36906020  0.90602981  1
  O  O14  1  0.62388537  0.62388537  0.62074819  1
  O  O15  1  0.37611463  0.37611463  0.37925181  1
  O  O16  1  0.09395743  0.09395743  0.63156033  1
  O  O17  1  0.90604257  0.90604257  0.36843967  1
  O  O18  1  0.68386186  0.08870105  0.68255700  1
  O  O19  1  0.31613814  0.91129895  0.31744300  1
  O  O20  1  0.91129895  0.31613814  0.31744300  1
  O  O21  1  0.08870105  0.68386186  0.68255700  1
