# generated using pymatgen
data_Ho2AlGe3
_symmetry_space_group_name_H-M   'P 1'
_cell_length_a   4.17758058
_cell_length_b   6.82859585
_cell_length_c   17.67791908
_cell_angle_alpha   90.00000000
_cell_angle_beta   90.00000000
_cell_angle_gamma   90.00000000
_symmetry_Int_Tables_number   1
_chemical_formula_structural   Ho2AlGe3
_chemical_formula_sum   'Ho8 Al4 Ge12'
_cell_volume   504.29816397
_cell_formula_units_Z   4
loop_
 _symmetry_equiv_pos_site_id
 _symmetry_equiv_pos_as_xyz
  1  'x, y, z'
loop_
 _atom_site_type_symbol
 _atom_site_label
 _atom_site_symmetry_multiplicity
 _atom_site_fract_x
 _atom_site_fract_y
 _atom_site_fract_z
 _atom_site_occupancy
  Ho  Ho0  1  0.75000000  0.83378045  0.79697621  1
  Ho  Ho1  1  0.25000000  0.16621955  0.20302379  1
  Ho  Ho2  1  0.25000000  0.66621955  0.29697621  1
  Ho  Ho3  1  0.75000000  0.33378045  0.70302379  1
  Ho  Ho4  1  0.75000000  0.83215700  0.58528899  1
  Ho  Ho5  1  0.25000000  0.16784300  0.41471101  1
  Ho  Ho6  1  0.25000000  0.66784300  0.08528899  1
  Ho  Ho7  1  0.75000000  0.33215700  0.91471101  1
  Al  Al8  1  0.75000000  0.54931458  0.43551275  1
  Al  Al9  1  0.25000000  0.45068542  0.56448725  1
  Al  Al10  1  0.25000000  0.95068542  0.93551275  1
  Al  Al11  1  0.75000000  0.04931458  0.06448725  1
  Ge  Ge12  1  0.75000000  0.74947364  0.96526901  1
  Ge  Ge13  1  0.25000000  0.25052636  0.03473099  1
  Ge  Ge14  1  0.25000000  0.75052636  0.46526901  1
  Ge  Ge15  1  0.75000000  0.24947364  0.53473099  1
  Ge  Ge16  1  0.75000000  0.96464925  0.32773884  1
  Ge  Ge17  1  0.25000000  0.03535075  0.67226116  1
  Ge  Ge18  1  0.25000000  0.53535075  0.82773884  1
  Ge  Ge19  1  0.75000000  0.46464925  0.17226116  1
  Ge  Ge20  1  0.75000000  0.85376614  0.18845412  1
  Ge  Ge21  1  0.25000000  0.14623386  0.81154588  1
  Ge  Ge22  1  0.25000000  0.64623386  0.68845412  1
  Ge  Ge23  1  0.75000000  0.35376614  0.31154588  1
