# generated using pymatgen
data_Cu3H8S4(NO8)2
_symmetry_space_group_name_H-M   'P 1'
_cell_length_a   9.24933274
_cell_length_b   9.62325020
_cell_length_c   16.17277977
_cell_angle_alpha   90.00000000
_cell_angle_beta   90.00000000
_cell_angle_gamma   90.00000000
_symmetry_Int_Tables_number   1
_chemical_formula_structural   Cu3H8S4(NO8)2
_chemical_formula_sum   'Cu12 H32 S16 N8 O64'
_cell_volume   1439.51718313
_cell_formula_units_Z   4
loop_
 _symmetry_equiv_pos_site_id
 _symmetry_equiv_pos_as_xyz
  1  'x, y, z'
loop_
 _atom_site_type_symbol
 _atom_site_label
 _atom_site_symmetry_multiplicity
 _atom_site_fract_x
 _atom_site_fract_y
 _atom_site_fract_z
 _atom_site_occupancy
  Cu  Cu0  1  0.35074266  0.12631883  0.09736768  1
  Cu  Cu1  1  0.64925734  0.87368117  0.90263232  1
  Cu  Cu2  1  0.85074266  0.37368117  0.90263232  1
  Cu  Cu3  1  0.64925734  0.87368117  0.59736768  1
  Cu  Cu4  1  0.14925734  0.62631883  0.09736768  1
  Cu  Cu5  1  0.35074266  0.12631883  0.40263232  1
  Cu  Cu6  1  0.14925734  0.62631883  0.40263232  1
  Cu  Cu7  1  0.85074266  0.37368117  0.59736768  1
  Cu  Cu8  1  0.02110867  0.33981961  0.25000000  1
  Cu  Cu9  1  0.97889133  0.66018039  0.75000000  1
  Cu  Cu10  1  0.52110867  0.16018039  0.75000000  1
  Cu  Cu11  1  0.47889133  0.83981961  0.25000000  1
  H  H12  1  0.10017334  0.12064422  0.59537567  1
  H  H13  1  0.89982666  0.87935578  0.40462433  1
  H  H14  1  0.60017334  0.37935578  0.40462433  1
  H  H15  1  0.89982666  0.87935578  0.09537567  1
  H  H16  1  0.39982666  0.62064422  0.59537567  1
  H  H17  1  0.10017334  0.12064422  0.90462433  1
  H  H18  1  0.39982666  0.62064422  0.90462433  1
  H  H19  1  0.60017334  0.37935578  0.09537567  1
  H  H20  1  0.23840825  0.05510788  0.65118138  1
  H  H21  1  0.76159175  0.94489212  0.34881862  1
  H  H22  1  0.73840825  0.44489212  0.34881862  1
  H  H23  1  0.76159175  0.94489212  0.15118138  1
  H  H24  1  0.26159175  0.55510788  0.65118138  1
  H  H25  1  0.23840825  0.05510788  0.84881862  1
  H  H26  1  0.26159175  0.55510788  0.84881862  1
  H  H27  1  0.73840825  0.44489212  0.15118138  1
  H  H28  1  0.30755917  0.48113051  0.56013053  1
  H  H29  1  0.69244083  0.51886949  0.43986947  1
  H  H30  1  0.80755917  0.01886949  0.43986947  1
  H  H31  1  0.69244083  0.51886949  0.06013053  1
  H  H32  1  0.19244083  0.98113051  0.56013053  1
  H  H33  1  0.30755917  0.48113051  0.93986947  1
  H  H34  1  0.19244083  0.98113051  0.93986947  1
  H  H35  1  0.80755917  0.01886949  0.06013053  1
  H  H36  1  0.58177796  0.52971283  0.14524071  1
  H  H37  1  0.41822204  0.47028717  0.85475929  1
  H  H38  1  0.08177796  0.97028717  0.85475929  1
  H  H39  1  0.41822204  0.47028717  0.64524071  1
  H  H40  1  0.91822204  0.02971283  0.14524071  1
  H  H41  1  0.58177796  0.52971283  0.35475929  1
  H  H42  1  0.91822204  0.02971283  0.35475929  1
  H  H43  1  0.08177796  0.97028717  0.64524071  1
  S  S44  1  0.17740946  0.05602449  0.25000000  1
  S  S45  1  0.82259054  0.94397551  0.75000000  1
  S  S46  1  0.67740946  0.44397551  0.75000000  1
  S  S47  1  0.32259054  0.55602449  0.25000000  1
  S  S48  1  0.05587743  0.29649498  0.04906371  1
  S  S49  1  0.94412257  0.70350502  0.95093629  1
  S  S50  1  0.55587743  0.20350502  0.95093629  1
  S  S51  1  0.94412257  0.70350502  0.54906371  1
  S  S52  1  0.44412257  0.79649498  0.04906371  1
  S  S53  1  0.05587743  0.29649498  0.45093629  1
  S  S54  1  0.44412257  0.79649498  0.45093629  1
  S  S55  1  0.55587743  0.20350502  0.54906371  1
  S  S56  1  0.59142614  0.14824032  0.25000000  1
  S  S57  1  0.40857386  0.85175968  0.75000000  1
  S  S58  1  0.09142614  0.35175968  0.75000000  1
  S  S59  1  0.90857386  0.64824032  0.25000000  1
  N  N60  1  0.15346359  0.03090214  0.61205907  1
  N  N61  1  0.84653641  0.96909786  0.38794093  1
  N  N62  1  0.65346359  0.46909786  0.38794093  1
  N  N63  1  0.84653641  0.96909786  0.11205907  1
  N  N64  1  0.34653641  0.53090214  0.61205907  1
  N  N65  1  0.15346359  0.03090214  0.88794093  1
  N  N66  1  0.34653641  0.53090214  0.88794093  1
  N  N67  1  0.65346359  0.46909786  0.11205907  1
  O  O68  1  0.15036444  0.17103234  0.05245701  1
  O  O69  1  0.84963556  0.82896766  0.94754299  1
  O  O70  1  0.65036444  0.32896766  0.94754299  1
  O  O71  1  0.84963556  0.82896766  0.55245701  1
  O  O72  1  0.34963556  0.67103234  0.05245701  1
  O  O73  1  0.15036444  0.17103234  0.44754299  1
  O  O74  1  0.34963556  0.67103234  0.44754299  1
  O  O75  1  0.65036444  0.32896766  0.55245701  1
  O  O76  1  0.13538302  0.42234085  0.02430190  1
  O  O77  1  0.86461698  0.57765915  0.97569810  1
  O  O78  1  0.63538302  0.07765915  0.97569810  1
  O  O79  1  0.86461698  0.57765915  0.52430190  1
  O  O80  1  0.36461698  0.92234085  0.02430190  1
  O  O81  1  0.13538302  0.42234085  0.47569810  1
  O  O82  1  0.36461698  0.92234085  0.47569810  1
  O  O83  1  0.63538302  0.07765915  0.52430190  1
  O  O84  1  0.47643669  0.18445853  0.62922647  1
  O  O85  1  0.52356331  0.81554147  0.37077353  1
  O  O86  1  0.97643669  0.31554147  0.37077353  1
  O  O87  1  0.52356331  0.81554147  0.12922647  1
  O  O88  1  0.02356331  0.68445853  0.62922647  1
  O  O89  1  0.47643669  0.18445853  0.87077353  1
  O  O90  1  0.02356331  0.68445853  0.87077353  1
  O  O91  1  0.97643669  0.31554147  0.12922647  1
  O  O92  1  0.73093281  0.21861298  0.25000000  1
  O  O93  1  0.26906719  0.78138702  0.75000000  1
  O  O94  1  0.23093281  0.28138702  0.75000000  1
  O  O95  1  0.76906719  0.71861298  0.25000000  1
  O  O96  1  0.18317727  0.21184425  0.25000000  1
  O  O97  1  0.81682273  0.78815575  0.75000000  1
  O  O98  1  0.68317727  0.28815575  0.75000000  1
  O  O99  1  0.31682273  0.71184425  0.25000000  1
  O  O100  1  0.44146158  0.24217266  0.01363873  1
  O  O101  1  0.55853842  0.75782734  0.98636127  1
  O  O102  1  0.94146158  0.25782734  0.98636127  1
  O  O103  1  0.55853842  0.75782734  0.51363873  1
  O  O104  1  0.05853842  0.74217266  0.01363873  1
  O  O105  1  0.44146158  0.24217266  0.48636127  1
  O  O106  1  0.05853842  0.74217266  0.48636127  1
  O  O107  1  0.94146158  0.25782734  0.51363873  1
  O  O108  1  0.87967991  0.49199493  0.25000000  1
  O  O109  1  0.12032009  0.50800507  0.75000000  1
  O  O110  1  0.37967991  0.00800507  0.75000000  1
  O  O111  1  0.62032009  0.99199493  0.25000000  1
  O  O112  1  0.51007262  0.18640194  0.17340669  1
  O  O113  1  0.48992738  0.81359806  0.82659331  1
  O  O114  1  0.01007262  0.31359806  0.82659331  1
  O  O115  1  0.48992738  0.81359806  0.67340669  1
  O  O116  1  0.98992738  0.68640194  0.17340669  1
  O  O117  1  0.51007262  0.18640194  0.32659331  1
  O  O118  1  0.98992738  0.68640194  0.32659331  1
  O  O119  1  0.01007262  0.31359806  0.67340669  1
  O  O120  1  0.02882185  0.00460922  0.25000000  1
  O  O121  1  0.97117815  0.99539078  0.75000000  1
  O  O122  1  0.52882185  0.49539078  0.75000000  1
  O  O123  1  0.47117815  0.50460922  0.25000000  1
  O  O124  1  0.24138632  0.50297894  0.17592028  1
  O  O125  1  0.75861368  0.49702106  0.82407972  1
  O  O126  1  0.74138632  0.99702106  0.82407972  1
  O  O127  1  0.75861368  0.49702106  0.67592028  1
  O  O128  1  0.25861368  0.00297894  0.17592028  1
  O  O129  1  0.24138632  0.50297894  0.32407972  1
  O  O130  1  0.25861368  0.00297894  0.32407972  1
  O  O131  1  0.74138632  0.99702106  0.67592028  1
