# generated using pymatgen
data_Ba4Nd(RuO4)3
_symmetry_space_group_name_H-M   'P 1'
_cell_length_a   5.99302941
_cell_length_b   5.99302941
_cell_length_c   29.97650382
_cell_angle_alpha   88.92514258
_cell_angle_beta   88.92514258
_cell_angle_gamma   59.97569192
_symmetry_Int_Tables_number   1
_chemical_formula_structural   Ba4Nd(RuO4)3
_chemical_formula_sum   'Ba12 Nd3 Ru9 O36'
_cell_volume   931.95752219
_cell_formula_units_Z   3
loop_
 _symmetry_equiv_pos_site_id
 _symmetry_equiv_pos_as_xyz
  1  'x, y, z'
loop_
 _atom_site_type_symbol
 _atom_site_label
 _atom_site_symmetry_multiplicity
 _atom_site_fract_x
 _atom_site_fract_y
 _atom_site_fract_z
 _atom_site_occupancy
  Ba  Ba0  1  0.99781515  0.99781515  0.86834545  1
  Ba  Ba1  1  0.00218485  0.00218485  0.13165455  1
  Ba  Ba2  1  0.33365731  0.33365731  0.46411840  1
  Ba  Ba3  1  0.66634269  0.66634269  0.53588160  1
  Ba  Ba4  1  0.66848625  0.66848625  0.94904847  1
  Ba  Ba5  1  0.33151375  0.33151375  0.05095153  1
  Ba  Ba6  1  0.00271278  0.00271278  0.28258228  1
  Ba  Ba7  1  0.99728722  0.99728722  0.71741772  1
  Ba  Ba8  1  0.33676852  0.33676852  0.61524479  1
  Ba  Ba9  1  0.66323148  0.66323148  0.38475521  1
  Ba  Ba10  1  0.66500058  0.66500058  0.79638571  1
  Ba  Ba11  1  0.33499942  0.33499942  0.20361429  1
  Nd  Nd12  1  0.66783197  0.66783197  0.66652255  1
  Nd  Nd13  1  0.33216803  0.33216803  0.33347745  1
  Nd  Nd14  1  -0.00000000  -0.00000000  0.00000000  1
  Ru  Ru15  1  0.33248410  0.33248410  0.83349552  1
  Ru  Ru16  1  0.66751590  0.66751590  0.16650448  1
  Ru  Ru17  1  0.33776093  0.33776093  0.91857642  1
  Ru  Ru18  1  0.66223907  0.66223907  0.08142358  1
  Ru  Ru19  1  0.32833512  0.32833512  0.74824160  1
  Ru  Ru20  1  0.67166488  0.67166488  0.25175840  1
  Ru  Ru21  1  0.00705049  0.00705049  0.58514853  1
  Ru  Ru22  1  0.99294951  0.99294951  0.41485147  1
  Ru  Ru23  1  -0.00000000  -0.00000000  0.50000000  1
  O  O24  1  0.18727759  0.18727759  0.95770380  1
  O  O25  1  0.81272241  0.81272241  0.04229620  1
  O  O26  1  0.32471214  0.85647006  0.61891538  1
  O  O27  1  0.67528786  0.14352994  0.38108462  1
  O  O28  1  0.14352994  0.67528786  0.38108462  1
  O  O29  1  0.85647006  0.32471214  0.61891538  1
  O  O30  1  0.17611786  0.17611786  0.79400243  1
  O  O31  1  0.82388214  0.82388214  0.20599757  1
  O  O32  1  0.15743479  0.15743479  0.53889152  1
  O  O33  1  0.84256521  0.84256521  0.46110848  1
  O  O34  1  0.65224695  0.18578185  0.95296514  1
  O  O35  1  0.34775305  0.81421815  0.04703486  1
  O  O36  1  0.81421815  0.34775305  0.04703486  1
  O  O37  1  0.18578185  0.65224695  0.95296514  1
  O  O38  1  0.30623876  0.84366954  0.45684516  1
  O  O39  1  0.69376124  0.15633046  0.54315484  1
  O  O40  1  0.15633046  0.69376124  0.54315484  1
  O  O41  1  0.84366954  0.30623876  0.45684516  1
  O  O42  1  0.64067797  0.17647794  0.79075081  1
  O  O43  1  0.35932203  0.82352206  0.20924919  1
  O  O44  1  0.82352206  0.35932203  0.20924919  1
  O  O45  1  0.17647794  0.64067797  0.79075081  1
  O  O46  1  0.48065576  0.01263744  0.71420858  1
  O  O47  1  0.51934424  0.98736256  0.28579142  1
  O  O48  1  0.98736256  0.51934424  0.28579142  1
  O  O49  1  0.01263744  0.48065576  0.71420858  1
  O  O50  1  0.14108999  0.14108999  0.37415103  1
  O  O51  1  0.85891001  0.85891001  0.62584897  1
  O  O52  1  0.48956087  0.48956087  0.87260093  1
  O  O53  1  0.51043913  0.51043913  0.12739907  1
  O  O54  1  0.47955098  0.47955098  0.70894287  1
  O  O55  1  0.52044902  0.52044902  0.29105713  1
  O  O56  1  0.48874102  0.02520903  0.87604757  1
  O  O57  1  0.51125898  0.97479097  0.12395243  1
  O  O58  1  0.97479097  0.51125898  0.12395243  1
  O  O59  1  0.02520903  0.48874102  0.87604757  1
