# generated using pymatgen
data_YbAl7Fe5
_symmetry_space_group_name_H-M   'P 1'
_cell_length_a   5.01762748
_cell_length_b   6.58505728
_cell_length_c   6.58505728
_cell_angle_alpha   98.25041855
_cell_angle_beta   112.39475812
_cell_angle_gamma   67.60524188
_symmetry_Int_Tables_number   1
_chemical_formula_structural   YbAl7Fe5
_chemical_formula_sum   'Yb1 Al7 Fe5'
_cell_volume   185.99726076
_cell_formula_units_Z   1
loop_
 _symmetry_equiv_pos_site_id
 _symmetry_equiv_pos_as_xyz
  1  'x, y, z'
loop_
 _atom_site_type_symbol
 _atom_site_label
 _atom_site_symmetry_multiplicity
 _atom_site_fract_x
 _atom_site_fract_y
 _atom_site_fract_z
 _atom_site_occupancy
  Yb  Yb0  1  0.00498801  0.99501199  0.00498801  1
  Al  Al1  1  0.66337581  0.33662419  0.66337581  1
  Al  Al2  1  0.33603290  0.66396710  0.33603290  1
  Al  Al3  1  0.99168490  0.34889558  0.33226538  1
  Al  Al4  1  0.99168490  0.66773462  0.65110442  1
  Al  Al5  1  0.27278982  0.22721018  0.77278982  1
  Al  Al6  1  0.50463585  0.78383547  0.79310717  1
  Al  Al7  1  0.50463585  0.20689283  0.21616453  1
  Fe  Fe8  1  0.49524177  0.00192662  0.49836417  1
  Fe  Fe9  1  0.00119578  0.00192662  0.49836417  1
  Fe  Fe10  1  0.49524177  0.50163583  0.99807338  1
  Fe  Fe11  1  0.00119578  0.50163583  0.99807338  1
  Fe  Fe12  1  0.73729686  0.76270314  0.23729686  1
