# generated using pymatgen
data_Ba2Fe2ClF7
_symmetry_space_group_name_H-M   'P 1'
_cell_length_a   5.82748078
_cell_length_b   8.00335571
_cell_length_c   9.18413312
_cell_angle_alpha   106.69492908
_cell_angle_beta   90.00000000
_cell_angle_gamma   90.00000000
_symmetry_Int_Tables_number   1
_chemical_formula_structural   Ba2Fe2ClF7
_chemical_formula_sum   'Ba4 Fe4 Cl2 F14'
_cell_volume   410.28694814
_cell_formula_units_Z   2
loop_
 _symmetry_equiv_pos_site_id
 _symmetry_equiv_pos_as_xyz
  1  'x, y, z'
loop_
 _atom_site_type_symbol
 _atom_site_label
 _atom_site_symmetry_multiplicity
 _atom_site_fract_x
 _atom_site_fract_y
 _atom_site_fract_z
 _atom_site_occupancy
  Ba  Ba0  1  0.75000000  0.33459664  0.08793164  1
  Ba  Ba1  1  0.25000000  0.66540336  0.91206836  1
  Ba  Ba2  1  0.75000000  0.30505115  0.57448609  1
  Ba  Ba3  1  0.25000000  0.69494885  0.42551391  1
  Fe  Fe4  1  0.75000000  0.81590551  0.67452141  1
  Fe  Fe5  1  0.25000000  0.18409449  0.32547859  1
  Fe  Fe6  1  0.75000000  0.82507098  0.23385516  1
  Fe  Fe7  1  0.25000000  0.17492902  0.76614484  1
  Cl  Cl8  1  0.75000000  0.88284292  0.96981997  1
  Cl  Cl9  1  0.25000000  0.11715708  0.03018003  1
  F  F10  1  0.49847595  0.99497728  0.66937826  1
  F  F11  1  0.50152405  0.00502272  0.33062174  1
  F  F12  1  -0.00152405  0.00502272  0.33062174  1
  F  F13  1  0.00152405  0.99497728  0.66937826  1
  F  F14  1  0.49778292  0.36524161  0.84766259  1
  F  F15  1  0.50221708  0.63475839  0.15233741  1
  F  F16  1  -0.00221708  0.63475839  0.15233741  1
  F  F17  1  0.00221708  0.36524161  0.84766259  1
  F  F18  1  0.75000000  0.74265646  0.43295274  1
  F  F19  1  0.25000000  0.25734354  0.56704726  1
  F  F20  1  0.99354191  0.62610823  0.66091211  1
  F  F21  1  0.00645809  0.37389177  0.33908789  1
  F  F22  1  0.49354191  0.37389177  0.33908789  1
  F  F23  1  0.50645809  0.62610823  0.66091211  1
