# generated using pymatgen
data_BaNaTiF6
_symmetry_space_group_name_H-M   'P 1'
_cell_length_a   5.80470165
_cell_length_b   19.41601108
_cell_length_c   9.99312458
_cell_angle_alpha   90.00000000
_cell_angle_beta   90.00000000
_cell_angle_gamma   90.00000000
_symmetry_Int_Tables_number   1
_chemical_formula_structural   BaNaTiF6
_chemical_formula_sum   'Ba8 Na8 Ti8 F48'
_cell_volume   1126.26662715
_cell_formula_units_Z   8
loop_
 _symmetry_equiv_pos_site_id
 _symmetry_equiv_pos_as_xyz
  1  'x, y, z'
loop_
 _atom_site_type_symbol
 _atom_site_label
 _atom_site_symmetry_multiplicity
 _atom_site_fract_x
 _atom_site_fract_y
 _atom_site_fract_z
 _atom_site_occupancy
  Ba  Ba0  1  0.24313553  0.88710034  0.63561246  1
  Ba  Ba1  1  0.75686447  0.11289966  0.13561246  1
  Ba  Ba2  1  0.25686447  0.38710034  0.63561246  1
  Ba  Ba3  1  0.74313553  0.61289966  0.13561246  1
  Ba  Ba4  1  0.74094986  0.86428130  0.99609126  1
  Ba  Ba5  1  0.25905014  0.13571870  0.49609126  1
  Ba  Ba6  1  0.75905014  0.36428130  0.99609126  1
  Ba  Ba7  1  0.24094986  0.63571870  0.49609126  1
  Na  Na8  1  0.73756470  0.93678400  0.35773697  1
  Na  Na9  1  0.26243530  0.06321600  0.85773697  1
  Na  Na10  1  0.76243530  0.43678400  0.35773697  1
  Na  Na11  1  0.23756470  0.56321600  0.85773697  1
  Na  Na12  1  0.73659790  0.68774912  0.77522617  1
  Na  Na13  1  0.26340210  0.31225088  0.27522617  1
  Na  Na14  1  0.76340210  0.18774912  0.77522617  1
  Na  Na15  1  0.23659790  0.81225088  0.27522617  1
  Ti  Ti16  1  0.73466320  0.50698440  0.73613872  1
  Ti  Ti17  1  0.26533680  0.49301560  0.23613872  1
  Ti  Ti18  1  0.76533680  0.00698440  0.73613872  1
  Ti  Ti19  1  0.23466320  0.99301560  0.23613872  1
  Ti  Ti20  1  0.74667652  0.75611763  0.39662419  1
  Ti  Ti21  1  0.25332348  0.24388237  0.89662419  1
  Ti  Ti22  1  0.75332348  0.25611763  0.39662419  1
  Ti  Ti23  1  0.24667652  0.74388237  0.89662419  1
  F  F24  1  0.97828683  0.93991763  0.82670824  1
  F  F25  1  0.02171317  0.06008237  0.32670824  1
  F  F26  1  0.52171317  0.43991763  0.82670824  1
  F  F27  1  0.47828683  0.56008237  0.32670824  1
  F  F28  1  0.65338805  0.56990210  0.88229793  1
  F  F29  1  0.34661195  0.43009790  0.38229793  1
  F  F30  1  0.84661195  0.06990210  0.88229793  1
  F  F31  1  0.15338805  0.93009790  0.38229793  1
  F  F32  1  0.50096841  0.96527793  0.83885865  1
  F  F33  1  0.49903159  0.03472207  0.33885865  1
  F  F34  1  0.99903159  0.46527793  0.83885865  1
  F  F35  1  0.00096841  0.53472207  0.33885865  1
  F  F36  1  0.51935383  0.82718787  0.45303928  1
  F  F37  1  0.48064617  0.17281213  0.95303928  1
  F  F38  1  0.98064617  0.32718787  0.45303928  1
  F  F39  1  0.01935383  0.67281213  0.95303928  1
  F  F40  1  0.46950315  0.80977713  0.80692178  1
  F  F41  1  0.53049685  0.19022287  0.30692178  1
  F  F42  1  0.03049685  0.30977713  0.80692178  1
  F  F43  1  0.96950315  0.69022287  0.30692178  1
  F  F44  1  0.69610978  0.69146723  0.54003019  1
  F  F45  1  0.30389022  0.30853277  0.04003019  1
  F  F46  1  0.80389022  0.19146723  0.54003019  1
  F  F47  1  0.19610978  0.80853277  0.04003019  1
  F  F48  1  0.95406498  0.57938686  0.67368905  1
  F  F49  1  0.04593502  0.42061314  0.17368905  1
  F  F50  1  0.54593502  0.07938686  0.67368905  1
  F  F51  1  0.45406498  0.92061314  0.17368905  1
  F  F52  1  0.98350024  0.78898573  0.79984041  1
  F  F53  1  0.01649976  0.21101427  0.29984041  1
  F  F54  1  0.51649976  0.28898573  0.79984041  1
  F  F55  1  0.48350024  0.71101427  0.29984041  1
  F  F56  1  0.44156625  0.53695439  0.64416072  1
  F  F57  1  0.55843375  0.46304561  0.14416072  1
  F  F58  1  0.05843375  0.03695439  0.64416072  1
  F  F59  1  0.94156625  0.96304561  0.14416072  1
  F  F60  1  0.81603597  0.81996403  0.25064343  1
  F  F61  1  0.18396403  0.18003597  0.75064343  1
  F  F62  1  0.68396403  0.31996403  0.25064343  1
  F  F63  1  0.31603597  0.68003597  0.75064343  1
  F  F64  1  0.69397765  0.94517983  0.59140410  1
  F  F65  1  0.30602235  0.05482017  0.09140410  1
  F  F66  1  0.80602235  0.44517983  0.59140410  1
  F  F67  1  0.19397765  0.55482017  0.09140410  1
  F  F68  1  0.53389996  0.70998464  0.98937644  1
  F  F69  1  0.46610004  0.29001536  0.48937644  1
  F  F70  1  0.96610004  0.20998464  0.98937644  1
  F  F71  1  0.03389996  0.79001536  0.48937644  1
