# generated using pymatgen
data_CaMg5P3HCO16
_symmetry_space_group_name_H-M   'P 1'
_cell_length_a   6.38573456
_cell_length_b   8.77356013
_cell_length_c   10.93310823
_cell_angle_alpha   94.93398837
_cell_angle_beta   100.99474933
_cell_angle_gamma   93.15584377
_symmetry_Int_Tables_number   1
_chemical_formula_structural   CaMg5P3HCO16
_chemical_formula_sum   'Ca2 Mg10 P6 H2 C2 O32'
_cell_volume   597.46178525
_cell_formula_units_Z   2
loop_
 _symmetry_equiv_pos_site_id
 _symmetry_equiv_pos_as_xyz
  1  'x, y, z'
loop_
 _atom_site_type_symbol
 _atom_site_label
 _atom_site_symmetry_multiplicity
 _atom_site_fract_x
 _atom_site_fract_y
 _atom_site_fract_z
 _atom_site_occupancy
  Ca  Ca0  1  0.12248646  0.31769979  0.56167658  1
  Ca  Ca1  1  0.87751354  0.68230021  0.43832342  1
  Mg  Mg2  1  0.09050475  0.81871099  0.16974327  1
  Mg  Mg3  1  0.90949525  0.18128901  0.83025673  1
  Mg  Mg4  1  0.32621890  0.52702803  0.11350015  1
  Mg  Mg5  1  0.67378110  0.47297197  0.88649985  1
  Mg  Mg6  1  0.31075163  0.03600577  0.40042342  1
  Mg  Mg7  1  0.68924837  0.96399423  0.59957658  1
  Mg  Mg8  1  0.58650272  0.35230533  0.31725081  1
  Mg  Mg9  1  0.41349728  0.64769467  0.68274919  1
  Mg  Mg10  1  0.67472810  0.13620158  0.04768425  1
  Mg  Mg11  1  0.32527190  0.86379842  0.95231575  1
  P  P12  1  0.79951215  0.03269374  0.32980522  1
  P  P13  1  0.20048785  0.96730626  0.67019478  1
  P  P14  1  0.21474763  0.15677807  0.10876393  1
  P  P15  1  0.78525237  0.84322193  0.89123607  1
  P  P16  1  0.36944623  0.66945883  0.42544009  1
  P  P17  1  0.63055377  0.33054117  0.57455991  1
  H  H18  1  0.50923259  0.78843933  0.16381527  1
  H  H19  1  0.49076741  0.21156067  0.83618473  1
  C  C20  1  0.15252920  0.48235136  0.83641212  1
  C  C21  1  0.84747080  0.51764864  0.16358788  1
  O  O22  1  0.00946708  0.11060743  0.41220370  1
  O  O23  1  0.99053292  0.88939257  0.58779630  1
  O  O24  1  0.43875359  0.26681065  0.46507004  1
  O  O25  1  0.56124641  0.73318935  0.53492996  1
  O  O26  1  0.36705323  0.00329853  0.58809720  1
  O  O27  1  0.63294677  0.99670147  0.41190280  1
  O  O28  1  0.32497691  0.31456980  0.17133506  1
  O  O29  1  0.67502309  0.68543020  0.82866494  1
  O  O30  1  0.23946245  0.79560655  0.36283425  1
  O  O31  1  0.76053755  0.20439345  0.63716575  1
  O  O32  1  0.21923164  0.57916679  0.49579880  1
  O  O33  1  0.78076836  0.42083321  0.50420120  1
  O  O34  1  0.46328211  0.57192476  0.32752106  1
  O  O35  1  0.53671789  0.42807524  0.67247894  1
  O  O36  1  0.70353499  0.15022275  0.23802116  1
  O  O37  1  0.29646501  0.84977725  0.76197884  1
  O  O38  1  0.67650024  0.49265908  0.07766748  1
  O  O39  1  0.32349976  0.50734092  0.92233252  1
  O  O40  1  0.16198717  0.12319748  0.73851681  1
  O  O41  1  0.83801283  0.87680252  0.26148319  1
  O  O42  1  0.20651128  0.04675444  0.21108384  1
  O  O43  1  0.79348872  0.95324556  0.78891616  1
  O  O44  1  0.02012510  0.58242174  0.13830912  1
  O  O45  1  0.97987490  0.41757826  0.86169088  1
  O  O46  1  0.36920594  0.75493186  0.11237188  1
  O  O47  1  0.63079406  0.24506814  0.88762812  1
  O  O48  1  0.15685734  0.51850692  0.72529651  1
  O  O49  1  0.84314266  0.48149308  0.27470349  1
  O  O50  1  0.34868445  0.08984221  0.01606950  1
  O  O51  1  0.65131555  0.91015779  0.98393050  1
  O  O52  1  0.98842990  0.17609797  0.03280282  1
  O  O53  1  0.01157010  0.82390203  0.96719718  1
