# generated using pymatgen
data_Ca3Nd2Sb3O14
_symmetry_space_group_name_H-M   'P 1'
_cell_length_a   7.53662600
_cell_length_b   7.53662600
_cell_length_c   7.49181189
_cell_angle_alpha   60.76009915
_cell_angle_beta   60.76009915
_cell_angle_gamma   60.48909396
_symmetry_Int_Tables_number   1
_chemical_formula_structural   Ca3Nd2Sb3O14
_chemical_formula_sum   'Ca3 Nd2 Sb3 O14'
_cell_volume   305.44760299
_cell_formula_units_Z   1
loop_
 _symmetry_equiv_pos_site_id
 _symmetry_equiv_pos_as_xyz
  1  'x, y, z'
loop_
 _atom_site_type_symbol
 _atom_site_label
 _atom_site_symmetry_multiplicity
 _atom_site_fract_x
 _atom_site_fract_y
 _atom_site_fract_z
 _atom_site_occupancy
  Ca  Ca0  1  0.00000000  0.00000000  -0.00000000  1
  Ca  Ca1  1  0.50000000  0.50000000  0.50000000  1
  Ca  Ca2  1  0.50000000  0.50000000  -0.00000000  1
  Nd  Nd3  1  0.50000000  0.00000000  0.50000000  1
  Nd  Nd4  1  0.00000000  0.50000000  0.50000000  1
  Sb  Sb5  1  0.00000000  0.00000000  0.50000000  1
  Sb  Sb6  1  0.50000000  0.00000000  -0.00000000  1
  Sb  Sb7  1  0.00000000  0.50000000  -0.00000000  1
  O  O8  1  0.62379439  0.62379439  0.62040719  1
  O  O9  1  0.37620561  0.37620561  0.37959281  1
  O  O10  1  0.68450038  0.08877788  0.68306736  1
  O  O11  1  0.31549962  0.91122212  0.31693264  1
  O  O12  1  0.91122212  0.31549962  0.31693264  1
  O  O13  1  0.08877788  0.68450038  0.68306736  1
  O  O14  1  0.37051009  0.90862282  0.90071637  1
  O  O15  1  0.62948991  0.09137718  0.09928363  1
  O  O16  1  0.09137718  0.62948991  0.09928363  1
  O  O17  1  0.90862282  0.37051009  0.90071637  1
  O  O18  1  0.09708664  0.09708664  0.62861263  1
  O  O19  1  0.90291336  0.90291336  0.37138737  1
  O  O20  1  0.31429347  0.31429347  0.91161192  1
  O  O21  1  0.68570653  0.68570653  0.08838808  1
