# generated using pymatgen
data_AlZn10(B4Rh9)2
_symmetry_space_group_name_H-M   'P 1'
_cell_length_a   2.88495675
_cell_length_b   17.87504418
_cell_length_c   17.87504418
_cell_angle_alpha   90.00000000
_cell_angle_beta   90.00000000
_cell_angle_gamma   90.00000000
_symmetry_Int_Tables_number   1
_chemical_formula_structural   AlZn10(B4Rh9)2
_chemical_formula_sum   'Al2 Zn20 B16 Rh36'
_cell_volume   921.79331568
_cell_formula_units_Z   2
loop_
 _symmetry_equiv_pos_site_id
 _symmetry_equiv_pos_as_xyz
  1  'x, y, z'
loop_
 _atom_site_type_symbol
 _atom_site_label
 _atom_site_symmetry_multiplicity
 _atom_site_fract_x
 _atom_site_fract_y
 _atom_site_fract_z
 _atom_site_occupancy
  Al  Al0  1  -0.00000000  -0.00000000  -0.00000000  1
  Al  Al1  1  -0.00000000  0.50000000  0.50000000  1
  Zn  Zn2  1  0.00000000  0.05024867  0.55024867  1
  Zn  Zn3  1  -0.00000000  0.94975133  0.44975133  1
  Zn  Zn4  1  0.00000000  0.44975133  0.05024867  1
  Zn  Zn5  1  -0.00000000  0.55024867  0.94975133  1
  Zn  Zn6  1  0.00000000  0.18823619  0.03194832  1
  Zn  Zn7  1  -0.00000000  0.81176381  0.96805168  1
  Zn  Zn8  1  0.00000000  0.96805168  0.18823619  1
  Zn  Zn9  1  0.00000000  0.31176381  0.53194832  1
  Zn  Zn10  1  -0.00000000  0.03194832  0.81176381  1
  Zn  Zn11  1  -0.00000000  0.68823619  0.46805168  1
  Zn  Zn12  1  0.00000000  0.53194832  0.68823619  1
  Zn  Zn13  1  -0.00000000  0.46805168  0.31176381  1
  Zn  Zn14  1  0.00000000  0.70915464  0.20915464  1
  Zn  Zn15  1  -0.00000000  0.29084536  0.79084536  1
  Zn  Zn16  1  0.00000000  0.79084536  0.70915464  1
  Zn  Zn17  1  -0.00000000  0.20915464  0.29084536  1
  Zn  Zn18  1  -0.00000000  0.16887529  0.66887529  1
  Zn  Zn19  1  0.00000000  0.83112471  0.33112471  1
  Zn  Zn20  1  -0.00000000  0.33112471  0.16887529  1
  Zn  Zn21  1  0.00000000  0.66887529  0.83112471  1
  B  B22  1  0.00000000  0.03886924  0.33414802  1
  B  B23  1  -0.00000000  0.96113076  0.66585198  1
  B  B24  1  -0.00000000  0.66585198  0.03886924  1
  B  B25  1  0.00000000  0.46113076  0.83414802  1
  B  B26  1  0.00000000  0.33414802  0.96113076  1
  B  B27  1  -0.00000000  0.53886924  0.16585198  1
  B  B28  1  -0.00000000  0.83414802  0.53886924  1
  B  B29  1  0.00000000  0.16585198  0.46113076  1
  B  B30  1  0.00000000  0.12420010  0.16642986  1
  B  B31  1  -0.00000000  0.87579990  0.83357014  1
  B  B32  1  0.00000000  0.83357014  0.12420010  1
  B  B33  1  0.00000000  0.37579990  0.66642986  1
  B  B34  1  -0.00000000  0.16642986  0.87579990  1
  B  B35  1  -0.00000000  0.62420010  0.33357014  1
  B  B36  1  0.00000000  0.66642986  0.62420010  1
  B  B37  1  -0.00000000  0.33357014  0.37579990  1
  Rh  Rh38  1  0.50000000  0.08740460  0.25491637  1
  Rh  Rh39  1  0.50000000  0.91259540  0.74508363  1
  Rh  Rh40  1  0.50000000  0.74508363  0.08740460  1
  Rh  Rh41  1  0.50000000  0.41259540  0.75491637  1
  Rh  Rh42  1  0.50000000  0.25491637  0.91259540  1
  Rh  Rh43  1  0.50000000  0.58740460  0.24508363  1
  Rh  Rh44  1  0.50000000  0.75491637  0.58740460  1
  Rh  Rh45  1  0.50000000  0.24508363  0.41259540  1
  Rh  Rh46  1  0.50000000  0.32559645  0.04777049  1
  Rh  Rh47  1  0.50000000  0.67440355  0.95222951  1
  Rh  Rh48  1  0.50000000  0.95222951  0.32559645  1
  Rh  Rh49  1  0.50000000  0.17440355  0.54777049  1
  Rh  Rh50  1  0.50000000  0.04777049  0.67440355  1
  Rh  Rh51  1  0.50000000  0.82559645  0.45222951  1
  Rh  Rh52  1  0.50000000  0.54777049  0.82559645  1
  Rh  Rh53  1  0.50000000  0.45222951  0.17440355  1
  Rh  Rh54  1  0.50000000  0.21074138  0.16016043  1
  Rh  Rh55  1  0.50000000  0.78925862  0.83983957  1
  Rh  Rh56  1  0.50000000  0.83983957  0.21074138  1
  Rh  Rh57  1  0.50000000  0.28925862  0.66016043  1
  Rh  Rh58  1  0.50000000  0.16016043  0.78925862  1
  Rh  Rh59  1  0.50000000  0.71074138  0.33983957  1
  Rh  Rh60  1  0.50000000  0.66016043  0.71074138  1
  Rh  Rh61  1  0.50000000  0.33983957  0.28925862  1
  Rh  Rh62  1  0.50000000  0.06686842  0.09776326  1
  Rh  Rh63  1  0.50000000  0.93313158  0.90223674  1
  Rh  Rh64  1  0.50000000  0.90223674  0.06686842  1
  Rh  Rh65  1  0.50000000  0.43313158  0.59776326  1
  Rh  Rh66  1  0.50000000  0.09776326  0.93313158  1
  Rh  Rh67  1  0.50000000  0.56686842  0.40223674  1
  Rh  Rh68  1  0.50000000  0.59776326  0.56686842  1
  Rh  Rh69  1  0.50000000  0.40223674  0.43313158  1
  Rh  Rh70  1  0.50000000  0.58238368  0.08238368  1
  Rh  Rh71  1  0.50000000  0.41761632  0.91761632  1
  Rh  Rh72  1  0.50000000  0.91761632  0.58238368  1
  Rh  Rh73  1  0.50000000  0.08238368  0.41761632  1
