# generated using pymatgen
data_Ca10VP5(O12F)2
_symmetry_space_group_name_H-M   'P 1'
_cell_length_a   6.97893535
_cell_length_b   9.50546462
_cell_length_c   9.51700743
_cell_angle_alpha   119.71141157
_cell_angle_beta   90.00000000
_cell_angle_gamma   90.00000000
_symmetry_Int_Tables_number   1
_chemical_formula_structural   Ca10VP5(O12F)2
_chemical_formula_sum   'Ca10 V1 P5 O24 F2'
_cell_volume   548.33903813
_cell_formula_units_Z   1
loop_
 _symmetry_equiv_pos_site_id
 _symmetry_equiv_pos_as_xyz
  1  'x, y, z'
loop_
 _atom_site_type_symbol
 _atom_site_label
 _atom_site_symmetry_multiplicity
 _atom_site_fract_x
 _atom_site_fract_y
 _atom_site_fract_z
 _atom_site_occupancy
  Ca  Ca0  1  0.50000000  0.99108735  0.48820766  1
  Ca  Ca1  1  0.74983698  0.32739246  0.90547376  1
  Ca  Ca2  1  0.25016302  0.32739246  0.90547376  1
  Ca  Ca3  1  0.74805506  0.66550983  0.58164782  1
  Ca  Ca4  1  0.25194494  0.66550983  0.58164782  1
  Ca  Ca5  1  0.50000000  0.75217998  0.99672403  1
  Ca  Ca6  1  -0.00000000  0.23535827  0.49735589  1
  Ca  Ca7  1  -0.00000000  0.75163237  0.23806154  1
  Ca  Ca8  1  -0.00000000  0.99833377  0.99783698  1
  Ca  Ca9  1  0.50000000  0.23595601  0.24621995  1
  V  V10  1  -0.00000000  0.39233646  0.27432790  1
  P  P11  1  0.50000000  0.36596981  0.64573119  1
  P  P12  1  0.50000000  0.02474066  0.87720260  1
  P  P13  1  -0.00000000  0.62705255  0.84581038  1
  P  P14  1  -0.00000000  0.96767019  0.60991217  1
  P  P15  1  0.50000000  0.59681882  0.21483509  1
  O  O16  1  0.50000000  0.46457712  0.83506907  1
  O  O17  1  -0.00000000  0.30428698  0.06443122  1
  O  O18  1  0.50000000  0.48212589  0.57494207  1
  O  O19  1  0.50000000  0.83797017  0.76206974  1
  O  O20  1  0.67958819  0.65319393  0.15909695  1
  O  O21  1  0.32041181  0.65319393  0.15909695  1
  O  O22  1  0.82078539  0.73936305  0.90170900  1
  O  O23  1  0.17921461  0.73936305  0.90170900  1
  O  O24  1  -0.00000000  0.51304871  0.91891802  1
  O  O25  1  0.67882760  0.07887033  0.98903614  1
  O  O26  1  0.32117240  0.07887033  0.98903614  1
  O  O27  1  0.50000000  0.11555551  0.77843279  1
  O  O28  1  -0.00000000  0.60359007  0.37889888  1
  O  O29  1  0.50000000  0.66945488  0.40188764  1
  O  O30  1  -0.00000000  0.87935508  0.71165684  1
  O  O31  1  0.67873891  0.25391520  0.59189717  1
  O  O32  1  0.32126109  0.25391520  0.59189717  1
  O  O33  1  0.50000000  0.40731520  0.12462036  1
  O  O34  1  -0.00000000  0.52906593  0.65682387  1
  O  O35  1  0.82032374  0.91287516  0.49890879  1
  O  O36  1  0.17967626  0.91287516  0.49890879  1
  O  O37  1  -0.00000000  0.15463116  0.72068128  1
  O  O38  1  0.80575124  0.33056717  0.34159561  1
  O  O39  1  0.19424876  0.33056717  0.34159561  1
  F  F40  1  0.50000000  0.99177335  0.24474329  1
  F  F41  1  -0.00000000  0.99818945  0.24332908  1
