# generated using pymatgen
data_Ca3Fe3(SbO6)2
_symmetry_space_group_name_H-M   'P 1'
_cell_length_a   11.09120583
_cell_length_b   11.09120583
_cell_length_c   11.09120583
_cell_angle_alpha   109.47122063
_cell_angle_beta   109.47122063
_cell_angle_gamma   109.47122063
_symmetry_Int_Tables_number   1
_chemical_formula_structural   Ca3Fe3(SbO6)2
_chemical_formula_sum   'Ca12 Fe12 Sb8 O48'
_cell_volume   1050.30251124
_cell_formula_units_Z   4
loop_
 _symmetry_equiv_pos_site_id
 _symmetry_equiv_pos_as_xyz
  1  'x, y, z'
loop_
 _atom_site_type_symbol
 _atom_site_label
 _atom_site_symmetry_multiplicity
 _atom_site_fract_x
 _atom_site_fract_y
 _atom_site_fract_z
 _atom_site_occupancy
  Ca  Ca0  1  0.87500000  0.62500000  0.75000000  1
  Ca  Ca1  1  0.12500000  0.37500000  0.25000000  1
  Ca  Ca2  1  0.62500000  0.87500000  0.25000000  1
  Ca  Ca3  1  0.62500000  0.75000000  0.87500000  1
  Ca  Ca4  1  0.87500000  0.25000000  0.62500000  1
  Ca  Ca5  1  0.37500000  0.12500000  0.75000000  1
  Ca  Ca6  1  0.37500000  0.25000000  0.12500000  1
  Ca  Ca7  1  0.12500000  0.75000000  0.37500000  1
  Ca  Ca8  1  0.75000000  0.87500000  0.62500000  1
  Ca  Ca9  1  0.25000000  0.12500000  0.37500000  1
  Ca  Ca10  1  0.25000000  0.62500000  0.87500000  1
  Ca  Ca11  1  0.75000000  0.37500000  0.12500000  1
  Fe  Fe12  1  0.62500000  0.37500000  0.75000000  1
  Fe  Fe13  1  0.37500000  0.62500000  0.25000000  1
  Fe  Fe14  1  0.87500000  0.12500000  0.25000000  1
  Fe  Fe15  1  0.37500000  0.75000000  0.62500000  1
  Fe  Fe16  1  0.62500000  0.25000000  0.37500000  1
  Fe  Fe17  1  0.12500000  0.87500000  0.75000000  1
  Fe  Fe18  1  0.12500000  0.25000000  0.87500000  1
  Fe  Fe19  1  0.87500000  0.75000000  0.12500000  1
  Fe  Fe20  1  0.75000000  0.62500000  0.37500000  1
  Fe  Fe21  1  0.25000000  0.37500000  0.62500000  1
  Fe  Fe22  1  0.25000000  0.87500000  0.12500000  1
  Fe  Fe23  1  0.75000000  0.12500000  0.87500000  1
  Sb  Sb24  1  -0.00000000  0.00000000  -0.00000000  1
  Sb  Sb25  1  0.50000000  0.00000000  0.50000000  1
  Sb  Sb26  1  0.50000000  0.50000000  -0.00000000  1
  Sb  Sb27  1  -0.00000000  0.00000000  0.50000000  1
  Sb  Sb28  1  -0.00000000  0.50000000  0.50000000  1
  Sb  Sb29  1  0.50000000  0.50000000  0.50000000  1
  Sb  Sb30  1  0.50000000  0.00000000  -0.00000000  1
  Sb  Sb31  1  -0.00000000  0.50000000  -0.00000000  1
  O  O32  1  0.69834530  0.61958537  0.52321265  1
  O  O33  1  0.30165470  0.38041463  0.47678735  1
  O  O34  1  0.80165470  0.82486735  0.42124007  1
  O  O35  1  0.40362728  0.88041463  0.07875993  1
  O  O36  1  0.61958537  0.52321265  0.69834530  1
  O  O37  1  0.69834530  0.07875993  0.67513265  1
  O  O38  1  0.19834530  0.17513265  0.57875993  1
  O  O39  1  0.59637272  0.11958537  0.92124007  1
  O  O40  1  0.38041463  0.47678735  0.30165470  1
  O  O41  1  0.30165470  0.92124007  0.32486735  1
  O  O42  1  0.09637272  0.67513265  0.97678735  1
  O  O43  1  0.82486735  0.42124007  0.80165470  1
  O  O44  1  0.80165470  0.97678735  0.88041463  1
  O  O45  1  0.90362728  0.32486735  0.02321265  1
  O  O46  1  0.17513265  0.57875993  0.19834530  1
  O  O47  1  0.19834530  0.02321265  0.11958537  1
  O  O48  1  0.88041463  0.07875993  0.40362728  1
  O  O49  1  0.40362728  0.52321265  0.82486735  1
  O  O50  1  0.11958537  0.92124007  0.59637272  1
  O  O51  1  0.59637272  0.47678735  0.17513265  1
  O  O52  1  0.67513265  0.97678735  0.09637272  1
  O  O53  1  0.09637272  0.42124007  0.61958537  1
  O  O54  1  0.32486735  0.02321265  0.90362728  1
  O  O55  1  0.90362728  0.57875993  0.38041463  1
  O  O56  1  0.52321265  0.69834530  0.61958537  1
  O  O57  1  0.61958537  0.09637272  0.42124007  1
  O  O58  1  0.47678735  0.30165470  0.38041463  1
  O  O59  1  0.38041463  0.90362728  0.57875993  1
  O  O60  1  0.07875993  0.40362728  0.88041463  1
  O  O61  1  0.88041463  0.80165470  0.97678735  1
  O  O62  1  0.92124007  0.59637272  0.11958537  1
  O  O63  1  0.11958537  0.19834530  0.02321265  1
  O  O64  1  0.97678735  0.09637272  0.67513265  1
  O  O65  1  0.67513265  0.69834530  0.07875993  1
  O  O66  1  0.02321265  0.90362728  0.32486735  1
  O  O67  1  0.32486735  0.30165470  0.92124007  1
  O  O68  1  0.42124007  0.80165470  0.82486735  1
  O  O69  1  0.82486735  0.40362728  0.52321265  1
  O  O70  1  0.57875993  0.19834530  0.17513265  1
  O  O71  1  0.17513265  0.59637272  0.47678735  1
  O  O72  1  0.07875993  0.67513265  0.69834530  1
  O  O73  1  0.92124007  0.32486735  0.30165470  1
  O  O74  1  0.97678735  0.88041463  0.80165470  1
  O  O75  1  0.02321265  0.11958537  0.19834530  1
  O  O76  1  0.42124007  0.61958537  0.09637272  1
  O  O77  1  0.57875993  0.38041463  0.90362728  1
  O  O78  1  0.52321265  0.82486735  0.40362728  1
  O  O79  1  0.47678735  0.17513265  0.59637272  1
