# generated using pymatgen
data_Zr3GeAs5
_symmetry_space_group_name_H-M   'P 1'
_cell_length_a   3.71087436
_cell_length_b   6.80645832
_cell_length_c   27.62834306
_cell_angle_alpha   89.99128373
_cell_angle_beta   90.00000000
_cell_angle_gamma   90.00000000
_symmetry_Int_Tables_number   1
_chemical_formula_structural   Zr3GeAs5
_chemical_formula_sum   'Zr12 Ge4 As20'
_cell_volume   697.83424027
_cell_formula_units_Z   4
loop_
 _symmetry_equiv_pos_site_id
 _symmetry_equiv_pos_as_xyz
  1  'x, y, z'
loop_
 _atom_site_type_symbol
 _atom_site_label
 _atom_site_symmetry_multiplicity
 _atom_site_fract_x
 _atom_site_fract_y
 _atom_site_fract_z
 _atom_site_occupancy
  Zr  Zr0  1  0.75000000  0.27165970  0.28043992  1
  Zr  Zr1  1  0.75000000  0.27346760  0.61340869  1
  Zr  Zr2  1  0.75000000  0.27308469  0.94668038  1
  Zr  Zr3  1  0.75000000  0.77185395  0.21934631  1
  Zr  Zr4  1  0.75000000  0.77106985  0.55379289  1
  Zr  Zr5  1  0.75000000  0.77138818  0.88674584  1
  Zr  Zr6  1  0.25000000  0.72846426  0.05438119  1
  Zr  Zr7  1  0.25000000  0.72907124  0.38897437  1
  Zr  Zr8  1  0.25000000  0.72844513  0.72115816  1
  Zr  Zr9  1  0.25000000  0.22887303  0.11154703  1
  Zr  Zr10  1  0.25000000  0.22885051  0.44466764  1
  Zr  Zr11  1  0.25000000  0.22840762  0.77845919  1
  Ge  Ge12  1  0.75000000  0.37235581  0.18153103  1
  Ge  Ge13  1  0.75000000  0.37399171  0.51476598  1
  Ge  Ge14  1  0.75000000  0.37388028  0.84815082  1
  Ge  Ge15  1  0.75000000  0.87245874  0.31857433  1
  As  As16  1  0.75000000  0.41661333  0.04907041  1
  As  As17  1  0.75000000  0.41659882  0.38251427  1
  As  As18  1  0.75000000  0.41647649  0.71603105  1
  As  As19  1  0.75000000  0.91699669  0.11699797  1
  As  As20  1  0.75000000  0.91649663  0.45095280  1
  As  As21  1  0.75000000  0.91666218  0.78379020  1
  As  As22  1  0.25000000  0.59546737  0.28446700  1
  As  As23  1  0.25000000  0.58600477  0.61733228  1
  As  As24  1  0.25000000  0.58595160  0.95046904  1
  As  As25  1  0.25000000  0.09462741  0.21554682  1
  As  As26  1  0.25000000  0.09364501  0.54870587  1
  As  As27  1  0.25000000  0.09309868  0.88216414  1
  As  As28  1  0.75000000  0.87731939  0.65236765  1
  As  As29  1  0.75000000  0.87756532  0.98564661  1
  As  As30  1  0.25000000  0.61360481  0.15283219  1
  As  As31  1  0.25000000  0.61493937  0.48672926  1
  As  As32  1  0.25000000  0.61430451  0.81970843  1
  As  As33  1  0.25000000  0.12095276  0.01423392  1
  As  As34  1  0.25000000  0.11432711  0.34690829  1
  As  As35  1  0.25000000  0.12102546  0.68090805  1
