# generated using pymatgen
data_YEr2Al9
_symmetry_space_group_name_H-M   'P 1'
_cell_length_a   6.10099080
_cell_length_b   6.10099080
_cell_length_c   28.68070105
_cell_angle_alpha   90.00000000
_cell_angle_beta   90.00000000
_cell_angle_gamma   119.99119850
_symmetry_Int_Tables_number   1
_chemical_formula_structural   YEr2Al9
_chemical_formula_sum   'Y4 Er8 Al36'
_cell_volume   924.61225319
_cell_formula_units_Z   4
loop_
 _symmetry_equiv_pos_site_id
 _symmetry_equiv_pos_as_xyz
  1  'x, y, z'
loop_
 _atom_site_type_symbol
 _atom_site_label
 _atom_site_symmetry_multiplicity
 _atom_site_fract_x
 _atom_site_fract_y
 _atom_site_fract_z
 _atom_site_occupancy
  Y  Y0  1  0.66670014  0.33329986  0.25018013  1
  Y  Y1  1  0.66669282  0.33330718  0.58333300  1
  Y  Y2  1  0.66670014  0.33329986  0.91648687  1
  Y  Y3  1  0.33330971  0.66669029  0.08333300  1
  Er  Er4  1  0.33334501  0.66665499  0.41664427  1
  Er  Er5  1  0.33334501  0.66665499  0.75002273  1
  Er  Er6  1  0.99998576  0.00001424  0.16642666  1
  Er  Er7  1  0.99996314  0.00003686  0.50006831  1
  Er  Er8  1  0.00000253  0.99999747  0.83351724  1
  Er  Er9  1  0.99998576  0.00001424  0.00024034  1
  Er  Er10  1  0.00000253  0.99999747  0.33314876  1
  Er  Er11  1  0.99996314  0.00003686  0.66659869  1
  Al  Al12  1  0.18304995  0.81695005  0.24996594  1
  Al  Al13  1  0.18313213  0.81686787  0.58333300  1
  Al  Al14  1  0.18304995  0.81695005  0.91670106  1
  Al  Al15  1  0.63394085  0.81694706  0.24996583  1
  Al  Al16  1  0.63375062  0.81686799  0.58333300  1
  Al  Al17  1  0.63394085  0.81694706  0.91670117  1
  Al  Al18  1  0.18305294  0.36605915  0.24996583  1
  Al  Al19  1  0.18313201  0.36624938  0.58333300  1
  Al  Al20  1  0.18305294  0.36605915  0.91670117  1
  Al  Al21  1  0.81680116  0.18319884  0.08333300  1
  Al  Al22  1  0.81706593  0.18293407  0.41666458  1
  Al  Al23  1  0.81706593  0.18293407  0.75000242  1
  Al  Al24  1  0.36633630  0.18319474  0.08333300  1
  Al  Al25  1  0.36582933  0.18290512  0.41666572  1
  Al  Al26  1  0.36582933  0.18290512  0.75000128  1
  Al  Al27  1  0.81680526  0.63366370  0.08333300  1
  Al  Al28  1  0.81709488  0.63417067  0.41666572  1
  Al  Al29  1  0.81709488  0.63417067  0.75000128  1
  Al  Al30  1  0.50004491  0.00010102  0.16667054  1
  Al  Al31  1  0.49947602  0.99899347  0.49971985  1
  Al  Al32  1  0.49942796  0.99883233  0.83301321  1
  Al  Al33  1  0.50004522  0.49995478  0.16667129  1
  Al  Al34  1  0.49950094  0.50049906  0.49972237  1
  Al  Al35  1  0.49942128  0.50057872  0.83301570  1
  Al  Al36  1  0.99989898  0.49995509  0.16667054  1
  Al  Al37  1  0.00100653  0.50052398  0.49971985  1
  Al  Al38  1  0.00116767  0.50057204  0.83301321  1
  Al  Al39  1  0.49942796  0.99883233  0.33365279  1
  Al  Al40  1  0.49947602  0.99899347  0.66694715  1
  Al  Al41  1  0.50004491  0.00010102  -0.00000354  1
  Al  Al42  1  0.50004522  0.49995478  -0.00000429  1
  Al  Al43  1  0.49942128  0.50057872  0.33365030  1
  Al  Al44  1  0.49950094  0.50049906  0.66694463  1
  Al  Al45  1  0.00116767  0.50057204  0.33365279  1
  Al  Al46  1  0.00100653  0.50052398  0.66694715  1
  Al  Al47  1  0.99989898  0.49995509  -0.00000354  1
