# generated using pymatgen
data_ZnCd4(GaS2)10
_symmetry_space_group_name_H-M   'P 1'
_cell_length_a   5.56034340
_cell_length_b   6.51977579
_cell_length_c   24.55360326
_cell_angle_alpha   92.76441904
_cell_angle_beta   89.99794491
_cell_angle_gamma   64.75913087
_symmetry_Int_Tables_number   1
_chemical_formula_structural   ZnCd4(GaS2)10
_chemical_formula_sum   'Zn1 Cd4 Ga10 S20'
_cell_volume   803.98980694
_cell_formula_units_Z   1
loop_
 _symmetry_equiv_pos_site_id
 _symmetry_equiv_pos_as_xyz
  1  'x, y, z'
loop_
 _atom_site_type_symbol
 _atom_site_label
 _atom_site_symmetry_multiplicity
 _atom_site_fract_x
 _atom_site_fract_y
 _atom_site_fract_z
 _atom_site_occupancy
  Zn  Zn0  1  0.80034949  0.39993558  0.80002409  1
  Cd  Cd1  1  0.99983511  0.00029446  0.99984474  1
  Cd  Cd2  1  0.20001214  0.59997522  0.19999951  1
  Cd  Cd3  1  0.39997307  0.20000961  0.40000069  1
  Cd  Cd4  1  0.59994918  0.79974800  0.60013564  1
  Ga  Ga5  1  0.39750341  0.20238818  0.89870283  1
  Ga  Ga6  1  0.79999001  0.40000969  0.30000015  1
  Ga  Ga7  1  0.60007648  0.79990276  0.09987674  1
  Ga  Ga8  1  0.20220828  0.59782144  0.70136915  1
  Ga  Ga9  1  0.00010974  0.99994969  0.50004727  1
  Ga  Ga10  1  0.70021923  0.59901062  0.94907478  1
  Ga  Ga11  1  0.89996111  0.19999513  0.14999502  1
  Ga  Ga12  1  0.09999436  0.80000725  0.35000506  1
  Ga  Ga13  1  0.30001965  0.40007350  0.55003612  1
  Ga  Ga14  1  0.49976523  0.00081738  0.75090965  1
  S  S15  1  0.98776388  0.48922557  0.11871097  1
  S  S16  1  0.38797451  0.68918361  0.51868593  1
  S  S17  1  0.18776946  0.08923319  0.31871725  1
  S  S18  1  0.78598217  0.89046819  0.91840059  1
  S  S19  1  0.59699682  0.29388432  0.72353188  1
  S  S20  1  0.43104481  0.67285389  0.02615239  1
  S  S21  1  0.83089199  0.87348499  0.42663249  1
  S  S22  1  0.63089952  0.27345855  0.22661950  1
  S  S23  1  0.20889454  0.09247889  0.82513384  1
  S  S24  1  0.03334382  0.47277848  0.62698968  1
  S  S25  1  0.49392383  0.50361543  0.87695566  1
  S  S26  1  0.87448683  0.71159808  0.28086075  1
  S  S27  1  0.67452612  0.11170037  0.08085986  1
  S  S28  1  0.27374358  0.91191276  0.68117715  1
  S  S29  1  0.07439518  0.31161997  0.48085995  1
  S  S30  1  0.10861421  0.32673204  0.97358778  1
  S  S31  1  0.50687602  0.52569278  0.37380906  1
  S  S32  1  0.30698450  0.92557607  0.17375290  1
  S  S33  1  0.89812317  0.70883541  0.77462786  1
  S  S34  1  0.70679854  0.12572888  0.57391309  1
