# generated using pymatgen
data_Yb4Ge3Au5
_symmetry_space_group_name_H-M   'P 1'
_cell_length_a   4.53755438
_cell_length_b   5.81275323
_cell_length_c   10.64944418
_cell_angle_alpha   84.57324724
_cell_angle_beta   90.00000000
_cell_angle_gamma   112.97380570
_symmetry_Int_Tables_number   1
_chemical_formula_structural   Yb4Ge3Au5
_chemical_formula_sum   'Yb4 Ge3 Au5'
_cell_volume   257.23944903
_cell_formula_units_Z   1
loop_
 _symmetry_equiv_pos_site_id
 _symmetry_equiv_pos_as_xyz
  1  'x, y, z'
loop_
 _atom_site_type_symbol
 _atom_site_label
 _atom_site_symmetry_multiplicity
 _atom_site_fract_x
 _atom_site_fract_y
 _atom_site_fract_z
 _atom_site_occupancy
  Yb  Yb0  1  0.31572406  0.63144812  0.31148111  1
  Yb  Yb1  1  0.81306797  0.62613595  0.81870281  1
  Yb  Yb2  1  0.60612509  0.21225018  0.09982388  1
  Yb  Yb3  1  0.10514871  0.21029742  0.60284231  1
  Ge  Ge4  1  0.82374490  0.64748979  0.51246358  1
  Ge  Ge5  1  0.01447768  0.02895537  0.33057645  1
  Ge  Ge6  1  0.51531404  0.03062807  0.81436269  1
  Au  Au7  1  0.31537277  0.63074554  0.01010068  1
  Au  Au8  1  0.61532166  0.23064333  0.39391565  1
  Au  Au9  1  0.09681674  0.19363348  0.88759478  1
  Au  Au10  1  0.90373696  0.80747391  0.12370992  1
  Au  Au11  1  0.39394943  0.78789885  0.61322614  1
