# generated using pymatgen
data_Zn35Cu17
_symmetry_space_group_name_H-M   'P 1'
_cell_length_a   7.68558247
_cell_length_b   7.68794532
_cell_length_c   12.62371392
_cell_angle_alpha   89.93724562
_cell_angle_beta   90.07418838
_cell_angle_gamma   109.31668248
_symmetry_Int_Tables_number   1
_chemical_formula_structural   Zn35Cu17
_chemical_formula_sum   'Zn35 Cu17'
_cell_volume   703.89819597
_cell_formula_units_Z   1
loop_
 _symmetry_equiv_pos_site_id
 _symmetry_equiv_pos_as_xyz
  1  'x, y, z'
loop_
 _atom_site_type_symbol
 _atom_site_label
 _atom_site_symmetry_multiplicity
 _atom_site_fract_x
 _atom_site_fract_y
 _atom_site_fract_z
 _atom_site_occupancy
  Zn  Zn0  1  0.21598674  0.99988133  0.00056637  1
  Zn  Zn1  1  0.71694659  0.50057259  0.49963653  1
  Zn  Zn2  1  0.49995727  0.71603364  0.49949681  1
  Zn  Zn3  1  0.00257809  0.21758448  0.00245976  1
  Zn  Zn4  1  0.89464408  0.89471551  0.11016147  1
  Zn  Zn5  1  0.39540758  0.39504722  0.60915694  1
  Zn  Zn6  1  0.39485485  0.39476025  0.39017209  1
  Zn  Zn7  1  0.89578438  0.89162244  0.89108603  1
  Zn  Zn8  1  0.34473355  0.72667113  0.00072654  1
  Zn  Zn9  1  0.84463406  0.22639692  0.49963725  1
  Zn  Zn10  1  0.48634051  0.13759358  0.13850060  1
  Zn  Zn11  1  0.98654393  0.63756673  0.63760944  1
  Zn  Zn12  1  0.98659184  0.63786063  0.36197388  1
  Zn  Zn13  1  0.48143629  0.13677888  0.86293920  1
  Zn  Zn14  1  0.22629620  0.84448662  0.49972288  1
  Zn  Zn15  1  0.72542574  0.34598136  0.00230469  1
  Zn  Zn16  1  0.63770808  0.98650713  0.36194171  1
  Zn  Zn17  1  0.14120251  0.48936529  0.86232368  1
  Zn  Zn18  1  0.13814943  0.48705468  0.13871283  1
  Zn  Zn19  1  0.63609103  0.98433141  0.63593294  1
  Zn  Zn20  1  0.96261538  0.96245220  0.31063407  1
  Zn  Zn21  1  0.46244868  0.46201606  0.81033296  1
  Zn  Zn22  1  0.82787250  0.54959181  0.17627735  1
  Zn  Zn23  1  0.32755684  0.04895013  0.67561320  1
  Zn  Zn24  1  0.54876263  0.82751387  0.17630712  1
  Zn  Zn25  1  0.05336408  0.32980773  0.67334406  1
  Zn  Zn26  1  0.46242100  0.46252808  0.18969609  1
  Zn  Zn27  1  0.96418396  0.96033680  0.68808177  1
  Zn  Zn28  1  0.04897868  0.32749317  0.32430248  1
  Zn  Zn29  1  0.54642393  0.82428032  0.82428148  1
  Zn  Zn30  1  0.32764819  0.04868921  0.32425439  1
  Zn  Zn31  1  0.82778208  0.55238856  0.82421488  1
  Zn  Zn32  1  0.82014231  0.18008553  0.82030402  1
  Zn  Zn33  1  0.64033581  0.64069216  0.00026879  1
  Zn  Zn34  1  0.14051909  0.14049758  0.49966458  1
  Cu  Cu35  1  0.67879403  0.32128714  0.32172038  1
  Cu  Cu36  1  0.17890408  0.82162894  0.82155990  1
  Cu  Cu37  1  0.17864625  0.82109968  0.17825419  1
  Cu  Cu38  1  0.67873626  0.32160305  0.67802734  1
  Cu  Cu39  1  0.35685167  0.35660631  0.99988756  1
  Cu  Cu40  1  0.85644501  0.85657269  0.49998061  1
  Cu  Cu41  1  0.82097685  0.17858696  0.17809989  1
  Cu  Cu42  1  0.32112886  0.67874366  0.67824929  1
  Cu  Cu43  1  0.32117853  0.67875699  0.32163570  1
  Cu  Cu44  1  0.65536820  0.99865767  0.99980858  1
  Cu  Cu45  1  0.15562069  0.49889396  0.49959862  1
  Cu  Cu46  1  0.99862871  0.65474054  0.00012731  1
  Cu  Cu47  1  0.49843567  0.15541507  0.50011133  1
  Cu  Cu48  1  0.67225563  0.67228547  0.32799043  1
  Cu  Cu49  1  0.17083004  0.17233020  0.82790147  1
  Cu  Cu50  1  0.17269551  0.17250027  0.17230763  1
  Cu  Cu51  1  0.67213613  0.67215639  0.67210090  1
