# generated using pymatgen
data_YSn2BiO7
_symmetry_space_group_name_H-M   'P 1'
_cell_length_a   7.51601518
_cell_length_b   7.48299476
_cell_length_c   7.53421440
_cell_angle_alpha   90.00000000
_cell_angle_beta   59.91986857
_cell_angle_gamma   119.85477555
_symmetry_Int_Tables_number   1
_chemical_formula_structural   YSn2BiO7
_chemical_formula_sum   'Y2 Sn4 Bi2 O14'
_cell_volume   299.92393192
_cell_formula_units_Z   2
loop_
 _symmetry_equiv_pos_site_id
 _symmetry_equiv_pos_as_xyz
  1  'x, y, z'
loop_
 _atom_site_type_symbol
 _atom_site_label
 _atom_site_symmetry_multiplicity
 _atom_site_fract_x
 _atom_site_fract_y
 _atom_site_fract_z
 _atom_site_occupancy
  Y  Y0  1  -0.00000000  0.50000000  0.00000000  1
  Y  Y1  1  -0.00000000  0.50000000  0.50000000  1
  Sn  Sn2  1  0.50000000  0.50000000  0.00000000  1
  Sn  Sn3  1  0.50000000  -0.00000000  0.00000000  1
  Sn  Sn4  1  -0.00000000  -0.00000000  0.50000000  1
  Sn  Sn5  1  -0.00000000  -0.00000000  0.00000000  1
  Bi  Bi6  1  0.50000000  -0.00000000  0.50000000  1
  Bi  Bi7  1  0.50000000  0.50000000  0.50000000  1
  O  O8  1  0.76766576  0.38383288  0.36616712  1
  O  O9  1  0.23233424  0.61616712  0.63383288  1
  O  O10  1  0.83226925  0.91613463  0.33386537  1
  O  O11  1  0.67339127  0.33669564  0.91330436  1
  O  O12  1  0.24550073  0.90940740  0.91885480  1
  O  O13  1  0.24550073  0.33609333  0.33564447  1
  O  O14  1  0.24550073  0.33609333  0.91885480  1
  O  O15  1  0.24550073  0.90940740  0.33564447  1
  O  O16  1  0.16773075  0.08386537  0.66613463  1
  O  O17  1  0.32660873  0.66330436  0.08669564  1
  O  O18  1  0.75449927  0.09059260  0.08114520  1
  O  O19  1  0.75449927  0.66390667  0.66435553  1
  O  O20  1  0.75449927  0.66390667  0.08114520  1
  O  O21  1  0.75449927  0.09059260  0.66435553  1
