# generated using pymatgen
data_Y2Mg
_symmetry_space_group_name_H-M   'P 1'
_cell_length_a   6.00154588
_cell_length_b   6.00154558
_cell_length_c   17.07193843
_cell_angle_alpha   90.00000000
_cell_angle_beta   90.00000000
_cell_angle_gamma   120.00000164
_symmetry_Int_Tables_number   1
_chemical_formula_structural   Y2Mg
_chemical_formula_sum   'Y12 Mg6'
_cell_volume   532.52463055
_cell_formula_units_Z   6
loop_
 _symmetry_equiv_pos_site_id
 _symmetry_equiv_pos_as_xyz
  1  'x, y, z'
loop_
 _atom_site_type_symbol
 _atom_site_label
 _atom_site_symmetry_multiplicity
 _atom_site_fract_x
 _atom_site_fract_y
 _atom_site_fract_z
 _atom_site_occupancy
  Y  Y0  1  0.33934718  0.00601458  0.33333345  1
  Y  Y1  1  0.66666740  0.66065282  0.33333345  1
  Y  Y2  1  0.00000000  -0.00000000  0.50000000  1
  Y  Y3  1  0.99398542  0.33333260  0.33333345  1
  Y  Y4  1  0.00601458  0.33934718  0.66666655  1
  Y  Y5  1  0.33333260  0.99398542  0.66666655  1
  Y  Y6  1  0.66666700  0.33333300  0.83333228  1
  Y  Y7  1  0.66065282  0.66666740  0.66666655  1
  Y  Y8  1  0.67268221  0.67268221  -0.00000000  1
  Y  Y9  1  0.00000000  0.32731779  -0.00000000  1
  Y  Y10  1  0.33333300  0.66666700  0.16666772  1
  Y  Y11  1  0.32731779  0.00000000  -0.00000000  1
  Mg  Mg12  1  0.66666700  0.33333300  0.50010335  1
  Mg  Mg13  1  0.33333300  0.66666700  0.49989665  1
  Mg  Mg14  1  0.33333300  0.66666700  0.83343623  1
  Mg  Mg15  1  0.00000000  0.00000000  0.83322898  1
  Mg  Mg16  1  0.00000000  -0.00000000  0.16677102  1
  Mg  Mg17  1  0.66666700  0.33333300  0.16656377  1
