# generated using pymatgen
data_Ti3(SeS2)2
_symmetry_space_group_name_H-M   'P 1'
_cell_length_a   3.46454354
_cell_length_b   3.46452209
_cell_length_c   18.48128663
_cell_angle_alpha   90.00000001
_cell_angle_beta   90.00367106
_cell_angle_gamma   119.99979897
_symmetry_Int_Tables_number   1
_chemical_formula_structural   Ti3(SeS2)2
_chemical_formula_sum   'Ti3 Se2 S4'
_cell_volume   192.11137094
_cell_formula_units_Z   1
loop_
 _symmetry_equiv_pos_site_id
 _symmetry_equiv_pos_as_xyz
  1  'x, y, z'
loop_
 _atom_site_type_symbol
 _atom_site_label
 _atom_site_symmetry_multiplicity
 _atom_site_fract_x
 _atom_site_fract_y
 _atom_site_fract_z
 _atom_site_occupancy
  Ti  Ti0  1  0.99981385  0.99990692  0.00587567  1
  Ti  Ti1  1  0.00002743  0.00001371  0.33282209  1
  Ti  Ti2  1  0.00005865  0.00002933  0.67159593  1
  Se  Se3  1  0.66663127  0.33331563  0.58312790  1
  Se  Se4  1  0.66677159  0.33338579  0.91722113  1
  S  S5  1  0.33339965  0.66669983  0.07890314  1
  S  S6  1  0.33333925  0.66666962  0.40881335  1
  S  S7  1  0.33332899  0.66666449  0.74490347  1
  S  S8  1  0.66662933  0.33331466  0.25673732  1
