# generated using pymatgen
data_Y5Sc5Si6
_symmetry_space_group_name_H-M   'P 1'
_cell_length_a   6.02633092
_cell_length_b   8.22888901
_cell_length_c   8.22888869
_cell_angle_alpha   60.34986044
_cell_angle_beta   89.99805761
_cell_angle_gamma   90.00194246
_symmetry_Int_Tables_number   1
_chemical_formula_structural   Y5Sc5Si6
_chemical_formula_sum   'Y5 Sc5 Si6'
_cell_volume   354.63884379
_cell_formula_units_Z   1
loop_
 _symmetry_equiv_pos_site_id
 _symmetry_equiv_pos_as_xyz
  1  'x, y, z'
loop_
 _atom_site_type_symbol
 _atom_site_label
 _atom_site_symmetry_multiplicity
 _atom_site_fract_x
 _atom_site_fract_y
 _atom_site_fract_z
 _atom_site_occupancy
  Y  Y0  1  0.74998645  0.75431607  0.99964083  1
  Y  Y1  1  0.74998645  0.00035917  0.24568393  1
  Y  Y2  1  0.25000968  0.75067317  0.24932683  1
  Y  Y3  1  0.25000433  0.24605789  0.99801444  1
  Y  Y4  1  0.25000433  0.00198556  0.75394211  1
  Sc  Sc5  1  0.50073174  0.33256670  0.33551891  1
  Sc  Sc6  1  0.50073174  0.66448109  0.66743330  1
  Sc  Sc7  1  0.99927452  0.66452847  0.66743104  1
  Sc  Sc8  1  0.99927452  0.33256896  0.33547153  1
  Sc  Sc9  1  0.74999936  0.25088148  0.74911852  1
  Si  Si10  1  0.74995633  0.59585681  0.40414319  1
  Si  Si11  1  0.74995271  0.39606003  0.99282397  1
  Si  Si12  1  0.74995271  0.00717603  0.60393997  1
  Si  Si13  1  0.25003145  0.39862243  0.60137757  1
  Si  Si14  1  0.25005183  0.60243495  0.99856882  1
  Si  Si15  1  0.25005183  0.00143118  0.39756505  1
