# generated using pymatgen
data_Y4C4I3Br
_symmetry_space_group_name_H-M   'P 1'
_cell_length_a   3.91340002
_cell_length_b   4.11983980
_cell_length_c   20.94590076
_cell_angle_alpha   93.54955400
_cell_angle_beta   90.00000000
_cell_angle_gamma   61.64418834
_symmetry_Int_Tables_number   1
_chemical_formula_structural   Y4C4I3Br
_chemical_formula_sum   'Y4 C4 I3 Br1'
_cell_volume   296.44648117
_cell_formula_units_Z   1
loop_
 _symmetry_equiv_pos_site_id
 _symmetry_equiv_pos_as_xyz
  1  'x, y, z'
loop_
 _atom_site_type_symbol
 _atom_site_label
 _atom_site_symmetry_multiplicity
 _atom_site_fract_x
 _atom_site_fract_y
 _atom_site_fract_z
 _atom_site_occupancy
  Y  Y0  1  0.85528073  0.28943854  0.06668578  1
  Y  Y1  1  0.85575029  0.28849943  0.56484226  1
  Y  Y2  1  0.14681818  0.70636364  0.43101944  1
  Y  Y3  1  0.14450869  0.71098262  0.93376009  1
  C  C4  1  0.57708640  0.84582720  0.01546426  1
  C  C5  1  0.57769233  0.84461535  0.51348503  1
  C  C6  1  0.42461642  0.15076716  0.48216203  1
  C  C7  1  0.42292046  0.15415908  0.98474839  1
  I  I8  1  0.82627272  0.34745457  0.83319695  1
  I  I9  1  0.17355143  0.65289715  0.16757936  1
  I  I10  1  0.17401962  0.65196077  0.66578257  1
  Br  Br11  1  0.82148275  0.35703450  0.34127384  1
