# generated using pymatgen
data_MgZn2
_symmetry_space_group_name_H-M   'P 1'
_cell_length_a   10.81559224
_cell_length_b   2.94425588
_cell_length_c   6.78507017
_cell_angle_alpha   90.00000000
_cell_angle_beta   107.51310626
_cell_angle_gamma   90.00000000
_symmetry_Int_Tables_number   1
_chemical_formula_structural   MgZn2
_chemical_formula_sum   'Mg4 Zn8'
_cell_volume   206.04798234
_cell_formula_units_Z   4
loop_
 _symmetry_equiv_pos_site_id
 _symmetry_equiv_pos_as_xyz
  1  'x, y, z'
loop_
 _atom_site_type_symbol
 _atom_site_label
 _atom_site_symmetry_multiplicity
 _atom_site_fract_x
 _atom_site_fract_y
 _atom_site_fract_z
 _atom_site_occupancy
  Mg  Mg0  1  0.18808851  -0.00000000  0.64546490  1
  Mg  Mg1  1  0.31191149  0.50000000  0.35453510  1
  Mg  Mg2  1  0.68808851  0.50000000  0.64546490  1
  Mg  Mg3  1  0.81191149  -0.00000000  0.35453510  1
  Zn  Zn4  1  0.36703826  0.50000000  0.97820327  1
  Zn  Zn5  1  0.46927060  -0.00000000  0.70453573  1
  Zn  Zn6  1  0.03072940  0.50000000  0.29546427  1
  Zn  Zn7  1  0.13296174  0.00000000  0.02179673  1
  Zn  Zn8  1  0.86703826  -0.00000000  0.97820327  1
  Zn  Zn9  1  0.96927060  0.50000000  0.70453573  1
  Zn  Zn10  1  0.53072940  -0.00000000  0.29546427  1
  Zn  Zn11  1  0.63296174  0.50000000  0.02179673  1
