# generated using pymatgen
data_U6Cu3Ni3Sb8
_symmetry_space_group_name_H-M   'P 1'
_cell_length_a   8.22700163
_cell_length_b   8.22700163
_cell_length_c   8.23314204
_cell_angle_alpha   70.39816912
_cell_angle_beta   70.71436062
_cell_angle_gamma   109.49615469
_symmetry_Int_Tables_number   1
_chemical_formula_structural   U6Cu3Ni3Sb8
_chemical_formula_sum   'U6 Cu3 Ni3 Sb8'
_cell_volume   429.12636840
_cell_formula_units_Z   1
loop_
 _symmetry_equiv_pos_site_id
 _symmetry_equiv_pos_as_xyz
  1  'x, y, z'
loop_
 _atom_site_type_symbol
 _atom_site_label
 _atom_site_symmetry_multiplicity
 _atom_site_fract_x
 _atom_site_fract_y
 _atom_site_fract_z
 _atom_site_occupancy
  U  U0  1  0.37322396  0.24559884  0.38403861  1
  U  U1  1  0.12963745  0.75726256  0.11596139  1
  U  U2  1  0.86898026  0.61898026  0.75000000  1
  U  U3  1  0.63033664  0.88033664  0.25000000  1
  U  U4  1  0.74547557  0.12301881  0.63193710  1
  U  U5  1  0.25495591  0.37741266  0.86806290  1
  Cu  Cu6  1  0.12449188  0.37449188  0.25000000  1
  Cu  Cu7  1  0.74960904  0.62468055  0.12529784  1
  Cu  Cu8  1  0.24997839  0.87490688  0.37470216  1
  Ni  Ni9  1  0.87434425  0.24917333  0.87530947  1
  Ni  Ni10  1  0.62448280  0.74965372  0.62469053  1
  Ni  Ni11  1  0.37489207  0.12489207  0.75000000  1
  Sb  Sb12  1  0.83330923  0.33216948  0.16473827  1
  Sb  Sb13  1  0.50250823  0.16900086  0.99798013  1
  Sb  Sb14  1  0.66698098  0.50048835  0.50201987  1
  Sb  Sb15  1  0.99690774  0.99804750  0.33526173  1
  Sb  Sb16  1  0.49949189  0.66724220  0.99796571  1
  Sb  Sb17  1  0.33391010  0.83306033  0.66821536  1
  Sb  Sb18  1  0.16520792  0.49745760  0.50203429  1
  Sb  Sb19  1  0.00127569  0.00212545  0.83178464  1
