# generated using pymatgen
data_Y(InCu)6
_symmetry_space_group_name_H-M   'P 1'
_cell_length_a   5.56046804
_cell_length_b   7.04040851
_cell_length_c   7.04040851
_cell_angle_alpha   98.62054012
_cell_angle_beta   113.25952702
_cell_angle_gamma   66.74047298
_symmetry_Int_Tables_number   1
_chemical_formula_structural   Y(InCu)6
_chemical_formula_sum   'Y1 In6 Cu6'
_cell_volume   232.63095130
_cell_formula_units_Z   1
loop_
 _symmetry_equiv_pos_site_id
 _symmetry_equiv_pos_as_xyz
  1  'x, y, z'
loop_
 _atom_site_type_symbol
 _atom_site_label
 _atom_site_symmetry_multiplicity
 _atom_site_fract_x
 _atom_site_fract_y
 _atom_site_fract_z
 _atom_site_occupancy
  Y  Y0  1  0.00000000  -0.00000000  0.00000000  1
  In  In1  1  0.66227024  0.33772976  0.66227024  1
  In  In2  1  0.33772976  0.66227024  0.33772976  1
  In  In3  1  -0.00000000  0.34144877  0.34144877  1
  In  In4  1  0.00000000  0.65855123  0.65855123  1
  In  In5  1  0.50000000  0.81833110  0.81833110  1
  In  In6  1  0.50000000  0.18166890  0.18166890  1
  Cu  Cu7  1  0.50000000  -0.00000000  0.50000000  1
  Cu  Cu8  1  0.00000000  -0.00000000  0.50000000  1
  Cu  Cu9  1  0.50000000  0.50000000  0.00000000  1
  Cu  Cu10  1  0.00000000  0.50000000  0.00000000  1
  Cu  Cu11  1  0.73809459  0.76190541  0.23809459  1
  Cu  Cu12  1  0.26190541  0.23809459  0.76190541  1
