# generated using pymatgen
data_VCrP2
_symmetry_space_group_name_H-M   'P 1'
_cell_length_a   3.11539860
_cell_length_b   5.40467841
_cell_length_c   6.06561489
_cell_angle_alpha   90.00000000
_cell_angle_beta   90.00000000
_cell_angle_gamma   90.00000000
_symmetry_Int_Tables_number   1
_chemical_formula_structural   VCrP2
_chemical_formula_sum   'V2 Cr2 P4'
_cell_volume   102.13117095
_cell_formula_units_Z   2
loop_
 _symmetry_equiv_pos_site_id
 _symmetry_equiv_pos_as_xyz
  1  'x, y, z'
loop_
 _atom_site_type_symbol
 _atom_site_label
 _atom_site_symmetry_multiplicity
 _atom_site_fract_x
 _atom_site_fract_y
 _atom_site_fract_z
 _atom_site_occupancy
  V  V0  1  0.25000000  0.50532425  0.30828636  1
  V  V1  1  0.25000000  0.00532425  0.19171364  1
  Cr  Cr2  1  0.75000000  0.49125983  0.68927929  1
  Cr  Cr3  1  0.75000000  0.99125983  0.81072071  1
  P  P4  1  0.75000000  0.31437975  0.05702416  1
  P  P5  1  0.75000000  0.81437975  0.44297584  1
  P  P6  1  0.25000000  0.68903618  0.92664824  1
  P  P7  1  0.25000000  0.18903618  0.57335176  1
