# generated using pymatgen
data_Ti8Al4CN3
_symmetry_space_group_name_H-M   'P 1'
_cell_length_a   3.01703763
_cell_length_b   3.01705282
_cell_length_c   27.31173152
_cell_angle_alpha   90.00083748
_cell_angle_beta   90.00022401
_cell_angle_gamma   59.99956460
_symmetry_Int_Tables_number   1
_chemical_formula_structural   Ti8Al4CN3
_chemical_formula_sum   'Ti8 Al4 C1 N3'
_cell_volume   215.29879621
_cell_formula_units_Z   1
loop_
 _symmetry_equiv_pos_site_id
 _symmetry_equiv_pos_as_xyz
  1  'x, y, z'
loop_
 _atom_site_type_symbol
 _atom_site_label
 _atom_site_symmetry_multiplicity
 _atom_site_fract_x
 _atom_site_fract_y
 _atom_site_fract_z
 _atom_site_occupancy
  Ti  Ti0  1  0.33333366  0.33333273  0.29258855  1
  Ti  Ti1  1  0.33332864  0.33333086  0.79247610  1
  Ti  Ti2  1  0.66666634  0.66666727  0.20741145  1
  Ti  Ti3  1  0.66667136  0.66666914  0.70752390  1
  Ti  Ti4  1  0.66665355  0.66666877  0.04197684  1
  Ti  Ti5  1  0.66665301  0.66666925  0.54257012  1
  Ti  Ti6  1  0.33334645  0.33333123  0.45802316  1
  Ti  Ti7  1  0.33334699  0.33333075  0.95742988  1
  Al  Al8  1  0.33335462  0.33332257  0.12429861  1
  Al  Al9  1  0.33335281  0.33332338  0.62503267  1
  Al  Al10  1  0.66664538  0.66667743  0.37570139  1
  Al  Al11  1  0.66664719  0.66667662  0.87496733  1
  C  C12  1  -0.00000000  0.00000000  0.25000000  1
  N  N13  1  -0.00000000  0.00000000  0.75000000  1
  N  N14  1  0.99999964  0.00000043  0.00002382  1
  N  N15  1  0.00000036  0.99999957  0.49997618  1
