# generated using pymatgen
data_Ti3AgS6
_symmetry_space_group_name_H-M   'P 1'
_cell_length_a   5.94336477
_cell_length_b   7.31289604
_cell_length_c   5.94367564
_cell_angle_alpha   66.04655100
_cell_angle_beta   59.97523215
_cell_angle_gamma   89.99159524
_symmetry_Int_Tables_number   1
_chemical_formula_structural   Ti3AgS6
_chemical_formula_sum   'Ti3 Ag1 S6'
_cell_volume   197.56068811
_cell_formula_units_Z   1
loop_
 _symmetry_equiv_pos_site_id
 _symmetry_equiv_pos_as_xyz
  1  'x, y, z'
loop_
 _atom_site_type_symbol
 _atom_site_label
 _atom_site_symmetry_multiplicity
 _atom_site_fract_x
 _atom_site_fract_y
 _atom_site_fract_z
 _atom_site_occupancy
  Ti  Ti0  1  0.66666700  0.00000000  0.66666700  1
  Ti  Ti1  1  0.33398697  0.00179162  0.33195840  1
  Ti  Ti2  1  0.99934603  0.99820838  0.00137460  1
  Ag  Ag3  1  0.16666700  0.50000000  0.66666700  1
  S  S4  1  0.73672447  0.22294151  0.18908918  1
  S  S5  1  0.07429298  0.22297197  0.51385319  1
  S  S6  1  0.41185200  0.22309920  0.85125998  1
  S  S7  1  0.92148200  0.77690080  0.48207402  1
  S  S8  1  0.25904002  0.77702803  0.81947981  1
  S  S9  1  0.59660853  0.77705849  0.14424382  1
