# generated using pymatgen
data_SrGe12Pb2O27
_symmetry_space_group_name_H-M   'P 1'
_cell_length_a   4.82519204
_cell_length_b   11.54844785
_cell_length_c   11.55197304
_cell_angle_alpha   120.01009511
_cell_angle_beta   89.99999995
_cell_angle_gamma   89.93932088
_symmetry_Int_Tables_number   1
_chemical_formula_structural   SrGe12Pb2O27
_chemical_formula_sum   'Sr1 Ge12 Pb2 O27'
_cell_volume   557.41738040
_cell_formula_units_Z   1
loop_
 _symmetry_equiv_pos_site_id
 _symmetry_equiv_pos_as_xyz
  1  'x, y, z'
loop_
 _atom_site_type_symbol
 _atom_site_label
 _atom_site_symmetry_multiplicity
 _atom_site_fract_x
 _atom_site_fract_y
 _atom_site_fract_z
 _atom_site_occupancy
  Sr  Sr0  1  1.00000000  0.00000000  0.67271054  1
  Ge  Ge1  1  0.49990114  0.81993090  0.81982445  1
  Ge  Ge2  1  0.50009886  0.18006910  0.99989355  1
  Ge  Ge3  1  0.50000000  1.00000000  0.18016411  1
  Ge  Ge4  1  1.00000000  0.00000000  0.99935643  1
  Ge  Ge5  1  0.40056652  0.34057275  0.85065237  1
  Ge  Ge6  1  0.39952760  0.14963314  0.49039110  1
  Ge  Ge7  1  0.40006365  0.50977425  0.65927472  1
  Ge  Ge8  1  0.59943348  0.65942725  0.51007962  1
  Ge  Ge9  1  0.59993635  0.49022575  0.14950047  1
  Ge  Ge10  1  0.60047240  0.85036686  0.34075795  1
  Ge  Ge11  1  0.89225070  0.33301068  0.66653979  1
  Ge  Ge12  1  0.10774930  0.66698932  0.33352911  1
  Pb  Pb13  1  0.99991344  0.32606966  0.32607339  1
  Pb  Pb14  1  0.00008656  0.67393034  0.00000373  1
  O  O15  1  0.29395597  0.21407422  0.88938287  1
  O  O16  1  0.29351601  0.10950681  0.32484046  1
  O  O17  1  0.29376132  0.67544512  0.78488068  1
  O  O18  1  0.70604403  0.78592578  0.67530865  1
  O  O19  1  0.70623868  0.32455488  0.10943556  1
  O  O20  1  0.70648399  0.89049319  0.21533366  1
  O  O21  1  0.67197549  0.24930787  0.73943435  1
  O  O22  1  0.67098433  0.26043251  0.51058283  1
  O  O23  1  0.67119767  0.48928396  0.75003930  1
  O  O24  1  0.32802451  0.75069213  0.49012648  1
  O  O25  1  0.32880233  0.51071604  0.26075534  1
  O  O26  1  0.32901567  0.73956749  0.25015033  1
  O  O27  1  0.76302511  0.06104909  0.90606588  1
  O  O28  1  0.76294652  0.09345498  0.15444910  1
  O  O29  1  0.76294221  0.84561743  0.93904822  1
  O  O30  1  0.23697489  0.93895091  0.84501679  1
  O  O31  1  0.23705779  0.15438257  0.09343079  1
  O  O32  1  0.23705348  0.90654502  0.06099412  1
  O  O33  1  0.49999797  0.51267962  0.51267738  1
  O  O34  1  0.50000203  0.48732038  -0.00000224  1
  O  O35  1  0.50000000  1.00000000  0.48815981  1
  O  O36  1  0.12128950  0.42101258  0.82034404  1
  O  O37  1  0.12075869  0.17879013  0.60089951  1
  O  O38  1  0.12119548  0.39918246  0.57881820  1
  O  O39  1  0.87871050  0.57898742  0.39933146  1
  O  O40  1  0.87880452  0.60081754  0.17963575  1
  O  O41  1  0.87924131  0.82120987  0.42210938  1
