# generated using pymatgen
data_TbGa3Ni
_symmetry_space_group_name_H-M   'P 1'
_cell_length_a   4.17628880
_cell_length_b   4.17628880
_cell_length_c   5.87887688
_cell_angle_alpha   69.19463817
_cell_angle_beta   69.19463817
_cell_angle_gamma   90.00000000
_symmetry_Int_Tables_number   1
_chemical_formula_structural   TbGa3Ni
_chemical_formula_sum   'Tb1 Ga3 Ni1'
_cell_volume   88.66076971
_cell_formula_units_Z   1
loop_
 _symmetry_equiv_pos_site_id
 _symmetry_equiv_pos_as_xyz
  1  'x, y, z'
loop_
 _atom_site_type_symbol
 _atom_site_label
 _atom_site_symmetry_multiplicity
 _atom_site_fract_x
 _atom_site_fract_y
 _atom_site_fract_z
 _atom_site_occupancy
  Tb  Tb0  1  0.99025427  0.99025427  0.01949146  1
  Ga  Ga1  1  0.73848379  0.23848379  0.52303242  1
  Ga  Ga2  1  0.23848379  0.73848379  0.52303242  1
  Ga  Ga3  1  0.40376470  0.40376470  0.19247060  1
  Ni  Ni4  1  0.62901345  0.62901345  0.74197309  1
