# generated using pymatgen
data_Tb2CuGe4
_symmetry_space_group_name_H-M   'P 1'
_cell_length_a   4.05683449
_cell_length_b   4.08102544
_cell_length_c   8.69375458
_cell_angle_alpha   76.42546038
_cell_angle_beta   90.00000000
_cell_angle_gamma   90.00000000
_symmetry_Int_Tables_number   1
_chemical_formula_structural   Tb2CuGe4
_chemical_formula_sum   'Tb2 Cu1 Ge4'
_cell_volume   139.91344505
_cell_formula_units_Z   1
loop_
 _symmetry_equiv_pos_site_id
 _symmetry_equiv_pos_as_xyz
  1  'x, y, z'
loop_
 _atom_site_type_symbol
 _atom_site_label
 _atom_site_symmetry_multiplicity
 _atom_site_fract_x
 _atom_site_fract_y
 _atom_site_fract_z
 _atom_site_occupancy
  Tb  Tb0  1  0.25000000  0.89357764  0.21284473  1
  Tb  Tb1  1  0.75000000  0.10457616  0.79084769  1
  Cu  Cu2  1  0.25000000  0.67767946  0.64464107  1
  Ge  Ge3  1  0.25000000  0.53892769  0.92214462  1
  Ge  Ge4  1  0.75000000  0.44939066  0.10121868  1
  Ge  Ge5  1  0.25000000  0.25964042  0.48071916  1
  Ge  Ge6  1  0.75000000  0.75820797  0.48358405  1
