# generated using pymatgen
data_TaS2
_symmetry_space_group_name_H-M   'P 1'
_cell_length_a   3.34394506
_cell_length_b   3.34309147
_cell_length_c   23.61404997
_cell_angle_alpha   90.00000000
_cell_angle_beta   90.00000000
_cell_angle_gamma   59.99156388
_symmetry_Int_Tables_number   1
_chemical_formula_structural   TaS2
_chemical_formula_sum   'Ta2 S4'
_cell_volume   228.59755341
_cell_formula_units_Z   2
loop_
 _symmetry_equiv_pos_site_id
 _symmetry_equiv_pos_as_xyz
  1  'x, y, z'
loop_
 _atom_site_type_symbol
 _atom_site_label
 _atom_site_symmetry_multiplicity
 _atom_site_fract_x
 _atom_site_fract_y
 _atom_site_fract_z
 _atom_site_occupancy
  Ta  Ta0  1  0.17208032  0.65583936  0.00000000  1
  Ta  Ta1  1  0.00774883  0.98450234  0.50000000  1
  S  S2  1  0.34111698  0.31776605  0.56614568  1
  S  S3  1  0.34111698  0.31776605  0.43385432  1
  S  S4  1  0.83871845  0.32256310  0.93390013  1
  S  S5  1  0.83871845  0.32256310  0.06609987  1
