# generated using pymatgen
data_TaNbTe4
_symmetry_space_group_name_H-M   'P 1'
_cell_length_a   7.35455241
_cell_length_b   9.91943364
_cell_length_c   7.79135811
_cell_angle_alpha   69.65767973
_cell_angle_beta   76.52001504
_cell_angle_gamma   100.70486287
_symmetry_Int_Tables_number   1
_chemical_formula_structural   TaNbTe4
_chemical_formula_sum   'Ta3 Nb3 Te12'
_cell_volume   495.59031322
_cell_formula_units_Z   3
loop_
 _symmetry_equiv_pos_site_id
 _symmetry_equiv_pos_as_xyz
  1  'x, y, z'
loop_
 _atom_site_type_symbol
 _atom_site_label
 _atom_site_symmetry_multiplicity
 _atom_site_fract_x
 _atom_site_fract_y
 _atom_site_fract_z
 _atom_site_occupancy
  Ta  Ta0  1  0.32614573  0.28876844  0.98611103  1
  Ta  Ta1  1  0.99963098  0.99948289  0.00014978  1
  Ta  Ta2  1  0.50000375  0.99967591  0.00012665  1
  Nb  Nb3  1  0.17403822  0.71208568  0.01365497  1
  Nb  Nb4  1  0.67417083  0.71201215  0.01363962  1
  Nb  Nb5  1  0.82575445  0.28741183  0.98632931  1
  Te  Te6  1  0.81603761  0.98811824  0.72105837  1
  Te  Te7  1  0.31603944  0.98766236  0.72096009  1
  Te  Te8  1  0.18439958  0.01367172  0.27881002  1
  Te  Te9  1  0.68391899  0.01160490  0.27932780  1
  Te  Te10  1  0.64853207  0.30683425  0.70526854  1
  Te  Te11  1  0.15009527  0.30657640  0.70535076  1
  Te  Te12  1  0.35057212  0.69391374  0.29506436  1
  Te  Te13  1  0.85088355  0.69377984  0.29524923  1
  Te  Te14  1  0.45525546  0.61672249  0.79542542  1
  Te  Te15  1  0.95525342  0.61685566  0.79592460  1
  Te  Te16  1  0.54429008  0.38237997  0.20391654  1
  Te  Te17  1  0.04497845  0.38244354  0.20363291  1
