# generated using pymatgen
data_TaB4W3
_symmetry_space_group_name_H-M   'P 1'
_cell_length_a   3.11392372
_cell_length_b   3.21142722
_cell_length_c   8.59910202
_cell_angle_alpha   90.00000000
_cell_angle_beta   90.00000000
_cell_angle_gamma   90.00000000
_symmetry_Int_Tables_number   1
_chemical_formula_structural   TaB4W3
_chemical_formula_sum   'Ta1 B4 W3'
_cell_volume   85.99221888
_cell_formula_units_Z   1
loop_
 _symmetry_equiv_pos_site_id
 _symmetry_equiv_pos_as_xyz
  1  'x, y, z'
loop_
 _atom_site_type_symbol
 _atom_site_label
 _atom_site_symmetry_multiplicity
 _atom_site_fract_x
 _atom_site_fract_y
 _atom_site_fract_z
 _atom_site_occupancy
  Ta  Ta0  1  0.25000000  0.00000000  0.14561269  1
  B  B1  1  0.25000000  -0.00000000  0.44040673  1
  B  B2  1  0.25000000  0.50000000  0.93893406  1
  B  B3  1  0.75000000  0.50000000  0.05667856  1
  B  B4  1  0.75000000  0.00000000  0.56206981  1
  W  W5  1  0.25000000  0.50000000  0.64466167  1
  W  W6  1  0.75000000  0.50000000  0.35890363  1
  W  W7  1  0.75000000  0.00000000  0.85273285  1
