# generated using pymatgen
data_Th2Si3Ru
_symmetry_space_group_name_H-M   'P 1'
_cell_length_a   4.07407293
_cell_length_b   4.20123421
_cell_length_c   7.79372190
_cell_angle_alpha   74.36388794
_cell_angle_beta   74.84869705
_cell_angle_gamma   90.00000000
_symmetry_Int_Tables_number   1
_chemical_formula_structural   Th2Si3Ru
_chemical_formula_sum   'Th2 Si3 Ru1'
_cell_volume   123.63962904
_cell_formula_units_Z   1
loop_
 _symmetry_equiv_pos_site_id
 _symmetry_equiv_pos_as_xyz
  1  'x, y, z'
loop_
 _atom_site_type_symbol
 _atom_site_label
 _atom_site_symmetry_multiplicity
 _atom_site_fract_x
 _atom_site_fract_y
 _atom_site_fract_z
 _atom_site_occupancy
  Th  Th0  1  0.75252122  0.25252122  0.49495755  1
  Th  Th1  1  0.99833891  0.99833891  0.00332218  1
  Si  Si2  1  0.41711715  0.41711715  0.16576570  1
  Si  Si3  1  0.16833888  0.66833888  0.66332224  1
  Si  Si4  1  0.58134517  0.58134517  0.83730965  1
  Ru  Ru5  1  0.33233866  0.83233866  0.33532268  1
