# generated using pymatgen
data_Ti(CrS2)2
_symmetry_space_group_name_H-M   'P 1'
_cell_length_a   3.40337341
_cell_length_b   5.96538478
_cell_length_c   6.52278786
_cell_angle_alpha   115.52313636
_cell_angle_beta   74.87751226
_cell_angle_gamma   90.00000000
_symmetry_Int_Tables_number   1
_chemical_formula_structural   Ti(CrS2)2
_chemical_formula_sum   'Ti1 Cr2 S4'
_cell_volume   114.40210058
_cell_formula_units_Z   1
loop_
 _symmetry_equiv_pos_site_id
 _symmetry_equiv_pos_as_xyz
  1  'x, y, z'
loop_
 _atom_site_type_symbol
 _atom_site_label
 _atom_site_symmetry_multiplicity
 _atom_site_fract_x
 _atom_site_fract_y
 _atom_site_fract_z
 _atom_site_occupancy
  Ti  Ti0  1  0.24335922  0.79110509  0.51328156  1
  Cr  Cr1  1  0.76003448  0.20841619  0.47993104  1
  Cr  Cr2  1  0.49540538  0.50142862  0.00918923  1
  S  S3  1  0.86689604  0.46888305  0.26620792  1
  S  S4  1  0.13246182  0.51940237  0.73507635  1
  S  S5  1  0.38574238  0.95270054  0.22851523  1
  S  S6  1  0.61610067  0.05806414  0.76779866  1
