# generated using pymatgen
data_SrCa(Ni2Sn)4
_symmetry_space_group_name_H-M   'P 1'
_cell_length_a   6.76515788
_cell_length_b   6.76515788
_cell_length_c   6.76515788
_cell_angle_alpha   70.41234103
_cell_angle_beta   70.41234103
_cell_angle_gamma   109.23859411
_symmetry_Int_Tables_number   1
_chemical_formula_structural   SrCa(Ni2Sn)4
_chemical_formula_sum   'Sr1 Ca1 Ni8 Sn4'
_cell_volume   238.34527780
_cell_formula_units_Z   1
loop_
 _symmetry_equiv_pos_site_id
 _symmetry_equiv_pos_as_xyz
  1  'x, y, z'
loop_
 _atom_site_type_symbol
 _atom_site_label
 _atom_site_symmetry_multiplicity
 _atom_site_fract_x
 _atom_site_fract_y
 _atom_site_fract_z
 _atom_site_occupancy
  Sr  Sr0  1  0.25000000  0.25000000  -0.00000000  1
  Ca  Ca1  1  0.75000000  0.75000000  -0.00000000  1
  Ni  Ni2  1  0.02431111  0.79931241  0.50310775  1
  Ni  Ni3  1  0.30242016  0.52741886  0.49689225  1
  Ni  Ni4  1  0.52741886  0.02431111  0.77500130  1
  Ni  Ni5  1  0.79931241  0.30242016  0.22499870  1
  Ni  Ni6  1  0.97258114  0.19757984  0.50310775  1
  Ni  Ni7  1  0.70068759  0.47568889  0.49689225  1
  Ni  Ni8  1  0.47568889  0.97258114  0.22499870  1
  Ni  Ni9  1  0.19757984  0.70068759  0.77500130  1
  Sn  Sn10  1  0.34066256  0.15933744  0.50000000  1
  Sn  Sn11  1  0.65933744  0.84066256  0.50000000  1
  Sn  Sn12  1  0.84066256  0.34066256  0.81867488  1
  Sn  Sn13  1  0.15933744  0.65933744  0.18132512  1
