# generated using pymatgen
data_Sr10Fe5Mo4WO30
_symmetry_space_group_name_H-M   'P 1'
_cell_length_a   5.66418035
_cell_length_b   14.93506549
_cell_length_c   8.05299482
_cell_angle_alpha   105.64930634
_cell_angle_beta   89.96763243
_cell_angle_gamma   99.69070169
_symmetry_Int_Tables_number   1
_chemical_formula_structural   Sr10Fe5Mo4WO30
_chemical_formula_sum   'Sr10 Fe5 Mo4 W1 O30'
_cell_volume   645.90679041
_cell_formula_units_Z   1
loop_
 _symmetry_equiv_pos_site_id
 _symmetry_equiv_pos_as_xyz
  1  'x, y, z'
loop_
 _atom_site_type_symbol
 _atom_site_label
 _atom_site_symmetry_multiplicity
 _atom_site_fract_x
 _atom_site_fract_y
 _atom_site_fract_z
 _atom_site_occupancy
  Sr  Sr0  1  0.09813440  0.20304434  0.85626434  1
  Sr  Sr1  1  0.69765931  0.39951878  0.44923921  1
  Sr  Sr2  1  0.29818605  0.59934523  0.04902746  1
  Sr  Sr3  1  0.89855193  0.79609583  0.65204082  1
  Sr  Sr4  1  0.49911512  -0.00035079  0.24251066  1
  Sr  Sr5  1  0.50088488  0.00035079  0.75748934  1
  Sr  Sr6  1  0.10144807  0.20390417  0.34795918  1
  Sr  Sr7  1  0.70181395  0.40065477  0.95097254  1
  Sr  Sr8  1  0.30234069  0.60048122  0.55076079  1
  Sr  Sr9  1  0.90186560  0.79695566  0.14373566  1
  Fe  Fe10  1  0.00000000  0.00000000  -0.00000000  1
  Fe  Fe11  1  0.60369496  0.20099854  0.60054069  1
  Fe  Fe12  1  0.19998894  0.40041557  0.20023937  1
  Fe  Fe13  1  0.80001106  0.59958443  0.79976063  1
  Fe  Fe14  1  0.39630504  0.79900146  0.39945931  1
  Mo  Mo15  1  0.59813570  0.20005750  0.10057353  1
  Mo  Mo16  1  0.20122462  0.39996840  0.70012122  1
  Mo  Mo17  1  0.79877538  0.60003160  0.29987878  1
  Mo  Mo18  1  0.40186430  0.79994250  0.89942647  1
  W  W19  1  0.00000000  0.00000000  0.50000000  1
  O  O20  1  0.30165273  0.10163197  0.05071330  1
  O  O21  1  0.89797141  0.29988955  0.65032753  1
  O  O22  1  0.49817166  0.50098561  0.25050853  1
  O  O23  1  0.09797791  0.69790286  0.84886569  1
  O  O24  1  0.71021984  0.90255131  0.45136163  1
  O  O25  1  0.28978016  0.09744869  0.54863837  1
  O  O26  1  0.90202209  0.30209714  0.15113431  1
  O  O27  1  0.50182834  0.49901439  0.74949147  1
  O  O28  1  0.10202859  0.70011045  0.34967247  1
  O  O29  1  0.69834727  0.89836803  0.94928670  1
  O  O30  1  0.57073614  0.21170075  0.35856667  1
  O  O31  1  0.17862262  0.41088880  0.95602610  1
  O  O32  1  0.77736531  0.61046509  0.55544253  1
  O  O33  1  0.38354542  0.81128106  0.15773477  1
  O  O34  1  0.97666923  0.01200359  0.74340515  1
  O  O35  1  0.61645458  0.18871894  0.84226523  1
  O  O36  1  0.22263469  0.38953491  0.44455747  1
  O  O37  1  0.82137738  0.58911120  0.04397390  1
  O  O38  1  0.42926386  0.78829925  0.64143333  1
  O  O39  1  0.02333077  0.98799641  0.25659485  1
  O  O40  1  0.19957417  0.90270939  0.48128362  1
  O  O41  1  0.79179568  0.10650945  0.08024240  1
  O  O42  1  0.39195951  0.30187510  0.67888550  1
  O  O43  1  -0.00369919  0.50399794  0.27882376  1
  O  O44  1  0.59389379  0.70029737  0.87567648  1
  O  O45  1  0.40610621  0.29970263  0.12432352  1
  O  O46  1  0.00369919  0.49600206  0.72117624  1
  O  O47  1  0.60804049  0.69812490  0.32111450  1
  O  O48  1  0.20820432  0.89349055  0.91975760  1
  O  O49  1  0.80042583  0.09729061  0.51871638  1
