# generated using pymatgen
data_Sr3La2Fe4CoO15
_symmetry_space_group_name_H-M   'P 1'
_cell_length_a   5.52249330
_cell_length_b   5.52249330
_cell_length_c   11.69844216
_cell_angle_alpha   90.00000000
_cell_angle_beta   103.65266478
_cell_angle_gamma   120.00000000
_symmetry_Int_Tables_number   1
_chemical_formula_structural   Sr3La2Fe4CoO15
_chemical_formula_sum   'Sr3 La2 Fe4 Co1 O15'
_cell_volume   297.28160192
_cell_formula_units_Z   1
loop_
 _symmetry_equiv_pos_site_id
 _symmetry_equiv_pos_as_xyz
  1  'x, y, z'
loop_
 _atom_site_type_symbol
 _atom_site_label
 _atom_site_symmetry_multiplicity
 _atom_site_fract_x
 _atom_site_fract_y
 _atom_site_fract_z
 _atom_site_occupancy
  Sr  Sr0  1  0.60197532  0.30098766  0.90296298  1
  Sr  Sr1  1  0.39802468  0.69901234  0.09703702  1
  Sr  Sr2  1  -0.00000000  0.50000000  0.50000000  1
  La  La3  1  0.19577618  0.09788809  0.29366426  1
  La  La4  1  0.80422382  0.90211191  0.70633574  1
  Fe  Fe5  1  0.79712621  0.39856311  0.19568932  1
  Fe  Fe6  1  0.59983464  0.79991732  0.39975196  1
  Fe  Fe7  1  0.40016536  0.20008268  0.60024804  1
  Fe  Fe8  1  0.20287379  0.60143689  0.80431068  1
  Co  Co9  1  -0.00000000  -0.00000000  0.00000000  1
  O  O10  1  0.61116003  0.80558001  0.89760632  1
  O  O11  1  0.80007750  0.40003875  0.69977116  1
  O  O12  1  -0.00000000  -0.00000000  0.50000000  1
  O  O13  1  0.38883997  0.19441999  0.10239368  1
  O  O14  1  0.19992250  0.59996125  0.30022884  1
  O  O15  1  0.29973241  0.89969367  0.69977116  1
  O  O16  1  0.50000000  0.50000000  0.50000000  1
  O  O17  1  0.70026759  0.10030633  0.30022884  1
  O  O18  1  0.09202630  0.28644629  0.89760632  1
  O  O19  1  0.90797370  0.71355371  0.10239368  1
  O  O20  1  0.29973241  0.40003875  0.69977116  1
  O  O21  1  0.50000000  -0.00000000  0.50000000  1
  O  O22  1  0.70026759  0.59996125  0.30022884  1
  O  O23  1  0.09202630  0.80558001  0.89760632  1
  O  O24  1  0.90797370  0.19441999  0.10239368  1
