# generated using pymatgen
data_Sr10Fe3Co2(MoO6)5
_symmetry_space_group_name_H-M   'P 1'
_cell_length_a   8.03330684
_cell_length_b   9.75591907
_cell_length_c   9.87996661
_cell_angle_alpha   100.56578777
_cell_angle_beta   66.03311682
_cell_angle_gamma   114.31014990
_symmetry_Int_Tables_number   1
_chemical_formula_structural   Sr10Fe3Co2(MoO6)5
_chemical_formula_sum   'Sr10 Fe3 Co2 Mo5 O30'
_cell_volume   644.69474914
_cell_formula_units_Z   1
loop_
 _symmetry_equiv_pos_site_id
 _symmetry_equiv_pos_as_xyz
  1  'x, y, z'
loop_
 _atom_site_type_symbol
 _atom_site_label
 _atom_site_symmetry_multiplicity
 _atom_site_fract_x
 _atom_site_fract_y
 _atom_site_fract_z
 _atom_site_occupancy
  Sr  Sr0  1  0.75204967  0.50119073  0.50014997  1
  Sr  Sr1  1  0.14584735  0.10044932  0.29982307  1
  Sr  Sr2  1  0.95165377  0.30389059  0.90049717  1
  Sr  Sr3  1  0.34980982  0.89632527  0.69838610  1
  Sr  Sr4  1  0.55202482  0.69920636  0.09892699  1
  Sr  Sr5  1  0.24797518  0.50079364  0.50107301  1
  Sr  Sr6  1  0.65415265  0.09955068  0.30017693  1
  Sr  Sr7  1  0.45019018  0.30367473  0.90161390  1
  Sr  Sr8  1  0.84834623  0.89610941  0.69950283  1
  Sr  Sr9  1  0.04795033  0.69880927  0.09985003  1
  Fe  Fe10  1  0.60022380  0.40115823  0.19986180  1
  Fe  Fe11  1  0.40000000  0.60000000  0.80000000  1
  Fe  Fe12  1  0.19977620  0.79884177  0.40013820  1
  Co  Co13  1  0.99924403  0.99857966  0.00011005  1
  Co  Co14  1  0.80075597  0.20142034  0.59988995  1
  Mo  Mo15  1  0.09856005  0.39739309  0.19955475  1
  Mo  Mo16  1  0.50110285  0.00086653  -0.00112499  1
  Mo  Mo17  1  0.29889715  0.19913347  0.60112499  1
  Mo  Mo18  1  0.70143995  0.80260691  0.40044525  1
  Mo  Mo19  1  0.90000000  0.60000000  0.80000000  1
  O  O20  1  0.05107721  0.70097950  0.59857486  1
  O  O21  1  0.44590649  0.29745716  0.40562739  1
  O  O22  1  0.25038040  0.49923491  0.99891806  1
  O  O23  1  0.64447399  0.09640434  0.80748824  1
  O  O24  1  0.84783658  0.89920162  0.20263147  1
  O  O25  1  0.95216342  0.30079838  0.39736853  1
  O  O26  1  0.35409351  0.90254284  0.19437261  1
  O  O27  1  0.15552601  0.10359566  0.79251176  1
  O  O28  1  0.54961960  0.70076509  0.60108194  1
  O  O29  1  0.74892279  0.49902050  0.00142514  1
  O  O30  1  0.78096168  0.99271643  0.50011491  1
  O  O31  1  0.58386114  0.19556774  0.09949677  1
  O  O32  1  0.38411348  0.39511403  0.69721565  1
  O  O33  1  0.18647700  0.59650206  0.29516953  1
  O  O34  1  0.98193791  0.79311764  0.89528126  1
  O  O35  1  0.81806209  0.40688236  0.70471874  1
  O  O36  1  0.61352300  0.60349794  0.30483047  1
  O  O37  1  0.41588652  0.80488597  0.90278435  1
  O  O38  1  0.21613886  0.00443226  0.50050323  1
  O  O39  1  0.01903832  0.20728357  0.09988509  1
  O  O40  1  0.65664836  0.62816940  0.81413556  1
  O  O41  1  0.45639168  0.82866797  0.41336617  1
  O  O42  1  0.27035490  0.02830071  0.01271524  1
  O  O43  1  0.06897068  0.22799651  0.61534658  1
  O  O44  1  0.85486990  0.42710350  0.21496340  1
  O  O45  1  0.14335164  0.57183060  0.78586444  1
  O  O46  1  0.94513010  0.77289650  0.38503660  1
  O  O47  1  0.73102932  0.97200349  0.98465342  1
  O  O48  1  0.52964510  0.17169929  0.58728476  1
  O  O49  1  0.34360832  0.37133203  0.18663383  1
