# generated using pymatgen
data_SrCdPb
_symmetry_space_group_name_H-M   'P 1'
_cell_length_a   5.32461873
_cell_length_b   6.47455794
_cell_length_c   6.63497472
_cell_angle_alpha   96.32527758
_cell_angle_beta   113.65658820
_cell_angle_gamma   65.72004090
_symmetry_Int_Tables_number   1
_chemical_formula_structural   SrCdPb
_chemical_formula_sum   'Sr2 Cd2 Pb2'
_cell_volume   190.57181961
_cell_formula_units_Z   2
loop_
 _symmetry_equiv_pos_site_id
 _symmetry_equiv_pos_as_xyz
  1  'x, y, z'
loop_
 _atom_site_type_symbol
 _atom_site_label
 _atom_site_symmetry_multiplicity
 _atom_site_fract_x
 _atom_site_fract_y
 _atom_site_fract_z
 _atom_site_occupancy
  Sr  Sr0  1  0.74655166  0.71269607  0.20579938  1
  Sr  Sr1  1  0.25344834  0.28730393  0.79420062  1
  Cd  Cd2  1  0.55342606  0.28799739  0.39484952  1
  Cd  Cd3  1  0.44657394  0.71200261  0.60515048  1
  Pb  Pb4  1  0.05483039  0.11454535  0.22420613  1
  Pb  Pb5  1  0.94516961  0.88545465  0.77579387  1
