# generated using pymatgen
data_Sr2La2TlNi2O9
_symmetry_space_group_name_H-M   'P 1'
_cell_length_a   3.84937837
_cell_length_b   3.84937837
_cell_length_c   15.25492659
_cell_angle_alpha   82.66146413
_cell_angle_beta   82.66146413
_cell_angle_gamma   89.29004862
_symmetry_Int_Tables_number   1
_chemical_formula_structural   Sr2La2TlNi2O9
_chemical_formula_sum   'Sr2 La2 Tl1 Ni2 O9'
_cell_volume   222.35338508
_cell_formula_units_Z   1
loop_
 _symmetry_equiv_pos_site_id
 _symmetry_equiv_pos_as_xyz
  1  'x, y, z'
loop_
 _atom_site_type_symbol
 _atom_site_label
 _atom_site_symmetry_multiplicity
 _atom_site_fract_x
 _atom_site_fract_y
 _atom_site_fract_z
 _atom_site_occupancy
  Sr  Sr0  1  0.58077932  0.58077932  0.83412221  1
  Sr  Sr1  1  0.41490153  0.41490153  0.16587779  1
  La  La2  1  0.70168053  0.70168053  0.59653913  1
  La  La3  1  0.29821966  0.29821966  0.40346087  1
  Tl  Tl4  1  0.96023359  0.96023359  1.00000000  1
  Ni  Ni5  1  0.14477581  0.14477581  0.70979724  1
  Ni  Ni6  1  0.85457305  0.85457305  0.29020276  1
  O  O7  1  0.21862400  0.21862400  0.56280044  1
  O  O8  1  0.78142444  0.78142444  0.43719956  1
  O  O9  1  0.07330948  0.07330948  0.86040230  1
  O  O10  1  0.93371178  0.93371178  0.13959770  1
  O  O11  1  0.14628313  0.64646424  0.70656090  1
  O  O12  1  0.64646424  0.14628313  0.70656090  1
  O  O13  1  0.85284403  0.35302514  0.29343910  1
  O  O14  1  0.35302514  0.85284403  0.29343910  1
  O  O15  1  0.53645028  0.53645028  1.00000000  1
