# generated using pymatgen
data_MgZn2
_symmetry_space_group_name_H-M   'P 1'
_cell_length_a   10.34813289
_cell_length_b   3.04177771
_cell_length_c   6.74951191
_cell_angle_alpha   90.00000000
_cell_angle_beta   101.67524492
_cell_angle_gamma   90.00000000
_symmetry_Int_Tables_number   1
_chemical_formula_structural   MgZn2
_chemical_formula_sum   'Mg4 Zn8'
_cell_volume   208.05692518
_cell_formula_units_Z   4
loop_
 _symmetry_equiv_pos_site_id
 _symmetry_equiv_pos_as_xyz
  1  'x, y, z'
loop_
 _atom_site_type_symbol
 _atom_site_label
 _atom_site_symmetry_multiplicity
 _atom_site_fract_x
 _atom_site_fract_y
 _atom_site_fract_z
 _atom_site_occupancy
  Mg  Mg0  1  0.38193906  -0.00000000  0.26680049  1
  Mg  Mg1  1  0.05999811  0.00000000  0.61754501  1
  Mg  Mg2  1  0.88193906  0.50000000  0.26680049  1
  Mg  Mg3  1  0.55999811  0.50000000  0.61754501  1
  Zn  Zn4  1  0.00367221  0.00000000  0.00110998  1
  Zn  Zn5  1  0.16389563  0.50000000  0.32931989  1
  Zn  Zn6  1  0.33391269  0.00000000  0.67240156  1
  Zn  Zn7  1  0.22324929  0.50000000  0.94615607  1
  Zn  Zn8  1  0.50367221  0.50000000  0.00110998  1
  Zn  Zn9  1  0.66389563  -0.00000000  0.32931989  1
  Zn  Zn10  1  0.83391269  0.50000000  0.67240156  1
  Zn  Zn11  1  0.72324929  -0.00000000  0.94615607  1
