# generated using pymatgen
data_Nb4GeSe8
_symmetry_space_group_name_H-M   'P 1'
_cell_length_a   3.51492092
_cell_length_b   14.46010516
_cell_length_c   6.07007540
_cell_angle_alpha   77.91422196
_cell_angle_beta   89.99360439
_cell_angle_gamma   96.89434398
_symmetry_Int_Tables_number   1
_chemical_formula_structural   Nb4GeSe8
_chemical_formula_sum   'Nb4 Ge1 Se8'
_cell_volume   299.39750346
_cell_formula_units_Z   1
loop_
 _symmetry_equiv_pos_site_id
 _symmetry_equiv_pos_as_xyz
  1  'x, y, z'
loop_
 _atom_site_type_symbol
 _atom_site_label
 _atom_site_symmetry_multiplicity
 _atom_site_fract_x
 _atom_site_fract_y
 _atom_site_fract_z
 _atom_site_occupancy
  Nb  Nb0  1  0.87765908  0.75613263  0.11179068  1
  Nb  Nb1  1  0.37882984  0.75727836  0.63034136  1
  Nb  Nb2  1  0.62234092  0.24386737  0.38820932  1
  Nb  Nb3  1  0.12117016  0.24272164  0.86965864  1
  Ge  Ge4  1  0.25000000  0.50000000  0.75000000  1
  Se  Se5  1  0.31711130  0.63446448  0.01878337  1
  Se  Se6  1  0.81863804  0.63800578  0.51127000  1
  Se  Se7  1  0.68136196  0.36199422  0.98873000  1
  Se  Se8  1  0.18288870  0.36553552  0.48121663  1
  Se  Se9  1  0.56410994  0.12746290  0.10470180  1
  Se  Se10  1  0.06216984  0.12321526  0.60479326  1
  Se  Se11  1  0.43783016  0.87678474  0.89520674  1
  Se  Se12  1  0.93589006  0.87253710  0.39529820  1
