# generated using pymatgen
data_NdP2(HO2)3
_symmetry_space_group_name_H-M   'P 1'
_cell_length_a   8.43976302
_cell_length_b   8.97506798
_cell_length_c   9.38386399
_cell_angle_alpha   90.00000000
_cell_angle_beta   90.00000000
_cell_angle_gamma   114.35463753
_symmetry_Int_Tables_number   1
_chemical_formula_structural   NdP2(HO2)3
_chemical_formula_sum   'Nd4 P8 H12 O24'
_cell_volume   647.54962732
_cell_formula_units_Z   4
loop_
 _symmetry_equiv_pos_site_id
 _symmetry_equiv_pos_as_xyz
  1  'x, y, z'
loop_
 _atom_site_type_symbol
 _atom_site_label
 _atom_site_symmetry_multiplicity
 _atom_site_fract_x
 _atom_site_fract_y
 _atom_site_fract_z
 _atom_site_occupancy
  Nd  Nd0  1  0.74785684  0.00052873  0.53258029  1
  Nd  Nd1  1  0.25214316  0.49947127  0.03258029  1
  Nd  Nd2  1  0.25214316  0.99947127  0.46741971  1
  Nd  Nd3  1  0.74785684  0.50052873  0.96741971  1
  P  P4  1  0.44707618  0.69250296  0.38772696  1
  P  P5  1  0.55292382  0.80749704  0.88772696  1
  P  P6  1  0.55292382  0.30749704  0.61227304  1
  P  P7  1  0.44707618  0.19250296  0.11227304  1
  P  P8  1  0.95619182  0.09913997  0.22513058  1
  P  P9  1  0.04380818  0.40086003  0.72513058  1
  P  P10  1  0.04380818  0.90086003  0.77486942  1
  P  P11  1  0.95619182  0.59913997  0.27486942  1
  H  H12  1  0.91916567  0.96019794  0.13925345  1
  H  H13  1  0.08083433  0.53980206  0.63925345  1
  H  H14  1  0.08083433  0.03980206  0.86074655  1
  H  H15  1  0.91916567  0.46019794  0.36074655  1
  H  H16  1  0.35103716  0.56639748  0.48293404  1
  H  H17  1  0.64896284  0.93360252  0.98293404  1
  H  H18  1  0.64896284  0.43360252  0.51706596  1
  H  H19  1  0.35103716  0.06639748  0.01706596  1
  H  H20  1  0.71395106  0.15294808  0.19311391  1
  H  H21  1  0.28604894  0.34705192  0.69311391  1
  H  H22  1  0.28604894  0.84705192  0.80688609  1
  H  H23  1  0.71395106  0.65294808  0.30688609  1
  O  O24  1  0.37575004  0.63656901  0.23978973  1
  O  O25  1  0.62424996  0.86343099  0.73978973  1
  O  O26  1  0.62424996  0.36343099  0.76021027  1
  O  O27  1  0.37575004  0.13656901  0.26021027  1
  O  O28  1  0.07002544  0.24774462  0.14099848  1
  O  O29  1  0.92997456  0.25225538  0.64099848  1
  O  O30  1  0.92997456  0.75225538  0.85900152  1
  O  O31  1  0.07002544  0.74774462  0.35900152  1
  O  O32  1  0.77366590  0.09993298  0.26726436  1
  O  O33  1  0.22633410  0.40006702  0.76726436  1
  O  O34  1  0.22633410  0.90006702  0.73273564  1
  O  O35  1  0.77366590  0.59993298  0.23273564  1
  O  O36  1  0.64274043  0.72564547  0.40429308  1
  O  O37  1  0.35725957  0.77435453  0.90429308  1
  O  O38  1  0.35725957  0.27435453  0.59570692  1
  O  O39  1  0.64274043  0.22564547  0.09570692  1
  O  O40  1  0.01833736  0.06640118  0.37017843  1
  O  O41  1  0.98166264  0.43359882  0.87017843  1
  O  O42  1  0.98166264  0.93359882  0.62982157  1
  O  O43  1  0.01833736  0.56640118  0.12982157  1
  O  O44  1  0.43727148  0.85102756  0.44217473  1
  O  O45  1  0.56272852  0.64897244  0.94217473  1
  O  O46  1  0.56272852  0.14897244  0.55782527  1
  O  O47  1  0.43727148  0.35102756  0.05782527  1
