# generated using pymatgen
data_SmBi3(Ru2O7)2
_symmetry_space_group_name_H-M   'P 1'
_cell_length_a   7.32317955
_cell_length_b   7.32317955
_cell_length_c   7.37282354
_cell_angle_alpha   90.00000000
_cell_angle_beta   60.22248944
_cell_angle_gamma   120.00000000
_symmetry_Int_Tables_number   1
_chemical_formula_structural   SmBi3(Ru2O7)2
_chemical_formula_sum   'Sm1 Bi3 Ru4 O14'
_cell_volume   280.52434079
_cell_formula_units_Z   1
loop_
 _symmetry_equiv_pos_site_id
 _symmetry_equiv_pos_as_xyz
  1  'x, y, z'
loop_
 _atom_site_type_symbol
 _atom_site_label
 _atom_site_symmetry_multiplicity
 _atom_site_fract_x
 _atom_site_fract_y
 _atom_site_fract_z
 _atom_site_occupancy
  Sm  Sm0  1  0.75000000  0.37500000  0.87500000  1
  Bi  Bi1  1  0.25000000  0.37500000  0.37500000  1
  Bi  Bi2  1  0.25000000  0.87500000  0.37500000  1
  Bi  Bi3  1  0.75000000  0.37500000  0.37500000  1
  Ru  Ru4  1  0.75000000  0.87500000  0.37500000  1
  Ru  Ru5  1  0.25000000  0.87500000  0.87500000  1
  Ru  Ru6  1  0.25000000  0.37500000  0.87500000  1
  Ru  Ru7  1  0.75000000  0.87500000  0.87500000  1
  O  O8  1  0.90757072  0.95378536  0.54581547  1
  O  O9  1  0.50039917  0.54661381  0.54581547  1
  O  O10  1  0.50039917  0.95378536  0.54581547  1
  O  O11  1  0.09165484  0.54582742  0.95699458  1
  O  O12  1  0.49717800  0.95135058  0.95699458  1
  O  O13  1  0.49717800  0.54582742  0.95699458  1
  O  O14  1  0.59242928  0.79621464  0.20418453  1
  O  O15  1  0.99960083  0.20338619  0.20418453  1
  O  O16  1  0.99960083  0.79621464  0.20418453  1
  O  O17  1  0.40834516  0.20417258  0.79300542  1
  O  O18  1  0.00282200  0.79864942  0.79300542  1
  O  O19  1  0.00282200  0.20417258  0.79300542  1
  O  O20  1  0.50375729  0.25187865  0.24436406  1
  O  O21  1  0.99624271  0.49812135  0.50563594  1
