# generated using pymatgen
data_MgZn
_symmetry_space_group_name_H-M   'P 1'
_cell_length_a   11.06404306
_cell_length_b   3.03741877
_cell_length_c   6.84369501
_cell_angle_alpha   90.00000000
_cell_angle_beta   105.73519257
_cell_angle_gamma   90.00000000
_symmetry_Int_Tables_number   1
_chemical_formula_structural   MgZn
_chemical_formula_sum   'Mg6 Zn6'
_cell_volume   221.37132042
_cell_formula_units_Z   6
loop_
 _symmetry_equiv_pos_site_id
 _symmetry_equiv_pos_as_xyz
  1  'x, y, z'
loop_
 _atom_site_type_symbol
 _atom_site_label
 _atom_site_symmetry_multiplicity
 _atom_site_fract_x
 _atom_site_fract_y
 _atom_site_fract_z
 _atom_site_occupancy
  Mg  Mg0  1  0.00097961  -0.00000000  0.01679811  1
  Mg  Mg1  1  0.33249013  -0.00000000  0.64781077  1
  Mg  Mg2  1  0.22157476  0.50000000  0.94688684  1
  Mg  Mg3  1  0.50097961  0.50000000  0.01679811  1
  Mg  Mg4  1  0.83249013  0.50000000  0.64781077  1
  Mg  Mg5  1  0.72157476  -0.00000000  0.94688684  1
  Zn  Zn6  1  0.39179698  -0.00000000  0.28387513  1
  Zn  Zn7  1  0.16371906  0.50000000  0.33361900  1
  Zn  Zn8  1  0.05610646  0.00000000  0.60434314  1
  Zn  Zn9  1  0.89179698  0.50000000  0.28387513  1
  Zn  Zn10  1  0.66371906  -0.00000000  0.33361900  1
  Zn  Zn11  1  0.55610646  0.50000000  0.60434314  1
