# generated using pymatgen
data_NaSm3Ti2(SbO7)2
_symmetry_space_group_name_H-M   'P 1'
_cell_length_a   7.40036895
_cell_length_b   7.29540310
_cell_length_c   7.44274871
_cell_angle_alpha   90.00000000
_cell_angle_beta   59.81038052
_cell_angle_gamma   120.14307006
_symmetry_Int_Tables_number   1
_chemical_formula_structural   NaSm3Ti2(SbO7)2
_chemical_formula_sum   'Na1 Sm3 Ti2 Sb2 O14'
_cell_volume   282.69772749
_cell_formula_units_Z   1
loop_
 _symmetry_equiv_pos_site_id
 _symmetry_equiv_pos_as_xyz
  1  'x, y, z'
loop_
 _atom_site_type_symbol
 _atom_site_label
 _atom_site_symmetry_multiplicity
 _atom_site_fract_x
 _atom_site_fract_y
 _atom_site_fract_z
 _atom_site_occupancy
  Na  Na0  1  0.50000000  0.50000000  0.00000000  1
  Sm  Sm1  1  0.50000000  0.00000000  0.00000000  1
  Sm  Sm2  1  0.00000000  0.00000000  0.50000000  1
  Sm  Sm3  1  0.00000000  0.00000000  0.00000000  1
  Ti  Ti4  1  0.50000000  0.00000000  0.50000000  1
  Ti  Ti5  1  0.50000000  0.50000000  0.50000000  1
  Sb  Sb6  1  0.00000000  0.50000000  0.00000000  1
  Sb  Sb7  1  0.00000000  0.50000000  0.50000000  1
  O  O8  1  0.64121622  0.82338978  0.42939189  1
  O  O9  1  0.84515783  0.41606317  0.82742109  1
  O  O10  1  0.25327443  0.82976394  0.82374506  1
  O  O11  1  0.24145085  0.42017280  0.43837398  1
  O  O12  1  0.24145085  0.42017280  0.82017517  1
  O  O13  1  0.25327443  0.82976394  0.42298051  1
  O  O14  1  0.35878378  0.17661022  0.57060811  1
  O  O15  1  0.15484217  0.58393683  0.17257891  1
  O  O16  1  0.74672557  0.17023606  0.17625494  1
  O  O17  1  0.75854915  0.57982720  0.56162602  1
  O  O18  1  0.75854915  0.57982720  0.17982483  1
  O  O19  1  0.74672557  0.17023606  0.57701949  1
  O  O20  1  0.23999331  0.11296452  0.13000334  1
  O  O21  1  0.76000669  0.88703548  0.86999666  1
