# generated using pymatgen
data_Nd3Ti12Bi13O48
_symmetry_space_group_name_H-M   'P 1'
_cell_length_a   5.46959480
_cell_length_b   16.91507145
_cell_length_c   10.89836562
_cell_angle_alpha   89.99710942
_cell_angle_beta   90.02982002
_cell_angle_gamma   99.22869390
_symmetry_Int_Tables_number   1
_chemical_formula_structural   Nd3Ti12Bi13O48
_chemical_formula_sum   'Nd3 Ti12 Bi13 O48'
_cell_volume   995.24986964
_cell_formula_units_Z   1
loop_
 _symmetry_equiv_pos_site_id
 _symmetry_equiv_pos_as_xyz
  1  'x, y, z'
loop_
 _atom_site_type_symbol
 _atom_site_label
 _atom_site_symmetry_multiplicity
 _atom_site_fract_x
 _atom_site_fract_y
 _atom_site_fract_z
 _atom_site_occupancy
  Nd  Nd0  1  0.00773980  0.12901475  0.99980801  1
  Nd  Nd1  1  0.50848052  0.12941704  0.25069081  1
  Nd  Nd2  1  0.51140866  0.12900702  0.75029325  1
  Ti  Ti3  1  0.05468762  0.25418478  0.24742047  1
  Ti  Ti4  1  0.05577051  0.25467635  0.75176670  1
  Ti  Ti5  1  0.56709222  0.25522295  0.50021765  1
  Ti  Ti6  1  0.55611148  0.25411014  0.00002218  1
  Ti  Ti7  1  0.94293403  0.99989966  0.25027915  1
  Ti  Ti8  1  0.94227335  0.00053168  0.74858171  1
  Ti  Ti9  1  0.44195133  0.00002328  0.00057154  1
  Ti  Ti10  1  0.44457664  0.99873780  0.50130753  1
  Ti  Ti11  1  0.80768698  0.74223804  0.24920254  1
  Ti  Ti12  1  0.80804037  0.74244902  0.74964628  1
  Ti  Ti13  1  0.30782267  0.74221439  0.00062185  1
  Ti  Ti14  1  0.30789693  0.74208354  0.50057717  1
  Bi  Bi15  1  0.18770500  0.42336919  0.01159435  1
  Bi  Bi16  1  0.18779883  0.42320737  0.51222800  1
  Bi  Bi17  1  0.68708836  0.42329749  0.23792311  1
  Bi  Bi18  1  0.68759509  0.42337573  0.73828255  1
  Bi  Bi19  1  0.75962170  0.57749987  0.48791792  1
  Bi  Bi20  1  0.75990409  0.57774678  0.98794188  1
  Bi  Bi21  1  0.25940548  0.57755950  0.26199935  1
  Bi  Bi22  1  0.25970275  0.57772310  0.76205056  1
  Bi  Bi23  1  0.91673898  0.86642588  0.00046569  1
  Bi  Bi24  1  0.91656792  0.86596015  0.50095865  1
  Bi  Bi25  1  0.41652878  0.86645356  0.24957992  1
  Bi  Bi26  1  0.41794941  0.86688126  0.74957417  1
  Bi  Bi27  1  0.04196150  0.13559232  0.49714016  1
  O  O28  1  0.79735796  0.21674765  0.11665084  1
  O  O29  1  0.79688501  0.21924843  0.61699332  1
  O  O30  1  0.29773019  0.21719384  0.13346179  1
  O  O31  1  0.29713370  0.21668031  0.63359911  1
  O  O32  1  0.58782667  0.77786515  0.39067273  1
  O  O33  1  0.58741898  0.77776546  0.89058122  1
  O  O34  1  0.08748555  0.77782417  0.35959057  1
  O  O35  1  0.08759315  0.77761828  0.85950647  1
  O  O36  1  0.63981777  0.01947748  0.14325428  1
  O  O37  1  0.63106429  0.01527284  0.64654913  1
  O  O38  1  0.13938627  0.01861933  0.10671466  1
  O  O39  1  0.14010841  0.01760892  0.60795625  1
  O  O40  1  0.76628363  0.24382842  0.36031109  1
  O  O41  1  0.77355113  0.24203059  0.86389039  1
  O  O42  1  0.26618146  0.24207210  0.38875212  1
  O  O43  1  0.27377989  0.24191186  0.88623725  1
  O  O44  1  0.46111786  0.50206723  0.12729299  1
  O  O45  1  0.46116425  0.50206856  0.62737354  1
  O  O46  1  0.96110600  0.50199235  0.12266501  1
  O  O47  1  0.96115837  0.50199762  0.62274645  1
  O  O48  1  0.49418024  0.74969220  0.15064187  1
  O  O49  1  0.49386151  0.75006406  0.65055880  1
  O  O50  1  0.99422893  0.74991919  0.09934460  1
  O  O51  1  0.99401977  0.75013865  0.59907967  1
  O  O52  1  0.97634361  0.11331708  0.28154593  1
  O  O53  1  0.96888790  0.11271351  0.78482565  1
  O  O54  1  0.45489885  0.11289642  0.46671766  1
  O  O55  1  0.47297044  0.11318709  0.96613135  1
  O  O56  1  0.75366652  0.63781306  0.27919360  1
  O  O57  1  0.75347027  0.63790228  0.77910397  1
  O  O58  1  0.25376517  0.63767312  0.47088379  1
  O  O59  1  0.25342681  0.63774405  0.97079211  1
  O  O60  1  0.10246652  0.35929417  0.21878460  1
  O  O61  1  0.10215833  0.35965819  0.72078124  1
  O  O62  1  0.60056197  0.35923005  0.03022171  1
  O  O63  1  0.60192910  0.36009355  0.52997163  1
  O  O64  1  0.95938512  0.49835451  0.37299847  1
  O  O65  1  0.95933427  0.49856792  0.87301023  1
  O  O66  1  0.45913535  0.49833002  0.37696283  1
  O  O67  1  0.45956693  0.49854193  0.87697056  1
  O  O68  1  0.68460983  0.98008462  0.38956156  1
  O  O69  1  0.69123476  0.98102577  0.89329561  1
  O  O70  1  0.18992203  0.97961364  0.35731583  1
  O  O71  1  0.19050758  0.98162079  0.85836827  1
  O  O72  1  0.83564936  0.88174162  0.21013424  1
  O  O73  1  0.83610146  0.88130275  0.71152351  1
  O  O74  1  0.33615074  0.88181092  0.03904787  1
  O  O75  1  0.33597507  0.88167562  0.53877049  1
