# generated using pymatgen
data_Nb2V3(Cu3S4)5
_symmetry_space_group_name_H-M   'P 1'
_cell_length_a   5.45429351
_cell_length_b   5.45429351
_cell_length_c   27.26188766
_cell_angle_alpha   90.00000000
_cell_angle_beta   90.00000000
_cell_angle_gamma   90.00000000
_symmetry_Int_Tables_number   1
_chemical_formula_structural   Nb2V3(Cu3S4)5
_chemical_formula_sum   'Nb2 V3 Cu15 S20'
_cell_volume   811.02255691
_cell_formula_units_Z   1
loop_
 _symmetry_equiv_pos_site_id
 _symmetry_equiv_pos_as_xyz
  1  'x, y, z'
loop_
 _atom_site_type_symbol
 _atom_site_label
 _atom_site_symmetry_multiplicity
 _atom_site_fract_x
 _atom_site_fract_y
 _atom_site_fract_z
 _atom_site_occupancy
  Nb  Nb0  1  0.00000000  -0.00000000  0.99978716  1
  Nb  Nb1  1  0.00000000  -0.00000000  0.20021284  1
  V  V2  1  0.00000000  -0.00000000  0.40016950  1
  V  V3  1  0.00000000  -0.00000000  0.60000000  1
  V  V4  1  0.00000000  -0.00000000  0.79983050  1
  Cu  Cu5  1  0.00000000  -0.00000000  0.10000000  1
  Cu  Cu6  1  0.00000000  -0.00000000  0.30117888  1
  Cu  Cu7  1  0.00000000  -0.00000000  0.50002102  1
  Cu  Cu8  1  0.00000000  -0.00000000  0.69997898  1
  Cu  Cu9  1  0.00000000  -0.00000000  0.89882112  1
  Cu  Cu10  1  0.00000000  0.50000000  0.00000423  1
  Cu  Cu11  1  0.00000000  0.50000000  0.19999577  1
  Cu  Cu12  1  0.00000000  0.50000000  0.40000955  1
  Cu  Cu13  1  0.00000000  0.50000000  0.60000000  1
  Cu  Cu14  1  0.00000000  0.50000000  0.79999045  1
  Cu  Cu15  1  0.50000000  -0.00000000  0.00000423  1
  Cu  Cu16  1  0.50000000  -0.00000000  0.19999577  1
  Cu  Cu17  1  0.50000000  -0.00000000  0.40000955  1
  Cu  Cu18  1  0.50000000  -0.00000000  0.60000000  1
  Cu  Cu19  1  0.50000000  -0.00000000  0.79999045  1
  S  S20  1  0.75332349  0.75332349  0.04932677  1
  S  S21  1  0.75325450  0.75325450  0.24945585  1
  S  S22  1  0.76520973  0.76520973  0.44697963  1
  S  S23  1  0.76530352  0.76530352  0.64693106  1
  S  S24  1  0.76509105  0.76509105  0.84683853  1
  S  S25  1  0.75332349  0.24667651  0.15067323  1
  S  S26  1  0.76509105  0.23490895  0.35316147  1
  S  S27  1  0.76530352  0.23469648  0.55306894  1
  S  S28  1  0.76520973  0.23479027  0.75302037  1
  S  S29  1  0.75325450  0.24674550  0.95054415  1
  S  S30  1  0.24667651  0.75332349  0.15067323  1
  S  S31  1  0.23490895  0.76509105  0.35316147  1
  S  S32  1  0.23469648  0.76530352  0.55306894  1
  S  S33  1  0.23479027  0.76520973  0.75302037  1
  S  S34  1  0.24674550  0.75325450  0.95054415  1
  S  S35  1  0.24667651  0.24667651  0.04932677  1
  S  S36  1  0.24674550  0.24674550  0.24945585  1
  S  S37  1  0.23479027  0.23479027  0.44697963  1
  S  S38  1  0.23469648  0.23469648  0.64693106  1
  S  S39  1  0.23490895  0.23490895  0.84683853  1
