# generated using pymatgen
data_Nd(GaFe)6
_symmetry_space_group_name_H-M   'P 1'
_cell_length_a   5.05624749
_cell_length_b   6.61908260
_cell_length_c   6.61908260
_cell_angle_alpha   97.71444664
_cell_angle_beta   112.45420085
_cell_angle_gamma   67.54579915
_symmetry_Int_Tables_number   1
_chemical_formula_structural   Nd(GaFe)6
_chemical_formula_sum   'Nd1 Ga6 Fe6'
_cell_volume   189.19145067
_cell_formula_units_Z   1
loop_
 _symmetry_equiv_pos_site_id
 _symmetry_equiv_pos_as_xyz
  1  'x, y, z'
loop_
 _atom_site_type_symbol
 _atom_site_label
 _atom_site_symmetry_multiplicity
 _atom_site_fract_x
 _atom_site_fract_y
 _atom_site_fract_z
 _atom_site_occupancy
  Nd  Nd0  1  0.00000000  -0.00000000  -0.00000000  1
  Ga  Ga1  1  0.66511116  0.33488884  0.66511116  1
  Ga  Ga2  1  0.33488884  0.66511116  0.33488884  1
  Ga  Ga3  1  0.00000000  0.34644426  0.34644426  1
  Ga  Ga4  1  -0.00000000  0.65355574  0.65355574  1
  Ga  Ga5  1  0.50000000  0.80844496  0.80844496  1
  Ga  Ga6  1  0.50000000  0.19155504  0.19155504  1
  Fe  Fe7  1  0.50000000  -0.00000000  0.50000000  1
  Fe  Fe8  1  0.00000000  -0.00000000  0.50000000  1
  Fe  Fe9  1  0.50000000  0.50000000  -0.00000000  1
  Fe  Fe10  1  0.00000000  0.50000000  -0.00000000  1
  Fe  Fe11  1  0.74326455  0.75673545  0.24326455  1
  Fe  Fe12  1  0.25673545  0.24326455  0.75673545  1
