# generated using pymatgen
data_Na8Fe6P6(O8F3)3
_symmetry_space_group_name_H-M   'P 1'
_cell_length_a   7.09170298
_cell_length_b   11.60797229
_cell_length_c   9.16448149
_cell_angle_alpha   66.74965080
_cell_angle_beta   90.00000000
_cell_angle_gamma   98.92723932
_symmetry_Int_Tables_number   1
_chemical_formula_structural   Na8Fe6P6(O8F3)3
_chemical_formula_sum   'Na8 Fe6 P6 O24 F9'
_cell_volume   683.19722021
_cell_formula_units_Z   1
loop_
 _symmetry_equiv_pos_site_id
 _symmetry_equiv_pos_as_xyz
  1  'x, y, z'
loop_
 _atom_site_type_symbol
 _atom_site_label
 _atom_site_symmetry_multiplicity
 _atom_site_fract_x
 _atom_site_fract_y
 _atom_site_fract_z
 _atom_site_occupancy
  Na  Na0  1  0.17357873  0.82924106  0.08537997  1
  Na  Na1  1  0.86057758  0.13677661  0.43161170  1
  Na  Na2  1  0.13942242  0.86322339  0.56838830  1
  Na  Na3  1  0.82642127  0.17075894  0.91462003  1
  Na  Na4  1  0.64722345  0.34915364  0.60410939  1
  Na  Na5  1  0.35277655  0.65084636  0.95326403  1
  Na  Na6  1  0.64722345  0.34915364  0.04673597  1
  Na  Na7  1  0.35277655  0.65084636  0.39589061  1
  Fe  Fe8  1  0.58457694  0.78908146  0.60545927  1
  Fe  Fe9  1  0.24972629  0.12684620  0.93657640  1
  Fe  Fe10  1  0.91671812  0.46077188  0.26961456  1
  Fe  Fe11  1  0.75027371  0.87315380  0.06342360  1
  Fe  Fe12  1  0.41542306  0.21091854  0.39454073  1
  Fe  Fe13  1  0.08328188  0.53922812  0.73038544  1
  P  P14  1  0.83595340  0.66609653  0.41679893  1
  P  P15  1  0.50000000  0.00000000  0.75162353  1
  P  P16  1  0.16404660  0.33390347  0.08289446  1
  P  P17  1  0.50000000  -0.00000000  0.24837647  1
  P  P18  1  0.16404660  0.33390347  0.58320107  1
  P  P19  1  0.83595340  0.66609653  0.91710554  1
  O  O20  1  0.88691542  0.78225726  0.25645062  1
  O  O21  1  0.55439215  0.12131727  0.59630695  1
  O  O22  1  0.21087678  0.45847544  0.93099638  1
  O  O23  1  0.01365575  0.66355623  0.51614155  1
  O  O24  1  0.67598570  0.99263805  0.85309495  1
  O  O25  1  0.34430477  0.32436049  0.17858979  1
  O  O26  1  0.67598570  0.99263805  0.15426800  1
  O  O27  1  0.34430477  0.32436049  0.49704972  1
  O  O28  1  0.01365575  0.66355623  0.82030122  1
  O  O29  1  0.55439215  0.12131727  0.28237678  1
  O  O30  1  0.21087678  0.45847544  0.61052818  1
  O  O31  1  0.88691542  0.78225726  0.96129112  1
  O  O32  1  0.44560785  0.87868273  0.40369305  1
  O  O33  1  0.11308458  0.21774274  0.74354938  1
  O  O34  1  0.78912322  0.54152456  0.06900362  1
  O  O35  1  0.32401430  0.00736195  0.14690505  1
  O  O36  1  0.98634425  0.33644377  0.48385845  1
  O  O37  1  0.65569523  0.67563951  0.82141021  1
  O  O38  1  0.65569523  0.67563951  0.50295028  1
  O  O39  1  0.32401430  0.00736195  0.84573200  1
  O  O40  1  0.98634425  0.33644377  0.17969878  1
  O  O41  1  0.78912322  0.54152456  0.38947182  1
  O  O42  1  0.44560785  0.87868273  0.71762322  1
  O  O43  1  0.11308458  0.21774274  0.03870888  1
  F  F44  1  0.32933244  0.67056345  0.66471878  1
  F  F45  1  0.00000000  0.00000000  -0.00000000  1
  F  F46  1  0.67066756  0.32943655  0.33528122  1
  F  F47  1  0.81710316  0.90774633  0.54612634  1
  F  F48  1  0.50226076  0.23564013  0.88218044  1
  F  F49  1  0.14838745  0.58908625  0.20545688  1
  F  F50  1  0.49773924  0.76435987  0.11781956  1
  F  F51  1  0.18289684  0.09225367  0.45387366  1
  F  F52  1  0.85161255  0.41091375  0.79454312  1
