# generated using pymatgen
data_NaNd3Ti2(SbO7)2
_symmetry_space_group_name_H-M   'P 1'
_cell_length_a   7.43467620
_cell_length_b   7.32281401
_cell_length_c   7.47893359
_cell_angle_alpha   90.00000000
_cell_angle_beta   59.80288560
_cell_angle_gamma   120.15747906
_symmetry_Int_Tables_number   1
_chemical_formula_structural   NaNd3Ti2(SbO7)2
_chemical_formula_sum   'Na1 Nd3 Ti2 Sb2 O14'
_cell_volume   286.36521108
_cell_formula_units_Z   1
loop_
 _symmetry_equiv_pos_site_id
 _symmetry_equiv_pos_as_xyz
  1  'x, y, z'
loop_
 _atom_site_type_symbol
 _atom_site_label
 _atom_site_symmetry_multiplicity
 _atom_site_fract_x
 _atom_site_fract_y
 _atom_site_fract_z
 _atom_site_occupancy
  Na  Na0  1  0.50000000  0.50000000  -0.00000000  1
  Nd  Nd1  1  0.50000000  0.00000000  -0.00000000  1
  Nd  Nd2  1  0.00000000  0.00000000  0.50000000  1
  Nd  Nd3  1  0.00000000  0.00000000  -0.00000000  1
  Ti  Ti4  1  0.50000000  0.00000000  0.50000000  1
  Ti  Ti5  1  0.50000000  0.50000000  0.50000000  1
  Sb  Sb6  1  0.00000000  0.50000000  -0.00000000  1
  Sb  Sb7  1  0.00000000  0.50000000  0.50000000  1
  O  O8  1  0.63876425  0.82215108  0.43061788  1
  O  O9  1  0.84803808  0.41862316  0.82598096  1
  O  O10  1  0.25332238  0.82849439  0.82242591  1
  O  O11  1  0.24220049  0.42232487  0.43903190  1
  O  O12  1  0.24220049  0.42232487  0.81876760  1
  O  O13  1  0.25332238  0.82849439  0.42425171  1
  O  O14  1  0.36123575  0.17784892  0.56938212  1
  O  O15  1  0.15196192  0.58137684  0.17401904  1
  O  O16  1  0.74667762  0.17150561  0.17757409  1
  O  O17  1  0.75779951  0.57767513  0.56096810  1
  O  O18  1  0.75779951  0.57767513  0.18123240  1
  O  O19  1  0.74667762  0.17150561  0.57574829  1
  O  O20  1  0.24423046  0.11872804  0.12788477  1
  O  O21  1  0.75576954  0.88127196  0.87211523  1
