# generated using pymatgen
data_Na3LiFe4(SiO3)8
_symmetry_space_group_name_H-M   'P 1'
_cell_length_a   5.36360267
_cell_length_b   9.59558407
_cell_length_c   8.86536063
_cell_angle_alpha   90.00000000
_cell_angle_beta   90.00000000
_cell_angle_gamma   103.89152618
_symmetry_Int_Tables_number   1
_chemical_formula_structural   Na3LiFe4(SiO3)8
_chemical_formula_sum   'Na3 Li1 Fe4 Si8 O24'
_cell_volume   442.92756994
_cell_formula_units_Z   1
loop_
 _symmetry_equiv_pos_site_id
 _symmetry_equiv_pos_as_xyz
  1  'x, y, z'
loop_
 _atom_site_type_symbol
 _atom_site_label
 _atom_site_symmetry_multiplicity
 _atom_site_fract_x
 _atom_site_fract_y
 _atom_site_fract_z
 _atom_site_occupancy
  Na  Na0  1  0.75000000  0.00000000  0.29669838  1
  Na  Na1  1  0.75000000  0.50000000  0.20327390  1
  Na  Na2  1  0.25000000  0.00000000  0.70360657  1
  Li  Li3  1  0.25000000  0.50000000  0.78185132  1
  Fe  Fe4  1  0.25000000  0.50000000  0.40006462  1
  Fe  Fe5  1  0.75000000  0.00000000  0.90017097  1
  Fe  Fe6  1  0.75000000  0.50000000  0.60280380  1
  Fe  Fe7  1  0.25000000  0.00000000  0.09987891  1
  Si  Si8  1  0.44897349  0.70759192  0.08799001  1
  Si  Si9  1  0.94941166  0.20992038  0.59079939  1
  Si  Si10  1  0.05102651  0.29240808  0.08799001  1
  Si  Si11  1  0.55058834  0.79007962  0.59079939  1
  Si  Si12  1  0.54849856  0.29321893  0.91025056  1
  Si  Si13  1  0.05205653  0.79042287  0.41083742  1
  Si  Si14  1  0.95150144  0.70678107  0.91025056  1
  Si  Si15  1  0.44794347  0.20957713  0.41083742  1
  O  O16  1  0.67064653  0.64751093  0.99423267  1
  O  O17  1  0.16717706  0.14837779  0.49477814  1
  O  O18  1  0.82935347  0.35248907  0.99423267  1
  O  O19  1  0.33282294  0.85162221  0.49477814  1
  O  O20  1  0.32854433  0.35546518  0.00250196  1
  O  O21  1  0.83097424  0.85009384  0.50590430  1
  O  O22  1  0.17145567  0.64453482  0.00250196  1
  O  O23  1  0.66902576  0.14990616  0.50590430  1
  O  O24  1  0.44196017  0.64004567  0.25548903  1
  O  O25  1  0.94152440  0.13907442  0.75617905  1
  O  O26  1  0.05803983  0.35995433  0.25548903  1
  O  O27  1  0.55847560  0.86092558  0.75617905  1
  O  O28  1  0.54622771  0.36453343  0.74532459  1
  O  O29  1  0.05775594  0.85987578  0.24455543  1
  O  O30  1  0.95377229  0.63546657  0.74532459  1
  O  O31  1  0.44224406  0.14012422  0.24455543  1
  O  O32  1  0.52378489  0.88459173  0.07822558  1
  O  O33  1  0.02967579  0.38678993  0.58604028  1
  O  O34  1  0.97621511  0.11540827  0.07822558  1
  O  O35  1  0.47032421  0.61321007  0.58604028  1
  O  O36  1  0.47471926  0.11627830  0.92095448  1
  O  O37  1  0.97480827  0.61402223  0.42176287  1
  O  O38  1  0.02528074  0.88372170  0.92095448  1
  O  O39  1  0.52519173  0.38597777  0.42176287  1
