# generated using pymatgen
data_Li4VFe3(PO4)4
_symmetry_space_group_name_H-M   'P 1'
_cell_length_a   4.75207962
_cell_length_b   6.11067095
_cell_length_c   10.46342183
_cell_angle_alpha   90.00000000
_cell_angle_beta   89.92693663
_cell_angle_gamma   90.00000000
_symmetry_Int_Tables_number   1
_chemical_formula_structural   Li4VFe3(PO4)4
_chemical_formula_sum   'Li4 V1 Fe3 P4 O16'
_cell_volume   303.84072786
_cell_formula_units_Z   1
loop_
 _symmetry_equiv_pos_site_id
 _symmetry_equiv_pos_as_xyz
  1  'x, y, z'
loop_
 _atom_site_type_symbol
 _atom_site_label
 _atom_site_symmetry_multiplicity
 _atom_site_fract_x
 _atom_site_fract_y
 _atom_site_fract_z
 _atom_site_occupancy
  Li  Li0  1  0.49984269  0.00071149  0.50039280  1
  Li  Li1  1  0.00049957  0.49987810  0.00020292  1
  Li  Li2  1  0.49984269  0.49928851  0.50039280  1
  Li  Li3  1  0.00049957  0.00012190  0.00020292  1
  V  V4  1  0.48277573  0.75000000  0.22231474  1
  Fe  Fe5  1  0.02519450  0.75000000  0.71901671  1
  Fe  Fe6  1  0.52494753  0.25000000  0.78210569  1
  Fe  Fe7  1  0.97652931  0.25000000  0.28045805  1
  P  P8  1  0.91855585  0.75000000  0.40580373  1
  P  P9  1  0.58193873  0.75000000  0.90526751  1
  P  P10  1  0.08185730  0.25000000  0.59463010  1
  P  P11  1  0.41611164  0.25000000  0.09408597  1
  O  O12  1  0.78524805  0.95273759  0.33474373  1
  O  O13  1  0.71548051  0.54757768  0.83450148  1
  O  O14  1  0.21518974  0.45266157  0.66495307  1
  O  O15  1  0.27972609  0.04865030  0.16413310  1
  O  O16  1  0.21518974  0.04733843  0.66495307  1
  O  O17  1  0.27972609  0.45134970  0.16413310  1
  O  O18  1  0.78524805  0.54726241  0.33474373  1
  O  O19  1  0.71548051  0.95242232  0.83450148  1
  O  O20  1  0.24151115  0.75000000  0.40359479  1
  O  O21  1  0.25866610  0.75000000  0.90290643  1
  O  O22  1  0.75836706  0.25000000  0.59672713  1
  O  O23  1  0.73988554  0.25000000  0.09693449  1
  O  O24  1  0.70725594  0.75000000  0.04251140  1
  O  O25  1  0.79360550  0.75000000  0.54282421  1
  O  O26  1  0.29449254  0.25000000  0.95604831  1
  O  O27  1  0.20633228  0.25000000  0.45691657  1
