# generated using pymatgen
data_Na2FeSn(PO4)3
_symmetry_space_group_name_H-M   'P 1'
_cell_length_a   8.81563625
_cell_length_b   8.81563625
_cell_length_c   8.95572762
_cell_angle_alpha   60.48436678
_cell_angle_beta   60.48436678
_cell_angle_gamma   59.94796237
_symmetry_Int_Tables_number   1
_chemical_formula_structural   Na2FeSn(PO4)3
_chemical_formula_sum   'Na4 Fe2 Sn2 P6 O24'
_cell_volume   495.51947119
_cell_formula_units_Z   2
loop_
 _symmetry_equiv_pos_site_id
 _symmetry_equiv_pos_as_xyz
  1  'x, y, z'
loop_
 _atom_site_type_symbol
 _atom_site_label
 _atom_site_symmetry_multiplicity
 _atom_site_fract_x
 _atom_site_fract_y
 _atom_site_fract_z
 _atom_site_occupancy
  Na  Na0  1  0.61702620  0.25236017  0.24926182  1
  Na  Na1  1  0.24763983  0.88297380  0.25073818  1
  Na  Na2  1  0.51810673  0.50380044  0.49447904  1
  Na  Na3  1  0.99619956  0.98189327  0.00552096  1
  Fe  Fe4  1  0.65598227  0.65111148  0.04870201  1
  Fe  Fe5  1  0.84888852  0.84401773  0.45129799  1
  Sn  Sn6  1  0.14166179  0.14664001  0.56795344  1
  Sn  Sn7  1  0.35335999  0.35833821  0.93204656  1
  P  P8  1  0.45788186  0.04211814  0.75000000  1
  P  P9  1  0.04441001  0.75200444  0.74278220  1
  P  P10  1  0.74799556  0.45558999  0.75721780  1
  P  P11  1  0.95336735  0.25155751  0.25090090  1
  P  P12  1  0.24844249  0.54663265  0.24909910  1
  P  P13  1  0.54537641  0.95462359  0.25000000  1
  O  O14  1  0.48814445  0.88307519  0.92527734  1
  O  O15  1  0.88211914  0.70680721  0.91175852  1
  O  O16  1  0.69913784  0.48034455  0.93597088  1
  O  O17  1  0.97978814  0.22083867  0.42299549  1
  O  O18  1  0.22860480  0.37115054  0.41764417  1
  O  O19  1  0.36964641  0.98209581  0.41903226  1
  O  O20  1  0.51790419  0.13035359  0.08096774  1
  O  O21  1  0.12884946  0.27139520  0.08235583  1
  O  O22  1  0.27916133  0.52021186  0.07700451  1
  O  O23  1  0.01965545  0.80086216  0.56402912  1
  O  O24  1  0.79319279  0.61788086  0.58824148  1
  O  O25  1  0.61692481  0.01185555  0.57472266  1
  O  O26  1  0.56410895  0.78030746  0.23277829  1
  O  O27  1  0.77375453  0.41854650  0.23470333  1
  O  O28  1  0.41839234  0.56914048  0.23738574  1
  O  O29  1  0.06288172  0.91670430  0.74674957  1
  O  O30  1  0.91575058  0.27100373  0.75296049  1
  O  O31  1  0.27237555  0.06142861  0.74932779  1
  O  O32  1  0.43857139  0.22762445  0.75067221  1
  O  O33  1  0.22899627  0.58424942  0.74703951  1
  O  O34  1  0.58329570  0.43711828  0.75325043  1
  O  O35  1  0.93085952  0.08160766  0.26261426  1
  O  O36  1  0.08145350  0.72624547  0.26529667  1
  O  O37  1  0.71969254  0.93589105  0.26722171  1
