# generated using pymatgen
data_Na3Sc2(PO4)3
_symmetry_space_group_name_H-M   'P 1'
_cell_length_a   8.99336653
_cell_length_b   8.99336653
_cell_length_c   9.18382155
_cell_angle_alpha   61.65719178
_cell_angle_beta   61.65719178
_cell_angle_gamma   59.99731026
_symmetry_Int_Tables_number   1
_chemical_formula_structural   Na3Sc2(PO4)3
_chemical_formula_sum   'Na6 Sc4 P6 O24'
_cell_volume   537.99677910
_cell_formula_units_Z   2
loop_
 _symmetry_equiv_pos_site_id
 _symmetry_equiv_pos_as_xyz
  1  'x, y, z'
loop_
 _atom_site_type_symbol
 _atom_site_label
 _atom_site_symmetry_multiplicity
 _atom_site_fract_x
 _atom_site_fract_y
 _atom_site_fract_z
 _atom_site_occupancy
  Na  Na0  1  0.89333091  0.10713874  0.74964111  1
  Na  Na1  1  0.10713874  0.89333091  0.24964111  1
  Na  Na2  1  0.19878097  0.44073573  0.58807883  1
  Na  Na3  1  0.44073573  0.19878097  0.08807883  1
  Na  Na4  1  0.84083755  0.54158562  0.44214735  1
  Na  Na5  1  0.54158562  0.84083755  0.94214735  1
  Sc  Sc6  1  0.84746144  0.35459782  0.94675657  1
  Sc  Sc7  1  0.35459782  0.84746144  0.44675657  1
  Sc  Sc8  1  0.15167780  0.64977609  0.05159412  1
  Sc  Sc9  1  0.64977609  0.15167780  0.55159412  1
  P  P10  1  0.96907339  0.74896792  0.73857810  1
  P  P11  1  0.74896792  0.96907339  0.23857810  1
  P  P12  1  0.54594595  0.45502648  0.74805978  1
  P  P13  1  0.45502648  0.54594595  0.24805978  1
  P  P14  1  0.03175126  0.25189267  0.26121781  1
  P  P15  1  0.25189267  0.03175126  0.76121781  1
  O  O16  1  0.01553740  0.75026590  0.87954709  1
  O  O17  1  0.75026590  0.01553740  0.37954709  1
  O  O18  1  0.93932756  0.57284764  0.78974741  1
  O  O19  1  0.57284764  0.93932756  0.28974741  1
  O  O20  1  0.27353036  0.56671181  0.24550617  1
  O  O21  1  0.56671181  0.27353036  0.74550617  1
  O  O22  1  0.51595956  0.61102066  0.58001992  1
  O  O23  1  0.61102066  0.51595956  0.08001992  1
  O  O24  1  0.98192645  0.25273971  0.12130583  1
  O  O25  1  0.25273971  0.98192645  0.62130583  1
  O  O26  1  0.20747970  0.08375629  0.27964945  1
  O  O27  1  0.08375629  0.20747970  0.77964945  1
  O  O28  1  0.72773975  0.42844434  0.75562172  1
  O  O29  1  0.42844434  0.72773975  0.25562172  1
  O  O30  1  0.87663871  0.23894871  0.43777140  1
  O  O31  1  0.23894871  0.87663871  0.93777140  1
  O  O32  1  0.79241161  0.91466585  0.72011099  1
  O  O33  1  0.91466585  0.79241161  0.22011099  1
  O  O34  1  0.06949455  0.42388369  0.20805299  1
  O  O35  1  0.42388369  0.06949455  0.70805299  1
  O  O36  1  0.12563241  0.76303670  0.56306874  1
  O  O37  1  0.76303670  0.12563241  0.06306874  1
  O  O38  1  0.49452629  0.38749398  0.41162462  1
  O  O39  1  0.38749398  0.49452629  0.91162462  1
