# generated using pymatgen
data_Y2Mg
_symmetry_space_group_name_H-M   'P 1'
_cell_length_a   12.69313041
_cell_length_b   3.52090757
_cell_length_c   8.28475259
_cell_angle_alpha   90.00000000
_cell_angle_beta   105.89956123
_cell_angle_gamma   90.00000000
_symmetry_Int_Tables_number   1
_chemical_formula_structural   Y2Mg
_chemical_formula_sum   'Y8 Mg4'
_cell_volume   356.09192672
_cell_formula_units_Z   4
loop_
 _symmetry_equiv_pos_site_id
 _symmetry_equiv_pos_as_xyz
  1  'x, y, z'
loop_
 _atom_site_type_symbol
 _atom_site_label
 _atom_site_symmetry_multiplicity
 _atom_site_fract_x
 _atom_site_fract_y
 _atom_site_fract_z
 _atom_site_occupancy
  Y  Y0  1  0.98932967  0.00000000  0.01552741  1
  Y  Y1  1  0.17698287  0.50000000  0.33397920  1
  Y  Y2  1  0.34197833  0.00000000  0.66883655  1
  Y  Y3  1  0.20905428  0.50000000  0.93107349  1
  Y  Y4  1  0.48932967  0.50000000  0.01552741  1
  Y  Y5  1  0.67698287  0.00000000  0.33397920  1
  Y  Y6  1  0.84197833  0.50000000  0.66883655  1
  Y  Y7  1  0.70905428  0.00000000  0.93107349  1
  Mg  Mg8  1  0.39129724  0.00000000  0.28541813  1
  Mg  Mg9  1  0.05802461  0.00000000  0.59849822  1
  Mg  Mg10  1  0.89129724  0.50000000  0.28541813  1
  Mg  Mg11  1  0.55802461  0.50000000  0.59849822  1
