# generated using pymatgen
data_Na2MoAs2O9
_symmetry_space_group_name_H-M   'P 1'
_cell_length_a   7.22972062
_cell_length_b   9.97370557
_cell_length_c   12.32348618
_cell_angle_alpha   90.00000000
_cell_angle_beta   90.00000000
_cell_angle_gamma   100.74644746
_symmetry_Int_Tables_number   1
_chemical_formula_structural   Na2MoAs2O9
_chemical_formula_sum   'Na8 Mo4 As8 O36'
_cell_volume   873.02641694
_cell_formula_units_Z   4
loop_
 _symmetry_equiv_pos_site_id
 _symmetry_equiv_pos_as_xyz
  1  'x, y, z'
loop_
 _atom_site_type_symbol
 _atom_site_label
 _atom_site_symmetry_multiplicity
 _atom_site_fract_x
 _atom_site_fract_y
 _atom_site_fract_z
 _atom_site_occupancy
  Na  Na0  1  0.63175363  0.63197807  0.59274829  1
  Na  Na1  1  0.36824637  0.86802193  0.09274829  1
  Na  Na2  1  0.36570648  0.36642504  0.40738325  1
  Na  Na3  1  0.63429352  0.13357496  0.90738325  1
  Na  Na4  1  0.49587492  0.00730291  0.48812845  1
  Na  Na5  1  0.50412508  0.49269709  0.98812845  1
  Na  Na6  1  0.96869697  0.97548132  0.50214097  1
  Na  Na7  1  0.03130303  0.52451868  0.00214097  1
  Mo  Mo8  1  0.85853497  0.45637891  0.31983782  1
  Mo  Mo9  1  0.14146503  0.04362109  0.81983782  1
  Mo  Mo10  1  0.14092838  0.54277003  0.67944549  1
  Mo  Mo11  1  0.85907162  0.95722997  0.17944549  1
  As  As12  1  0.57962776  0.71320974  0.33178404  1
  As  As13  1  0.42037224  0.78679026  0.83178404  1
  As  As14  1  0.42178127  0.28673720  0.66761324  1
  As  As15  1  0.57821873  0.21326280  0.16761324  1
  As  As16  1  0.18986746  0.70451572  0.42827432  1
  As  As17  1  0.81013254  0.79548428  0.92827432  1
  As  As18  1  0.80998472  0.29434580  0.57155106  1
  As  As19  1  0.19001528  0.20565420  0.07155106  1
  O  O20  1  0.65842821  0.78897179  0.20926338  1
  O  O21  1  0.34157179  0.71102821  0.70926338  1
  O  O22  1  0.34182197  0.21157648  0.79048252  1
  O  O23  1  0.65817803  0.28842352  0.29048252  1
  O  O24  1  0.26617525  0.58917109  0.51249913  1
  O  O25  1  0.73382475  0.91082891  0.01249913  1
  O  O26  1  0.73483768  0.41049281  0.48760580  1
  O  O27  1  0.26516232  0.08950719  0.98760580  1
  O  O28  1  0.60028407  0.54540796  0.32897944  1
  O  O29  1  0.39971593  0.95459204  0.82897944  1
  O  O30  1  0.39999033  0.45448780  0.67209533  1
  O  O31  1  0.60000967  0.04551220  0.17209533  1
  O  O32  1  0.90313881  0.49802927  0.18495726  1
  O  O33  1  0.09686119  0.00197073  0.68495726  1
  O  O34  1  0.09878860  0.50320714  0.81486662  1
  O  O35  1  0.90121140  0.99679286  0.31486662  1
  O  O36  1  0.63777304  0.79955100  0.44800427  1
  O  O37  1  0.36222696  0.70044900  0.94800427  1
  O  O38  1  0.36474785  0.20240067  0.55108431  1
  O  O39  1  0.63525215  0.29759933  0.05108431  1
  O  O40  1  0.04674409  0.37963985  0.35685318  1
  O  O41  1  0.95325591  0.12036015  0.85685318  1
  O  O42  1  0.95357714  0.62104700  0.64286345  1
  O  O43  1  0.04642286  0.87895300  0.14286345  1
  O  O44  1  0.20856659  0.86572330  0.46856518  1
  O  O45  1  0.79143341  0.63427670  0.96856518  1
  O  O46  1  0.78792945  0.13321923  0.53076371  1
  O  O47  1  0.21207055  0.36678077  0.03076371  1
  O  O48  1  0.33150123  0.70328326  0.30711632  1
  O  O49  1  0.66849877  0.79671674  0.80711632  1
  O  O50  1  0.66983926  0.29731202  0.69321228  1
  O  O51  1  0.33016074  0.20268798  0.19321228  1
  O  O52  1  0.96447368  0.64314341  0.37955649  1
  O  O53  1  0.03552632  0.85685659  0.87955649  1
  O  O54  1  0.03513494  0.35657977  0.62052441  1
  O  O55  1  0.96486506  0.14342023  0.12052441  1
