# generated using pymatgen
data_Mn4CoNi3Ge4
_symmetry_space_group_name_H-M   'P 1'
_cell_length_a   3.69018269
_cell_length_b   5.95375675
_cell_length_c   7.09694670
_cell_angle_alpha   90.22284893
_cell_angle_beta   90.00000000
_cell_angle_gamma   90.00000000
_symmetry_Int_Tables_number   1
_chemical_formula_structural   Mn4CoNi3Ge4
_chemical_formula_sum   'Mn4 Co1 Ni3 Ge4'
_cell_volume   155.92193404
_cell_formula_units_Z   1
loop_
 _symmetry_equiv_pos_site_id
 _symmetry_equiv_pos_as_xyz
  1  'x, y, z'
loop_
 _atom_site_type_symbol
 _atom_site_label
 _atom_site_symmetry_multiplicity
 _atom_site_fract_x
 _atom_site_fract_y
 _atom_site_fract_z
 _atom_site_occupancy
  Mn  Mn0  1  0.75000000  0.46742410  0.68020886  1
  Mn  Mn1  1  0.75000000  0.96731783  0.82215836  1
  Mn  Mn2  1  0.25000000  0.53154035  0.32004131  1
  Mn  Mn3  1  0.25000000  0.03355233  0.17838917  1
  Co  Co4  1  0.75000000  0.35268090  0.05736514  1
  Ni  Ni5  1  0.75000000  0.85517759  0.44173700  1
  Ni  Ni6  1  0.25000000  0.64771184  0.94095108  1
  Ni  Ni7  1  0.25000000  0.14666624  0.55875659  1
  Ge  Ge8  1  0.75000000  0.74162461  0.12671846  1
  Ge  Ge9  1  0.75000000  0.24638001  0.37167002  1
  Ge  Ge10  1  0.25000000  0.25553504  0.87617173  1
  Ge  Ge11  1  0.25000000  0.75438916  0.62583227  1
