# generated using pymatgen
data_MnCr2(SeS)2
_symmetry_space_group_name_H-M   'P 1'
_cell_length_a   7.35774392
_cell_length_b   7.35774392
_cell_length_c   7.35774392
_cell_angle_alpha   90.00000000
_cell_angle_beta   60.00000000
_cell_angle_gamma   120.00000000
_symmetry_Int_Tables_number   1
_chemical_formula_structural   MnCr2(SeS)2
_chemical_formula_sum   'Mn2 Cr4 Se4 S4'
_cell_volume   281.65600027
_cell_formula_units_Z   2
loop_
 _symmetry_equiv_pos_site_id
 _symmetry_equiv_pos_as_xyz
  1  'x, y, z'
loop_
 _atom_site_type_symbol
 _atom_site_label
 _atom_site_symmetry_multiplicity
 _atom_site_fract_x
 _atom_site_fract_y
 _atom_site_fract_z
 _atom_site_occupancy
  Mn  Mn0  1  0.75000000  0.37500000  0.37500000  1
  Mn  Mn1  1  0.25000000  0.62500000  0.62500000  1
  Cr  Cr2  1  0.49096361  0.48644542  0.00451819  1
  Cr  Cr3  1  0.49096361  0.00451819  0.00451819  1
  Cr  Cr4  1  0.00903639  0.00451819  0.48644542  1
  Cr  Cr5  1  0.00903639  0.00451819  0.00451819  1
  Se  Se6  1  0.97958854  0.21938281  0.76020573  1
  Se  Se7  1  0.97958854  0.76020573  0.76020573  1
  Se  Se8  1  0.52041146  0.76020573  0.21938281  1
  Se  Se9  1  0.52041146  0.76020573  0.76020573  1
  S  S10  1  0.02231718  0.78347577  0.23884141  1
  S  S11  1  0.02231718  0.23884141  0.23884141  1
  S  S12  1  0.47768282  0.23884141  0.78347577  1
  S  S13  1  0.47768282  0.23884141  0.23884141  1
