# generated using pymatgen
data_Mn4FeGe3
_symmetry_space_group_name_H-M   'P 1'
_cell_length_a   4.93423676
_cell_length_b   7.13042082
_cell_length_c   7.12226242
_cell_angle_alpha   120.03790114
_cell_angle_beta   89.96652446
_cell_angle_gamma   90.06687458
_symmetry_Int_Tables_number   1
_chemical_formula_structural   Mn4FeGe3
_chemical_formula_sum   'Mn8 Fe2 Ge6'
_cell_volume   216.92892379
_cell_formula_units_Z   2
loop_
 _symmetry_equiv_pos_site_id
 _symmetry_equiv_pos_as_xyz
  1  'x, y, z'
loop_
 _atom_site_type_symbol
 _atom_site_label
 _atom_site_symmetry_multiplicity
 _atom_site_fract_x
 _atom_site_fract_y
 _atom_site_fract_z
 _atom_site_occupancy
  Mn  Mn0  1  0.00006402  0.66682370  0.33365875  1
  Mn  Mn1  1  0.00006402  0.33316495  0.66634125  1
  Mn  Mn2  1  0.75399148  0.24550067  -0.00000000  1
  Mn  Mn3  1  0.75397620  0.75646612  0.75636577  1
  Mn  Mn4  1  0.75397620  0.00010034  0.24363423  1
  Mn  Mn5  1  0.24597605  0.75449824  0.00000000  1
  Mn  Mn6  1  0.24600892  0.24354876  0.24368510  1
  Mn  Mn7  1  0.24600892  0.99986366  0.75631490  1
  Fe  Fe8  1  0.49995393  0.33307162  0.66613684  1
  Fe  Fe9  1  0.49995393  0.66693478  0.33386316  1
  Ge  Ge10  1  0.74459020  0.60654768  -0.00000000  1
  Ge  Ge11  1  0.74457476  0.39371806  0.39379489  1
  Ge  Ge12  1  0.74457476  0.99992317  0.60620511  1
  Ge  Ge13  1  0.25539500  0.39348591  0.00000000  1
  Ge  Ge14  1  0.25544580  0.60623535  0.60611835  1
  Ge  Ge15  1  0.25544580  0.00011700  0.39388165  1
