# generated using pymatgen
data_Li3AsO4
_symmetry_space_group_name_H-M   'P 1'
_cell_length_a   5.14428552
_cell_length_b   6.35647331
_cell_length_c   10.99053250
_cell_angle_alpha   90.00000000
_cell_angle_beta   90.00000000
_cell_angle_gamma   90.00000000
_symmetry_Int_Tables_number   1
_chemical_formula_structural   Li3AsO4
_chemical_formula_sum   'Li12 As4 O16'
_cell_volume   359.38506703
_cell_formula_units_Z   4
loop_
 _symmetry_equiv_pos_site_id
 _symmetry_equiv_pos_as_xyz
  1  'x, y, z'
loop_
 _atom_site_type_symbol
 _atom_site_label
 _atom_site_symmetry_multiplicity
 _atom_site_fract_x
 _atom_site_fract_y
 _atom_site_fract_z
 _atom_site_occupancy
  Li  Li0  1  0.80744471  0.49711056  0.33388769  1
  Li  Li1  1  0.69255529  0.00288944  0.83388769  1
  Li  Li2  1  0.19255529  0.99711056  0.66611231  1
  Li  Li3  1  0.30744471  0.50288944  0.16611231  1
  Li  Li4  1  0.19255529  0.50288944  0.66611231  1
  Li  Li5  1  0.30744471  0.99711056  0.16611231  1
  Li  Li6  1  0.80744471  0.00288944  0.33388769  1
  Li  Li7  1  0.69255529  0.49711056  0.83388769  1
  Li  Li8  1  0.69102998  0.25000000  0.07586077  1
  Li  Li9  1  0.80897002  0.25000000  0.57586077  1
  Li  Li10  1  0.30897002  0.75000000  0.92413923  1
  Li  Li11  1  0.19102998  0.75000000  0.42413923  1
  As  As12  1  0.81286510  0.75000000  0.08640113  1
  As  As13  1  0.68713490  0.75000000  0.58640113  1
  As  As14  1  0.18713490  0.25000000  0.91359887  1
  As  As15  1  0.31286510  0.25000000  0.41359887  1
  O  O16  1  0.79552450  0.75000000  0.43873589  1
  O  O17  1  0.70447550  0.75000000  0.93873589  1
  O  O18  1  0.20447550  0.25000000  0.56126411  1
  O  O19  1  0.29552450  0.25000000  0.06126411  1
  O  O20  1  0.70193348  0.97049960  0.16159172  1
  O  O21  1  0.79806652  0.52950040  0.66159172  1
  O  O22  1  0.29806652  0.47049960  0.83840828  1
  O  O23  1  0.20193348  0.02950040  0.33840828  1
  O  O24  1  0.29806652  0.02950040  0.83840828  1
  O  O25  1  0.20193348  0.47049960  0.33840828  1
  O  O26  1  0.70193348  0.52950040  0.16159172  1
  O  O27  1  0.79806652  0.97049960  0.66159172  1
  O  O28  1  0.64864174  0.25000000  0.41255488  1
  O  O29  1  0.85135826  0.25000000  0.91255488  1
  O  O30  1  0.35135826  0.75000000  0.58744512  1
  O  O31  1  0.14864174  0.75000000  0.08744512  1
