# generated using pymatgen
data_LaSmCr2O6
_symmetry_space_group_name_H-M   'P 1'
_cell_length_a   5.50144733
_cell_length_b   5.58657001
_cell_length_c   7.83052029
_cell_angle_alpha   90.00000000
_cell_angle_beta   90.00000000
_cell_angle_gamma   90.00000000
_symmetry_Int_Tables_number   1
_chemical_formula_structural   LaSmCr2O6
_chemical_formula_sum   'La2 Sm2 Cr4 O12'
_cell_volume   240.66493852
_cell_formula_units_Z   2
loop_
 _symmetry_equiv_pos_site_id
 _symmetry_equiv_pos_as_xyz
  1  'x, y, z'
loop_
 _atom_site_type_symbol
 _atom_site_label
 _atom_site_symmetry_multiplicity
 _atom_site_fract_x
 _atom_site_fract_y
 _atom_site_fract_z
 _atom_site_occupancy
  La  La0  1  0.49168435  0.46218777  0.75000000  1
  La  La1  1  0.00831565  0.96218777  0.75000000  1
  Sm  Sm2  1  0.51070258  0.55105918  0.25000000  1
  Sm  Sm3  1  0.98929742  0.05105918  0.25000000  1
  Cr  Cr4  1  0.00105415  0.50080280  0.00405401  1
  Cr  Cr5  1  0.49894585  0.00080280  0.49594599  1
  Cr  Cr6  1  0.00105415  0.50080280  0.49594599  1
  Cr  Cr7  1  0.49894585  0.00080280  0.00405401  1
  O  O8  1  0.79285000  0.79265864  0.05330562  1
  O  O9  1  0.70715000  0.29265864  0.44669438  1
  O  O10  1  0.20458492  0.20547561  0.54018087  1
  O  O11  1  0.29541508  0.70547561  0.95981913  1
  O  O12  1  0.20458492  0.20547561  0.95981913  1
  O  O13  1  0.29541508  0.70547561  0.54018087  1
  O  O14  1  0.79285000  0.79265864  0.44669438  1
  O  O15  1  0.70715000  0.29265864  0.05330562  1
  O  O16  1  0.40504525  0.97115308  0.25000000  1
  O  O17  1  0.09495475  0.47115308  0.25000000  1
  O  O18  1  0.57923050  0.01772588  0.75000000  1
  O  O19  1  0.92076950  0.51772588  0.75000000  1
