# generated using pymatgen
data_La8(BiPb)3
_symmetry_space_group_name_H-M   'P 1'
_cell_length_a   8.57021634
_cell_length_b   8.57021634
_cell_length_c   8.57466913
_cell_angle_alpha   70.80223216
_cell_angle_beta   70.29690867
_cell_angle_gamma   109.49217228
_symmetry_Int_Tables_number   1
_chemical_formula_structural   La8(BiPb)3
_chemical_formula_sum   'La8 Bi3 Pb3'
_cell_volume   484.93461440
_cell_formula_units_Z   1
loop_
 _symmetry_equiv_pos_site_id
 _symmetry_equiv_pos_as_xyz
  1  'x, y, z'
loop_
 _atom_site_type_symbol
 _atom_site_label
 _atom_site_symmetry_multiplicity
 _atom_site_fract_x
 _atom_site_fract_y
 _atom_site_fract_z
 _atom_site_occupancy
  La  La0  1  0.85570019  0.35397775  0.14567330  1
  La  La1  1  0.50018707  0.14384472  0.99874651  1
  La  La2  1  0.64259123  0.49893358  0.50125349  1
  La  La3  1  0.99965105  0.00137350  0.35432670  1
  La  La4  1  0.50028430  0.64557855  0.99905795  1
  La  La5  1  0.35745206  0.85594873  0.64288801  1
  La  La6  1  0.14463650  0.49934225  0.50094205  1
  La  La7  1  0.99883673  0.00034007  0.85711199  1
  Bi  Bi8  1  0.37529181  0.25002403  0.37458710  1
  Bi  Bi9  1  0.12461112  0.74987890  0.12541290  1
  Bi  Bi10  1  0.87599643  0.62599643  0.75000000  1
  Pb  Pb11  1  0.62414754  0.87414754  0.25000000  1
  Pb  Pb12  1  0.75040322  0.12566116  0.62454957  1
  Pb  Pb13  1  0.25021074  0.37495279  0.87545043  1
