# generated using pymatgen
data_Mg2Sn
_symmetry_space_group_name_H-M   'P 1'
_cell_length_a   11.62017658
_cell_length_b   3.31470460
_cell_length_c   7.79145081
_cell_angle_alpha   90.00000000
_cell_angle_beta   108.17608945
_cell_angle_gamma   90.00000000
_symmetry_Int_Tables_number   1
_chemical_formula_structural   Mg2Sn
_chemical_formula_sum   'Mg8 Sn4'
_cell_volume   285.13220102
_cell_formula_units_Z   4
loop_
 _symmetry_equiv_pos_site_id
 _symmetry_equiv_pos_as_xyz
  1  'x, y, z'
loop_
 _atom_site_type_symbol
 _atom_site_label
 _atom_site_symmetry_multiplicity
 _atom_site_fract_x
 _atom_site_fract_y
 _atom_site_fract_z
 _atom_site_occupancy
  Mg  Mg0  1  0.18611805  0.00000000  0.13391980  1
  Mg  Mg1  1  0.35785720  0.50000000  0.47493286  1
  Mg  Mg2  1  0.14214280  0.00000000  0.52506714  1
  Mg  Mg3  1  0.31388195  0.50000000  0.86608020  1
  Mg  Mg4  1  0.68611805  0.50000000  0.13391980  1
  Mg  Mg5  1  0.85785720  -0.00000000  0.47493286  1
  Mg  Mg6  1  0.64214280  0.50000000  0.52506714  1
  Mg  Mg7  1  0.81388195  0.00000000  0.86608020  1
  Sn  Sn8  1  0.46381527  -0.00000000  0.20093253  1
  Sn  Sn9  1  0.03618473  0.50000000  0.79906747  1
  Sn  Sn10  1  0.96381527  0.50000000  0.20093253  1
  Sn  Sn11  1  0.53618473  -0.00000000  0.79906747  1
