# generated using pymatgen
data_Li2Ti2AsPO10
_symmetry_space_group_name_H-M   'P 1'
_cell_length_a   6.54531730
_cell_length_b   7.45893192
_cell_length_c   7.58590918
_cell_angle_alpha   90.00000000
_cell_angle_beta   90.00000000
_cell_angle_gamma   90.00000000
_symmetry_Int_Tables_number   1
_chemical_formula_structural   Li2Ti2AsPO10
_chemical_formula_sum   'Li4 Ti4 As2 P2 O20'
_cell_volume   370.35224963
_cell_formula_units_Z   2
loop_
 _symmetry_equiv_pos_site_id
 _symmetry_equiv_pos_as_xyz
  1  'x, y, z'
loop_
 _atom_site_type_symbol
 _atom_site_label
 _atom_site_symmetry_multiplicity
 _atom_site_fract_x
 _atom_site_fract_y
 _atom_site_fract_z
 _atom_site_occupancy
  Li  Li0  1  0.99061599  0.51020271  0.49767362  1
  Li  Li1  1  0.50938401  0.98979729  0.99767362  1
  Li  Li2  1  0.50938401  0.51020271  0.49767362  1
  Li  Li3  1  0.99061599  0.98979729  0.99767362  1
  Ti  Ti4  1  0.75000000  0.28006062  0.83221608  1
  Ti  Ti5  1  0.75000000  0.21993938  0.33221608  1
  Ti  Ti6  1  0.25000000  0.71985787  0.16533535  1
  Ti  Ti7  1  0.25000000  0.78014213  0.66533535  1
  As  As8  1  0.25000000  0.36930110  0.87281505  1
  As  As9  1  0.25000000  0.13069890  0.37281505  1
  P  P10  1  0.75000000  0.62206907  0.12602223  1
  P  P11  1  0.75000000  0.87793093  0.62602223  1
  O  O12  1  0.75000000  0.35622073  0.61787323  1
  O  O13  1  0.75000000  0.14377927  0.11787323  1
  O  O14  1  0.25000000  0.66801772  0.38839527  1
  O  O15  1  0.25000000  0.83198228  0.88839527  1
  O  O16  1  0.45707889  0.26911327  0.37312868  1
  O  O17  1  0.04292111  0.23088673  0.87312868  1
  O  O18  1  0.94230332  0.75599425  0.62650186  1
  O  O19  1  0.55769668  0.74400575  0.12650186  1
  O  O20  1  0.55769668  0.75599425  0.62650186  1
  O  O21  1  0.94230332  0.74400575  0.12650186  1
  O  O22  1  0.04292111  0.26911327  0.37312868  1
  O  O23  1  0.45707889  0.23088673  0.87312868  1
  O  O24  1  0.25000000  0.01550039  0.56774407  1
  O  O25  1  0.25000000  0.48449961  0.06774407  1
  O  O26  1  0.75000000  0.99341299  0.45560519  1
  O  O27  1  0.75000000  0.50658701  0.95560519  1
  O  O28  1  0.75000000  0.49963410  0.29211401  1
  O  O29  1  0.75000000  0.00036590  0.79211401  1
  O  O30  1  0.25000000  0.50263903  0.68727119  1
  O  O31  1  0.25000000  0.99736097  0.18727119  1
