# generated using pymatgen
data_La8(BiSb)3
_symmetry_space_group_name_H-M   'P 1'
_cell_length_a   8.46983311
_cell_length_b   8.46983311
_cell_length_c   8.46327740
_cell_angle_alpha   70.61817267
_cell_angle_beta   70.45791624
_cell_angle_gamma   109.52114257
_symmetry_Int_Tables_number   1
_chemical_formula_structural   La8(BiSb)3
_chemical_formula_sum   'La8 Bi3 Sb3'
_cell_volume   467.19401674
_cell_formula_units_Z   1
loop_
 _symmetry_equiv_pos_site_id
 _symmetry_equiv_pos_as_xyz
  1  'x, y, z'
loop_
 _atom_site_type_symbol
 _atom_site_label
 _atom_site_symmetry_multiplicity
 _atom_site_fract_x
 _atom_site_fract_y
 _atom_site_fract_z
 _atom_site_occupancy
  La  La0  1  0.85901133  0.35040129  0.14429291  1
  La  La1  1  0.50373588  0.14212672  0.99749127  1
  La  La2  1  0.63961799  0.50122715  0.50250873  1
  La  La3  1  0.99469420  0.00330424  0.35570709  1
  La  La4  1  0.49851192  0.64506134  0.99761650  1
  La  La5  1  0.36468025  0.85616852  0.64075267  1
  La  La6  1  0.14267784  0.49612842  0.50238350  1
  La  La7  1  0.99692119  0.00543293  0.85924733  1
  Bi  Bi8  1  0.37520373  0.24840380  0.37448369  1
  Bi  Bi9  1  0.12288750  0.74968743  0.12551631  1
  Bi  Bi10  1  0.87710182  0.62710182  0.75000000  1
  Sb  Sb11  1  0.62323687  0.87323687  0.25000000  1
  Sb  Sb12  1  0.75034257  0.12650419  0.62487272  1
  Sb  Sb13  1  0.25137691  0.37521528  0.87512728  1
