# generated using pymatgen
data_LaNdNi10
_symmetry_space_group_name_H-M   'P 1'
_cell_length_a   3.96132962
_cell_length_b   4.96287659
_cell_length_c   8.56795166
_cell_angle_alpha   90.00000203
_cell_angle_beta   90.00000000
_cell_angle_gamma   90.00000000
_symmetry_Int_Tables_number   1
_chemical_formula_structural   LaNdNi10
_chemical_formula_sum   'La1 Nd1 Ni10'
_cell_volume   168.44241719
_cell_formula_units_Z   1
loop_
 _symmetry_equiv_pos_site_id
 _symmetry_equiv_pos_as_xyz
  1  'x, y, z'
loop_
 _atom_site_type_symbol
 _atom_site_label
 _atom_site_symmetry_multiplicity
 _atom_site_fract_x
 _atom_site_fract_y
 _atom_site_fract_z
 _atom_site_occupancy
  La  La0  1  -0.00000000  0.00001074  -0.00000000  1
  Nd  Nd1  1  0.00000000  0.49993330  0.50000000  1
  Ni  Ni2  1  -0.00000000  0.00002194  0.33357586  1
  Ni  Ni3  1  0.00000000  0.49992702  0.83276903  1
  Ni  Ni4  1  -0.00000000  0.49992702  0.16723097  1
  Ni  Ni5  1  0.00000000  0.00002194  0.66642414  1
  Ni  Ni6  1  0.50000000  0.50001362  -0.00000000  1
  Ni  Ni7  1  0.50000000  -0.00000356  0.50000000  1
  Ni  Ni8  1  0.50000000  0.25154602  0.25235620  1
  Ni  Ni9  1  0.50000000  0.74842798  0.74763992  1
  Ni  Ni10  1  0.50000000  0.74842798  0.25236008  1
  Ni  Ni11  1  0.50000000  0.25154602  0.74764380  1
