# generated using pymatgen
data_LaNi3Rh2
_symmetry_space_group_name_H-M   'P 1'
_cell_length_a   4.04884293
_cell_length_b   5.12387824
_cell_length_c   5.12387866
_cell_angle_alpha   62.62382142
_cell_angle_beta   90.00000000
_cell_angle_gamma   90.00000000
_symmetry_Int_Tables_number   1
_chemical_formula_structural   LaNi3Rh2
_chemical_formula_sum   'La1 Ni3 Rh2'
_cell_volume   94.39408488
_cell_formula_units_Z   1
loop_
 _symmetry_equiv_pos_site_id
 _symmetry_equiv_pos_as_xyz
  1  'x, y, z'
loop_
 _atom_site_type_symbol
 _atom_site_label
 _atom_site_symmetry_multiplicity
 _atom_site_fract_x
 _atom_site_fract_y
 _atom_site_fract_z
 _atom_site_occupancy
  La  La0  1  -0.00000000  0.99998778  0.00001222  1
  Ni  Ni1  1  -0.00000000  0.34325878  0.34328853  1
  Ni  Ni2  1  -0.00000000  0.65671147  0.65674122  1
  Ni  Ni3  1  0.50000000  0.49997699  0.50002301  1
  Rh  Rh4  1  0.50000000  0.49997927  0.00001429  1
  Rh  Rh5  1  0.50000000  0.99998571  0.50002073  1
