# generated using pymatgen
data_La4Cu4SeS3O4
_symmetry_space_group_name_H-M   'P 1'
_cell_length_a   5.67732639
_cell_length_b   5.67732639
_cell_length_c   8.58967823
_cell_angle_alpha   90.00000000
_cell_angle_beta   90.00000000
_cell_angle_gamma   90.00000000
_symmetry_Int_Tables_number   1
_chemical_formula_structural   La4Cu4SeS3O4
_chemical_formula_sum   'La4 Cu4 Se1 S3 O4'
_cell_volume   276.86280891
_cell_formula_units_Z   1
loop_
 _symmetry_equiv_pos_site_id
 _symmetry_equiv_pos_as_xyz
  1  'x, y, z'
loop_
 _atom_site_type_symbol
 _atom_site_label
 _atom_site_symmetry_multiplicity
 _atom_site_fract_x
 _atom_site_fract_y
 _atom_site_fract_z
 _atom_site_occupancy
  La  La0  1  0.75000000  0.00000000  0.85356295  1
  La  La1  1  0.25000000  0.50000000  0.85355350  1
  La  La2  1  0.25000000  0.00000000  0.14551645  1
  La  La3  1  0.75000000  0.50000000  0.14551645  1
  Cu  Cu4  1  0.49853569  0.25146431  0.50102982  1
  Cu  Cu5  1  0.00146431  0.74853569  0.50102982  1
  Cu  Cu6  1  0.49853569  0.74853569  0.50102982  1
  Cu  Cu7  1  0.00146431  0.25146431  0.50102982  1
  Se  Se8  1  0.75000000  0.00000000  0.32923148  1
  S  S9  1  0.25000000  0.50000000  0.34172896  1
  S  S10  1  0.25000000  0.00000000  0.65819597  1
  S  S11  1  0.75000000  0.50000000  0.65819597  1
  O  O12  1  0.49977437  0.25022563  0.99934474  1
  O  O13  1  0.00022563  0.74977437  0.99934474  1
  O  O14  1  0.49977437  0.74977437  0.99934474  1
  O  O15  1  0.00022563  0.25022563  0.99934474  1
