# generated using pymatgen
data_LiH7(SO4)4
_symmetry_space_group_name_H-M   'P 1'
_cell_length_a   5.06767509
_cell_length_b   7.33441854
_cell_length_c   8.81570692
_cell_angle_alpha   81.85157958
_cell_angle_beta   87.15683322
_cell_angle_gamma   80.99924846
_symmetry_Int_Tables_number   1
_chemical_formula_structural   LiH7(SO4)4
_chemical_formula_sum   'Li1 H7 S4 O16'
_cell_volume   320.23798554
_cell_formula_units_Z   1
loop_
 _symmetry_equiv_pos_site_id
 _symmetry_equiv_pos_as_xyz
  1  'x, y, z'
loop_
 _atom_site_type_symbol
 _atom_site_label
 _atom_site_symmetry_multiplicity
 _atom_site_fract_x
 _atom_site_fract_y
 _atom_site_fract_z
 _atom_site_occupancy
  Li  Li0  1  0.49923129  0.50261422  0.51436574  1
  H  H1  1  0.81031217  0.07165791  0.82424557  1
  H  H2  1  0.18469670  0.92023481  0.16972069  1
  H  H3  1  0.05864755  0.57918738  0.76706576  1
  H  H4  1  0.92898236  0.42429270  0.23912630  1
  H  H5  1  0.63168075  0.97703244  0.32343514  1
  H  H6  1  0.37206187  0.01751354  0.67958748  1
  H  H7  1  0.47183431  0.47822778  0.00381656  1
  S  S8  1  0.97026413  0.75842131  0.33713862  1
  S  S9  1  0.03256542  0.23729974  0.66303221  1
  S  S10  1  0.66866966  0.72352910  0.81595919  1
  S  S11  1  0.31493464  0.27439084  0.18809141  1
  O  O12  1  0.19562444  0.71717622  0.43556746  1
  O  O13  1  0.81000651  0.28180020  0.56216878  1
  O  O14  1  0.98358980  0.69084047  0.81802481  1
  O  O15  1  0.00311796  0.30957282  0.18974875  1
  O  O16  1  0.60243013  0.93062685  0.79491903  1
  O  O17  1  0.38498087  0.07037099  0.20651426  1
  O  O18  1  0.81330900  0.61155970  0.32444877  1
  O  O19  1  0.18720825  0.38444601  0.67974485  1
  O  O20  1  0.58607427  0.63911138  0.69057510  1
  O  O21  1  0.41322530  0.36835937  0.30149973  1
  O  O22  1  0.78701067  0.92691099  0.39358341  1
  O  O23  1  0.21886749  0.07133611  0.60594311  1
  O  O24  1  0.57096228  0.64707160  0.96843236  1
  O  O25  1  0.40400810  0.34421766  0.02552158  1
  O  O26  1  0.05673108  0.82740263  0.16885235  1
  O  O27  1  0.93897300  0.16479523  0.82887097  1
