# generated using pymatgen
data_La2(MoO4)3
_symmetry_space_group_name_H-M   'P 1'
_cell_length_a   7.10706878
_cell_length_b   7.10706878
_cell_length_c   12.15930421
_cell_angle_alpha   80.18701393
_cell_angle_beta   99.81298607
_cell_angle_gamma   65.33077627
_symmetry_Int_Tables_number   1
_chemical_formula_structural   La2(MoO4)3
_chemical_formula_sum   'La4 Mo6 O24'
_cell_volume   529.56148125
_cell_formula_units_Z   2
loop_
 _symmetry_equiv_pos_site_id
 _symmetry_equiv_pos_as_xyz
  1  'x, y, z'
loop_
 _atom_site_type_symbol
 _atom_site_label
 _atom_site_symmetry_multiplicity
 _atom_site_fract_x
 _atom_site_fract_y
 _atom_site_fract_z
 _atom_site_occupancy
  La  La0  1  0.79712201  0.45461785  0.59018745  1
  La  La1  1  0.45461785  0.79712201  0.90981255  1
  La  La2  1  0.54538215  0.20287799  0.09018745  1
  La  La3  1  0.20287799  0.54538215  0.40981255  1
  Mo  Mo4  1  0.28912588  0.96121329  0.57784756  1
  Mo  Mo5  1  0.96121329  0.28912588  0.92215244  1
  Mo  Mo6  1  0.62431877  0.62431877  0.25000000  1
  Mo  Mo7  1  0.71087412  0.03878671  0.42215244  1
  Mo  Mo8  1  0.37568123  0.37568123  0.75000000  1
  Mo  Mo9  1  0.03878671  0.71087412  0.07784756  1
  O  O10  1  0.86219051  0.24177284  0.78948921  1
  O  O11  1  0.53550541  0.55400534  0.11922179  1
  O  O12  1  0.18783382  0.87247325  0.46349333  1
  O  O13  1  0.24177284  0.86219051  0.71051079  1
  O  O14  1  0.87247325  0.18783382  0.03650667  1
  O  O15  1  0.55400534  0.53550541  0.38077821  1
  O  O16  1  0.48492121  0.09141640  0.78375979  1
  O  O17  1  0.17310944  0.42379219  0.10660181  1
  O  O18  1  0.84285694  0.74051147  0.45568395  1
  O  O19  1  0.09141640  0.48492121  0.71624021  1
  O  O20  1  0.74051147  0.84285694  0.04431605  1
  O  O21  1  0.42379219  0.17310944  0.39339819  1
  O  O22  1  0.46449459  0.44599466  0.88077821  1
  O  O23  1  0.13780949  0.75822716  0.21051079  1
  O  O24  1  0.81216618  0.12752675  0.53650667  1
  O  O25  1  0.12752675  0.81216618  0.96349333  1
  O  O26  1  0.75822716  0.13780949  0.28948921  1
  O  O27  1  0.44599466  0.46449459  0.61922179  1
  O  O28  1  0.82689056  0.57620781  0.89339819  1
  O  O29  1  0.51507879  0.90858360  0.21624021  1
  O  O30  1  0.15714306  0.25948853  0.54431605  1
  O  O31  1  0.25948853  0.15714306  0.95568395  1
  O  O32  1  0.90858360  0.51507879  0.28375979  1
  O  O33  1  0.57620781  0.82689056  0.60660181  1
