# generated using pymatgen
data_La2CeSi2S8I
_symmetry_space_group_name_H-M   'P 1'
_cell_length_a   7.98868532
_cell_length_b   9.00120847
_cell_length_c   11.02533456
_cell_angle_alpha   97.25383663
_cell_angle_beta   90.00000000
_cell_angle_gamma   63.65620755
_symmetry_Int_Tables_number   1
_chemical_formula_structural   La2CeSi2S8I
_chemical_formula_sum   'La4 Ce2 Si4 S16 I2'
_cell_volume   703.38514594
_cell_formula_units_Z   2
loop_
 _symmetry_equiv_pos_site_id
 _symmetry_equiv_pos_as_xyz
  1  'x, y, z'
loop_
 _atom_site_type_symbol
 _atom_site_label
 _atom_site_symmetry_multiplicity
 _atom_site_fract_x
 _atom_site_fract_y
 _atom_site_fract_z
 _atom_site_occupancy
  La  La0  1  0.32054874  0.60352897  0.81933251  1
  La  La1  1  0.92407771  0.39647103  0.68066749  1
  La  La2  1  0.67945126  0.39647103  0.18066749  1
  La  La3  1  0.07592229  0.60352897  0.31933251  1
  Ce  Ce4  1  0.59366190  0.00000000  0.75000000  1
  Ce  Ce5  1  0.40633810  -0.00000000  0.25000000  1
  Si  Si6  1  0.62163657  0.68172698  0.47062548  1
  Si  Si7  1  0.30336355  0.31827302  0.02937452  1
  Si  Si8  1  0.37836343  0.31827302  0.52937452  1
  Si  Si9  1  0.69663645  0.68172698  0.97062548  1
  S  S10  1  0.39992926  0.71396573  0.35378675  1
  S  S11  1  0.11389499  0.28603427  0.14621325  1
  S  S12  1  0.60007074  0.28603427  0.64621325  1
  S  S13  1  0.88610501  0.71396573  0.85378675  1
  S  S14  1  0.72064599  0.86284754  0.45692114  1
  S  S15  1  0.58349353  0.13715246  0.04307886  1
  S  S16  1  0.27935401  0.13715246  0.54307886  1
  S  S17  1  0.41650647  0.86284754  0.95692114  1
  S  S18  1  0.55095144  0.70000319  0.66080989  1
  S  S19  1  0.25095462  0.29999681  0.83919011  1
  S  S20  1  0.44904856  0.29999681  0.33919011  1
  S  S21  1  0.74904538  0.70000319  0.16080989  1
  S  S22  1  0.84759263  0.43803735  0.41476489  1
  S  S23  1  0.28562998  0.56196265  0.08523511  1
  S  S24  1  0.15240737  0.56196265  0.58523511  1
  S  S25  1  0.71437002  0.43803735  0.91476489  1
  I  I26  1  0.98814628  0.00000000  0.25000000  1
  I  I27  1  0.01185372  0.00000000  0.75000000  1
