# generated using pymatgen
data_K4Ta3NbO12
_symmetry_space_group_name_H-M   'P 1'
_cell_length_a   5.70412471
_cell_length_b   5.70412471
_cell_length_c   9.87996788
_cell_angle_alpha   90.00000000
_cell_angle_beta   73.22157951
_cell_angle_gamma   120.00000000
_symmetry_Int_Tables_number   1
_chemical_formula_structural   K4Ta3NbO12
_chemical_formula_sum   'K4 Ta3 Nb1 O12'
_cell_volume   262.47543430
_cell_formula_units_Z   1
loop_
 _symmetry_equiv_pos_site_id
 _symmetry_equiv_pos_as_xyz
  1  'x, y, z'
loop_
 _atom_site_type_symbol
 _atom_site_label
 _atom_site_symmetry_multiplicity
 _atom_site_fract_x
 _atom_site_fract_y
 _atom_site_fract_z
 _atom_site_occupancy
  K  K0  1  0.99997291  0.49998645  0.50004064  1
  K  K1  1  0.49997263  0.74998632  0.75004105  1
  K  K2  1  0.00002737  0.00001368  0.99995895  1
  K  K3  1  0.50002709  0.25001355  0.24995936  1
  Ta  Ta4  1  0.24963096  0.62481548  0.12555356  1
  Ta  Ta5  1  0.75000000  0.87500000  0.37500000  1
  Ta  Ta6  1  0.25036904  0.12518452  0.62444644  1
  Nb  Nb7  1  0.75000000  0.37500000  0.87500000  1
  O  O8  1  0.50014276  0.75007138  0.25006280  1
  O  O9  1  0.99985724  0.99992862  0.49993720  1
  O  O10  1  0.49889020  0.24944510  0.74945345  1
  O  O11  1  0.00110980  0.50055490  0.00054655  1
  O  O12  1  0.50013418  0.50020557  0.49993720  1
  O  O13  1  0.00110145  0.75165636  0.74945345  1
  O  O14  1  0.49889855  0.99834364  0.00054655  1
  O  O15  1  0.99986582  0.24979443  0.25006280  1
  O  O16  1  0.50013418  0.99992862  0.49993720  1
  O  O17  1  0.00110145  0.24944510  0.74945345  1
  O  O18  1  0.49889855  0.50055490  0.00054655  1
  O  O19  1  0.99986582  0.75007138  0.25006280  1
