# generated using pymatgen
data_KTaW2O9
_symmetry_space_group_name_H-M   'P 1'
_cell_length_a   3.89566649
_cell_length_b   13.08340733
_cell_length_c   13.06105540
_cell_angle_alpha   59.98745715
_cell_angle_beta   89.98869905
_cell_angle_gamma   90.00609677
_symmetry_Int_Tables_number   1
_chemical_formula_structural   KTaW2O9
_chemical_formula_sum   'K3 Ta3 W6 O27'
_cell_volume   576.44331947
_cell_formula_units_Z   3
loop_
 _symmetry_equiv_pos_site_id
 _symmetry_equiv_pos_as_xyz
  1  'x, y, z'
loop_
 _atom_site_type_symbol
 _atom_site_label
 _atom_site_symmetry_multiplicity
 _atom_site_fract_x
 _atom_site_fract_y
 _atom_site_fract_z
 _atom_site_occupancy
  K  K0  1  0.99692976  0.17707849  0.65126849  1
  K  K1  1  0.99826824  0.82400592  0.35125404  1
  K  K2  1  0.80980055  0.49964216  0.99924665  1
  Ta  Ta3  1  0.46134559  0.33269305  0.33201655  1
  Ta  Ta4  1  0.46273757  0.66018026  0.67282256  1
  Ta  Ta5  1  0.44259202  0.33387352  0.83187190  1
  W  W6  1  0.48249827  0.49878412  0.50168884  1
  W  W7  1  0.47946191  0.99828316  0.50077548  1
  W  W8  1  0.48483756  0.00033129  0.00067993  1
  W  W9  1  0.46279843  0.66627081  0.16853755  1
  W  W10  1  0.46522567  0.16529155  0.16679332  1
  W  W11  1  0.45731734  0.83526259  0.83286881  1
  O  O12  1  0.45517564  0.38274515  0.45198683  1
  O  O13  1  0.45595469  0.62106998  0.54319805  1
  O  O14  1  0.45587861  0.83726119  0.54508458  1
  O  O15  1  0.45464929  0.16537811  0.45641497  1
  O  O16  1  0.95082633  0.33128797  0.82446459  1
  O  O17  1  0.95313762  0.67018312  0.16593550  1
  O  O18  1  0.95310957  0.15766868  0.17144391  1
  O  O19  1  0.95358838  0.83968052  0.83202874  1
  O  O20  1  0.96011018  0.50409289  0.49549605  1
  O  O21  1  0.95849470  0.00175293  0.50103501  1
  O  O22  1  0.45244746  0.37523584  0.65975919  1
  O  O23  1  0.45080945  0.62546601  0.33184612  1
  O  O24  1  0.44981139  0.04119381  0.33573222  1
  O  O25  1  0.45144486  0.95946276  0.66680520  1
  O  O26  1  0.95473799  0.33906994  0.32137239  1
  O  O27  1  0.95680626  0.66869830  0.66977571  1
  O  O28  1  0.45248126  0.50779893  0.20251960  1
  O  O29  1  0.45541776  0.49717657  0.80013915  1
  O  O30  1  0.45470762  0.71406337  0.79441298  1
  O  O31  1  0.45222317  0.28702696  0.20464275  1
  O  O32  1  0.45332402  0.27913602  0.00416424  1
  O  O33  1  0.45431990  0.71790464  0.99867088  1
  O  O34  1  0.45498236  0.16012268  0.88162164  1
  O  O35  1  0.45246112  0.83318671  0.12284822  1
  O  O36  1  0.45332123  0.03871803  0.12630687  1
  O  O37  1  0.45451071  0.95696534  0.87848474  1
  O  O38  1  0.96125550  0.99595662  0.00398578  1
