# generated using pymatgen
data_La3SmCr4O12
_symmetry_space_group_name_H-M   'P 1'
_cell_length_a   5.54427022
_cell_length_b   5.58914932
_cell_length_c   7.85876804
_cell_angle_alpha   90.00000000
_cell_angle_beta   90.00000000
_cell_angle_gamma   89.89244293
_symmetry_Int_Tables_number   1
_chemical_formula_structural   La3SmCr4O12
_chemical_formula_sum   'La3 Sm1 Cr4 O12'
_cell_volume   243.52514246
_cell_formula_units_Z   1
loop_
 _symmetry_equiv_pos_site_id
 _symmetry_equiv_pos_as_xyz
  1  'x, y, z'
loop_
 _atom_site_type_symbol
 _atom_site_label
 _atom_site_symmetry_multiplicity
 _atom_site_fract_x
 _atom_site_fract_y
 _atom_site_fract_z
 _atom_site_occupancy
  La  La0  1  0.99309146  0.03618802  0.25000000  1
  La  La1  1  0.49317326  0.46659644  0.75000000  1
  La  La2  1  0.00834834  0.96399408  0.75000000  1
  Sm  Sm3  1  0.51121359  0.54793554  0.25000000  1
  Cr  Cr4  1  0.00056543  0.49941744  0.00236811  1
  Cr  Cr5  1  0.49938143  0.00145733  0.49831427  1
  Cr  Cr6  1  0.00056543  0.49941744  0.49763189  1
  Cr  Cr7  1  0.49938143  0.00145733  0.00168573  1
  O  O8  1  0.41964816  0.97162344  0.25000000  1
  O  O9  1  0.09466772  0.48251208  0.25000000  1
  O  O10  1  0.58063023  0.01798740  0.75000000  1
  O  O11  1  0.92064107  0.51642576  0.75000000  1
  O  O12  1  0.78527854  0.78535946  0.04663041  1
  O  O13  1  0.70600093  0.29361817  0.45113077  1
  O  O14  1  0.20804696  0.20852773  0.54211473  1
  O  O15  1  0.29001979  0.70998848  0.95950091  1
  O  O16  1  0.20804696  0.20852773  0.95788527  1
  O  O17  1  0.29001979  0.70998848  0.54049909  1
  O  O18  1  0.78527854  0.78535946  0.45336959  1
  O  O19  1  0.70600093  0.29361817  0.04886923  1
