# generated using pymatgen
data_KAlSi3O8
_symmetry_space_group_name_H-M   'P 1'
_cell_length_a   7.22190293
_cell_length_b   7.99606173
_cell_length_c   7.94343955
_cell_angle_alpha   113.03924199
_cell_angle_beta   103.97022284
_cell_angle_gamma   104.71752389
_symmetry_Int_Tables_number   1
_chemical_formula_structural   KAlSi3O8
_chemical_formula_sum   'K2 Al2 Si6 O16'
_cell_volume   377.14720313
_cell_formula_units_Z   2
loop_
 _symmetry_equiv_pos_site_id
 _symmetry_equiv_pos_as_xyz
  1  'x, y, z'
loop_
 _atom_site_type_symbol
 _atom_site_label
 _atom_site_symmetry_multiplicity
 _atom_site_fract_x
 _atom_site_fract_y
 _atom_site_fract_z
 _atom_site_occupancy
  K  K0  1  0.13581028  0.29142245  0.28788316  1
  K  K1  1  0.86418972  0.70857755  0.71211684  1
  Al  Al2  1  0.34206907  0.59423801  0.83296929  1
  Al  Al3  1  0.65793093  0.40576199  0.16703071  1
  Si  Si4  1  0.33759274  0.83346440  0.59571993  1
  Si  Si5  1  0.66240726  0.16653560  0.40428007  1
  Si  Si6  1  0.22340434  0.82147072  0.19781766  1
  Si  Si7  1  0.21932527  0.19215783  0.81240187  1
  Si  Si8  1  0.77659566  0.17852928  0.80218234  1
  Si  Si9  1  0.78067473  0.80784217  0.18759813  1
  O  O10  1  0.01164185  0.86578786  0.17338015  1
  O  O11  1  0.98835815  0.13421214  0.82661985  1
  O  O12  1  0.41106201  0.04034194  0.29691708  1
  O  O13  1  0.38854514  0.28750224  0.03476329  1
  O  O14  1  0.58893799  0.95965806  0.70308292  1
  O  O15  1  0.61145486  0.71249776  0.96523671  1
  O  O16  1  0.20541723  0.67319112  0.98293887  1
  O  O17  1  0.21311286  0.97451212  0.66753710  1
  O  O18  1  0.79458277  0.32680888  0.01706113  1
  O  O19  1  0.78688714  0.02548788  0.33246290  1
  O  O20  1  0.26389649  0.73448805  0.35350906  1
  O  O21  1  0.25382369  0.33531538  0.71433346  1
  O  O22  1  0.73610351  0.26551195  0.64649094  1
  O  O23  1  0.74617631  0.66468462  0.28566654  1
  O  O24  1  0.27597057  0.65011060  0.63873229  1
  O  O25  1  0.72402943  0.34988940  0.36126771  1
