# generated using pymatgen
data_La(SmB8)3
_symmetry_space_group_name_H-M   'P 1'
_cell_length_a   5.79610245
_cell_length_b   7.17949973
_cell_length_c   7.17949973
_cell_angle_alpha   70.10600833
_cell_angle_beta   90.00000000
_cell_angle_gamma   90.00000000
_symmetry_Int_Tables_number   1
_chemical_formula_structural   La(SmB8)3
_chemical_formula_sum   'La1 Sm3 B24'
_cell_volume   280.93241774
_cell_formula_units_Z   1
loop_
 _symmetry_equiv_pos_site_id
 _symmetry_equiv_pos_as_xyz
  1  'x, y, z'
loop_
 _atom_site_type_symbol
 _atom_site_label
 _atom_site_symmetry_multiplicity
 _atom_site_fract_x
 _atom_site_fract_y
 _atom_site_fract_z
 _atom_site_occupancy
  La  La0  1  0.00000000  0.00000000  -0.00000000  1
  Sm  Sm1  1  0.50000000  0.25148192  0.25148192  1
  Sm  Sm2  1  0.00000000  0.50000000  0.50000000  1
  Sm  Sm3  1  0.50000000  0.74851808  0.74851808  1
  B  B4  1  0.34883798  0.82368716  0.32508091  1
  B  B5  1  0.84889216  0.07450704  0.57449570  1
  B  B6  1  0.34883798  0.32508091  0.82368716  1
  B  B7  1  0.84889216  0.57449570  0.07450704  1
  B  B8  1  0.65116202  0.82368716  0.32508091  1
  B  B9  1  0.15110784  0.07450704  0.57449570  1
  B  B10  1  0.65116202  0.32508091  0.82368716  1
  B  B11  1  0.15110784  0.57449570  0.07450704  1
  B  B12  1  0.50000000  0.59967197  0.40032803  1
  B  B13  1  -0.00000000  0.85024844  0.65015072  1
  B  B14  1  0.50000000  0.10044306  0.89955694  1
  B  B15  1  -0.00000000  0.34984928  0.14975156  1
  B  B16  1  0.34883798  0.67491909  0.17631284  1
  B  B17  1  0.84889216  0.92549296  0.42550430  1
  B  B18  1  0.34883798  0.17631284  0.67491909  1
  B  B19  1  0.84889216  0.42550430  0.92549296  1
  B  B20  1  0.50000000  0.89955694  0.10044306  1
  B  B21  1  0.00000000  0.14975156  0.34984928  1
  B  B22  1  0.50000000  0.40032803  0.59967197  1
  B  B23  1  0.00000000  0.65015072  0.85024844  1
  B  B24  1  0.65116202  0.67491909  0.17631284  1
  B  B25  1  0.15110784  0.92549296  0.42550430  1
  B  B26  1  0.65116202  0.17631284  0.67491909  1
  B  B27  1  0.15110784  0.42550430  0.92549296  1
