# generated using pymatgen
data_K2Ba(FeAs)6
_symmetry_space_group_name_H-M   'P 1'
_cell_length_a   5.43774084
_cell_length_b   7.18634740
_cell_length_c   8.61210313
_cell_angle_alpha   111.06281619
_cell_angle_beta   71.59671612
_cell_angle_gamma   90.00000000
_symmetry_Int_Tables_number   1
_chemical_formula_structural   K2Ba(FeAs)6
_chemical_formula_sum   'K2 Ba1 Fe6 As6'
_cell_volume   295.53627298
_cell_formula_units_Z   1
loop_
 _symmetry_equiv_pos_site_id
 _symmetry_equiv_pos_as_xyz
  1  'x, y, z'
loop_
 _atom_site_type_symbol
 _atom_site_label
 _atom_site_symmetry_multiplicity
 _atom_site_fract_x
 _atom_site_fract_y
 _atom_site_fract_z
 _atom_site_occupancy
  K  K0  1  0.33003853  0.99977387  0.33992195  1
  K  K1  1  0.66996147  0.00022613  0.66007805  1
  Ba  Ba2  1  0.00000000  0.00000000  -0.00000000  1
  Fe  Fe3  1  0.24903193  0.50000000  -0.00000000  1
  Fe  Fe4  1  0.91646678  0.50054066  0.66751669  1
  Fe  Fe5  1  0.58398247  0.49945934  0.33248331  1
  Fe  Fe6  1  0.41601753  0.50054066  0.66751669  1
  Fe  Fe7  1  0.08353322  0.49945934  0.33248331  1
  Fe  Fe8  1  0.75096807  0.50000000  0.00000000  1
  As  As9  1  0.11791350  0.30262334  0.76417301  1
  As  As10  1  0.78218417  0.30570802  0.43563265  1
  As  As11  1  0.44815642  0.30302155  0.10368617  1
  As  As12  1  0.55184358  0.69697845  0.89631383  1
  As  As13  1  0.21781583  0.69429198  0.56436735  1
  As  As14  1  0.88208650  0.69737666  0.23582699  1
