# generated using pymatgen
data_In9Cu11
_symmetry_space_group_name_H-M   'P 1'
_cell_length_a   4.54217592
_cell_length_b   6.84587269
_cell_length_c   12.12713390
_cell_angle_alpha   102.88923963
_cell_angle_beta   79.20630037
_cell_angle_gamma   109.37476288
_symmetry_Int_Tables_number   1
_chemical_formula_structural   In9Cu11
_chemical_formula_sum   'In9 Cu11'
_cell_volume   344.13556197
_cell_formula_units_Z   1
loop_
 _symmetry_equiv_pos_site_id
 _symmetry_equiv_pos_as_xyz
  1  'x, y, z'
loop_
 _atom_site_type_symbol
 _atom_site_label
 _atom_site_symmetry_multiplicity
 _atom_site_fract_x
 _atom_site_fract_y
 _atom_site_fract_z
 _atom_site_occupancy
  In  In0  1  0.12558190  0.73833279  0.48716899  1
  In  In1  1  0.61608634  0.23818570  0.00601302  1
  In  In2  1  0.37441810  0.76166721  0.01283101  1
  In  In3  1  0.88391366  0.26181430  0.49398698  1
  In  In4  1  0.57875076  0.42953659  0.27203507  1
  In  In5  1  0.07288230  0.91435930  0.76859470  1
  In  In6  1  0.92124924  0.07046341  0.22796493  1
  In  In7  1  0.42711770  0.58564070  0.73140530  1
  In  In8  1  0.75000000  0.25000000  0.75000000  1
  Cu  Cu9  1  0.77455877  0.66413737  0.11501982  1
  Cu  Cu10  1  0.27554214  0.15896476  0.60788047  1
  Cu  Cu11  1  0.72544123  0.83586263  0.38498018  1
  Cu  Cu12  1  0.22445786  0.34103524  0.89211953  1
  Cu  Cu13  1  0.00059838  0.00136904  0.00017227  1
  Cu  Cu14  1  0.49940162  0.49863096  0.49982773  1
  Cu  Cu15  1  0.25000000  0.75000000  0.25000000  1
  Cu  Cu16  1  0.35631756  0.09580175  0.38316662  1
  Cu  Cu17  1  0.85810074  0.60875401  0.89255254  1
  Cu  Cu18  1  0.14368244  0.40419825  0.11683338  1
  Cu  Cu19  1  0.64189926  0.89124599  0.60744746  1
