# generated using pymatgen
data_ScAgO2
_symmetry_space_group_name_H-M   'P 1'
_cell_length_a   3.19238522
_cell_length_b   3.19238570
_cell_length_c   6.42049384
_cell_angle_alpha   75.60478626
_cell_angle_beta   75.60478317
_cell_angle_gamma   60.00000481
_symmetry_Int_Tables_number   1
_chemical_formula_structural   ScAgO2
_chemical_formula_sum   'Sc1 Ag1 O2'
_cell_volume   54.28182069
_cell_formula_units_Z   1
loop_
 _symmetry_equiv_pos_site_id
 _symmetry_equiv_pos_as_xyz
  1  'x, y, z'
loop_
 _atom_site_type_symbol
 _atom_site_label
 _atom_site_symmetry_multiplicity
 _atom_site_fract_x
 _atom_site_fract_y
 _atom_site_fract_z
 _atom_site_occupancy
  Sc  Sc0  1  0.00211884  0.00211884  0.99364349  1
  Ag  Ag1  1  0.84164509  0.84164509  0.47506472  1
  O  O2  1  0.72337588  0.72337588  0.82987236  1
  O  O3  1  0.27386019  0.27386019  0.17841942  1
