# generated using pymatgen
data_HfAu9
_symmetry_space_group_name_H-M   'P 1'
_cell_length_a   4.14659179
_cell_length_b   5.13486462
_cell_length_c   9.39148276
_cell_angle_alpha   89.49050658
_cell_angle_beta   90.00000000
_cell_angle_gamma   113.81396955
_symmetry_Int_Tables_number   1
_chemical_formula_structural   HfAu9
_chemical_formula_sum   'Hf1 Au9'
_cell_volume   182.93178174
_cell_formula_units_Z   1
loop_
 _symmetry_equiv_pos_site_id
 _symmetry_equiv_pos_as_xyz
  1  'x, y, z'
loop_
 _atom_site_type_symbol
 _atom_site_label
 _atom_site_symmetry_multiplicity
 _atom_site_fract_x
 _atom_site_fract_y
 _atom_site_fract_z
 _atom_site_occupancy
  Hf  Hf0  1  0.50000000  0.00000000  0.50000000  1
  Au  Au1  1  0.00000000  0.00000000  -0.00000000  1
  Au  Au2  1  0.29799202  0.59598404  0.09923150  1
  Au  Au3  1  0.79962934  0.59925868  0.59587573  1
  Au  Au4  1  0.20037066  0.40074132  0.40412427  1
  Au  Au5  1  0.70200798  0.40401596  0.90076850  1
  Au  Au6  1  0.59922859  0.19845718  0.20325245  1
  Au  Au7  1  0.09446347  0.18892695  0.69848071  1
  Au  Au8  1  0.90553653  0.81107305  0.30151929  1
  Au  Au9  1  0.40077141  0.80154282  0.79674755  1
