# generated using pymatgen
data_KMoP3WO12
_symmetry_space_group_name_H-M   'P 1'
_cell_length_a   9.03093858
_cell_length_b   9.38164639
_cell_length_c   12.66102590
_cell_angle_alpha   90.00000000
_cell_angle_beta   90.00000000
_cell_angle_gamma   90.00000000
_symmetry_Int_Tables_number   1
_chemical_formula_structural   KMoP3WO12
_chemical_formula_sum   'K4 Mo4 P12 W4 O48'
_cell_volume   1072.70633512
_cell_formula_units_Z   4
loop_
 _symmetry_equiv_pos_site_id
 _symmetry_equiv_pos_as_xyz
  1  'x, y, z'
loop_
 _atom_site_type_symbol
 _atom_site_label
 _atom_site_symmetry_multiplicity
 _atom_site_fract_x
 _atom_site_fract_y
 _atom_site_fract_z
 _atom_site_occupancy
  K  K0  1  0.82391322  0.33703570  0.75151141  1
  K  K1  1  0.17608678  0.66296430  0.25151141  1
  K  K2  1  0.82391322  0.16296430  0.24848859  1
  K  K3  1  0.17608678  0.83703570  0.74848859  1
  Mo  Mo4  1  0.24739436  0.47092878  0.59495143  1
  Mo  Mo5  1  0.75260564  0.52907122  0.09495143  1
  Mo  Mo6  1  0.24739436  0.02907122  0.40504857  1
  Mo  Mo7  1  0.75260564  0.97092878  0.90504857  1
  P  P8  1  0.96684243  0.25000000  0.50000000  1
  P  P9  1  0.03315757  0.75000000  -0.00000000  1
  P  P10  1  0.02933718  0.75000000  0.50000000  1
  P  P11  1  0.97066282  0.25000000  -0.00000000  1
  P  P12  1  0.40438837  0.13265217  0.63343568  1
  P  P13  1  0.59561163  0.86734783  0.13343568  1
  P  P14  1  0.40438837  0.36734783  0.36656432  1
  P  P15  1  0.59561163  0.63265217  0.86656432  1
  P  P16  1  0.59464595  0.86406758  0.36983259  1
  P  P17  1  0.40535405  0.13593242  0.86983259  1
  P  P18  1  0.59464595  0.63593242  0.63016741  1
  P  P19  1  0.40535405  0.36406758  0.13016741  1
  W  W20  1  0.75323503  0.52747000  0.39841608  1
  W  W21  1  0.24676497  0.47253000  0.89841608  1
  W  W22  1  0.75323503  0.97253000  0.60158392  1
  W  W23  1  0.24676497  0.02747000  0.10158392  1
  O  O24  1  0.12175942  0.66358841  0.57864164  1
  O  O25  1  0.87824058  0.33641159  0.07864164  1
  O  O26  1  0.12175942  0.83641159  0.42135836  1
  O  O27  1  0.87824058  0.16358841  0.92135836  1
  O  O28  1  0.86176175  0.34437293  0.43150435  1
  O  O29  1  0.13823825  0.65562707  0.93150435  1
  O  O30  1  0.86176175  0.15562707  0.56849565  1
  O  O31  1  0.13823825  0.84437293  0.06849565  1
  O  O32  1  0.05455898  0.34072042  0.57823274  1
  O  O33  1  0.94544102  0.65927958  0.07823274  1
  O  O34  1  0.05455898  0.15927958  0.42176726  1
  O  O35  1  0.94544102  0.84072042  0.92176726  1
  O  O36  1  0.93195920  0.64972768  0.43127680  1
  O  O37  1  0.06804080  0.35027232  0.93127680  1
  O  O38  1  0.93195920  0.85027232  0.56872320  1
  O  O39  1  0.06804080  0.14972768  0.06872320  1
  O  O40  1  0.20310437  0.48146367  0.75936080  1
  O  O41  1  0.79689563  0.51853633  0.25936080  1
  O  O42  1  0.20310437  0.01853633  0.24063920  1
  O  O43  1  0.79689563  0.98146367  0.74063920  1
  O  O44  1  0.38734123  0.29211020  0.62336234  1
  O  O45  1  0.61265877  0.70788980  0.12336234  1
  O  O46  1  0.38734123  0.20788980  0.37663766  1
  O  O47  1  0.61265877  0.79211020  0.87663766  1
  O  O48  1  0.62476996  0.70431392  0.38065841  1
  O  O49  1  0.37523004  0.29568608  0.88065841  1
  O  O50  1  0.62476996  0.79568608  0.61934159  1
  O  O51  1  0.37523004  0.20431392  0.11934159  1
  O  O52  1  0.30101545  0.46310613  0.42989099  1
  O  O53  1  0.69898455  0.53689387  0.92989099  1
  O  O54  1  0.30101545  0.03689387  0.57010901  1
  O  O55  1  0.69898455  0.96310613  0.07010901  1
  O  O56  1  0.69705657  0.54527252  0.55880460  1
  O  O57  1  0.30294343  0.45472748  0.05880460  1
  O  O58  1  0.69705657  0.95472748  0.44119540  1
  O  O59  1  0.30294343  0.04527252  0.94119540  1
  O  O60  1  0.35287979  0.08691213  0.75335074  1
  O  O61  1  0.64712021  0.91308787  0.25335074  1
  O  O62  1  0.35287979  0.41308787  0.24664926  1
  O  O63  1  0.64712021  0.58691213  0.74664926  1
  O  O64  1  0.43186131  0.60856769  0.62013989  1
  O  O65  1  0.56813869  0.39143231  0.12013989  1
  O  O66  1  0.43186131  0.89143231  0.37986011  1
  O  O67  1  0.56813869  0.10856769  0.87986011  1
  O  O68  1  0.56943556  0.40257767  0.37936696  1
  O  O69  1  0.43056444  0.59742233  0.87936696  1
  O  O70  1  0.56943556  0.09742233  0.62063304  1
  O  O71  1  0.43056444  0.90257767  0.12063304  1
