# generated using pymatgen
data_K2YHf(PO4)3
_symmetry_space_group_name_H-M   'P 1'
_cell_length_a   10.48755829
_cell_length_b   10.48755829
_cell_length_c   10.48755829
_cell_angle_alpha   90.00000000
_cell_angle_beta   90.00000000
_cell_angle_gamma   90.00000000
_symmetry_Int_Tables_number   1
_chemical_formula_structural   K2YHf(PO4)3
_chemical_formula_sum   'K8 Y4 Hf4 P12 O48'
_cell_volume   1153.51477857
_cell_formula_units_Z   4
loop_
 _symmetry_equiv_pos_site_id
 _symmetry_equiv_pos_as_xyz
  1  'x, y, z'
loop_
 _atom_site_type_symbol
 _atom_site_label
 _atom_site_symmetry_multiplicity
 _atom_site_fract_x
 _atom_site_fract_y
 _atom_site_fract_z
 _atom_site_occupancy
  K  K0  1  0.07259399  0.42740601  0.57259399  1
  K  K1  1  0.42740601  0.57259399  0.07259399  1
  K  K2  1  0.57259399  0.07259399  0.42740601  1
  K  K3  1  0.92740601  0.92740601  0.92740601  1
  K  K4  1  0.29935578  0.20064422  0.79935578  1
  K  K5  1  0.20064422  0.79935578  0.29935578  1
  K  K6  1  0.79935578  0.29935578  0.20064422  1
  K  K7  1  0.70064422  0.70064422  0.70064422  1
  Y  Y8  1  0.58381737  0.91618263  0.08381737  1
  Y  Y9  1  0.91618263  0.08381737  0.58381737  1
  Y  Y10  1  0.08381737  0.58381737  0.91618263  1
  Y  Y11  1  0.41618263  0.41618263  0.41618263  1
  Hf  Hf12  1  0.85521675  0.64478325  0.35521675  1
  Hf  Hf13  1  0.64478325  0.35521675  0.85521675  1
  Hf  Hf14  1  0.35521675  0.85521675  0.64478325  1
  Hf  Hf15  1  0.14478325  0.14478325  0.14478325  1
  P  P16  1  0.54284969  0.73629212  0.37971905  1
  P  P17  1  0.87971905  0.95715031  0.26370788  1
  P  P18  1  0.76370788  0.62028095  0.04284969  1
  P  P19  1  0.95715031  0.26370788  0.87971905  1
  P  P20  1  0.62028095  0.04284969  0.76370788  1
  P  P21  1  0.73629212  0.37971905  0.54284969  1
  P  P22  1  0.04284969  0.76370788  0.62028095  1
  P  P23  1  0.37971905  0.54284969  0.73629212  1
  P  P24  1  0.26370788  0.87971905  0.95715031  1
  P  P25  1  0.45715031  0.23629212  0.12028095  1
  P  P26  1  0.12028095  0.45715031  0.23629212  1
  P  P27  1  0.23629212  0.12028095  0.45715031  1
  O  O28  1  0.51854829  0.82314687  0.26449774  1
  O  O29  1  0.76449774  0.98145171  0.17685313  1
  O  O30  1  0.67685313  0.73550226  0.01854829  1
  O  O31  1  0.98145171  0.17685313  0.76449774  1
  O  O32  1  0.73550226  0.01854829  0.67685313  1
  O  O33  1  0.82314687  0.26449774  0.51854829  1
  O  O34  1  0.01854829  0.67685313  0.73550226  1
  O  O35  1  0.26449774  0.51854829  0.82314687  1
  O  O36  1  0.17685313  0.76449774  0.98145171  1
  O  O37  1  0.48145171  0.32314687  0.23550226  1
  O  O38  1  0.23550226  0.48145171  0.32314687  1
  O  O39  1  0.32314687  0.23550226  0.48145171  1
  O  O40  1  0.49577715  0.60124751  0.34971086  1
  O  O41  1  0.84971086  0.00422285  0.39875249  1
  O  O42  1  0.89875249  0.65028914  0.99577715  1
  O  O43  1  0.00422285  0.39875249  0.84971086  1
  O  O44  1  0.65028914  0.99577715  0.89875249  1
  O  O45  1  0.60124751  0.34971086  0.49577715  1
  O  O46  1  0.99577715  0.89875249  0.65028914  1
  O  O47  1  0.34971086  0.49577715  0.60124751  1
  O  O48  1  0.39875249  0.84971086  0.00422285  1
  O  O49  1  0.50422285  0.10124751  0.15028914  1
  O  O50  1  0.15028914  0.50422285  0.10124751  1
  O  O51  1  0.10124751  0.15028914  0.50422285  1
  O  O52  1  0.68751124  0.73484871  0.41633032  1
  O  O53  1  0.91633032  0.81248876  0.26515129  1
  O  O54  1  0.76515129  0.58366968  0.18751124  1
  O  O55  1  0.81248876  0.26515129  0.91633032  1
  O  O56  1  0.58366968  0.18751124  0.76515129  1
  O  O57  1  0.73484871  0.41633032  0.68751124  1
  O  O58  1  0.18751124  0.76515129  0.58366968  1
  O  O59  1  0.41633032  0.68751124  0.73484871  1
  O  O60  1  0.26515129  0.91633032  0.81248876  1
  O  O61  1  0.31248876  0.23484871  0.08366968  1
  O  O62  1  0.08366968  0.31248876  0.23484871  1
  O  O63  1  0.23484871  0.08366968  0.31248876  1
  O  O64  1  0.46859746  0.79443777  0.49506064  1
  O  O65  1  0.99506064  0.03140254  0.20556223  1
  O  O66  1  0.70556223  0.50493936  0.96859746  1
  O  O67  1  0.03140254  0.20556223  0.99506064  1
  O  O68  1  0.50493936  0.96859746  0.70556223  1
  O  O69  1  0.79443777  0.49506064  0.46859746  1
  O  O70  1  0.96859746  0.70556223  0.50493936  1
  O  O71  1  0.49506064  0.46859746  0.79443777  1
  O  O72  1  0.20556223  0.99506064  0.03140254  1
  O  O73  1  0.53140254  0.29443777  0.00493936  1
  O  O74  1  0.00493936  0.53140254  0.29443777  1
  O  O75  1  0.29443777  0.00493936  0.53140254  1
