# generated using pymatgen
data_K2FeH8(SO6)2
_symmetry_space_group_name_H-M   'P 1'
_cell_length_a   7.71142205
_cell_length_b   7.71142205
_cell_length_c   10.10663193
_cell_angle_alpha   85.93604341
_cell_angle_beta   85.93604341
_cell_angle_gamma   78.11001121
_symmetry_Int_Tables_number   1
_chemical_formula_structural   K2FeH8(SO6)2
_chemical_formula_sum   'K4 Fe2 H16 S4 O24'
_cell_volume   585.65249015
_cell_formula_units_Z   2
loop_
 _symmetry_equiv_pos_site_id
 _symmetry_equiv_pos_as_xyz
  1  'x, y, z'
loop_
 _atom_site_type_symbol
 _atom_site_label
 _atom_site_symmetry_multiplicity
 _atom_site_fract_x
 _atom_site_fract_y
 _atom_site_fract_z
 _atom_site_occupancy
  K  K0  1  0.09475736  0.56610672  0.24784318  1
  K  K1  1  0.57355542  0.09244208  0.24716584  1
  K  K2  1  0.90755792  0.42644458  0.75283416  1
  K  K3  1  0.43389328  0.90524264  0.75215682  1
  Fe  Fe4  1  0.99969478  0.00030522  -0.00000000  1
  Fe  Fe5  1  0.50120979  0.49879021  0.50000000  1
  H  H6  1  0.22315324  0.66454620  0.96007955  1
  H  H7  1  0.66440070  0.22361764  0.95965575  1
  H  H8  1  0.77638236  0.33559930  0.04034425  1
  H  H9  1  0.33545380  0.77684676  0.03992045  1
  H  H10  1  0.05424641  0.04956862  0.72126342  1
  H  H11  1  0.95043138  0.94575359  0.27873658  1
  H  H12  1  0.28392088  0.55266589  0.73044815  1
  H  H13  1  0.55308964  0.28152761  0.73022692  1
  H  H14  1  0.71847239  0.44691036  0.26977308  1
  H  H15  1  0.44733411  0.71607912  0.26955185  1
  H  H16  1  0.92625478  0.91303217  0.73711884  1
  H  H17  1  0.08696783  0.07374522  0.26288116  1
  H  H18  1  0.18249129  0.66343508  0.61181965  1
  H  H19  1  0.66467266  0.18130229  0.61104443  1
  H  H20  1  0.81869771  0.33532734  0.38895557  1
  H  H21  1  0.33656492  0.81750871  0.38818035  1
  S  S22  1  0.29634362  0.29644174  0.95242332  1
  S  S23  1  0.70355826  0.70365638  0.04757668  1
  S  S24  1  0.79412575  0.79020339  0.52607210  1
  S  S25  1  0.20979661  0.20587425  0.47392790  1
  O  O26  1  0.21952168  0.78047832  -0.00000000  1
  O  O27  1  0.78000498  0.21999502  -0.00000000  1
  O  O28  1  0.33586257  0.32957869  0.44002399  1
  O  O29  1  0.67042131  0.66413743  0.55997601  1
  O  O30  1  0.22354625  0.47560378  0.88625768  1
  O  O31  1  0.47553905  0.22324327  0.88638428  1
  O  O32  1  0.77675673  0.52446095  0.11361572  1
  O  O33  1  0.52439622  0.77645375  0.11374232  1
  O  O34  1  0.82422864  0.82480877  0.07172656  1
  O  O35  1  0.17519123  0.17577136  0.92827344  1
  O  O36  1  0.31350068  0.31339620  0.09485128  1
  O  O37  1  0.68660380  0.68649932  0.90514872  1
  O  O38  1  0.30319700  0.62088457  0.64490862  1
  O  O39  1  0.62226510  0.30127912  0.64535155  1
  O  O40  1  0.69872088  0.37773490  0.35464845  1
  O  O41  1  0.37911543  0.69680300  0.35509138  1
  O  O42  1  0.98197497  0.98869345  0.78753609  1
  O  O43  1  0.01130655  0.01802503  0.21246391  1
  O  O44  1  0.82903541  0.80862836  0.37967698  1
  O  O45  1  0.19137164  0.17096459  0.62032302  1
  O  O46  1  0.96147962  0.71838254  0.59428248  1
  O  O47  1  0.70986436  0.96414844  0.57951441  1
  O  O48  1  0.03585156  0.29013564  0.42048559  1
  O  O49  1  0.28161746  0.03852038  0.40571752  1
