# generated using pymatgen
data_Rb3SiF7
_symmetry_space_group_name_H-M   'P 1'
_cell_length_a   5.90475660
_cell_length_b   8.10579930
_cell_length_c   8.10579930
_cell_angle_alpha   90.00000000
_cell_angle_beta   90.00000000
_cell_angle_gamma   90.00000000
_symmetry_Int_Tables_number   1
_chemical_formula_structural   Rb3SiF7
_chemical_formula_sum   'Rb6 Si2 F14'
_cell_volume   387.96602308
_cell_formula_units_Z   2
loop_
 _symmetry_equiv_pos_site_id
 _symmetry_equiv_pos_as_xyz
  1  'x, y, z'
loop_
 _atom_site_type_symbol
 _atom_site_label
 _atom_site_symmetry_multiplicity
 _atom_site_fract_x
 _atom_site_fract_y
 _atom_site_fract_z
 _atom_site_occupancy
  F  F0  1  0.79237977  0.89450464  0.39450464  1
  F  F1  1  0.79237977  0.10549536  0.60549536  1
  F  F2  1  0.79237977  0.39450464  0.10549536  1
  F  F3  1  0.79237977  0.60549536  0.89450464  1
  F  F4  1  0.20762023  0.89450464  0.39450464  1
  F  F5  1  0.20762023  0.60549536  0.89450464  1
  F  F6  1  0.20762023  0.39450464  0.10549536  1
  F  F7  1  0.20762023  0.10549536  0.60549536  1
  F  F8  1  0.50000000  0.00000000  0.00000000  1
  F  F9  1  0.50000000  0.50000000  0.50000000  1
  F  F10  1  0.00000000  0.35009460  0.85009460  1
  F  F11  1  0.00000000  0.14990540  0.35009460  1
  F  F12  1  0.00000000  0.85009460  0.64990540  1
  F  F13  1  0.00000000  0.64990540  0.14990540  1
  Si  Si14  1  0.00000000  0.50000000  0.00000000  1
  Si  Si15  1  0.00000000  0.00000000  0.50000000  1
  Rb  Rb16  1  0.50000000  0.69507141  0.19507141  1
  Rb  Rb17  1  0.50000000  0.80492859  0.69507141  1
  Rb  Rb18  1  0.50000000  0.19507141  0.30492859  1
  Rb  Rb19  1  0.50000000  0.30492859  0.80492859  1
  Rb  Rb20  1  0.00000000  0.50000000  0.50000000  1
  Rb  Rb21  1  0.00000000  0.00000000  0.00000000  1
