# generated using pymatgen
data_ErGaAg
_symmetry_space_group_name_H-M   'P 1'
_cell_length_a   4.54514186
_cell_length_b   5.76637730
_cell_length_c   5.69908289
_cell_angle_alpha   94.56027653
_cell_angle_beta   113.50073380
_cell_angle_gamma   66.78969470
_symmetry_Int_Tables_number   1
_chemical_formula_structural   ErGaAg
_chemical_formula_sum   'Er2 Ga2 Ag2'
_cell_volume   125.35624779
_cell_formula_units_Z   2
loop_
 _symmetry_equiv_pos_site_id
 _symmetry_equiv_pos_as_xyz
  1  'x, y, z'
loop_
 _atom_site_type_symbol
 _atom_site_label
 _atom_site_symmetry_multiplicity
 _atom_site_fract_x
 _atom_site_fract_y
 _atom_site_fract_z
 _atom_site_occupancy
  Er  Er0  1  0.75309028  0.70989484  0.21607540  1
  Er  Er1  1  0.24690972  0.29010516  0.78392460  1
  Ga  Ga2  1  0.04531083  0.11497972  0.20560138  1
  Ga  Ga3  1  0.95468917  0.88502028  0.79439862  1
  Ag  Ag4  1  0.54930595  0.27862520  0.37723709  1
  Ag  Ag5  1  0.45069405  0.72137480  0.62276291  1
