# generated using pymatgen
data_K2YbTi(PO4)3
_symmetry_space_group_name_H-M   'P 1'
_cell_length_a   10.29821450
_cell_length_b   10.29821450
_cell_length_c   10.29821450
_cell_angle_alpha   90.00000000
_cell_angle_beta   90.00000000
_cell_angle_gamma   90.00000000
_symmetry_Int_Tables_number   1
_chemical_formula_structural   K2YbTi(PO4)3
_chemical_formula_sum   'K8 Yb4 Ti4 P12 O48'
_cell_volume   1092.15882742
_cell_formula_units_Z   4
loop_
 _symmetry_equiv_pos_site_id
 _symmetry_equiv_pos_as_xyz
  1  'x, y, z'
loop_
 _atom_site_type_symbol
 _atom_site_label
 _atom_site_symmetry_multiplicity
 _atom_site_fract_x
 _atom_site_fract_y
 _atom_site_fract_z
 _atom_site_occupancy
  K  K0  1  0.95609662  0.04390338  0.54390338  1
  K  K1  1  0.04390338  0.54390338  0.95609662  1
  K  K2  1  0.45609662  0.45609662  0.45609662  1
  K  K3  1  0.54390338  0.95609662  0.04390338  1
  K  K4  1  0.17422061  0.82577939  0.32577939  1
  K  K5  1  0.82577939  0.32577939  0.17422061  1
  K  K6  1  0.67422061  0.67422061  0.67422061  1
  K  K7  1  0.32577939  0.17422061  0.82577939  1
  Yb  Yb8  1  0.16916716  0.16916716  0.16916716  1
  Yb  Yb9  1  0.66916716  0.33083284  0.83083284  1
  Yb  Yb10  1  0.33083284  0.83083284  0.66916716  1
  Yb  Yb11  1  0.83083284  0.66916716  0.33083284  1
  Ti  Ti12  1  0.60457683  0.10457683  0.39542317  1
  Ti  Ti13  1  0.89542317  0.89542317  0.89542317  1
  Ti  Ti14  1  0.39542317  0.60457683  0.10457683  1
  Ti  Ti15  1  0.10457683  0.39542317  0.60457683  1
  P  P16  1  0.86407646  0.99550486  0.20441019  1
  P  P17  1  0.70441019  0.63592354  0.00449514  1
  P  P18  1  0.50449514  0.79558981  0.36407646  1
  P  P19  1  0.63592354  0.00449514  0.70441019  1
  P  P20  1  0.79558981  0.36407646  0.50449514  1
  P  P21  1  0.99550486  0.20441019  0.86407646  1
  P  P22  1  0.36407646  0.50449514  0.79558981  1
  P  P23  1  0.20441019  0.86407646  0.99550486  1
  P  P24  1  0.00449514  0.70441019  0.63592354  1
  P  P25  1  0.13592354  0.49550486  0.29558981  1
  P  P26  1  0.29558981  0.13592354  0.49550486  1
  P  P27  1  0.49550486  0.29558981  0.13592354  1
  O  O28  1  0.83547865  0.98679809  0.05445940  1
  O  O29  1  0.55445940  0.66452135  0.01320191  1
  O  O30  1  0.51320191  0.94554060  0.33547865  1
  O  O31  1  0.66452135  0.01320191  0.55445940  1
  O  O32  1  0.94554060  0.33547865  0.51320191  1
  O  O33  1  0.98679809  0.05445940  0.83547865  1
  O  O34  1  0.33547865  0.51320191  0.94554060  1
  O  O35  1  0.05445940  0.83547865  0.98679809  1
  O  O36  1  0.01320191  0.55445940  0.66452135  1
  O  O37  1  0.16452135  0.48679809  0.44554060  1
  O  O38  1  0.44554060  0.16452135  0.48679809  1
  O  O39  1  0.48679809  0.44554060  0.16452135  1
  O  O40  1  0.73444769  0.04361116  0.26965895  1
  O  O41  1  0.76965895  0.76555231  0.95638884  1
  O  O42  1  0.45638884  0.73034105  0.23444769  1
  O  O43  1  0.76555231  0.95638884  0.76965895  1
  O  O44  1  0.73034105  0.23444769  0.45638884  1
  O  O45  1  0.04361116  0.26965895  0.73444769  1
  O  O46  1  0.23444769  0.45638884  0.73034105  1
  O  O47  1  0.26965895  0.73444769  0.04361116  1
  O  O48  1  0.95638884  0.76965895  0.76555231  1
  O  O49  1  0.26555231  0.54361116  0.23034105  1
  O  O50  1  0.23034105  0.26555231  0.54361116  1
  O  O51  1  0.54361116  0.23034105  0.26555231  1
  O  O52  1  0.90232294  0.86435636  0.26037254  1
  O  O53  1  0.76037254  0.59767706  0.13564364  1
  O  O54  1  0.63564364  0.73962746  0.40232294  1
  O  O55  1  0.59767706  0.13564364  0.76037254  1
  O  O56  1  0.73962746  0.40232294  0.63564364  1
  O  O57  1  0.86435636  0.26037254  0.90232294  1
  O  O58  1  0.40232294  0.63564364  0.73962746  1
  O  O59  1  0.26037254  0.90232294  0.86435636  1
  O  O60  1  0.13564364  0.76037254  0.59767706  1
  O  O61  1  0.09767706  0.36435636  0.23962746  1
  O  O62  1  0.23962746  0.09767706  0.36435636  1
  O  O63  1  0.36435636  0.23962746  0.09767706  1
  O  O64  1  0.96692219  0.09951521  0.22928154  1
  O  O65  1  0.72928154  0.53307781  0.90048479  1
  O  O66  1  0.40048479  0.77071846  0.46692219  1
  O  O67  1  0.53307781  0.90048479  0.72928154  1
  O  O68  1  0.77071846  0.46692219  0.40048479  1
  O  O69  1  0.09951521  0.22928154  0.96692219  1
  O  O70  1  0.46692219  0.40048479  0.77071846  1
  O  O71  1  0.22928154  0.96692219  0.09951521  1
  O  O72  1  0.90048479  0.72928154  0.53307781  1
  O  O73  1  0.03307781  0.59951521  0.27071846  1
  O  O74  1  0.27071846  0.03307781  0.59951521  1
  O  O75  1  0.59951521  0.27071846  0.03307781  1
