# generated using pymatgen
data_GdY(FeO3)2
_symmetry_space_group_name_H-M   'P 1'
_cell_length_a   5.38017589
_cell_length_b   5.65800247
_cell_length_c   7.75830727
_cell_angle_alpha   90.00000000
_cell_angle_beta   90.00000000
_cell_angle_gamma   90.00000000
_symmetry_Int_Tables_number   1
_chemical_formula_structural   GdY(FeO3)2
_chemical_formula_sum   'Gd2 Y2 Fe4 O12'
_cell_volume   236.17100769
_cell_formula_units_Z   2
loop_
 _symmetry_equiv_pos_site_id
 _symmetry_equiv_pos_as_xyz
  1  'x, y, z'
loop_
 _atom_site_type_symbol
 _atom_site_label
 _atom_site_symmetry_multiplicity
 _atom_site_fract_x
 _atom_site_fract_y
 _atom_site_fract_z
 _atom_site_occupancy
  Gd  Gd0  1  0.48249624  0.43672709  0.75000000  1
  Gd  Gd1  1  0.01750376  0.93672709  0.75000000  1
  Y  Y2  1  0.51680564  0.56634283  0.25000000  1
  Y  Y3  1  0.98319436  0.06634283  0.25000000  1
  Fe  Fe4  1  0.49995694  0.00049147  0.49842601  1
  Fe  Fe5  1  0.00004306  0.50049147  0.00157399  1
  Fe  Fe6  1  0.49995694  0.00049147  0.00157399  1
  Fe  Fe7  1  0.00004306  0.50049147  0.49842601  1
  O  O8  1  0.80593862  0.80411517  0.05998835  1
  O  O9  1  0.69406138  0.30411517  0.44001165  1
  O  O10  1  0.19379259  0.19641224  0.55512431  1
  O  O11  1  0.30620741  0.69641224  0.94487569  1
  O  O12  1  0.19379259  0.19641224  0.94487569  1
  O  O13  1  0.30620741  0.69641224  0.55512431  1
  O  O14  1  0.80593862  0.80411517  0.44001165  1
  O  O15  1  0.69406138  0.30411517  0.05998835  1
  O  O16  1  0.38484966  0.95632348  0.25000000  1
  O  O17  1  0.11515034  0.45632348  0.25000000  1
  O  O18  1  0.60834508  0.03856882  0.75000000  1
  O  O19  1  0.89165492  0.53856882  0.75000000  1
