# generated using pymatgen
data_DyErFe14B
_symmetry_space_group_name_H-M   'P 1'
_cell_length_a   8.72027597
_cell_length_b   8.72027597
_cell_length_c   11.92570017
_cell_angle_alpha   90.00000000
_cell_angle_beta   90.00000000
_cell_angle_gamma   90.00000000
_symmetry_Int_Tables_number   1
_chemical_formula_structural   DyErFe14B
_chemical_formula_sum   'Dy4 Er4 Fe56 B4'
_cell_volume   906.86855812
_cell_formula_units_Z   4
loop_
 _symmetry_equiv_pos_site_id
 _symmetry_equiv_pos_as_xyz
  1  'x, y, z'
loop_
 _atom_site_type_symbol
 _atom_site_label
 _atom_site_symmetry_multiplicity
 _atom_site_fract_x
 _atom_site_fract_y
 _atom_site_fract_z
 _atom_site_occupancy
  Dy  Dy0  1  0.23256351  0.76743649  0.50000000  1
  Dy  Dy1  1  0.76743649  0.23256351  0.50000000  1
  Dy  Dy2  1  0.26743649  0.26743649  0.00000000  1
  Dy  Dy3  1  0.73256351  0.73256351  0.00000000  1
  Er  Er4  1  0.64211455  0.64211455  0.50000000  1
  Er  Er5  1  0.35788545  0.35788545  0.50000000  1
  Er  Er6  1  0.85788545  0.14211455  0.00000000  1
  Er  Er7  1  0.14211455  0.85788545  0.00000000  1
  Fe  Fe8  1  0.18270947  0.81729053  0.25378632  1
  Fe  Fe9  1  0.81729053  0.18270947  0.25378632  1
  Fe  Fe10  1  0.31729053  0.31729053  0.75378632  1
  Fe  Fe11  1  0.68270947  0.68270947  0.75378632  1
  Fe  Fe12  1  0.81729053  0.18270947  0.74621368  1
  Fe  Fe13  1  0.18270947  0.81729053  0.74621368  1
  Fe  Fe14  1  0.68270947  0.68270947  0.24621368  1
  Fe  Fe15  1  0.31729053  0.31729053  0.24621368  1
  Fe  Fe16  1  0.40263111  0.59736889  0.29810288  1
  Fe  Fe17  1  0.59736889  0.40263111  0.29810288  1
  Fe  Fe18  1  0.09736889  0.09736889  0.79810288  1
  Fe  Fe19  1  0.90263111  0.90263111  0.79810288  1
  Fe  Fe20  1  0.59736889  0.40263111  0.70189712  1
  Fe  Fe21  1  0.40263111  0.59736889  0.70189712  1
  Fe  Fe22  1  0.90263111  0.90263111  0.20189712  1
  Fe  Fe23  1  0.09736889  0.09736889  0.20189712  1
  Fe  Fe24  1  0.14140338  0.53738561  0.32538028  1
  Fe  Fe25  1  0.85859662  0.46261439  0.32538028  1
  Fe  Fe26  1  0.35859662  0.03738561  0.82538028  1
  Fe  Fe27  1  0.64140338  0.96261439  0.82538028  1
  Fe  Fe28  1  0.85859662  0.46261439  0.67461972  1
  Fe  Fe29  1  0.14140338  0.53738561  0.67461972  1
  Fe  Fe30  1  0.64140338  0.96261439  0.17461972  1
  Fe  Fe31  1  0.35859662  0.03738561  0.17461972  1
  Fe  Fe32  1  0.53738561  0.14140338  0.32538028  1
  Fe  Fe33  1  0.46261439  0.85859662  0.32538028  1
  Fe  Fe34  1  0.03738561  0.35859662  0.82538028  1
  Fe  Fe35  1  0.96261439  0.64140338  0.82538028  1
  Fe  Fe36  1  0.46261439  0.85859662  0.67461972  1
  Fe  Fe37  1  0.53738561  0.14140338  0.67461972  1
  Fe  Fe38  1  0.96261439  0.64140338  0.17461972  1
  Fe  Fe39  1  0.03738561  0.35859662  0.17461972  1
  Fe  Fe40  1  0.50000000  0.50000000  0.11425183  1
  Fe  Fe41  1  -0.00000000  0.00000000  0.61425183  1
  Fe  Fe42  1  0.50000000  0.50000000  0.88574817  1
  Fe  Fe43  1  -0.00000000  -0.00000000  0.38574817  1
  Fe  Fe44  1  0.93314060  0.72387921  0.37390547  1
  Fe  Fe45  1  0.06685940  0.27612079  0.37390547  1
  Fe  Fe46  1  0.56685940  0.22387921  0.87390547  1
  Fe  Fe47  1  0.43314060  0.77612079  0.87390547  1
  Fe  Fe48  1  0.06685940  0.27612079  0.62609453  1
  Fe  Fe49  1  0.93314060  0.72387921  0.62609453  1
  Fe  Fe50  1  0.43314060  0.77612079  0.12609453  1
  Fe  Fe51  1  0.56685940  0.22387921  0.12609453  1
  Fe  Fe52  1  0.72387921  0.93314060  0.37390547  1
  Fe  Fe53  1  0.27612079  0.06685940  0.37390547  1
  Fe  Fe54  1  0.22387921  0.56685940  0.87390547  1
  Fe  Fe55  1  0.77612079  0.43314060  0.87390547  1
  Fe  Fe56  1  0.27612079  0.06685940  0.62609453  1
  Fe  Fe57  1  0.72387921  0.93314060  0.62609453  1
  Fe  Fe58  1  0.77612079  0.43314060  0.12609453  1
  Fe  Fe59  1  0.22387921  0.56685940  0.12609453  1
  Fe  Fe60  1  -0.00000000  0.50000000  0.50000000  1
  Fe  Fe61  1  0.50000000  0.00000000  0.00000000  1
  Fe  Fe62  1  0.50000000  0.00000000  0.50000000  1
  Fe  Fe63  1  -0.00000000  0.50000000  0.00000000  1
  B  B64  1  0.87210993  0.87210993  0.50000000  1
  B  B65  1  0.12789007  0.12789007  0.50000000  1
  B  B66  1  0.62789007  0.37210993  0.00000000  1
  B  B67  1  0.37210993  0.62789007  0.00000000  1
