# generated using pymatgen
data_Dy2Si2O7
_symmetry_space_group_name_H-M   'P 1'
_cell_length_a   6.64544565
_cell_length_b   6.68971454
_cell_length_c   18.20318215
_cell_angle_alpha   83.79933163
_cell_angle_beta   88.41957811
_cell_angle_gamma   88.22984875
_symmetry_Int_Tables_number   1
_chemical_formula_structural   Dy2Si2O7
_chemical_formula_sum   'Dy12 Si12 O42'
_cell_volume   803.88551287
_cell_formula_units_Z   6
loop_
 _symmetry_equiv_pos_site_id
 _symmetry_equiv_pos_as_xyz
  1  'x, y, z'
loop_
 _atom_site_type_symbol
 _atom_site_label
 _atom_site_symmetry_multiplicity
 _atom_site_fract_x
 _atom_site_fract_y
 _atom_site_fract_z
 _atom_site_occupancy
  Dy  Dy0  1  0.88295976  0.90037345  0.60758322  1
  Dy  Dy1  1  0.14597859  0.12342385  0.40179181  1
  Dy  Dy2  1  0.38461481  0.65271452  0.90323866  1
  Dy  Dy3  1  0.61663320  0.34751489  0.09679600  1
  Dy  Dy4  1  0.44797307  0.96441367  0.73839358  1
  Dy  Dy5  1  0.54591955  0.03046019  0.25892036  1
  Dy  Dy6  1  0.87806647  0.34753696  0.91032933  1
  Dy  Dy7  1  0.12113747  0.65312874  0.08977987  1
  Dy  Dy8  1  0.18432111  0.47063765  0.73786822  1
  Dy  Dy9  1  0.81414437  0.53189759  0.26447171  1
  Dy  Dy10  1  0.55443702  0.37614230  0.58792119  1
  Dy  Dy11  1  0.40862188  0.61032071  0.41435853  1
  Si  Si12  1  0.87616795  0.81568146  0.93771079  1
  Si  Si13  1  0.12386083  0.18397239  0.06267316  1
  Si  Si14  1  0.66234801  0.49000349  0.74022399  1
  Si  Si15  1  0.33896032  0.51097649  0.25707171  1
  Si  Si16  1  0.99556138  0.95770183  0.78683586  1
  Si  Si17  1  0.00603247  0.04405450  0.21447462  1
  Si  Si18  1  0.36466696  0.17586225  0.91922541  1
  Si  Si19  1  0.63544517  0.82340856  0.08087053  1
  Si  Si20  1  0.34831641  0.86341162  0.57930929  1
  Si  Si21  1  0.65220209  0.12993846  0.41861624  1
  Si  Si22  1  0.04211577  0.39334717  0.55283938  1
  Si  Si23  1  0.90135630  0.72893114  0.44353774  1
  O  O24  1  0.22504866  0.78276287  0.65834167  1
  O  O25  1  0.78959666  0.22226979  0.34679048  1
  O  O26  1  0.49686157  0.62757819  0.78407414  1
  O  O27  1  0.50620444  0.37252475  0.21515311  1
  O  O28  1  0.54615486  0.30491822  0.94998865  1
  O  O29  1  0.45417867  0.69463811  0.05001383  1
  O  O30  1  0.45499027  0.68773392  0.53280251  1
  O  O31  1  0.55919312  0.29767908  0.46884423  1
  O  O32  1  0.80708466  0.94018987  0.73321886  1
  O  O33  1  0.19933248  0.06339312  0.26476760  1
  O  O34  1  0.15047307  0.12878065  0.75248940  1
  O  O35  1  0.85054774  0.87123152  0.24781277  1
  O  O36  1  0.85656682  0.41391971  0.78885516  1
  O  O37  1  0.14101853  0.58492055  0.21075164  1
  O  O38  1  0.73104783  0.59955947  0.65978430  1
  O  O39  1  0.27342715  0.40052437  0.33750856  1
  O  O40  1  0.86666592  0.23923471  0.58454562  1
  O  O41  1  0.11740709  0.78476012  0.40501879  1
  O  O42  1  0.72684879  0.65201969  0.91254332  1
  O  O43  1  0.27348038  0.34820380  0.08744746  1
  O  O44  1  0.43402886  0.99162017  0.87212328  1
  O  O45  1  0.56519588  0.00812027  0.12764331  1
  O  O46  1  0.17397456  0.98844738  0.53151741  1
  O  O47  1  0.80763966  0.95962754  0.46541086  1
  O  O48  1  0.08164275  0.68936369  0.96408154  1
  O  O49  1  0.91860314  0.31081276  0.03592845  1
  O  O50  1  0.52589250  0.00368900  0.61087896  1
  O  O51  1  0.47225804  0.00035699  0.38617271  1
  O  O52  1  0.20920524  0.40033299  0.61581419  1
  O  O53  1  0.75365234  0.63181245  0.38965798  1
  O  O54  1  0.51309103  0.30891502  0.71943924  1
  O  O55  1  0.48420248  0.69211932  0.27840774  1
  O  O56  1  0.91363629  0.62253590  0.53166562  1
  O  O57  1  0.13637794  0.37988258  0.47027284  1
  O  O58  1  0.78055392  0.91930585  0.00965000  1
  O  O59  1  0.21931671  0.08050561  0.99054618  1
  O  O60  1  0.22070602  0.35678010  0.87560404  1
  O  O61  1  0.77924814  0.64331475  0.12480624  1
  O  O62  1  0.13158193  0.75079350  0.80739948  1
  O  O63  1  0.86801472  0.25026042  0.19390341  1
  O  O64  1  0.90922723  0.01085026  0.87345219  1
  O  O65  1  0.08868094  0.98945708  0.12673104  1
