# generated using pymatgen
data_Al2ZnS4
_symmetry_space_group_name_H-M   'P 1'
_cell_length_a   3.69435912
_cell_length_b   3.69436006
_cell_length_c   13.22045660
_cell_angle_alpha   81.96827975
_cell_angle_beta   81.96828094
_cell_angle_gamma   59.99999949
_symmetry_Int_Tables_number   1
_chemical_formula_structural   Al2ZnS4
_chemical_formula_sum   'Al2 Zn1 S4'
_cell_volume   154.21561150
_cell_formula_units_Z   1
loop_
 _symmetry_equiv_pos_site_id
 _symmetry_equiv_pos_as_xyz
  1  'x, y, z'
loop_
 _atom_site_type_symbol
 _atom_site_label
 _atom_site_symmetry_multiplicity
 _atom_site_fract_x
 _atom_site_fract_y
 _atom_site_fract_z
 _atom_site_occupancy
  Al  Al0  1  0.24348968  0.24348968  0.26952996  1
  Al  Al1  1  0.75534973  0.75534973  0.73395180  1
  Zn  Zn2  1  0.99948533  0.99948533  0.00154401  1
  S  S3  1  0.11364708  0.11364708  0.65905976  1
  S  S4  1  0.88516211  0.88516211  0.34451267  1
  S  S5  1  0.69977908  0.69977908  0.90066177  1
  S  S6  1  0.29908699  0.29908699  0.10274003  1
