# generated using pymatgen
data_Ga2S3
_symmetry_space_group_name_H-M   'P 1'
_cell_length_a   3.71271973
_cell_length_b   5.46998006
_cell_length_c   6.52421742
_cell_angle_alpha   65.21554115
_cell_angle_beta   73.46902100
_cell_angle_gamma   90.00000000
_symmetry_Int_Tables_number   1
_chemical_formula_structural   Ga2S3
_chemical_formula_sum   'Ga2 S3'
_cell_volume   114.23270325
_cell_formula_units_Z   1
loop_
 _symmetry_equiv_pos_site_id
 _symmetry_equiv_pos_as_xyz
  1  'x, y, z'
loop_
 _atom_site_type_symbol
 _atom_site_label
 _atom_site_symmetry_multiplicity
 _atom_site_fract_x
 _atom_site_fract_y
 _atom_site_fract_z
 _atom_site_occupancy
  Ga  Ga0  1  0.00650717  0.01424417  0.98698565  1
  Ga  Ga1  1  0.32682583  0.33456283  0.34634735  1
  S  S2  1  0.50042885  0.74475059  0.99914229  1
  S  S3  1  0.83290415  0.07722588  0.33419071  1
  S  S4  1  0.16666700  0.41254953  0.66666700  1
