# generated using pymatgen
data_GdAlCu4
_symmetry_space_group_name_H-M   'P 1'
_cell_length_a   4.05317173
_cell_length_b   5.18674335
_cell_length_c   5.18656102
_cell_angle_alpha   120.00383301
_cell_angle_beta   90.00000000
_cell_angle_gamma   90.00000000
_symmetry_Int_Tables_number   1
_chemical_formula_structural   GdAlCu4
_chemical_formula_sum   'Gd1 Al1 Cu4'
_cell_volume   94.42415602
_cell_formula_units_Z   1
loop_
 _symmetry_equiv_pos_site_id
 _symmetry_equiv_pos_as_xyz
  1  'x, y, z'
loop_
 _atom_site_type_symbol
 _atom_site_label
 _atom_site_symmetry_multiplicity
 _atom_site_fract_x
 _atom_site_fract_y
 _atom_site_fract_z
 _atom_site_occupancy
  Gd  Gd0  1  0.00000000  0.99997245  0.00000907  1
  Al  Al1  1  0.00000000  0.33334343  0.66666442  1
  Cu  Cu2  1  0.00000000  0.66661303  0.33329911  1
  Cu  Cu3  1  0.50000000  0.50079475  0.00162888  1
  Cu  Cu4  1  0.50000000  0.50081031  0.49919396  1
  Cu  Cu5  1  0.50000000  -0.00163396  0.49920456  1
