# generated using pymatgen
data_ErCdIn
_symmetry_space_group_name_H-M   'P 1'
_cell_length_a   4.87334447
_cell_length_b   4.87301390
_cell_length_c   7.32692313
_cell_angle_alpha   90.00000000
_cell_angle_beta   89.99884682
_cell_angle_gamma   60.00224382
_symmetry_Int_Tables_number   1
_chemical_formula_structural   ErCdIn
_chemical_formula_sum   'Er2 Cd2 In2'
_cell_volume   150.69083729
_cell_formula_units_Z   2
loop_
 _symmetry_equiv_pos_site_id
 _symmetry_equiv_pos_as_xyz
  1  'x, y, z'
loop_
 _atom_site_type_symbol
 _atom_site_label
 _atom_site_symmetry_multiplicity
 _atom_site_fract_x
 _atom_site_fract_y
 _atom_site_fract_z
 _atom_site_occupancy
  Er  Er0  1  -0.00001404  0.00000702  0.73872877  1
  Er  Er1  1  0.00001404  -0.00000702  0.26127123  1
  Cd  Cd2  1  0.33333924  0.33333038  0.53240877  1
  Cd  Cd3  1  0.66666076  0.66666962  0.46759123  1
  In  In4  1  0.66664249  0.66667876  0.04678601  1
  In  In5  1  0.33335751  0.33332124  0.95321399  1
