# generated using pymatgen
data_AlCuS2
_symmetry_space_group_name_H-M   'P 1'
_cell_length_a   3.61154269
_cell_length_b   3.61154228
_cell_length_c   6.36251476
_cell_angle_alpha   73.51202775
_cell_angle_beta   73.51202950
_cell_angle_gamma   60.00000380
_symmetry_Int_Tables_number   1
_chemical_formula_structural   AlCuS2
_chemical_formula_sum   'Al1 Cu1 S2'
_cell_volume   67.90053783
_cell_formula_units_Z   1
loop_
 _symmetry_equiv_pos_site_id
 _symmetry_equiv_pos_as_xyz
  1  'x, y, z'
loop_
 _atom_site_type_symbol
 _atom_site_label
 _atom_site_symmetry_multiplicity
 _atom_site_fract_x
 _atom_site_fract_y
 _atom_site_fract_z
 _atom_site_occupancy
  Al  Al0  1  0.00205650  0.00205650  0.99383050  1
  Cu  Cu1  1  0.85864098  0.85864098  0.42407707  1
  S  S2  1  0.73358112  0.73358112  0.79925663  1
  S  S3  1  0.25272140  0.25272140  0.24183579  1
