# generated using pymatgen
data_Cr3GaS6
_symmetry_space_group_name_H-M   'P 1'
_cell_length_a   7.07046796
_cell_length_b   7.07046796
_cell_length_c   17.32027557
_cell_angle_alpha   90.00000000
_cell_angle_beta   90.00000000
_cell_angle_gamma   120.00000000
_symmetry_Int_Tables_number   1
_chemical_formula_structural   Cr3GaS6
_chemical_formula_sum   'Cr12 Ga4 S24'
_cell_volume   749.86269111
_cell_formula_units_Z   4
loop_
 _symmetry_equiv_pos_site_id
 _symmetry_equiv_pos_as_xyz
  1  'x, y, z'
loop_
 _atom_site_type_symbol
 _atom_site_label
 _atom_site_symmetry_multiplicity
 _atom_site_fract_x
 _atom_site_fract_y
 _atom_site_fract_z
 _atom_site_occupancy
  Cr  Cr0  1  0.16962708  0.83037292  0.20940655  1
  Cr  Cr1  1  0.84321201  0.15678799  0.53982036  1
  Cr  Cr2  1  0.50450713  0.49549287  0.87136835  1
  Cr  Cr3  1  0.16962708  0.33925416  0.20940655  1
  Cr  Cr4  1  0.84321201  0.68642302  0.53982036  1
  Cr  Cr5  1  0.50450713  0.00901526  0.87136835  1
  Cr  Cr6  1  0.33333300  0.66666700  0.04067211  1
  Cr  Cr7  1  -0.00000000  0.00000000  0.38342776  1
  Cr  Cr8  1  0.66666700  0.33333300  0.71416118  1
  Cr  Cr9  1  0.66074584  0.83037292  0.20940655  1
  Cr  Cr10  1  0.31357698  0.15678799  0.53982036  1
  Cr  Cr11  1  0.99098474  0.49549287  0.87136835  1
  Ga  Ga12  1  -0.00000000  0.00000000  0.99968561  1
  Ga  Ga13  1  0.66666700  0.33333300  0.33559099  1
  Ga  Ga14  1  0.33333300  0.66666700  0.66442406  1
  Ga  Ga15  1  0.66666700  0.33333300  0.08276000  1
  S  S16  1  0.17958912  0.82041088  0.95528370  1
  S  S17  1  0.84658658  0.15341342  0.28840180  1
  S  S18  1  0.51303461  0.48696539  0.62158693  1
  S  S19  1  0.17958912  0.35917825  0.95528370  1
  S  S20  1  0.84658658  0.69317217  0.28840180  1
  S  S21  1  0.51303461  0.02607022  0.62158693  1
  S  S22  1  0.33333300  0.66666700  0.80111721  1
  S  S23  1  -0.00000000  0.00000000  0.13489793  1
  S  S24  1  0.66666700  0.33333300  0.46853371  1
  S  S25  1  0.64082175  0.82041088  0.95528370  1
  S  S26  1  0.30682783  0.15341342  0.28840180  1
  S  S27  1  0.97392978  0.48696539  0.62158693  1
  S  S28  1  0.82035120  0.17964880  0.79597164  1
  S  S29  1  0.48659252  0.51340748  0.12777390  1
  S  S30  1  0.15446141  0.84553859  0.46087624  1
  S  S31  1  0.82035120  0.64070140  0.79597164  1
  S  S32  1  0.48659252  0.97318605  0.12777390  1
  S  S33  1  0.15446141  0.30892283  0.46087624  1
  S  S34  1  0.66666700  0.33333300  0.94913585  1
  S  S35  1  0.33333300  0.66666700  0.28099845  1
  S  S36  1  -0.00000000  -0.00000000  0.61645972  1
  S  S37  1  0.35929860  0.17964880  0.79597164  1
  S  S38  1  0.02681395  0.51340748  0.12777390  1
  S  S39  1  0.69107717  0.84553859  0.46087624  1
