# generated using pymatgen
data_Cr2Se3
_symmetry_space_group_name_H-M   'P 1'
_cell_length_a   6.96539315
_cell_length_b   7.29194795
_cell_length_c   8.58159149
_cell_angle_alpha   90.87194845
_cell_angle_beta   75.74172059
_cell_angle_gamma   106.21288822
_symmetry_Int_Tables_number   1
_chemical_formula_structural   Cr2Se3
_chemical_formula_sum   'Cr8 Se12'
_cell_volume   404.97098187
_cell_formula_units_Z   4
loop_
 _symmetry_equiv_pos_site_id
 _symmetry_equiv_pos_as_xyz
  1  'x, y, z'
loop_
 _atom_site_type_symbol
 _atom_site_label
 _atom_site_symmetry_multiplicity
 _atom_site_fract_x
 _atom_site_fract_y
 _atom_site_fract_z
 _atom_site_occupancy
  Cr  Cr0  1  0.00396572  0.00447747  0.99567074  1
  Cr  Cr1  1  0.66271170  0.66217090  0.33771479  1
  Cr  Cr2  1  0.30860869  0.58560413  0.16592965  1
  Cr  Cr3  1  0.98507043  0.25965752  0.50855711  1
  Cr  Cr4  1  0.65248381  0.92851756  0.82124008  1
  Cr  Cr5  1  0.35814101  0.08104770  0.16734239  1
  Cr  Cr6  1  0.01426456  0.73820619  0.51214335  1
  Cr  Cr7  1  0.68154534  0.40700475  0.82478009  1
  Se  Se8  1  0.29395815  0.31279182  0.97613508  1
  Se  Se9  1  0.95672095  0.98414861  0.30778319  1
  Se  Se10  1  0.62539238  0.64973040  0.64042972  1
  Se  Se11  1  0.37268773  0.35376389  0.35724016  1
  Se  Se12  1  0.04129953  0.01699350  0.69286724  1
  Se  Se13  1  0.70982498  0.68252740  0.02542011  1
  Se  Se14  1  0.39099707  0.84394695  0.36280681  1
  Se  Se15  1  0.05591591  0.51172999  0.69822604  1
  Se  Se16  1  0.73080549  0.18404947  0.02397937  1
  Se  Se17  1  0.27569573  0.82270285  0.97049041  1
  Se  Se18  1  0.93593630  0.48277499  0.30941040  1
  Se  Se19  1  0.61064151  0.15482091  0.63516626  1
