# generated using pymatgen
data_CeZnNi4
_symmetry_space_group_name_H-M   'P 1'
_cell_length_a   3.91689132
_cell_length_b   5.01107699
_cell_length_c   4.99965021
_cell_angle_alpha   119.94608880
_cell_angle_beta   90.00000000
_cell_angle_gamma   90.00000000
_symmetry_Int_Tables_number   1
_chemical_formula_structural   CeZnNi4
_chemical_formula_sum   'Ce1 Zn1 Ni4'
_cell_volume   85.03124176
_cell_formula_units_Z   1
loop_
 _symmetry_equiv_pos_site_id
 _symmetry_equiv_pos_as_xyz
  1  'x, y, z'
loop_
 _atom_site_type_symbol
 _atom_site_label
 _atom_site_symmetry_multiplicity
 _atom_site_fract_x
 _atom_site_fract_y
 _atom_site_fract_z
 _atom_site_occupancy
  Ce  Ce0  1  0.00000000  0.00017030  0.00013227  1
  Zn  Zn1  1  -0.00000000  0.33339319  0.66671755  1
  Ni  Ni2  1  -0.00000000  0.66667191  0.33333621  1
  Ni  Ni3  1  0.50000000  0.50229807  0.00468057  1
  Ni  Ni4  1  0.50000000  0.50229050  0.49760520  1
  Ni  Ni5  1  0.50000000  0.99507604  0.49752821  1
