# generated using pymatgen
data_Cs2U2O7
_symmetry_space_group_name_H-M   'P 1'
_cell_length_a   4.33216921
_cell_length_b   7.60384998
_cell_length_c   7.75272256
_cell_angle_alpha   111.48475288
_cell_angle_beta   90.00000000
_cell_angle_gamma   73.44911177
_symmetry_Int_Tables_number   1
_chemical_formula_structural   Cs2U2O7
_chemical_formula_sum   'Cs2 U2 O7'
_cell_volume   226.22862737
_cell_formula_units_Z   1
loop_
 _symmetry_equiv_pos_site_id
 _symmetry_equiv_pos_as_xyz
  1  'x, y, z'
loop_
 _atom_site_type_symbol
 _atom_site_label
 _atom_site_symmetry_multiplicity
 _atom_site_fract_x
 _atom_site_fract_y
 _atom_site_fract_z
 _atom_site_occupancy
  Cs  Cs0  1  0.61278359  0.78371996  0.57037394  1
  Cs  Cs1  1  0.39650355  0.21628004  0.42962606  1
  U  U2  1  0.82931206  0.29143981  0.99276432  1
  U  U3  1  0.12075187  0.70856019  0.00723568  1
  O  O4  1  0.79697995  0.38687519  0.25492955  1
  O  O5  1  0.18385515  0.61312481  0.74507045  1
  O  O6  1  0.67149746  0.61632343  0.00406909  1
  O  O7  1  0.28782089  0.38367657  0.99593091  1
  O  O8  1  0.07453475  0.82368815  0.26980063  1
  O  O9  1  0.89822290  0.17631185  0.73019937  1
  O  O10  1  0.88673783  -0.00000000  -0.00000000  1
