# generated using pymatgen
data_Cr4CuNiSe8
_symmetry_space_group_name_H-M   'P 1'
_cell_length_a   7.30674427
_cell_length_b   7.30674427
_cell_length_c   7.30674427
_cell_angle_alpha   90.00000000
_cell_angle_beta   60.00000000
_cell_angle_gamma   120.00000000
_symmetry_Int_Tables_number   1
_chemical_formula_structural   Cr4CuNiSe8
_chemical_formula_sum   'Cr4 Cu1 Ni1 Se8'
_cell_volume   275.83967010
_cell_formula_units_Z   1
loop_
 _symmetry_equiv_pos_site_id
 _symmetry_equiv_pos_as_xyz
  1  'x, y, z'
loop_
 _atom_site_type_symbol
 _atom_site_label
 _atom_site_symmetry_multiplicity
 _atom_site_fract_x
 _atom_site_fract_y
 _atom_site_fract_z
 _atom_site_occupancy
  Cr  Cr0  1  0.49743610  0.99615414  0.50128195  1
  Cr  Cr1  1  0.49743610  0.50128195  0.50128195  1
  Cr  Cr2  1  0.00256390  0.50128195  0.99615414  1
  Cr  Cr3  1  0.00256390  0.50128195  0.50128195  1
  Cu  Cu4  1  0.25000000  0.12500000  0.12500000  1
  Ni  Ni5  1  0.75000000  0.87500000  0.87500000  1
  Se  Se6  1  0.98388360  0.72582540  0.25805820  1
  Se  Se7  1  0.98388360  0.25805820  0.25805820  1
  Se  Se8  1  0.51611640  0.25805820  0.72582540  1
  Se  Se9  1  0.51611640  0.25805820  0.25805820  1
  Se  Se10  1  0.00906990  0.26360486  0.74546505  1
  Se  Se11  1  0.00906990  0.74546505  0.74546505  1
  Se  Se12  1  0.49093010  0.74546505  0.26360486  1
  Se  Se13  1  0.49093010  0.74546505  0.74546505  1
