# generated using pymatgen
data_CeTh4O10
_symmetry_space_group_name_H-M   'P 1'
_cell_length_a   3.95365414
_cell_length_b   14.24769469
_cell_length_c   3.95365414
_cell_angle_alpha   97.97535585
_cell_angle_beta   90.00000000
_cell_angle_gamma   82.02464415
_symmetry_Int_Tables_number   1
_chemical_formula_structural   CeTh4O10
_chemical_formula_sum   'Ce1 Th4 O10'
_cell_volume   218.38170131
_cell_formula_units_Z   1
loop_
 _symmetry_equiv_pos_site_id
 _symmetry_equiv_pos_as_xyz
  1  'x, y, z'
loop_
 _atom_site_type_symbol
 _atom_site_label
 _atom_site_symmetry_multiplicity
 _atom_site_fract_x
 _atom_site_fract_y
 _atom_site_fract_z
 _atom_site_occupancy
  Ce  Ce0  1  0.00000000  -0.00000000  -0.00000000  1
  Th  Th1  1  0.40128769  0.19742462  0.59871231  1
  Th  Th2  1  0.80037384  0.39925232  0.19962616  1
  Th  Th3  1  0.19962616  0.60074768  0.80037384  1
  Th  Th4  1  0.59871231  0.80257538  0.40128769  1
  O  O5  1  0.64925627  0.70148746  0.85074373  1
  O  O6  1  0.04868204  0.90263592  0.45131796  1
  O  O7  1  0.45131796  0.09736408  0.04868204  1
  O  O8  1  0.85074373  0.29851254  0.64925627  1
  O  O9  1  0.25000000  0.50000000  0.25000000  1
  O  O10  1  0.54868204  0.90263592  0.95131796  1
  O  O11  1  0.95131796  0.09736408  0.54868204  1
  O  O12  1  0.35074373  0.29851254  0.14925627  1
  O  O13  1  0.75000000  0.50000000  0.75000000  1
  O  O14  1  0.14925627  0.70148746  0.35074373  1
