# generated using pymatgen
data_CaThNb2O8
_symmetry_space_group_name_H-M   'P 1'
_cell_length_a   5.21441771
_cell_length_b   5.47985951
_cell_length_c   6.74135964
_cell_angle_alpha   67.73908604
_cell_angle_beta   69.03903586
_cell_angle_gamma   94.09396348
_symmetry_Int_Tables_number   1
_chemical_formula_structural   CaThNb2O8
_chemical_formula_sum   'Ca1 Th1 Nb2 O8'
_cell_volume   161.63356673
_cell_formula_units_Z   1
loop_
 _symmetry_equiv_pos_site_id
 _symmetry_equiv_pos_as_xyz
  1  'x, y, z'
loop_
 _atom_site_type_symbol
 _atom_site_label
 _atom_site_symmetry_multiplicity
 _atom_site_fract_x
 _atom_site_fract_y
 _atom_site_fract_z
 _atom_site_occupancy
  Ca  Ca0  1  0.62084327  0.37084327  0.25831345  1
  Th  Th1  1  0.37845208  0.62845208  0.74309585  1
  Nb  Nb2  1  0.14298949  0.89298949  0.21402102  1
  Nb  Nb3  1  0.85531502  0.10531502  0.78936997  1
  O  O4  1  0.41988014  0.72832370  0.06050337  1
  O  O5  1  0.98962904  0.78991545  0.93002398  1
  O  O6  1  0.58034698  0.28006056  0.93002398  1
  O  O7  1  0.01961648  0.21117293  0.06050337  1
  O  O8  1  0.79469677  0.63817816  0.42068751  1
  O  O9  1  0.71323366  0.04669275  0.58638499  1
  O  O10  1  0.20038135  0.36692225  0.58638499  1
  O  O11  1  0.28461572  0.94113433  0.42068751  1
