# generated using pymatgen
data_Ce2NiSn4
_symmetry_space_group_name_H-M   'P 1'
_cell_length_a   4.50225421
_cell_length_b   4.52709446
_cell_length_c   8.89830997
_cell_angle_alpha   75.26317971
_cell_angle_beta   90.00000000
_cell_angle_gamma   90.00000000
_symmetry_Int_Tables_number   1
_chemical_formula_structural   Ce2NiSn4
_chemical_formula_sum   'Ce2 Ni1 Sn4'
_cell_volume   175.40036547
_cell_formula_units_Z   1
loop_
 _symmetry_equiv_pos_site_id
 _symmetry_equiv_pos_as_xyz
  1  'x, y, z'
loop_
 _atom_site_type_symbol
 _atom_site_label
 _atom_site_symmetry_multiplicity
 _atom_site_fract_x
 _atom_site_fract_y
 _atom_site_fract_z
 _atom_site_occupancy
  Ce  Ce0  1  0.25000000  0.89541432  0.20917135  1
  Ce  Ce1  1  0.75000000  0.10373697  0.79252606  1
  Ni  Ni2  1  0.25000000  0.68946641  0.62106717  1
  Sn  Sn3  1  0.25000000  0.25819957  0.48360087  1
  Sn  Sn4  1  0.75000000  0.75906551  0.48186897  1
  Sn  Sn5  1  0.25000000  0.54462718  0.91074564  1
  Sn  Sn6  1  0.75000000  0.43409003  0.13181993  1
