# generated using pymatgen
data_BaSrTm4O8
_symmetry_space_group_name_H-M   'P 1'
_cell_length_a   3.40521729
_cell_length_b   10.25962899
_cell_length_c   11.98477854
_cell_angle_alpha   90.00000000
_cell_angle_beta   90.00000000
_cell_angle_gamma   90.00000000
_symmetry_Int_Tables_number   1
_chemical_formula_structural   BaSrTm4O8
_chemical_formula_sum   'Ba2 Sr2 Tm8 O16'
_cell_volume   418.70341133
_cell_formula_units_Z   2
loop_
 _symmetry_equiv_pos_site_id
 _symmetry_equiv_pos_as_xyz
  1  'x, y, z'
loop_
 _atom_site_type_symbol
 _atom_site_label
 _atom_site_symmetry_multiplicity
 _atom_site_fract_x
 _atom_site_fract_y
 _atom_site_fract_z
 _atom_site_occupancy
  Ba  Ba0  1  0.75000000  0.74658646  0.14931326  1
  Ba  Ba1  1  0.75000000  0.24658646  0.35068674  1
  Sr  Sr2  1  0.25000000  0.25390632  0.85129826  1
  Sr  Sr3  1  0.25000000  0.75390632  0.64870174  1
  Tm  Tm4  1  0.75000000  0.07648539  0.61201021  1
  Tm  Tm5  1  0.75000000  0.57648539  0.88798979  1
  Tm  Tm6  1  0.25000000  0.92069315  0.39428203  1
  Tm  Tm7  1  0.25000000  0.42069315  0.10571797  1
  Tm  Tm8  1  0.75000000  0.07492364  0.10786859  1
  Tm  Tm9  1  0.75000000  0.57492364  0.39213141  1
  Tm  Tm10  1  0.25000000  0.92845987  0.88526294  1
  Tm  Tm11  1  0.25000000  0.42845987  0.61473706  1
  O  O12  1  0.75000000  0.98055913  0.28416545  1
  O  O13  1  0.75000000  0.48055913  0.21583455  1
  O  O14  1  0.25000000  0.01685174  0.71727641  1
  O  O15  1  0.25000000  0.51685174  0.78272359  1
  O  O16  1  0.75000000  0.37856911  0.97718112  1
  O  O17  1  0.75000000  0.87856911  0.52281888  1
  O  O18  1  0.25000000  0.61355977  0.01469234  1
  O  O19  1  0.25000000  0.11355977  0.48530766  1
  O  O20  1  0.75000000  0.07651797  0.92156570  1
  O  O21  1  0.75000000  0.57651797  0.57843430  1
  O  O22  1  0.25000000  0.93282151  0.07113696  1
  O  O23  1  0.25000000  0.43282151  0.42886304  1
  O  O24  1  0.75000000  0.29047359  0.66697812  1
  O  O25  1  0.75000000  0.79047359  0.83302188  1
  O  O26  1  0.25000000  0.70959235  0.34137646  1
  O  O27  1  0.25000000  0.20959235  0.15862354  1
