# generated using pymatgen
data_Cs2ZrAl2(MoO4)6
_symmetry_space_group_name_H-M   'P 1'
_cell_length_a   8.64229168
_cell_length_b   8.82232281
_cell_length_c   8.63722695
_cell_angle_alpha   98.95535691
_cell_angle_beta   99.56192283
_cell_angle_gamma   99.13009976
_symmetry_Int_Tables_number   1
_chemical_formula_structural   Cs2ZrAl2(MoO4)6
_chemical_formula_sum   'Cs2 Zr1 Al2 Mo6 O24'
_cell_volume   629.86427646
_cell_formula_units_Z   1
loop_
 _symmetry_equiv_pos_site_id
 _symmetry_equiv_pos_as_xyz
  1  'x, y, z'
loop_
 _atom_site_type_symbol
 _atom_site_label
 _atom_site_symmetry_multiplicity
 _atom_site_fract_x
 _atom_site_fract_y
 _atom_site_fract_z
 _atom_site_occupancy
  Cs  Cs0  1  0.17295605  0.17794896  0.17264177  1
  Cs  Cs1  1  0.82704316  0.82205025  0.82735608  1
  Zr  Zr2  1  0.50000159  0.00000145  0.50000078  1
  Al  Al3  1  0.99999926  0.50000072  0.49999940  1
  Al  Al4  1  0.49999817  0.50000224  0.00000063  1
  Mo  Mo5  1  0.21089207  0.23854690  0.68067184  1
  Mo  Mo6  1  0.22263441  0.66034010  0.20957828  1
  Mo  Mo7  1  0.68052292  0.22870569  0.22386955  1
  Mo  Mo8  1  0.78910994  0.76145410  0.31933002  1
  Mo  Mo9  1  0.77736892  0.33966332  0.79042528  1
  Mo  Mo10  1  0.31947951  0.77129630  0.77613262  1
  O  O11  1  0.04398326  0.12065068  0.71524501  1
  O  O12  1  0.09699380  0.68142840  0.03849529  1
  O  O13  1  0.71068063  0.06207309  0.10497709  1
  O  O14  1  0.95601870  0.87934992  0.28475622  1
  O  O15  1  0.90300784  0.31857076  0.96150688  1
  O  O16  1  0.28931892  0.93792786  0.89502384  1
  O  O17  1  0.32458304  0.11746067  0.56967156  1
  O  O18  1  0.11388720  0.56251980  0.33895128  1
  O  O19  1  0.57329219  0.34496170  0.10660140  1
  O  O20  1  0.67541840  0.88254080  0.43032962  1
  O  O21  1  0.88611689  0.43748369  0.66105196  1
  O  O22  1  0.42670942  0.65503942  0.89340196  1
  O  O23  1  0.15005336  0.37024645  0.55185295  1
  O  O24  1  0.36475958  0.54147742  0.15345808  1
  O  O25  1  0.54646237  0.16699743  0.35602763  1
  O  O26  1  0.84994928  0.62975336  0.44814758  1
  O  O27  1  0.63524406  0.45852589  0.84654643  1
  O  O28  1  0.45354019  0.83300581  0.64397523  1
  O  O29  1  0.32841230  0.34442827  0.87026267  1
  O  O30  1  0.33000571  0.85698197  0.31042537  1
  O  O31  1  0.87103044  0.33115944  0.34309041  1
  O  O32  1  0.67159160  0.65557530  0.12973836  1
  O  O33  1  0.66999609  0.14302212  0.68957570  1
  O  O34  1  0.12897168  0.66884473  0.65691325  1
