# generated using pymatgen
data_Ce2NiSn2Pt
_symmetry_space_group_name_H-M   'P 1'
_cell_length_a   4.57704625
_cell_length_b   7.38146157
_cell_length_c   7.91619130
_cell_angle_alpha   90.00000000
_cell_angle_beta   90.00000000
_cell_angle_gamma   90.00000000
_symmetry_Int_Tables_number   1
_chemical_formula_structural   Ce2NiSn2Pt
_chemical_formula_sum   'Ce4 Ni2 Sn4 Pt2'
_cell_volume   267.45082667
_cell_formula_units_Z   2
loop_
 _symmetry_equiv_pos_site_id
 _symmetry_equiv_pos_as_xyz
  1  'x, y, z'
loop_
 _atom_site_type_symbol
 _atom_site_label
 _atom_site_symmetry_multiplicity
 _atom_site_fract_x
 _atom_site_fract_y
 _atom_site_fract_z
 _atom_site_occupancy
  Ce  Ce0  1  0.75000000  0.48406390  0.19662982  1
  Ce  Ce1  1  0.75000000  0.98406390  0.30337018  1
  Ce  Ce2  1  0.25000000  0.51264189  0.80472859  1
  Ce  Ce3  1  0.25000000  0.01264189  0.69527141  1
  Ni  Ni4  1  0.25000000  0.79310728  0.08763223  1
  Ni  Ni5  1  0.25000000  0.29310728  0.41236777  1
  Sn  Sn6  1  0.75000000  0.31674904  0.57511769  1
  Sn  Sn7  1  0.75000000  0.81674904  0.92488231  1
  Sn  Sn8  1  0.25000000  0.67557150  0.40427976  1
  Sn  Sn9  1  0.25000000  0.17557150  0.09572024  1
  Pt  Pt10  1  0.75000000  0.21786640  0.90972856  1
  Pt  Pt11  1  0.75000000  0.71786640  0.59027144  1
