# generated using pymatgen
data_Ca(TmTe2)2
_symmetry_space_group_name_H-M   'P 1'
_cell_length_a   4.37048456
_cell_length_b   7.73153767
_cell_length_c   7.45808191
_cell_angle_alpha   72.17248193
_cell_angle_beta   90.00000339
_cell_angle_gamma   89.99999904
_symmetry_Int_Tables_number   1
_chemical_formula_structural   Ca(TmTe2)2
_chemical_formula_sum   'Ca1 Tm2 Te4'
_cell_volume   239.91177485
_cell_formula_units_Z   1
loop_
 _symmetry_equiv_pos_site_id
 _symmetry_equiv_pos_as_xyz
  1  'x, y, z'
loop_
 _atom_site_type_symbol
 _atom_site_label
 _atom_site_symmetry_multiplicity
 _atom_site_fract_x
 _atom_site_fract_y
 _atom_site_fract_z
 _atom_site_occupancy
  Ca  Ca0  1  0.00000000  0.50000000  0.50000000  1
  Tm  Tm1  1  0.00000000  -0.00000000  0.00000000  1
  Tm  Tm2  1  0.50000000  -0.00000000  0.50000000  1
  Te  Te3  1  0.50000000  0.24176162  0.76124764  1
  Te  Te4  1  1.00000000  0.23532398  0.25442759  1
  Te  Te5  1  0.50000000  0.75823838  0.23875236  1
  Te  Te6  1  0.00000000  0.76467602  0.74557241  1
