# generated using pymatgen
data_CaSmAl3O7
_symmetry_space_group_name_H-M   'P 1'
_cell_length_a   5.14050434
_cell_length_b   7.79996105
_cell_length_c   7.79996105
_cell_angle_alpha   89.48922151
_cell_angle_beta   90.00000000
_cell_angle_gamma   90.00000000
_symmetry_Int_Tables_number   1
_chemical_formula_structural   CaSmAl3O7
_chemical_formula_sum   'Ca2 Sm2 Al6 O14'
_cell_volume   312.73273291
_cell_formula_units_Z   2
loop_
 _symmetry_equiv_pos_site_id
 _symmetry_equiv_pos_as_xyz
  1  'x, y, z'
loop_
 _atom_site_type_symbol
 _atom_site_label
 _atom_site_symmetry_multiplicity
 _atom_site_fract_x
 _atom_site_fract_y
 _atom_site_fract_z
 _atom_site_occupancy
  Ca  Ca0  1  0.51679759  0.33956748  0.16043252  1
  Ca  Ca1  1  0.51679759  0.66043252  0.83956748  1
  Sm  Sm2  1  0.48820111  0.16253926  0.66253926  1
  Sm  Sm3  1  0.48820111  0.83746074  0.33746074  1
  Al  Al4  1  0.99718406  0.50000000  0.50000000  1
  Al  Al5  1  0.99718406  0.00000000  0.00000000  1
  Al  Al6  1  0.95864093  0.14402071  0.35597929  1
  Al  Al7  1  0.04296817  0.35651941  0.85651941  1
  Al  Al8  1  0.95864093  0.85597929  0.64402071  1
  Al  Al9  1  0.04296817  0.64348059  0.14348059  1
  O  O10  1  0.29789704  0.13419444  0.36580556  1
  O  O11  1  0.70469815  0.35173710  0.85173710  1
  O  O12  1  0.29789704  0.86580556  0.63419444  1
  O  O13  1  0.70469815  0.64826290  0.14826290  1
  O  O14  1  0.79980182  0.33668511  0.41385751  1
  O  O15  1  0.19935709  0.15793921  0.90476286  1
  O  O16  1  0.79980182  0.66331489  0.58614249  1
  O  O17  1  0.19935709  0.84206079  0.09523714  1
  O  O18  1  0.19935709  0.59523714  0.34206079  1
  O  O19  1  0.79980182  0.91385751  0.83668511  1
  O  O20  1  0.19935709  0.40476286  0.65793921  1
  O  O21  1  0.79980182  0.08614249  0.16331489  1
  O  O22  1  0.18664152  0.50000000  0.00000000  1
  O  O23  1  0.80394874  0.00000000  0.50000000  1
