# generated using pymatgen
data_Ca5P3O13
_symmetry_space_group_name_H-M   'P 1'
_cell_length_a   6.91594898
_cell_length_b   9.53676053
_cell_length_c   9.53674105
_cell_angle_alpha   59.99988186
_cell_angle_beta   90.00000000
_cell_angle_gamma   90.00000000
_symmetry_Int_Tables_number   1
_chemical_formula_structural   Ca5P3O13
_chemical_formula_sum   'Ca10 P6 O26'
_cell_volume   544.73184346
_cell_formula_units_Z   2
loop_
 _symmetry_equiv_pos_site_id
 _symmetry_equiv_pos_as_xyz
  1  'x, y, z'
loop_
 _atom_site_type_symbol
 _atom_site_label
 _atom_site_symmetry_multiplicity
 _atom_site_fract_x
 _atom_site_fract_y
 _atom_site_fract_z
 _atom_site_occupancy
  Ca  Ca0  1  0.50091532  0.66666255  0.66666903  1
  Ca  Ca1  1  0.00091532  0.33333745  0.33333097  1
  Ca  Ca2  1  0.49784145  0.33333526  0.33333038  1
  Ca  Ca3  1  0.99784145  0.66666474  0.66666962  1
  Ca  Ca4  1  0.74750379  0.24937105  0.75175998  1
  Ca  Ca5  1  0.74750392  0.99886912  0.24937538  1
  Ca  Ca6  1  0.74750158  0.75176717  0.99885631  1
  Ca  Ca7  1  0.24750379  0.75062895  0.24824002  1
  Ca  Ca8  1  0.24750392  0.00113088  0.75062462  1
  Ca  Ca9  1  0.24750158  0.24823283  0.00114369  1
  P  P10  1  0.74785266  0.03004553  0.60084787  1
  P  P11  1  0.74785278  0.36910460  0.03004918  1
  P  P12  1  0.74785313  0.60085142  0.36910005  1
  P  P13  1  0.24785266  0.96995447  0.39915213  1
  P  P14  1  0.24785278  0.63089540  0.96995082  1
  P  P15  1  0.24785313  0.39914858  0.63089995  1
  O  O16  1  0.75139956  0.12388169  0.41208976  1
  O  O17  1  0.75140194  0.46403287  0.12387181  1
  O  O18  1  0.75140347  0.41209590  0.46403126  1
  O  O19  1  0.25139956  0.87611831  0.58791024  1
  O  O20  1  0.25140194  0.53596713  0.87612819  1
  O  O21  1  0.25140347  0.58790410  0.53596874  1
  O  O22  1  0.56560592  0.08657785  0.65391209  1
  O  O23  1  0.56559970  0.25951374  0.08658300  1
  O  O24  1  0.56560325  0.65390609  0.25950987  1
  O  O25  1  0.06560592  0.91342215  0.34608791  1
  O  O26  1  0.06559970  0.74048626  0.91341700  1
  O  O27  1  0.06560325  0.34609391  0.74049013  1
  O  O28  1  0.42729749  0.91642527  0.33971351  1
  O  O29  1  0.42729787  0.74386233  0.91641679  1
  O  O30  1  0.42729633  0.33971547  0.74386448  1
  O  O31  1  0.92729749  0.08357473  0.66028649  1
  O  O32  1  0.92729787  0.25613767  0.08358321  1
  O  O33  1  0.92729633  0.66028453  0.25613552  1
  O  O34  1  0.74751294  0.84479572  0.66905339  1
  O  O35  1  0.74751284  0.48614472  0.84479628  1
  O  O36  1  0.74751237  0.66905645  0.48614880  1
  O  O37  1  0.24751294  0.15520428  0.33094661  1
  O  O38  1  0.24751284  0.51385528  0.15520372  1
  O  O39  1  0.24751237  0.33094355  0.51385120  1
  O  O40  1  0.73273167  0.99999619  0.00000123  1
  O  O41  1  0.23273167  0.00000381  0.99999877  1
