# generated using pymatgen
data_BaSr3Ag4
_symmetry_space_group_name_H-M   'P 1'
_cell_length_a   4.91996715
_cell_length_b   6.45129842
_cell_length_c   8.37073653
_cell_angle_alpha   89.05975863
_cell_angle_beta   90.00000000
_cell_angle_gamma   90.00000000
_symmetry_Int_Tables_number   1
_chemical_formula_structural   BaSr3Ag4
_chemical_formula_sum   'Ba1 Sr3 Ag4'
_cell_volume   265.65287912
_cell_formula_units_Z   1
loop_
 _symmetry_equiv_pos_site_id
 _symmetry_equiv_pos_as_xyz
  1  'x, y, z'
loop_
 _atom_site_type_symbol
 _atom_site_label
 _atom_site_symmetry_multiplicity
 _atom_site_fract_x
 _atom_site_fract_y
 _atom_site_fract_z
 _atom_site_occupancy
  Ba  Ba0  1  0.25000000  0.87060915  0.67923312  1
  Sr  Sr1  1  0.25000000  0.63130370  0.17987816  1
  Sr  Sr2  1  0.75000000  0.13380880  0.31597919  1
  Sr  Sr3  1  0.75000000  0.36774640  0.82200465  1
  Ag  Ag4  1  0.25000000  0.37663303  0.53159314  1
  Ag  Ag5  1  0.25000000  0.12503856  0.03951248  1
  Ag  Ag6  1  0.75000000  0.61633046  0.45937361  1
  Ag  Ag7  1  0.75000000  0.87852991  0.97242564  1
