# generated using pymatgen
data_H6PbCNF3
_symmetry_space_group_name_H-M   'P 1'
_cell_length_a   7.09291902
_cell_length_b   7.06502070
_cell_length_c   10.78364570
_cell_angle_alpha   93.13044131
_cell_angle_beta   91.91981546
_cell_angle_gamma   89.63698971
_symmetry_Int_Tables_number   1
_chemical_formula_structural   H6PbCNF3
_chemical_formula_sum   'H24 Pb4 C4 N4 F12'
_cell_volume   539.27121799
_cell_formula_units_Z   4
loop_
 _symmetry_equiv_pos_site_id
 _symmetry_equiv_pos_as_xyz
  1  'x, y, z'
loop_
 _atom_site_type_symbol
 _atom_site_label
 _atom_site_symmetry_multiplicity
 _atom_site_fract_x
 _atom_site_fract_y
 _atom_site_fract_z
 _atom_site_occupancy
  H  H0  1  0.39776808  0.89769606  0.69350158  1
  H  H1  1  0.64439786  0.95365547  0.69548693  1
  H  H2  1  0.38444134  0.05337543  0.90093610  1
  H  H3  1  0.61121958  0.11326522  0.90264223  1
  H  H4  1  0.55485160  0.88485619  0.90160517  1
  H  H5  1  0.90263098  0.39521757  0.68721801  1
  H  H6  1  0.14645941  0.46214135  0.69637494  1
  H  H7  1  0.87315510  0.53472466  0.89762254  1
  H  H8  1  0.09782490  0.60308215  0.90568050  1
  H  H9  1  0.04951165  0.37302093  0.89701456  1
  H  H10  1  0.85651148  0.48617428  0.18668285  1
  H  H11  1  0.08329096  0.37411091  0.19437239  1
  H  H12  1  0.90428831  0.60936195  0.39954501  1
  H  H13  1  0.12028242  0.51654507  0.40678684  1
  H  H14  1  0.92964870  0.37617428  0.39328453  1
  H  H15  1  0.40401998  0.89544979  0.18775350  1
  H  H16  1  0.64652915  0.96810025  0.19602093  1
  H  H17  1  0.37714979  0.03096262  0.39965370  1
  H  H18  1  0.60076236  0.10333805  0.40545350  1
  H  H19  1  0.55665442  0.87316387  0.39633608  1
  H  H20  1  0.06593219  0.62794844  0.20087997  1
  H  H21  1  0.96660753  0.64115701  0.69748473  1
  H  H22  1  0.47172851  0.13997001  0.69474452  1
  H  H23  1  0.46213525  0.14258059  0.19978272  1
  Pb  Pb24  1  0.99058787  0.99288695  0.02632405  1
  Pb  Pb25  1  0.49855960  0.50028458  0.52854439  1
  Pb  Pb26  1  0.01207325  0.99929357  0.52853927  1
  Pb  Pb27  1  0.48834219  0.49589718  0.02679105  1
  C  C28  1  0.50449320  0.00146185  0.22691407  1
  C  C29  1  0.00477085  0.49966000  0.72622361  1
  C  C30  1  0.99997004  0.49689825  0.22644646  1
  C  C31  1  0.50569622  0.99942190  0.72728853  1
  N  N32  1  0.50771138  0.00047050  0.36442796  1
  N  N33  1  0.00454224  0.50117403  0.86380323  1
  N  N34  1  0.98915765  0.49863662  0.36356009  1
  N  N35  1  0.51271660  0.01173140  0.86495190  1
  F  F36  1  0.00520868  0.00374924  0.23296482  1
  F  F37  1  0.50186124  0.49527970  0.73423889  1
  F  F38  1  0.99930119  0.99806275  0.73419740  1
  F  F39  1  0.50473897  0.50307845  0.23324753  1
  F  F40  1  0.23523688  0.74494022  0.00055751  1
  F  F41  1  0.75523596  0.24827012  0.48754863  1
  F  F42  1  0.22222165  0.22854213  0.99379147  1
  F  F43  1  0.75689508  0.75324965  0.48742399  1
  F  F44  1  0.73714977  0.24703705  0.99439707  1
  F  F45  1  0.25201870  0.74476887  0.50565967  1
  F  F46  1  0.72347964  0.72676215  0.99370109  1
  F  F47  1  0.25956258  0.25114972  0.50375549  1
