# generated using pymatgen
data_Be2BH3O5
_symmetry_space_group_name_H-M   'P 1'
_cell_length_a   4.46025667
_cell_length_b   4.43484858
_cell_length_c   10.84102003
_cell_angle_alpha   90.00000000
_cell_angle_beta   90.00000000
_cell_angle_gamma   60.12443373
_symmetry_Int_Tables_number   1
_chemical_formula_structural   Be2BH3O5
_chemical_formula_sum   'Be4 B2 H6 O10'
_cell_volume   185.94419013
_cell_formula_units_Z   2
loop_
 _symmetry_equiv_pos_site_id
 _symmetry_equiv_pos_as_xyz
  1  'x, y, z'
loop_
 _atom_site_type_symbol
 _atom_site_label
 _atom_site_symmetry_multiplicity
 _atom_site_fract_x
 _atom_site_fract_y
 _atom_site_fract_z
 _atom_site_occupancy
  Be  Be0  1  0.99098188  0.99580625  0.20012406  1
  Be  Be1  1  0.00901812  0.00419375  0.70012406  1
  Be  Be2  1  0.31503316  0.33467963  0.30275660  1
  Be  Be3  1  0.68496684  0.66532037  0.80275660  1
  B  B4  1  0.65533231  0.66571934  0.24906926  1
  B  B5  1  0.34466769  0.33428066  0.74906926  1
  H  H6  1  0.91050498  0.21416946  0.00503845  1
  H  H7  1  0.89267707  0.84427614  0.00445465  1
  H  H8  1  0.08949502  0.78583054  0.50503845  1
  H  H9  1  0.10732293  0.15572386  0.50445465  1
  H  H10  1  0.50145495  0.25705485  0.48995268  1
  H  H11  1  0.49854505  0.74294515  0.98995268  1
  O  O12  1  0.34797501  0.66520366  0.25003769  1
  O  O13  1  0.96554822  0.35617813  0.24425810  1
  O  O14  1  0.65727191  0.97559192  0.25243464  1
  O  O15  1  0.65202499  0.33479634  0.75003769  1
  O  O16  1  0.03445178  0.64382187  0.74425810  1
  O  O17  1  0.34272809  0.02440808  0.75243464  1
  O  O18  1  0.27206890  0.35706106  0.45178404  1
  O  O19  1  0.72793110  0.64293894  0.95178404  1
  O  O20  1  0.00635000  0.97849189  0.04530982  1
  O  O21  1  0.99365000  0.02150811  0.54530982  1
