# generated using pymatgen
data_Ca3Er3Ge2BO13
_symmetry_space_group_name_H-M   'P 1'
_cell_length_a   7.40281508
_cell_length_b   7.38909632
_cell_length_c   7.38909632
_cell_angle_alpha   89.62829018
_cell_angle_beta   60.22879773
_cell_angle_gamma   119.77120227
_symmetry_Int_Tables_number   1
_chemical_formula_structural   Ca3Er3Ge2BO13
_chemical_formula_sum   'Ca3 Er3 Ge2 B1 O13'
_cell_volume   286.84550749
_cell_formula_units_Z   1
loop_
 _symmetry_equiv_pos_site_id
 _symmetry_equiv_pos_as_xyz
  1  'x, y, z'
loop_
 _atom_site_type_symbol
 _atom_site_label
 _atom_site_symmetry_multiplicity
 _atom_site_fract_x
 _atom_site_fract_y
 _atom_site_fract_z
 _atom_site_occupancy
  Ca  Ca0  1  0.53822640  0.77127630  0.23247993  1
  Ca  Ca1  1  0.00000000  0.23094812  0.23094812  1
  Ca  Ca2  1  0.46177360  0.23247993  0.77127630  1
  Er  Er3  1  0.00097217  0.77723349  0.22838923  1
  Er  Er4  1  0.00000000  0.77373793  0.77373793  1
  Er  Er5  1  0.99902783  0.22838923  0.77723349  1
  Ge  Ge6  1  0.50000000  0.24734583  0.24734583  1
  Ge  Ge7  1  0.50000000  0.74714525  0.74714525  1
  B  B8  1  0.00000000  0.50253023  0.50253023  1
  O  O9  1  0.00000000  0.99176229  0.99176229  1
  O  O10  1  0.15713525  0.58845257  0.25813352  1
  O  O11  1  0.84340665  0.59380118  0.58127203  1
  O  O12  1  0.84286475  0.25813352  0.58845257  1
  O  O13  1  0.15659335  0.58127203  0.59380118  1
  O  O14  1  0.70249702  0.84409842  0.45160093  1
  O  O15  1  0.29435749  0.84129876  0.85186819  1
  O  O16  1  0.29750298  0.45160093  0.84409842  1
  O  O17  1  0.70564251  0.85186819  0.84129876  1
  O  O18  1  0.29596891  0.14728282  0.54199394  1
  O  O19  1  0.70179301  0.15681079  0.14053823  1
  O  O20  1  0.70403109  0.54199394  0.14728282  1
  O  O21  1  0.29820699  0.14053823  0.15681079  1
