# generated using pymatgen
data_Ca3AlFe(SiO4)3
_symmetry_space_group_name_H-M   'P 1'
_cell_length_a   10.45987544
_cell_length_b   10.45987544
_cell_length_c   10.45987544
_cell_angle_alpha   70.52877937
_cell_angle_beta   70.52877937
_cell_angle_gamma   109.47122063
_symmetry_Int_Tables_number   1
_chemical_formula_structural   Ca3AlFe(SiO4)3
_chemical_formula_sum   'Ca12 Al4 Fe4 Si12 O48'
_cell_volume   880.96295713
_cell_formula_units_Z   4
loop_
 _symmetry_equiv_pos_site_id
 _symmetry_equiv_pos_as_xyz
  1  'x, y, z'
loop_
 _atom_site_type_symbol
 _atom_site_label
 _atom_site_symmetry_multiplicity
 _atom_site_fract_x
 _atom_site_fract_y
 _atom_site_fract_z
 _atom_site_occupancy
  Ca  Ca0  1  0.37467163  0.62467163  0.25000000  1
  Ca  Ca1  1  0.12532837  0.87532837  0.75000000  1
  Ca  Ca2  1  0.37532837  0.75000000  0.87467163  1
  Ca  Ca3  1  0.12467163  0.25000000  0.62532837  1
  Ca  Ca4  1  0.25000000  0.62532837  0.62467163  1
  Ca  Ca5  1  0.75000000  0.87467163  0.87532837  1
  Ca  Ca6  1  0.62532837  0.37532837  0.75000000  1
  Ca  Ca7  1  0.87467163  0.12467163  0.25000000  1
  Ca  Ca8  1  0.62467163  0.25000000  0.12532837  1
  Ca  Ca9  1  0.87532837  0.75000000  0.37467163  1
  Ca  Ca10  1  0.75000000  0.37467163  0.37532837  1
  Ca  Ca11  1  0.25000000  0.12532837  0.12467163  1
  Al  Al12  1  0.50000000  0.00000000  0.00000000  1
  Al  Al13  1  0.50000000  0.50000000  0.50000000  1
  Al  Al14  1  -0.00000000  0.50000000  0.00000000  1
  Al  Al15  1  -0.00000000  0.00000000  0.50000000  1
  Fe  Fe16  1  0.50000000  0.50000000  0.00000000  1
  Fe  Fe17  1  0.50000000  0.00000000  0.50000000  1
  Fe  Fe18  1  -0.00000000  0.50000000  0.50000000  1
  Fe  Fe19  1  -0.00000000  0.00000000  0.00000000  1
  Si  Si20  1  0.12292433  0.37292433  0.25000000  1
  Si  Si21  1  0.37707567  0.12707567  0.75000000  1
  Si  Si22  1  0.62707567  0.75000000  0.62292433  1
  Si  Si23  1  0.87292433  0.25000000  0.87707567  1
  Si  Si24  1  0.25000000  0.87707567  0.37292433  1
  Si  Si25  1  0.75000000  0.62292433  0.12707567  1
  Si  Si26  1  0.87707567  0.62707567  0.75000000  1
  Si  Si27  1  0.62292433  0.87292433  0.25000000  1
  Si  Si28  1  0.37292433  0.25000000  0.37707567  1
  Si  Si29  1  0.12707567  0.75000000  0.12292433  1
  Si  Si30  1  0.75000000  0.12292433  0.62707567  1
  Si  Si31  1  0.25000000  0.37707567  0.87292433  1
  O  O32  1  0.50778669  0.31127322  0.60621301  1
  O  O33  1  0.41748623  0.11399970  0.89378699  1
  O  O34  1  0.08251377  0.18872678  0.30348652  1
  O  O35  1  0.99221331  0.38600030  0.19651348  1
  O  O36  1  0.68872678  0.19651348  0.91748623  1
  O  O37  1  0.88600030  0.30348652  0.00778669  1
  O  O38  1  0.81127322  0.89378699  0.49221331  1
  O  O39  1  0.61399970  0.60621301  0.58251377  1
  O  O40  1  0.80348652  0.49221331  0.11399970  1
  O  O41  1  0.69651348  0.58251377  0.31127322  1
  O  O42  1  0.10621301  0.91748623  0.38600030  1
  O  O43  1  0.39378699  0.00778669  0.18872678  1
  O  O44  1  0.49221331  0.68872678  0.39378699  1
  O  O45  1  0.58251377  0.88600030  0.10621301  1
  O  O46  1  0.91748623  0.81127322  0.69651348  1
  O  O47  1  0.00778669  0.61399970  0.80348652  1
  O  O48  1  0.31127322  0.80348652  0.08251377  1
  O  O49  1  0.11399970  0.69651348  0.99221331  1
  O  O50  1  0.18872678  0.10621301  0.50778669  1
  O  O51  1  0.38600030  0.39378699  0.41748623  1
  O  O52  1  0.19651348  0.50778669  0.88600030  1
  O  O53  1  0.30348652  0.41748623  0.68872678  1
  O  O54  1  0.89378699  0.08251377  0.61399970  1
  O  O55  1  0.60621301  0.99221331  0.81127322  1
  O  O56  1  0.49145059  0.79568268  0.61582472  1
  O  O57  1  0.58849260  0.70431732  0.80423209  1
  O  O58  1  0.91150740  0.10727531  0.88417528  1
  O  O59  1  0.00854941  0.39272469  0.69576791  1
  O  O60  1  0.30423209  0.50854941  0.10727531  1
  O  O61  1  0.11582472  0.41150740  0.39272469  1
  O  O62  1  0.19576791  0.08849260  0.79568268  1
  O  O63  1  0.38417528  0.99145059  0.70431732  1
  O  O64  1  0.20431732  0.69576791  0.41150740  1
  O  O65  1  0.29568268  0.88417528  0.50854941  1
  O  O66  1  0.89272469  0.80423209  0.99145059  1
  O  O67  1  0.60727531  0.61582472  0.08849260  1
  O  O68  1  0.50854941  0.20431732  0.38417528  1
  O  O69  1  0.41150740  0.29568268  0.19576791  1
  O  O70  1  0.08849260  0.89272469  0.11582472  1
  O  O71  1  0.99145059  0.60727531  0.30423209  1
  O  O72  1  0.69576791  0.49145059  0.89272469  1
  O  O73  1  0.88417528  0.58849260  0.60727531  1
  O  O74  1  0.80423209  0.91150740  0.20431732  1
  O  O75  1  0.61582472  0.00854941  0.29568268  1
  O  O76  1  0.79568268  0.30423209  0.58849260  1
  O  O77  1  0.70431732  0.11582472  0.49145059  1
  O  O78  1  0.10727531  0.19576791  0.00854941  1
  O  O79  1  0.39272469  0.38417528  0.91150740  1
