# generated using pymatgen
data_Ba6Br2N3Cl
_symmetry_space_group_name_H-M   'P 1'
_cell_length_a   4.18617392
_cell_length_b   9.24638555
_cell_length_c   10.15088276
_cell_angle_alpha   69.45711865
_cell_angle_beta   78.10038904
_cell_angle_gamma   90.00000296
_symmetry_Int_Tables_number   1
_chemical_formula_structural   Ba6Br2N3Cl
_chemical_formula_sum   'Ba6 Br2 N3 Cl1'
_cell_volume   358.89396315
_cell_formula_units_Z   1
loop_
 _symmetry_equiv_pos_site_id
 _symmetry_equiv_pos_as_xyz
  1  'x, y, z'
loop_
 _atom_site_type_symbol
 _atom_site_label
 _atom_site_symmetry_multiplicity
 _atom_site_fract_x
 _atom_site_fract_y
 _atom_site_fract_z
 _atom_site_occupancy
  Ba  Ba0  1  0.51382875  0.71765653  0.97234251  1
  Ba  Ba1  1  0.84731865  0.38171680  0.30536170  1
  Ba  Ba2  1  0.17983496  0.04816656  0.64033107  1
  Ba  Ba3  1  0.48617125  0.28234347  0.02765749  1
  Ba  Ba4  1  0.82016504  0.95183344  0.35966893  1
  Ba  Ba5  1  0.15268135  0.61828320  0.69463830  1
  Br  Br6  1  0.33337950  0.66670663  0.33324000  1
  Br  Br7  1  0.66662050  0.33329337  0.66676000  1
  N  N8  1  -0.00000000  0.50000000  0.00000000  1
  N  N9  1  0.33326655  0.16658200  0.33346589  1
  N  N10  1  0.66673345  0.83341800  0.66653411  1
  Cl  Cl11  1  -0.00000000  0.00000000  0.00000000  1
