# generated using pymatgen
data_Ca4MgSi8(NiO8)3
_symmetry_space_group_name_H-M   'P 1'
_cell_length_a   6.67517076
_cell_length_b   6.67517076
_cell_length_c   10.59031091
_cell_angle_alpha   78.25893573
_cell_angle_beta   78.25893573
_cell_angle_gamma   84.62641761
_symmetry_Int_Tables_number   1
_chemical_formula_structural   Ca4MgSi8(NiO8)3
_chemical_formula_sum   'Ca4 Mg1 Si8 Ni3 O24'
_cell_volume   451.67022848
_cell_formula_units_Z   1
loop_
 _symmetry_equiv_pos_site_id
 _symmetry_equiv_pos_as_xyz
  1  'x, y, z'
loop_
 _atom_site_type_symbol
 _atom_site_label
 _atom_site_symmetry_multiplicity
 _atom_site_fract_x
 _atom_site_fract_y
 _atom_site_fract_z
 _atom_site_occupancy
  Ca  Ca0  1  0.70194292  0.29805708  0.37500000  1
  Ca  Ca1  1  0.70238220  0.29761780  0.87500000  1
  Ca  Ca2  1  0.29836332  0.70137226  0.12408034  1
  Ca  Ca3  1  0.29862774  0.70163668  0.62591966  1
  Mg  Mg4  1  0.09130153  0.90869847  0.37500000  1
  Si  Si5  1  0.62027597  0.80728702  0.36501516  1
  Si  Si6  1  0.62074284  0.80668824  0.86481241  1
  Si  Si7  1  0.19271298  0.37972403  0.38498484  1
  Si  Si8  1  0.19331176  0.37925716  0.88518759  1
  Si  Si9  1  0.37920185  0.19310471  0.13489296  1
  Si  Si10  1  0.37921432  0.19347257  0.63500095  1
  Si  Si11  1  0.80652743  0.62078568  0.11499905  1
  Si  Si12  1  0.80689529  0.62079815  0.61510704  1
  Ni  Ni13  1  0.09140991  0.90859009  0.87500000  1
  Ni  Ni14  1  0.90818724  0.09166141  0.12484324  1
  Ni  Ni15  1  0.90833859  0.09181276  0.62515676  1
  O  O16  1  0.79730397  0.97173397  0.32188201  1
  O  O17  1  0.79745244  0.97186948  0.82180401  1
  O  O18  1  0.02826603  0.20269603  0.42811799  1
  O  O19  1  0.02813052  0.20254756  0.92819599  1
  O  O20  1  0.20310233  0.02789756  0.17846108  1
  O  O21  1  0.20258834  0.02806926  0.67815843  1
  O  O22  1  0.97193074  0.79741166  0.07184157  1
  O  O23  1  0.97210244  0.79689767  0.57153892  1
  O  O24  1  0.38788195  0.88887772  0.41073106  1
  O  O25  1  0.38883053  0.88994081  0.91098719  1
  O  O26  1  0.11112228  0.61211805  0.33926894  1
  O  O27  1  0.11005919  0.61116947  0.83901281  1
  O  O28  1  0.61129991  0.11019318  0.08870729  1
  O  O29  1  0.61114521  0.11004825  0.58895842  1
  O  O30  1  0.88995175  0.38885479  0.16104158  1
  O  O31  1  0.88980682  0.38870009  0.66129271  1
  O  O32  1  0.63100835  0.66772071  0.24790747  1
  O  O33  1  0.63050933  0.66744354  0.74795710  1
  O  O34  1  0.33255646  0.36949067  0.00204290  1
  O  O35  1  0.33227929  0.36899165  0.50209253  1
  O  O36  1  0.36897764  0.33237551  0.25203520  1
  O  O37  1  0.36905811  0.33242401  0.75218722  1
  O  O38  1  0.66762449  0.63102236  0.49796480  1
  O  O39  1  0.66757599  0.63094189  0.99781278  1
