# generated using pymatgen
data_Ca6MnAl11
_symmetry_space_group_name_H-M   'P 1'
_cell_length_a   5.71038122
_cell_length_b   5.71038122
_cell_length_c   54.15496533
_cell_angle_alpha   89.99979986
_cell_angle_beta   90.00020014
_cell_angle_gamma   120.00535400
_symmetry_Int_Tables_number   1
_chemical_formula_structural   Ca6MnAl11
_chemical_formula_sum   'Ca24 Mn4 Al44'
_cell_volume   1529.24012930
_cell_formula_units_Z   4
loop_
 _symmetry_equiv_pos_site_id
 _symmetry_equiv_pos_as_xyz
  1  'x, y, z'
loop_
 _atom_site_type_symbol
 _atom_site_label
 _atom_site_symmetry_multiplicity
 _atom_site_fract_x
 _atom_site_fract_y
 _atom_site_fract_z
 _atom_site_occupancy
  Ca  Ca0  1  0.99999545  0.00000455  0.13535764  1
  Ca  Ca1  1  0.99998158  0.00001842  0.46879699  1
  Ca  Ca2  1  0.99997576  0.00002424  0.80213088  1
  Ca  Ca3  1  0.00001643  0.99998357  0.19800068  1
  Ca  Ca4  1  0.99998128  0.00001872  0.53079565  1
  Ca  Ca5  1  0.99997720  0.00002280  0.86412106  1
  Ca  Ca6  1  0.00000110  -0.00000110  0.30212744  1
  Ca  Ca7  1  0.00000185  -0.00000185  0.63640177  1
  Ca  Ca8  1  0.00001120  -0.00001120  0.96972922  1
  Ca  Ca9  1  0.00002425  0.99997575  0.03128853  1
  Ca  Ca10  1  0.99999164  0.00000836  0.36461921  1
  Ca  Ca11  1  0.00001250  0.99998750  0.69801410  1
  Ca  Ca12  1  0.66666350  0.33333650  0.28128393  1
  Ca  Ca13  1  0.66667874  0.33332126  0.61458908  1
  Ca  Ca14  1  0.66668906  0.33331094  0.94789454  1
  Ca  Ca15  1  0.33330451  0.66669549  0.05188938  1
  Ca  Ca16  1  0.33333334  0.66666666  0.38540607  1
  Ca  Ca17  1  0.33332600  0.66667400  0.71856859  1
  Ca  Ca18  1  0.33333535  0.66666465  0.11480753  1
  Ca  Ca19  1  0.33332863  0.66667137  0.44811158  1
  Ca  Ca20  1  0.33332990  0.66667010  0.78141141  1
  Ca  Ca21  1  0.66667847  0.33332153  0.21849346  1
  Ca  Ca22  1  0.66669658  0.33330342  0.55229889  1
  Ca  Ca23  1  0.66671302  0.33328698  0.88561242  1
  Mn  Mn24  1  0.66663616  0.33336384  0.12528509  1
  Mn  Mn25  1  0.66666245  0.33333755  0.45789099  1
  Mn  Mn26  1  0.66670672  0.33329328  0.79123584  1
  Mn  Mn27  1  0.33339500  0.66660500  0.20801200  1
  Al  Al28  1  0.83278333  0.66562982  0.08450212  1
  Al  Al29  1  0.83277253  0.66557347  0.41785562  1
  Al  Al30  1  0.83275551  0.66552749  0.75117592  1
  Al  Al31  1  0.83280820  0.16719180  0.08450197  1
  Al  Al32  1  0.83279363  0.16720637  0.41785523  1
  Al  Al33  1  0.83276179  0.16723821  0.75117419  1
  Al  Al34  1  0.33437018  0.16721667  0.08450212  1
  Al  Al35  1  0.33442653  0.16722747  0.41785562  1
  Al  Al36  1  0.33447251  0.16724449  0.75117592  1
  Al  Al37  1  0.16742965  0.33480175  0.24876332  1
  Al  Al38  1  0.16249240  0.32496919  0.58333575  1
  Al  Al39  1  0.16245675  0.32490138  0.91667377  1
  Al  Al40  1  0.16740743  0.83259257  0.24876214  1
  Al  Al41  1  0.16250188  0.83749812  0.58333484  1
  Al  Al42  1  0.16246113  0.83753887  0.91667375  1
  Al  Al43  1  0.66519825  0.83257035  0.24876332  1
  Al  Al44  1  0.67503081  0.83750760  0.58333575  1
  Al  Al45  1  0.67509862  0.83754325  0.91667377  1
  Al  Al46  1  0.49991778  0.99983654  0.16672717  1
  Al  Al47  1  0.50288237  0.00581690  0.49883942  1
  Al  Al48  1  0.50303253  0.00613941  0.83219492  1
  Al  Al49  1  0.49991790  0.50008210  0.16672615  1
  Al  Al50  1  0.50287637  0.49712363  0.49884505  1
  Al  Al51  1  0.50305384  0.49694616  0.83219953  1
  Al  Al52  1  0.00016346  0.50008222  0.16672717  1
  Al  Al53  1  0.99418310  0.49711763  0.49883942  1
  Al  Al54  1  0.99386059  0.49696747  0.83219492  1
  Al  Al55  1  0.50066340  0.00121863  0.99989288  1
  Al  Al56  1  0.49994517  0.99989844  0.33334283  1
  Al  Al57  1  0.50060719  0.00115989  0.66656478  1
  Al  Al58  1  0.49994961  0.50005039  0.33334327  1
  Al  Al59  1  0.50057614  0.49942386  0.66656509  1
  Al  Al60  1  0.50061046  0.49938954  0.99989536  1
  Al  Al61  1  0.99878137  0.49933660  0.99989288  1
  Al  Al62  1  0.00010156  0.50005483  0.33334283  1
  Al  Al63  1  0.99884011  0.49939281  0.66656478  1
  Al  Al64  1  0.33331927  0.66668073  0.54144471  1
  Al  Al65  1  0.33328585  0.66671415  0.87475394  1
  Al  Al66  1  0.33333657  0.66666343  0.29033467  1
  Al  Al67  1  0.33335195  0.66664805  0.62377941  1
  Al  Al68  1  0.33334531  0.66665469  0.95710026  1
  Al  Al69  1  0.66663302  0.33336698  0.04293709  1
  Al  Al70  1  0.66666503  0.33333497  0.37629469  1
  Al  Al71  1  0.66663124  0.33336876  0.70956771  1
