# generated using pymatgen
data_Ba6(BiSe2)13
_symmetry_space_group_name_H-M   'P 1'
_cell_length_a   4.30677410
_cell_length_b   17.52840560
_cell_length_c   18.81196577
_cell_angle_alpha   90.55498729
_cell_angle_beta   90.00000000
_cell_angle_gamma   90.00000000
_symmetry_Int_Tables_number   1
_chemical_formula_structural   Ba6(BiSe2)13
_chemical_formula_sum   'Ba6 Bi13 Se26'
_cell_volume   1420.06529017
_cell_formula_units_Z   1
loop_
 _symmetry_equiv_pos_site_id
 _symmetry_equiv_pos_as_xyz
  1  'x, y, z'
loop_
 _atom_site_type_symbol
 _atom_site_label
 _atom_site_symmetry_multiplicity
 _atom_site_fract_x
 _atom_site_fract_y
 _atom_site_fract_z
 _atom_site_occupancy
  Ba  Ba0  1  0.75000000  0.25232525  0.26524774  1
  Ba  Ba1  1  0.25000000  0.75514019  0.73192266  1
  Ba  Ba2  1  0.75000000  0.73465992  0.17320016  1
  Ba  Ba3  1  0.25000000  0.25960003  0.82101554  1
  Ba  Ba4  1  0.75000000  0.51786524  0.34409667  1
  Ba  Ba5  1  0.25000000  0.48207750  0.65678295  1
  Bi  Bi6  1  0.75000000  0.92110362  0.58586925  1
  Bi  Bi7  1  0.25000000  0.07948486  0.43221389  1
  Bi  Bi8  1  0.75000000  0.67384573  0.52543528  1
  Bi  Bi9  1  0.25000000  0.32532003  0.47745574  1
  Bi  Bi10  1  0.75000000  0.90133990  0.97393662  1
  Bi  Bi11  1  0.25000000  0.09759853  0.02199038  1
  Bi  Bi12  1  0.75000000  0.31023651  0.04409798  1
  Bi  Bi13  1  0.25000000  0.69007373  0.95715299  1
  Bi  Bi14  1  0.75000000  0.48964034  0.88246932  1
  Bi  Bi15  1  0.25000000  0.51004356  0.11654579  1
  Bi  Bi16  1  0.75000000  0.16929228  0.62717188  1
  Bi  Bi17  1  0.25000000  0.82859671  0.38606522  1
  Bi  Bi18  1  0.75000000  0.98912273  0.25122286  1
  Se  Se19  1  0.75000000  0.72571213  0.36017984  1
  Se  Se20  1  0.25000000  0.27756070  0.63482952  1
  Se  Se21  1  0.75000000  0.60436369  0.03480895  1
  Se  Se22  1  0.25000000  0.39484205  0.96559969  1
  Se  Se23  1  0.75000000  0.39345247  0.76637819  1
  Se  Se24  1  0.25000000  0.60658978  0.23331372  1
  Se  Se25  1  0.75000000  0.42201246  0.17362994  1
  Se  Se26  1  0.25000000  0.57874240  0.82585545  1
  Se  Se27  1  0.75000000  0.13189773  0.76306890  1
  Se  Se28  1  0.25000000  0.87024910  0.23938524  1
  Se  Se29  1  0.75000000  0.01568364  0.09408684  1
  Se  Se30  1  0.25000000  0.98555819  0.90787526  1
  Se  Se31  1  0.75000000  0.89537286  0.72238352  1
  Se  Se32  1  0.25000000  0.10120362  0.27526334  1
  Se  Se33  1  0.75000000  0.96047214  0.40562880  1
  Se  Se34  1  0.25000000  0.04161927  0.58357421  1
  Se  Se35  1  0.75000000  0.19426630  0.44072359  1
  Se  Se36  1  0.25000000  0.80326762  0.54939733  1
  Se  Se37  1  0.75000000  0.18633398  0.94533440  1
  Se  Se38  1  0.25000000  0.81006897  0.05699638  1
  Se  Se39  1  0.75000000  0.62632667  0.66499706  1
  Se  Se40  1  0.25000000  0.37280147  0.33524099  1
  Se  Se41  1  0.75000000  0.42653457  0.51161642  1
  Se  Se42  1  0.25000000  0.57308855  0.48605304  1
  Se  Se43  1  0.75000000  0.76700090  0.87664462  1
  Se  Se44  1  0.25000000  0.23591209  0.12494186  1
