# generated using pymatgen
data_Ba8SrCa3(WO6)4
_symmetry_space_group_name_H-M   'P 1'
_cell_length_a   6.03843023
_cell_length_b   10.51053567
_cell_length_c   10.51126406
_cell_angle_alpha   80.07914722
_cell_angle_beta   73.55086081
_cell_angle_gamma   89.53489434
_symmetry_Int_Tables_number   1
_chemical_formula_structural   Ba8SrCa3(WO6)4
_chemical_formula_sum   'Ba8 Sr1 Ca3 W4 O24'
_cell_volume   629.66401537
_cell_formula_units_Z   1
loop_
 _symmetry_equiv_pos_site_id
 _symmetry_equiv_pos_as_xyz
  1  'x, y, z'
loop_
 _atom_site_type_symbol
 _atom_site_label
 _atom_site_symmetry_multiplicity
 _atom_site_fract_x
 _atom_site_fract_y
 _atom_site_fract_z
 _atom_site_occupancy
  Ba  Ba0  1  0.56000699  0.19186684  0.87213894  1
  Ba  Ba1  1  0.80831079  0.93835706  0.37676103  1
  Ba  Ba2  1  0.05996995  0.68648971  0.87316194  1
  Ba  Ba3  1  0.30996945  0.43859171  0.37435102  1
  Ba  Ba4  1  0.69003055  0.56140829  0.62564898  1
  Ba  Ba5  1  0.94003005  0.31351029  0.12683806  1
  Ba  Ba6  1  0.19168921  0.06164294  0.62323897  1
  Ba  Ba7  1  0.43999301  0.80813316  0.12786106  1
  Sr  Sr8  1  -0.00000000  0.00000000  0.00000000  1
  Ca  Ca9  1  0.25036732  0.75040920  0.49913149  1
  Ca  Ca10  1  0.50000000  0.50000000  0.00000000  1
  Ca  Ca11  1  0.74963268  0.24959080  0.50086851  1
  W  W12  1  0.12597583  0.37731885  0.74828324  1
  W  W13  1  0.37334210  0.12648375  0.25299687  1
  W  W14  1  0.62665790  0.87351625  0.74700313  1
  W  W15  1  0.87402417  0.62268115  0.25171676  1
  O  O16  1  0.07860914  0.69013206  0.34291754  1
  O  O17  1  0.33018178  0.44305526  0.84162814  1
  O  O18  1  0.57923166  0.19248182  0.34451597  1
  O  O19  1  0.83201759  0.93896481  0.83613919  1
  O  O20  1  0.80972118  0.46293910  0.38615844  1
  O  O21  1  0.06244573  0.22086217  0.88411797  1
  O  O22  1  0.30938900  0.96568001  0.38788851  1
  O  O23  1  0.56018758  0.71407868  0.88403963  1
  O  O24  1  0.13958570  0.54454129  0.13878291  1
  O  O25  1  0.38952927  0.29736298  0.63724664  1
  O  O26  1  0.62966020  0.04526469  0.14202762  1
  O  O27  1  0.89042739  0.79431509  0.63469228  1
  O  O28  1  0.66981822  0.55694474  0.15837186  1
  O  O29  1  0.92139086  0.30986794  0.65708246  1
  O  O30  1  0.16798241  0.06103519  0.16386081  1
  O  O31  1  0.42076834  0.80751818  0.65548403  1
  O  O32  1  0.93755427  0.77913783  0.11588203  1
  O  O33  1  0.19027882  0.53706090  0.61384156  1
  O  O34  1  0.43981242  0.28592132  0.11596037  1
  O  O35  1  0.69061100  0.03431999  0.61211149  1
  O  O36  1  0.61047073  0.70263702  0.36275336  1
  O  O37  1  0.86041430  0.45545871  0.86121709  1
  O  O38  1  0.10957261  0.20568491  0.36530772  1
  O  O39  1  0.37033980  0.95473531  0.85797238  1
