# generated using pymatgen
data_Ba2(CaAl3)3
_symmetry_space_group_name_H-M   'P 1'
_cell_length_a   5.81067891
_cell_length_b   5.81067845
_cell_length_c   12.38035254
_cell_angle_alpha   90.00000001
_cell_angle_beta   76.42762889
_cell_angle_gamma   120.00000226
_symmetry_Int_Tables_number   1
_chemical_formula_structural   Ba2(CaAl3)3
_chemical_formula_sum   'Ba2 Ca3 Al9'
_cell_volume   348.46306467
_cell_formula_units_Z   1
loop_
 _symmetry_equiv_pos_site_id
 _symmetry_equiv_pos_as_xyz
  1  'x, y, z'
loop_
 _atom_site_type_symbol
 _atom_site_label
 _atom_site_symmetry_multiplicity
 _atom_site_fract_x
 _atom_site_fract_y
 _atom_site_fract_z
 _atom_site_occupancy
  Ba  Ba0  1  0.00369126  0.50184563  0.49446312  1
  Ba  Ba1  1  0.56622186  0.78311093  0.65066721  1
  Ca  Ca2  1  0.63393105  0.31696552  0.04910343  1
  Ca  Ca3  1  0.36489747  0.68244873  0.95265380  1
  Ca  Ca4  1  0.44033767  0.22016883  0.33949350  1
  Al  Al5  1  0.24287117  0.12143559  0.63569324  1
  Al  Al6  1  0.75711367  0.87855683  0.36432950  1
  Al  Al7  1  0.04468729  0.76388979  0.19142292  1
  Al  Al8  1  0.52777958  0.76388979  0.19142292  1
  Al  Al9  1  0.04468729  0.28079750  0.19142292  1
  Al  Al10  1  0.95333897  0.23416567  0.81249536  1
  Al  Al11  1  0.46833133  0.23416567  0.81249536  1
  Al  Al12  1  0.95333897  0.71917330  0.81249536  1
  Al  Al13  1  0.99877242  0.99938621  0.00184136  1
