# generated using pymatgen
data_Ba8Sr3Ca(WO6)4
_symmetry_space_group_name_H-M   'P 1'
_cell_length_a   6.15513814
_cell_length_b   10.52762995
_cell_length_c   10.63662375
_cell_angle_alpha   98.99996748
_cell_angle_beta   106.82986774
_cell_angle_gamma   90.00018279
_symmetry_Int_Tables_number   1
_chemical_formula_structural   Ba8Sr3Ca(WO6)4
_chemical_formula_sum   'Ba8 Sr3 Ca1 W4 O24'
_cell_volume   650.85105067
_cell_formula_units_Z   1
loop_
 _symmetry_equiv_pos_site_id
 _symmetry_equiv_pos_as_xyz
  1  'x, y, z'
loop_
 _atom_site_type_symbol
 _atom_site_label
 _atom_site_symmetry_multiplicity
 _atom_site_fract_x
 _atom_site_fract_y
 _atom_site_fract_z
 _atom_site_occupancy
  Ba  Ba0  1  0.43722345  0.81545023  0.87375467  1
  Ba  Ba1  1  0.68736999  0.56181415  0.37591179  1
  Ba  Ba2  1  0.93536375  0.31470173  0.86902631  1
  Ba  Ba3  1  0.18760486  0.06803307  0.37654358  1
  Ba  Ba4  1  0.31239514  0.43196693  0.62345642  1
  Ba  Ba5  1  0.56463625  0.18529827  0.13097369  1
  Ba  Ba6  1  0.81263001  0.93818585  0.62408821  1
  Ba  Ba7  1  0.06277655  0.68454977  0.12624533  1
  Sr  Sr8  1  0.99982527  0.00000889  0.99883559  1
  Sr  Sr9  1  0.25000000  0.75000000  0.50000000  1
  Sr  Sr10  1  0.50017473  0.49999111  0.00116441  1
  Ca  Ca11  1  0.75000000  0.25000000  0.50000000  1
  W  W12  1  0.37433803  0.12678620  0.74698687  1
  W  W13  1  0.62528831  0.87756451  0.25208207  1
  W  W14  1  0.87471169  0.62243549  0.74791793  1
  W  W15  1  0.12566197  0.37321380  0.25301313  1
  O  O16  1  0.41847970  0.30323977  0.34259494  1
  O  O17  1  0.66287914  0.05419659  0.83197353  1
  O  O18  1  0.91591445  0.80634010  0.33390918  1
  O  O19  1  0.16453050  0.55121772  0.83334274  1
  O  O20  1  0.99166491  0.32759336  0.38922600  1
  O  O21  1  0.24887101  0.08319568  0.88532083  1
  O  O22  1  0.50308930  0.83156183  0.38978048  1
  O  O23  1  0.75228197  0.57747523  0.88763252  1
  O  O24  1  0.01962774  0.20505100  0.14451695  1
  O  O25  1  0.26614357  0.95842578  0.63861374  1
  O  O26  1  0.51545345  0.70898329  0.14190032  1
  O  O27  1  0.76988629  0.45205477  0.63726282  1
  O  O28  1  0.83712086  0.44580341  0.16802647  1
  O  O29  1  0.08152030  0.19676023  0.65740506  1
  O  O30  1  0.33546950  0.94878228  0.16665726  1
  O  O31  1  0.58408555  0.69365990  0.66609082  1
  O  O32  1  0.25112899  0.41680432  0.11467917  1
  O  O33  1  0.50833509  0.17240664  0.61077400  1
  O  O34  1  0.74771803  0.92252477  0.11236748  1
  O  O35  1  0.99691070  0.66843817  0.61021952  1
  O  O36  1  0.23385643  0.54157422  0.36138626  1
  O  O37  1  0.48037226  0.29494900  0.85548305  1
  O  O38  1  0.73011371  0.04794523  0.36273718  1
  O  O39  1  0.98454655  0.79101671  0.85809968  1
