# generated using pymatgen
data_Ba8Mn6Co2ClO22
_symmetry_space_group_name_H-M   'P 1'
_cell_length_a   5.81300748
_cell_length_b   5.81300713
_cell_length_c   19.89826022
_cell_angle_alpha   90.00000000
_cell_angle_beta   90.00000000
_cell_angle_gamma   60.02653487
_symmetry_Int_Tables_number   1
_chemical_formula_structural   Ba8Mn6Co2ClO22
_chemical_formula_sum   'Ba8 Mn6 Co2 Cl1 O22'
_cell_volume   582.45655332
_cell_formula_units_Z   1
loop_
 _symmetry_equiv_pos_site_id
 _symmetry_equiv_pos_as_xyz
  1  'x, y, z'
loop_
 _atom_site_type_symbol
 _atom_site_label
 _atom_site_symmetry_multiplicity
 _atom_site_fract_x
 _atom_site_fract_y
 _atom_site_fract_z
 _atom_site_occupancy
  Ba  Ba0  1  0.00007627  0.00007627  0.61751975  1
  Ba  Ba1  1  0.00007627  0.00007627  0.38248025  1
  Ba  Ba2  1  0.00064790  0.00064790  0.15278747  1
  Ba  Ba3  1  0.00064790  0.00064790  0.84721253  1
  Ba  Ba4  1  0.33305988  0.33305888  0.73450394  1
  Ba  Ba5  1  0.33305988  0.33305888  0.26549606  1
  Ba  Ba6  1  0.33334220  0.33334120  0.50000000  1
  Ba  Ba7  1  0.66997172  0.66997272  -0.00000000  1
  Mn  Mn8  1  0.66734885  0.66734985  0.81940293  1
  Mn  Mn9  1  0.66734885  0.66734985  0.18059707  1
  Mn  Mn10  1  0.66630669  0.66630769  0.68965773  1
  Mn  Mn11  1  0.66630669  0.66630769  0.31034227  1
  Mn  Mn12  1  0.66671596  0.66671696  0.56293481  1
  Mn  Mn13  1  0.66671596  0.66671696  0.43706519  1
  Co  Co14  1  0.33485770  0.33485670  0.90978059  1
  Co  Co15  1  0.33485770  0.33485670  0.09021941  1
  Cl  Cl16  1  0.99479162  0.99479162  -0.00000000  1
  O  O17  1  0.37198597  0.81343632  0.74887978  1
  O  O18  1  0.81347047  0.81347047  0.74919184  1
  O  O19  1  0.81343632  0.37198597  0.74887978  1
  O  O20  1  0.37198597  0.81343632  0.25112022  1
  O  O21  1  0.81347047  0.81347047  0.25080816  1
  O  O22  1  0.81343632  0.37198597  0.25112022  1
  O  O23  1  0.50622507  0.50622507  0.87250866  1
  O  O24  1  0.50849195  0.98387380  0.87169622  1
  O  O25  1  0.98387380  0.50849195  0.87169622  1
  O  O26  1  0.50622507  0.50622507  0.12749134  1
  O  O27  1  0.50849195  0.98387380  0.12830378  1
  O  O28  1  0.98387380  0.50849195  0.12830378  1
  O  O29  1  0.96321294  0.51849094  0.62418000  1
  O  O30  1  0.51829363  0.51829363  0.62413062  1
  O  O31  1  0.51849094  0.96321294  0.62418000  1
  O  O32  1  0.96321294  0.51849094  0.37582000  1
  O  O33  1  0.51829363  0.51829363  0.37586938  1
  O  O34  1  0.51849094  0.96321294  0.37582000  1
  O  O35  1  0.36974513  0.81509870  0.50000000  1
  O  O36  1  0.81523374  0.81523374  0.50000000  1
  O  O37  1  0.81509870  0.36974513  0.50000000  1
  O  O38  1  0.31016022  0.31016022  -0.00000000  1
