# generated using pymatgen
data_Ba3Pb(SO4)4
_symmetry_space_group_name_H-M   'P 1'
_cell_length_a   5.52839783
_cell_length_b   7.20650121
_cell_length_c   8.90375792
_cell_angle_alpha   90.11493176
_cell_angle_beta   90.00000000
_cell_angle_gamma   90.00000000
_symmetry_Int_Tables_number   1
_chemical_formula_structural   Ba3Pb(SO4)4
_chemical_formula_sum   'Ba3 Pb1 S4 O16'
_cell_volume   354.72861335
_cell_formula_units_Z   1
loop_
 _symmetry_equiv_pos_site_id
 _symmetry_equiv_pos_as_xyz
  1  'x, y, z'
loop_
 _atom_site_type_symbol
 _atom_site_label
 _atom_site_symmetry_multiplicity
 _atom_site_fract_x
 _atom_site_fract_y
 _atom_site_fract_z
 _atom_site_occupancy
  Ba  Ba0  1  0.25000000  0.15939451  0.18488756  1
  Ba  Ba1  1  0.75000000  0.65888336  0.31594677  1
  Ba  Ba2  1  0.75000000  0.84066302  0.81497467  1
  Pb  Pb3  1  0.25000000  0.33765838  0.68653011  1
  S  S4  1  0.75000000  0.31164932  0.93467532  1
  S  S5  1  0.75000000  0.18976941  0.43916265  1
  S  S6  1  0.25000000  0.68905694  0.06231949  1
  S  S7  1  0.25000000  0.81018250  0.56331382  1
  O  O8  1  0.75000000  0.45229200  0.81289919  1
  O  O9  1  0.75000000  0.05137089  0.31455440  1
  O  O10  1  0.25000000  0.54909744  0.18524255  1
  O  O11  1  0.25000000  0.95349631  0.68514147  1
  O  O12  1  0.97096563  0.19047457  0.91651439  1
  O  O13  1  0.52932510  0.31133140  0.42299106  1
  O  O14  1  0.46934488  0.81071698  0.07997801  1
  O  O15  1  0.03117356  0.68831764  0.58138998  1
  O  O16  1  0.03065512  0.81071698  0.07997801  1
  O  O17  1  0.46882644  0.68831764  0.58138998  1
  O  O18  1  0.52903437  0.19047457  0.91651439  1
  O  O19  1  0.97067490  0.31133140  0.42299106  1
  O  O20  1  0.75000000  0.39382377  0.08664021  1
  O  O21  1  0.75000000  0.10272788  0.58864874  1
  O  O22  1  0.25000000  0.60407575  0.91112494  1
  O  O23  1  0.25000000  0.89417734  0.41219123  1
