# generated using pymatgen
data_Mg30CuSiO32
_symmetry_space_group_name_H-M   'P 1'
_cell_length_a   8.55227977
_cell_length_b   8.54174495
_cell_length_c   8.54174495
_cell_angle_alpha   90.00000000
_cell_angle_beta   90.00000000
_cell_angle_gamma   90.00000000
_symmetry_Int_Tables_number   1
_chemical_formula_structural   Mg30CuSiO32
_chemical_formula_sum   'Mg30 Cu1 Si1 O32'
_cell_volume   623.98636329
_cell_formula_units_Z   1
loop_
 _symmetry_equiv_pos_site_id
 _symmetry_equiv_pos_as_xyz
  1  'x, y, z'
loop_
 _atom_site_type_symbol
 _atom_site_label
 _atom_site_symmetry_multiplicity
 _atom_site_fract_x
 _atom_site_fract_y
 _atom_site_fract_z
 _atom_site_occupancy
  Mg  Mg0  1  0.00000000  -0.00000000  0.50000000  1
  Mg  Mg1  1  0.00000000  0.50000000  -0.00000000  1
  Mg  Mg2  1  0.50000000  0.00000000  -0.00000000  1
  Mg  Mg3  1  0.50000000  0.00000000  0.50000000  1
  Mg  Mg4  1  0.50000000  0.50000000  0.00000000  1
  Mg  Mg5  1  0.50000000  0.50000000  0.50000000  1
  Mg  Mg6  1  0.00000000  0.24505170  0.24505170  1
  Mg  Mg7  1  0.00000000  0.24505170  0.75494830  1
  Mg  Mg8  1  0.00000000  0.75494830  0.24505170  1
  Mg  Mg9  1  0.00000000  0.75494830  0.75494830  1
  Mg  Mg10  1  0.50000000  0.24847364  0.24847364  1
  Mg  Mg11  1  0.50000000  0.24847364  0.75152636  1
  Mg  Mg12  1  0.50000000  0.75152636  0.24847364  1
  Mg  Mg13  1  0.50000000  0.75152636  0.75152636  1
  Mg  Mg14  1  0.24813416  0.00000000  0.24660806  1
  Mg  Mg15  1  0.24813416  0.00000000  0.75339194  1
  Mg  Mg16  1  0.25102812  0.50000000  0.24802087  1
  Mg  Mg17  1  0.25102812  0.50000000  0.75197913  1
  Mg  Mg18  1  0.75186584  -0.00000000  0.24660806  1
  Mg  Mg19  1  0.75186584  -0.00000000  0.75339194  1
  Mg  Mg20  1  0.74897188  0.50000000  0.24802087  1
  Mg  Mg21  1  0.74897188  0.50000000  0.75197913  1
  Mg  Mg22  1  0.24813416  0.24660806  0.00000000  1
  Mg  Mg23  1  0.25102812  0.24802087  0.50000000  1
  Mg  Mg24  1  0.24813416  0.75339194  -0.00000000  1
  Mg  Mg25  1  0.25102812  0.75197913  0.50000000  1
  Mg  Mg26  1  0.75186584  0.24660806  0.00000000  1
  Mg  Mg27  1  0.74897188  0.24802087  0.50000000  1
  Mg  Mg28  1  0.75186584  0.75339194  -0.00000000  1
  Mg  Mg29  1  0.74897188  0.75197913  0.50000000  1
  Cu  Cu30  1  0.00000000  0.00000000  -0.00000000  1
  Si  Si31  1  0.00000000  0.50000000  0.50000000  1
  O  O32  1  0.26226030  -0.00000000  0.00000000  1
  O  O33  1  0.24866825  -0.00000000  0.50000000  1
  O  O34  1  0.24866825  0.50000000  0.00000000  1
  O  O35  1  0.22455900  0.50000000  0.50000000  1
  O  O36  1  0.73773970  0.00000000  -0.00000000  1
  O  O37  1  0.75133175  0.00000000  0.50000000  1
  O  O38  1  0.75133175  0.50000000  -0.00000000  1
  O  O39  1  0.77544100  0.50000000  0.50000000  1
  O  O40  1  0.24894656  0.25118355  0.25118355  1
  O  O41  1  0.24894656  0.25118355  0.74881645  1
  O  O42  1  0.24894656  0.74881645  0.25118355  1
  O  O43  1  0.24894656  0.74881645  0.74881645  1
  O  O44  1  0.75105344  0.25118355  0.25118355  1
  O  O45  1  0.75105344  0.25118355  0.74881645  1
  O  O46  1  0.75105344  0.74881645  0.25118355  1
  O  O47  1  0.75105344  0.74881645  0.74881645  1
  O  O48  1  0.00000000  -0.00000000  0.26843334  1
  O  O49  1  0.00000000  0.00000000  0.73156666  1
  O  O50  1  0.00000000  0.50000000  0.28157932  1
  O  O51  1  0.00000000  0.50000000  0.71842068  1
  O  O52  1  0.50000000  0.00000000  0.25317415  1
  O  O53  1  0.50000000  0.00000000  0.74682585  1
  O  O54  1  0.50000000  0.50000000  0.25491409  1
  O  O55  1  0.50000000  0.50000000  0.74508591  1
  O  O56  1  0.00000000  0.26843334  0.00000000  1
  O  O57  1  0.00000000  0.28157932  0.50000000  1
  O  O58  1  0.00000000  0.73156666  -0.00000000  1
  O  O59  1  0.00000000  0.71842068  0.50000000  1
  O  O60  1  0.50000000  0.25317415  -0.00000000  1
  O  O61  1  0.50000000  0.25491409  0.50000000  1
  O  O62  1  0.50000000  0.74682585  0.00000000  1
  O  O63  1  0.50000000  0.74508591  0.50000000  1
