# generated using pymatgen
data_Ba4Ti3PtO12
_symmetry_space_group_name_H-M   'P 1'
_cell_length_a   5.78644550
_cell_length_b   5.78645315
_cell_length_c   28.45836633
_cell_angle_alpha   90.00000000
_cell_angle_beta   90.00009883
_cell_angle_gamma   59.99995635
_symmetry_Int_Tables_number   1
_chemical_formula_structural   Ba4Ti3PtO12
_chemical_formula_sum   'Ba12 Ti9 Pt3 O36'
_cell_volume   825.21044195
_cell_formula_units_Z   3
loop_
 _symmetry_equiv_pos_site_id
 _symmetry_equiv_pos_as_xyz
  1  'x, y, z'
loop_
 _atom_site_type_symbol
 _atom_site_label
 _atom_site_symmetry_multiplicity
 _atom_site_fract_x
 _atom_site_fract_y
 _atom_site_fract_z
 _atom_site_occupancy
  Ba  Ba0  1  0.33333952  0.33333024  0.20615224  1
  Ba  Ba1  1  0.33333572  0.33333214  0.70258268  1
  Ba  Ba2  1  0.66666143  0.66666929  0.29524735  1
  Ba  Ba3  1  0.66666000  0.66667000  0.79599563  1
  Ba  Ba4  1  0.66666178  0.66666911  0.45328074  1
  Ba  Ba5  1  0.66666349  0.66666825  0.95304974  1
  Ba  Ba6  1  0.33333768  0.33333116  0.04777224  1
  Ba  Ba7  1  0.33333893  0.33333054  0.54836211  1
  Ba  Ba8  1  0.99999783  0.00000109  0.37364603  1
  Ba  Ba9  1  0.99999859  0.00000070  0.87367745  1
  Ba  Ba10  1  0.00000099  0.99999950  0.12839440  1
  Ba  Ba11  1  0.00000114  0.99999943  0.62530891  1
  Ti  Ti12  1  0.66666737  0.66666631  0.67395376  1
  Ti  Ti13  1  0.66666988  0.66666506  0.07696027  1
  Ti  Ti14  1  0.66667159  0.66666421  0.57862777  1
  Ti  Ti15  1  0.33333258  0.33333371  0.42570494  1
  Ti  Ti16  1  0.33333120  0.33333440  0.92549728  1
  Ti  Ti17  1  0.00000132  0.99999934  0.25139981  1
  Ti  Ti18  1  0.00000161  0.99999920  0.75075237  1
  Ti  Ti19  1  0.00000148  0.99999926  0.00153271  1
  Ti  Ti20  1  0.00000238  0.99999881  0.50144468  1
  Pt  Pt21  1  0.33333591  0.33333205  0.32993738  1
  Pt  Pt22  1  0.33333651  0.33333175  0.82920640  1
  Pt  Pt23  1  0.66666235  0.66666883  0.16994687  1
  O  O24  1  0.16238184  0.67523527  0.28914210  1
  O  O25  1  0.16278089  0.67443868  0.78849460  1
  O  O26  1  0.67523689  0.16238156  0.28914267  1
  O  O27  1  0.67444331  0.16277834  0.78849513  1
  O  O28  1  0.16238184  0.16238289  0.28914210  1
  O  O29  1  0.16278089  0.16278043  0.78849460  1
  O  O30  1  0.83643552  0.32712846  0.20985735  1
  O  O31  1  0.83371426  0.33257093  0.70880852  1
  O  O32  1  0.32712640  0.83643680  0.20985715  1
  O  O33  1  0.33257153  0.83371424  0.70880868  1
  O  O34  1  0.83643552  0.83643602  0.20985735  1
  O  O35  1  0.83371426  0.83371481  0.70880852  1
  O  O36  1  0.83461864  0.33076104  0.03909778  1
  O  O37  1  0.83518058  0.32963534  0.53965026  1
  O  O38  1  0.33075672  0.83462164  0.03909787  1
  O  O39  1  0.32963102  0.83518449  0.53965011  1
  O  O40  1  0.83461864  0.83462032  0.03909778  1
  O  O41  1  0.83518058  0.83518407  0.53965026  1
  O  O42  1  0.16642321  0.66715319  0.45987637  1
  O  O43  1  0.16656100  0.66687893  0.95986416  1
  O  O44  1  0.66715182  0.16642409  0.45987611  1
  O  O45  1  0.66687875  0.16656063  0.95986411  1
  O  O46  1  0.16642321  0.16642360  0.45987637  1
  O  O47  1  0.16656100  0.16656007  0.95986416  1
  O  O48  1  0.48533939  0.48533848  0.37627525  1
  O  O49  1  0.48508959  0.48508585  0.87608242  1
  O  O50  1  0.48533939  0.02932213  0.37627525  1
  O  O51  1  0.48508959  0.02982456  0.87608242  1
  O  O52  1  0.02932258  0.48533871  0.37627526  1
  O  O53  1  0.02982600  0.48508700  0.87608222  1
  O  O54  1  0.51384601  0.51384840  0.12246411  1
  O  O55  1  0.51817252  0.51817455  0.62424243  1
  O  O56  1  0.51384601  0.97230559  0.12246411  1
  O  O57  1  0.51817252  0.96365292  0.62424243  1
  O  O58  1  0.97230356  0.51384822  0.12246428  1
  O  O59  1  0.96365322  0.51817339  0.62424198  1
