# generated using pymatgen
data_BaPb3(NO3)8
_symmetry_space_group_name_H-M   'P 1'
_cell_length_a   8.02910915
_cell_length_b   8.02952357
_cell_length_c   8.02902160
_cell_angle_alpha   89.90247532
_cell_angle_beta   89.92331921
_cell_angle_gamma   90.09528807
_symmetry_Int_Tables_number   1
_chemical_formula_structural   BaPb3(NO3)8
_chemical_formula_sum   'Ba1 Pb3 N8 O24'
_cell_volume   517.62845858
_cell_formula_units_Z   1
loop_
 _symmetry_equiv_pos_site_id
 _symmetry_equiv_pos_as_xyz
  1  'x, y, z'
loop_
 _atom_site_type_symbol
 _atom_site_label
 _atom_site_symmetry_multiplicity
 _atom_site_fract_x
 _atom_site_fract_y
 _atom_site_fract_z
 _atom_site_occupancy
  Ba  Ba0  1  0.50000000  0.50000000  0.00000000  1
  Pb  Pb1  1  -0.00000000  0.50000000  0.50000000  1
  Pb  Pb2  1  0.50000000  0.00000000  0.50000000  1
  Pb  Pb3  1  -0.00000000  0.00000000  0.00000000  1
  N  N4  1  0.34736995  0.65316135  0.64737954  1
  N  N5  1  0.65263005  0.34683865  0.35262046  1
  N  N6  1  0.15107080  0.15093477  0.34923166  1
  N  N7  1  0.65274686  0.85276685  0.15232924  1
  N  N8  1  0.85290856  0.34780635  0.84696325  1
  N  N9  1  0.84892920  0.84906523  0.65076834  1
  N  N10  1  0.34725314  0.14723315  0.84767076  1
  N  N11  1  0.14709144  0.65219365  0.15303675  1
  O  O12  1  0.21984411  0.02204353  0.28884524  1
  O  O13  1  0.71419765  0.78566149  0.02301102  1
  O  O14  1  0.98131824  0.28655065  0.77886313  1
  O  O15  1  0.78015589  0.97795647  0.71115476  1
  O  O16  1  0.28580235  0.21433851  0.97698898  1
  O  O17  1  0.01868176  0.71344935  0.22113687  1
  O  O18  1  0.21163498  0.21999291  0.47807671  1
  O  O19  1  0.52345028  0.79121990  0.22057186  1
  O  O20  1  0.78542233  0.47711282  0.78535815  1
  O  O21  1  0.78836502  0.78000709  0.52192329  1
  O  O22  1  0.47654972  0.20878010  0.77942814  1
  O  O23  1  0.21457767  0.52288718  0.21464185  1
  O  O24  1  0.02224046  0.21158321  0.28028381  1
  O  O25  1  0.72100864  0.98115798  0.21394450  1
  O  O26  1  0.79126372  0.27968211  0.97623553  1
  O  O27  1  0.97775954  0.78841679  0.71971619  1
  O  O28  1  0.27899136  0.01884202  0.78605550  1
  O  O29  1  0.20873628  0.72031789  0.02376447  1
  O  O30  1  0.28589459  0.72132161  0.51886901  1
  O  O31  1  0.47676015  0.71479884  0.71460729  1
  O  O32  1  0.27935882  0.52379365  0.70893291  1
  O  O33  1  0.71410541  0.27867839  0.48113099  1
  O  O34  1  0.52323985  0.28520116  0.28539271  1
  O  O35  1  0.72064118  0.47620635  0.29106709  1
