# generated using pymatgen
data_Ba5Eu5(Fe5O13)2
_symmetry_space_group_name_H-M   'P 1'
_cell_length_a   8.79813942
_cell_length_b   8.95703632
_cell_length_c   8.95271742
_cell_angle_alpha   89.90907727
_cell_angle_beta   114.04677535
_cell_angle_gamma   101.82419035
_symmetry_Int_Tables_number   1
_chemical_formula_structural   Ba5Eu5(Fe5O13)2
_chemical_formula_sum   'Ba5 Eu5 Fe10 O26'
_cell_volume   627.96648847
_cell_formula_units_Z   1
loop_
 _symmetry_equiv_pos_site_id
 _symmetry_equiv_pos_as_xyz
  1  'x, y, z'
loop_
 _atom_site_type_symbol
 _atom_site_label
 _atom_site_symmetry_multiplicity
 _atom_site_fract_x
 _atom_site_fract_y
 _atom_site_fract_z
 _atom_site_occupancy
  Ba  Ba0  1  0.00000000  0.80000000  0.60000000  1
  Ba  Ba1  1  0.00020035  0.60218505  0.19906946  1
  Ba  Ba2  1  0.00311602  0.40241754  0.80202386  1
  Ba  Ba3  1  0.99688398  0.19758246  0.39797614  1
  Ba  Ba4  1  -0.00020035  0.99781495  0.00093054  1
  Eu  Eu5  1  0.49990711  0.89538641  0.81171958  1
  Eu  Eu6  1  0.50009289  0.70461359  0.38828042  1
  Eu  Eu7  1  0.50032712  0.51171136  0.00486934  1
  Eu  Eu8  1  0.50000000  0.30000000  0.60000000  1
  Eu  Eu9  1  0.49967288  0.08828864  0.19513066  1
  Fe  Fe10  1  0.75279988  0.65011808  0.79780916  1
  Fe  Fe11  1  0.74977746  0.44645086  0.40010137  1
  Fe  Fe12  1  0.74975299  0.25309854  0.99933775  1
  Fe  Fe13  1  0.75013016  0.05088183  0.60344946  1
  Fe  Fe14  1  0.74011099  0.84789321  0.19632405  1
  Fe  Fe15  1  0.24986984  0.54911817  0.59655054  1
  Fe  Fe16  1  0.25024701  0.34690146  0.20066225  1
  Fe  Fe17  1  0.25022254  0.15354914  0.79989863  1
  Fe  Fe18  1  0.24720012  0.94988192  0.40219084  1
  Fe  Fe19  1  0.25988901  0.75210679  0.00367595  1
  O  O20  1  0.69834122  0.83965132  0.67939861  1
  O  O21  1  0.71654686  0.63482683  0.29130438  1
  O  O22  1  0.69908358  0.43922217  0.87879169  1
  O  O23  1  0.69831673  0.24036260  0.48006594  1
  O  O24  1  0.71649309  0.05172964  0.08211553  1
  O  O25  1  0.30165878  0.76034868  0.52060139  1
  O  O26  1  0.28350691  0.54827036  0.11788447  1
  O  O27  1  0.30168327  0.35963740  0.71993406  1
  O  O28  1  0.30091642  0.16077783  0.32120831  1
  O  O29  1  0.28345314  0.96517317  0.90869562  1
  O  O30  1  0.69963054  0.53897552  0.58070833  1
  O  O31  1  0.69836251  0.33944656  0.17925443  1
  O  O32  1  0.69912373  0.14076974  0.77892065  1
  O  O33  1  0.71674124  0.94841782  0.39527901  1
  O  O34  1  0.71727972  0.73874520  0.97845084  1
  O  O35  1  0.30087627  0.45923026  0.42107935  1
  O  O36  1  0.30163749  0.26055344  0.02074557  1
  O  O37  1  0.30036946  0.06102448  0.61929167  1
  O  O38  1  0.28272028  0.86125480  0.22154916  1
  O  O39  1  0.28325876  0.65158218  0.80472099  1
  O  O40  1  0.00220638  0.69898790  0.89829370  1
  O  O41  1  0.99987062  0.49609560  0.49894163  1
  O  O42  1  0.00000000  0.30000000  0.10000000  1
  O  O43  1  0.00012938  0.10390440  0.70105837  1
  O  O44  1  0.99779362  0.90101210  0.30170630  1
  O  O45  1  0.50000000  0.80000000  0.10000000  1
