# generated using pymatgen
data_As3P3Pb10(ClO12)2
_symmetry_space_group_name_H-M   'P 1'
_cell_length_a   7.44264383
_cell_length_b   10.32237879
_cell_length_c   10.32250171
_cell_angle_alpha   59.99949977
_cell_angle_beta   90.00000000
_cell_angle_gamma   90.00000000
_symmetry_Int_Tables_number   1
_chemical_formula_structural   As3P3Pb10(ClO12)2
_chemical_formula_sum   'As3 P3 Pb10 Cl2 O24'
_cell_volume   686.78441946
_cell_formula_units_Z   1
loop_
 _symmetry_equiv_pos_site_id
 _symmetry_equiv_pos_as_xyz
  1  'x, y, z'
loop_
 _atom_site_type_symbol
 _atom_site_label
 _atom_site_symmetry_multiplicity
 _atom_site_fract_x
 _atom_site_fract_y
 _atom_site_fract_z
 _atom_site_occupancy
  As  As0  1  0.25000000  0.97203028  0.40801662  1
  As  As1  1  0.25000000  0.61995294  0.97203248  1
  As  As2  1  0.25000000  0.40801763  0.61995170  1
  P  P3  1  0.75000000  0.02962989  0.59059130  1
  P  P4  1  0.75000000  0.37977806  0.02963105  1
  P  P5  1  0.75000000  0.59059036  0.37977765  1
  Pb  Pb6  1  0.50969666  0.66666301  0.66666734  1
  Pb  Pb7  1  0.99883187  0.33333752  0.33333046  1
  Pb  Pb8  1  0.50116813  0.33333752  0.33333046  1
  Pb  Pb9  1  0.99030334  0.66666301  0.66666734  1
  Pb  Pb10  1  0.75000000  0.24196957  0.74178714  1
  Pb  Pb11  1  0.75000000  0.01622029  0.24200077  1
  Pb  Pb12  1  0.75000000  0.74178033  0.01622786  1
  Pb  Pb13  1  0.25000000  0.75706391  0.25403410  1
  Pb  Pb14  1  0.25000000  0.98891152  0.75705374  1
  Pb  Pb15  1  0.25000000  0.25402758  0.98891785  1
  Cl  Cl16  1  0.49965970  0.00000166  0.99999897  1
  Cl  Cl17  1  0.00034030  0.00000166  0.99999897  1
  O  O18  1  0.75000000  0.11108005  0.41393565  1
  O  O19  1  0.75000000  0.47499047  0.11107547  1
  O  O20  1  0.75000000  0.41393649  0.47498482  1
  O  O21  1  0.25000000  0.87678033  0.60285040  1
  O  O22  1  0.25000000  0.52036702  0.87678434  1
  O  O23  1  0.25000000  0.60285408  0.52036633  1
  O  O24  1  0.58111950  0.08608827  0.63803719  1
  O  O25  1  0.58111704  0.27587625  0.08608785  1
  O  O26  1  0.58112177  0.63803468  0.27587708  1
  O  O27  1  0.06623682  0.90636942  0.35636506  1
  O  O28  1  0.06623408  0.73726470  0.90636518  1
  O  O29  1  0.06623329  0.35637399  0.73726128  1
  O  O30  1  0.43376318  0.90636942  0.35636506  1
  O  O31  1  0.43376592  0.73726470  0.90636518  1
  O  O32  1  0.43376671  0.35637399  0.73726128  1
  O  O33  1  0.91888050  0.08608827  0.63803719  1
  O  O34  1  0.91888296  0.27587625  0.08608785  1
  O  O35  1  0.91887823  0.63803468  0.27587708  1
  O  O36  1  0.75000000  0.85712588  0.65818949  1
  O  O37  1  0.75000000  0.48468349  0.85712827  1
  O  O38  1  0.75000000  0.65819083  0.48468017  1
  O  O39  1  0.25000000  0.16274364  0.33245547  1
  O  O40  1  0.25000000  0.50480237  0.16274427  1
  O  O41  1  0.25000000  0.33245400  0.50480227  1
