# generated using pymatgen
data_Ba2CoRuO6
_symmetry_space_group_name_H-M   'P 1'
_cell_length_a   5.81529935
_cell_length_b   5.82532100
_cell_length_c   14.14204711
_cell_angle_alpha   89.99999996
_cell_angle_beta   90.41202386
_cell_angle_gamma   59.94298304
_symmetry_Int_Tables_number   1
_chemical_formula_structural   Ba2CoRuO6
_chemical_formula_sum   'Ba6 Co3 Ru3 O18'
_cell_volume   414.63890792
_cell_formula_units_Z   3
loop_
 _symmetry_equiv_pos_site_id
 _symmetry_equiv_pos_as_xyz
  1  'x, y, z'
loop_
 _atom_site_type_symbol
 _atom_site_label
 _atom_site_symmetry_multiplicity
 _atom_site_fract_x
 _atom_site_fract_y
 _atom_site_fract_z
 _atom_site_occupancy
  Ba  Ba0  1  0.99804966  0.00097517  0.74625449  1
  Ba  Ba1  1  0.99964432  0.00017784  0.25101752  1
  Ba  Ba2  1  0.33613106  0.33193447  0.41569723  1
  Ba  Ba3  1  0.66598353  0.66700823  0.59325804  1
  Ba  Ba4  1  0.66822553  0.66588724  0.90864579  1
  Ba  Ba5  1  0.33167208  0.33416396  0.08736412  1
  Co  Co6  1  0.99727641  0.00136179  0.50377490  1
  Co  Co7  1  0.00130596  0.99934702  0.99825469  1
  Co  Co8  1  0.32613714  0.33693143  0.64784867  1
  Ru  Ru9  1  0.66704675  0.66647663  0.34016974  1
  Ru  Ru10  1  0.66616940  0.66691530  0.16049387  1
  Ru  Ru11  1  0.33307209  0.33346396  0.84066973  1
  O  O12  1  0.17148428  0.65560157  0.91701209  1
  O  O13  1  0.65883169  0.17058415  0.91744945  1
  O  O14  1  0.17148428  0.17291415  0.91701209  1
  O  O15  1  0.82802577  0.34495835  0.08579285  1
  O  O16  1  0.34229386  0.82885307  0.08487791  1
  O  O17  1  0.82802577  0.82701588  0.08579285  1
  O  O18  1  0.82931315  0.34237578  0.41407897  1
  O  O19  1  0.34407447  0.82796277  0.41421234  1
  O  O20  1  0.82931315  0.82831108  0.41407897  1
  O  O21  1  0.17367308  0.65973591  0.58397559  1
  O  O22  1  0.66690419  0.16654790  0.58285492  1
  O  O23  1  0.17367308  0.16659101  0.58397559  1
  O  O24  1  0.48240691  0.03424569  0.75203969  1
  O  O25  1  0.02821913  0.48589044  0.75193910  1
  O  O26  1  0.48240691  0.48334739  0.75203969  1
  O  O27  1  0.50755171  0.98404309  0.24958306  1
  O  O28  1  0.98405295  0.50797353  0.25025296  1
  O  O29  1  0.50755171  0.50840520  0.24958306  1
