# generated using pymatgen
data_Ba3V2Ni6(PO6)4
_symmetry_space_group_name_H-M   'P 1'
_cell_length_a   4.92066180
_cell_length_b   9.74495940
_cell_length_c   10.91504045
_cell_angle_alpha   78.03014048
_cell_angle_beta   76.97962964
_cell_angle_gamma   90.04579373
_symmetry_Int_Tables_number   1
_chemical_formula_structural   Ba3V2Ni6(PO6)4
_chemical_formula_sum   'Ba3 V2 Ni6 P4 O24'
_cell_volume   498.22953316
_cell_formula_units_Z   1
loop_
 _symmetry_equiv_pos_site_id
 _symmetry_equiv_pos_as_xyz
  1  'x, y, z'
loop_
 _atom_site_type_symbol
 _atom_site_label
 _atom_site_symmetry_multiplicity
 _atom_site_fract_x
 _atom_site_fract_y
 _atom_site_fract_z
 _atom_site_occupancy
  Ba  Ba0  1  0.00065471  0.00050597  0.99569769  1
  Ba  Ba1  1  0.33520560  0.66257882  0.32994269  1
  Ba  Ba2  1  0.66682879  0.33037259  0.66918090  1
  V  V3  1  0.38128947  0.04538376  0.23690864  1
  V  V4  1  0.71458860  0.71254600  0.56997050  1
  Ni  Ni5  1  0.44864065  0.38823062  0.10574295  1
  Ni  Ni6  1  0.77813177  0.05627865  0.44343175  1
  Ni  Ni7  1  0.10926861  0.71695070  0.77943028  1
  Ni  Ni8  1  0.55344215  0.61311013  0.89504219  1
  Ni  Ni9  1  0.88667862  0.28647610  0.22381285  1
  Ni  Ni10  1  0.21909672  0.95039935  0.56171920  1
  P  P11  1  0.95238830  0.62193643  0.09711560  1
  P  P12  1  0.28464634  0.28905279  0.42970445  1
  P  P13  1  0.61713476  0.95366804  0.76456184  1
  P  P14  1  0.04998028  0.37988137  0.90401438  1
  O  O15  1  0.91007975  0.72923851  0.18337899  1
  O  O16  1  0.24118258  0.39618013  0.51617998  1
  O  O17  1  0.57398708  0.06168647  0.85017993  1
  O  O18  1  0.09137557  0.27225804  0.81778602  1
  O  O19  1  0.42931958  0.92640321  0.14117383  1
  O  O20  1  0.76281089  0.59330309  0.47457994  1
  O  O21  1  0.26787622  0.58304132  0.07193227  1
  O  O22  1  0.59971825  0.24993054  0.40423711  1
  O  O23  1  0.93256338  0.91516792  0.73937733  1
  O  O24  1  0.75658163  0.48767972  0.16798311  1
  O  O25  1  0.09120756  0.15393106  0.50086529  1
  O  O26  1  0.42415055  0.81846547  0.83460423  1
  O  O27  1  0.87211012  0.68888988  0.96663125  1
  O  O28  1  0.20737483  0.35486475  0.29821452  1
  O  O29  1  0.53905045  0.02109987  0.63371142  1
  O  O30  1  0.73414588  0.41775401  0.92953217  1
  O  O31  1  0.02797365  0.08765401  0.26051304  1
  O  O32  1  0.35887705  0.74999998  0.59827512  1
  O  O33  1  0.24560721  0.51432195  0.83321429  1
  O  O34  1  0.59684461  0.19503567  0.15287000  1
  O  O35  1  0.93291516  0.86166705  0.48729354  1
  O  O36  1  0.13296065  0.31376419  0.03408613  1
  O  O37  1  0.47312512  0.96736514  0.38142293  1
  O  O38  1  0.80018685  0.63292671  0.71568166  1
