# generated using pymatgen
data_BaPb2(SO4)3
_symmetry_space_group_name_H-M   'P 1'
_cell_length_a   8.71129310
_cell_length_b   9.03729531
_cell_length_c   13.17237965
_cell_angle_alpha   94.90719995
_cell_angle_beta   89.81176423
_cell_angle_gamma   89.72978899
_symmetry_Int_Tables_number   1
_chemical_formula_structural   BaPb2(SO4)3
_chemical_formula_sum   'Ba4 Pb8 S12 O48'
_cell_volume   1033.19602256
_cell_formula_units_Z   4
loop_
 _symmetry_equiv_pos_site_id
 _symmetry_equiv_pos_as_xyz
  1  'x, y, z'
loop_
 _atom_site_type_symbol
 _atom_site_label
 _atom_site_symmetry_multiplicity
 _atom_site_fract_x
 _atom_site_fract_y
 _atom_site_fract_z
 _atom_site_occupancy
  Ba  Ba0  1  0.68200081  0.31132617  0.03074759  1
  Ba  Ba1  1  0.68317909  0.97658400  0.36407663  1
  Ba  Ba2  1  0.68298160  0.64365723  0.69595767  1
  Ba  Ba3  1  0.18167931  0.18949880  0.96982186  1
  Pb  Pb4  1  0.18851026  0.86306841  0.30653715  1
  Pb  Pb5  1  0.18896840  0.52995236  0.63963109  1
  Pb  Pb6  1  0.30500593  0.69451818  0.97475845  1
  Pb  Pb7  1  0.30415835  0.36404446  0.30648439  1
  Pb  Pb8  1  0.30414682  0.03057104  0.63841209  1
  Pb  Pb9  1  0.80690231  0.80333331  0.02811809  1
  Pb  Pb10  1  0.80972310  0.47138118  0.36060363  1
  Pb  Pb11  1  0.80596465  0.13809320  0.69301157  1
  S  S12  1  0.94285482  0.79300473  0.52145529  1
  S  S13  1  0.94011277  0.46034200  0.85390242  1
  S  S14  1  0.94006841  0.12549497  0.18905874  1
  S  S15  1  0.43194532  0.70496477  0.47752820  1
  S  S16  1  0.43453013  0.37368368  0.81007364  1
  S  S17  1  0.43465513  0.03805671  0.14571012  1
  S  S18  1  0.06430833  0.87082088  0.81042189  1
  S  S19  1  0.06557834  0.54264431  0.14624797  1
  S  S20  1  0.06511081  0.20646221  0.47832653  1
  S  S21  1  0.56551991  0.95928323  0.85464329  1
  S  S22  1  0.56307974  0.62758717  0.18900017  1
  S  S23  1  0.56292265  0.29394715  0.52175401  1
  O  O24  1  0.09380261  0.85410110  0.55210670  1
  O  O25  1  0.09249333  0.51657082  0.88644624  1
  O  O26  1  0.09247594  0.18747098  0.21559475  1
  O  O27  1  0.58907043  0.65153855  0.45073570  1
  O  O28  1  0.59051013  0.31894525  0.78131737  1
  O  O29  1  0.59060557  0.98138838  0.11882373  1
  O  O30  1  0.91146475  0.81498376  0.78221272  1
  O  O31  1  0.91418752  0.48269543  0.11610899  1
  O  O32  1  0.91192406  0.14993775  0.45039436  1
  O  O33  1  0.41318553  0.01940752  0.88455097  1
  O  O34  1  0.41076558  0.68806217  0.21899280  1
  O  O35  1  0.41053383  0.35390665  0.55217398  1
  O  O36  1  0.81312215  0.88584971  0.56793934  1
  O  O37  1  0.81241209  0.55540554  0.90050589  1
  O  O38  1  0.81248460  0.21958295  0.23698178  1
  O  O39  1  0.31007206  0.60813762  0.42906159  1
  O  O40  1  0.31118852  0.27533964  0.76456262  1
  O  O41  1  0.31129285  0.94441399  0.09531552  1
  O  O42  1  0.19125104  0.77648445  0.76352620  1
  O  O43  1  0.19505320  0.45155584  0.10058850  1
  O  O44  1  0.19175456  0.11178706  0.43085216  1
  O  O45  1  0.69333423  0.05027916  0.90005662  1
  O  O46  1  0.69217025  0.71756862  0.23388999  1
  O  O47  1  0.69185593  0.38397698  0.56682069  1
  O  O48  1  0.92777239  0.78474821  0.40745112  1
  O  O49  1  0.92776899  0.45417502  0.73989375  1
  O  O50  1  0.91942127  0.11441595  0.07557549  1
  O  O51  1  0.41137406  0.71287863  0.59143434  1
  O  O52  1  0.41840536  0.38556708  0.92382820  1
  O  O53  1  0.41228969  0.04281330  0.25940787  1
  O  O54  1  0.08213952  0.02628378  0.77765666  1
  O  O55  1  0.08028008  0.69823383  0.11316826  1
  O  O56  1  0.08233546  0.36149162  0.44496637  1
  O  O57  1  0.58070062  0.80365241  0.88757587  1
  O  O58  1  0.57862689  0.47181754  0.22161564  1
  O  O59  1  0.57862765  0.13797525  0.55468542  1
  O  O60  1  0.08169437  0.87896773  0.92499465  1
  O  O61  1  0.07978454  0.54997063  0.26100985  1
  O  O62  1  0.08311297  0.21402338  0.59276731  1
  O  O63  1  0.58107182  0.95133067  0.73983608  1
  O  O64  1  0.57851239  0.61939923  0.07404773  1
  O  O65  1  0.57819746  0.28555477  0.40704330  1
  O  O66  1  0.92784593  0.63806702  0.55370079  1
  O  O67  1  0.91958261  0.30534885  0.88441984  1
  O  O68  1  0.92748008  0.97156732  0.22308856  1
  O  O69  1  0.41142168  0.85963231  0.44503651  1
  O  O70  1  0.41219709  0.52688814  0.77538575  1
  O  O71  1  0.41843934  0.19348726  0.11556894  1
