# generated using pymatgen
data_Ba2CdGe10
_symmetry_space_group_name_H-M   'P 1'
_cell_length_a   11.02285270
_cell_length_b   11.02285270
_cell_length_c   10.95565461
_cell_angle_alpha   90.00000000
_cell_angle_beta   90.00000000
_cell_angle_gamma   90.01901073
_symmetry_Int_Tables_number   1
_chemical_formula_structural   Ba2CdGe10
_chemical_formula_sum   'Ba8 Cd4 Ge40'
_cell_volume   1331.14791483
_cell_formula_units_Z   4
loop_
 _symmetry_equiv_pos_site_id
 _symmetry_equiv_pos_as_xyz
  1  'x, y, z'
loop_
 _atom_site_type_symbol
 _atom_site_label
 _atom_site_symmetry_multiplicity
 _atom_site_fract_x
 _atom_site_fract_y
 _atom_site_fract_z
 _atom_site_occupancy
  Ba  Ba0  1  0.49936592  0.50043471  0.50000000  1
  Ba  Ba1  1  0.00043471  -0.00063408  -0.00000000  1
  Ba  Ba2  1  0.00301178  0.75524660  0.50000000  1
  Ba  Ba3  1  0.25524660  0.50301178  -0.00000000  1
  Ba  Ba4  1  0.49735437  0.99735437  0.75000000  1
  Ba  Ba5  1  0.00282451  0.24510522  0.50000000  1
  Ba  Ba6  1  0.74510522  0.50282451  -0.00000000  1
  Ba  Ba7  1  0.49735437  0.99735437  0.25000000  1
  Cd  Cd8  1  0.99979873  0.49979873  0.75000000  1
  Cd  Cd9  1  0.50008007  0.24957320  -0.00000000  1
  Cd  Cd10  1  0.74957320  0.00008007  0.50000000  1
  Cd  Cd11  1  0.99979873  0.49979873  0.25000000  1
  Ge  Ge12  1  0.19810406  0.49988316  0.61450028  1
  Ge  Ge13  1  0.50012034  0.62122058  0.82142400  1
  Ge  Ge14  1  0.37942568  0.82074083  0.50000000  1
  Ge  Ge15  1  0.80220993  0.49986294  0.38554493  1
  Ge  Ge16  1  0.50006454  0.38916722  0.20051013  1
  Ge  Ge17  1  0.61068878  0.19978459  0.50000000  1
  Ge  Ge18  1  0.80220993  0.49986294  0.61445507  1
  Ge  Ge19  1  0.50006454  0.38916722  0.79948987  1
  Ge  Ge20  1  0.19810406  0.49988316  0.38549972  1
  Ge  Ge21  1  0.50012034  0.62122058  0.17857600  1
  Ge  Ge22  1  0.61066285  0.79970587  0.50000000  1
  Ge  Ge23  1  0.37923904  0.17862701  0.50000000  1
  Ge  Ge24  1  0.99988316  0.69810406  0.11450028  1
  Ge  Ge25  1  0.12122058  0.00012034  0.32142400  1
  Ge  Ge26  1  0.32074083  0.87942568  -0.00000000  1
  Ge  Ge27  1  0.99986294  0.30220993  0.88554493  1
  Ge  Ge28  1  0.88916722  0.00006454  0.70051013  1
  Ge  Ge29  1  0.69978459  0.11068878  -0.00000000  1
  Ge  Ge30  1  0.99986294  0.30220993  0.11445507  1
  Ge  Ge31  1  0.88916722  0.00006454  0.29948987  1
  Ge  Ge32  1  0.99988316  0.69810406  0.88549972  1
  Ge  Ge33  1  0.12122058  0.00012034  0.67857600  1
  Ge  Ge34  1  0.29970587  0.11066285  -0.00000000  1
  Ge  Ge35  1  0.67862701  0.87923904  -0.00000000  1
  Ge  Ge36  1  0.32042708  0.68494273  0.68304540  1
  Ge  Ge37  1  0.68427994  0.31670559  0.31661878  1
  Ge  Ge38  1  0.68427994  0.31670559  0.68338122  1
  Ge  Ge39  1  0.32042708  0.68494273  0.31695460  1
  Ge  Ge40  1  0.68098296  0.68178018  0.31343636  1
  Ge  Ge41  1  0.31704081  0.31379651  0.67992321  1
  Ge  Ge42  1  0.31704081  0.31379651  0.32007679  1
  Ge  Ge43  1  0.68098296  0.68178018  0.68656364  1
  Ge  Ge44  1  0.18494273  0.82042708  0.18304540  1
  Ge  Ge45  1  0.81670559  0.18427994  0.81661878  1
  Ge  Ge46  1  0.81670559  0.18427994  0.18338122  1
  Ge  Ge47  1  0.18494273  0.82042708  0.81695460  1
  Ge  Ge48  1  0.18178018  0.18098296  0.81343636  1
  Ge  Ge49  1  0.81379651  0.81704081  0.17992321  1
  Ge  Ge50  1  0.81379651  0.81704081  0.82007679  1
  Ge  Ge51  1  0.18178018  0.18098296  0.18656364  1
