# generated using pymatgen
data_NaMg30BO31
_symmetry_space_group_name_H-M   'P 1'
_cell_length_a   8.56892842
_cell_length_b   8.45106507
_cell_length_c   8.62486473
_cell_angle_alpha   90.00000000
_cell_angle_beta   90.00000000
_cell_angle_gamma   90.00000000
_symmetry_Int_Tables_number   1
_chemical_formula_structural   NaMg30BO31
_chemical_formula_sum   'Na1 Mg30 B1 O31'
_cell_volume   624.58313476
_cell_formula_units_Z   1
loop_
 _symmetry_equiv_pos_site_id
 _symmetry_equiv_pos_as_xyz
  1  'x, y, z'
loop_
 _atom_site_type_symbol
 _atom_site_label
 _atom_site_symmetry_multiplicity
 _atom_site_fract_x
 _atom_site_fract_y
 _atom_site_fract_z
 _atom_site_occupancy
  Na  Na0  1  0.99879279  -0.00000000  0.00000000  1
  Mg  Mg1  1  0.99846401  -0.00000000  0.50000000  1
  Mg  Mg2  1  0.99742586  0.50000000  0.00000000  1
  Mg  Mg3  1  0.50064340  -0.00000000  0.00000000  1
  Mg  Mg4  1  0.50914768  -0.00000000  0.50000000  1
  Mg  Mg5  1  0.50145169  0.50000000  0.00000000  1
  Mg  Mg6  1  0.49761711  0.50000000  0.50000000  1
  Mg  Mg7  1  0.99984427  0.25789786  0.24187464  1
  Mg  Mg8  1  0.99984427  0.25789786  0.75812536  1
  Mg  Mg9  1  0.99984427  0.74210214  0.24187464  1
  Mg  Mg10  1  0.99984427  0.74210214  0.75812536  1
  Mg  Mg11  1  0.49954251  0.24988400  0.24904385  1
  Mg  Mg12  1  0.49954251  0.24988400  0.75095615  1
  Mg  Mg13  1  0.49954251  0.75011600  0.24904385  1
  Mg  Mg14  1  0.49954251  0.75011600  0.75095615  1
  Mg  Mg15  1  0.24677279  -0.00000000  0.24425278  1
  Mg  Mg16  1  0.24677279  -0.00000000  0.75574722  1
  Mg  Mg17  1  0.24753393  0.50000000  0.23802377  1
  Mg  Mg18  1  0.24753393  0.50000000  0.76197623  1
  Mg  Mg19  1  0.75258740  -0.00000000  0.24869824  1
  Mg  Mg20  1  0.75258740  -0.00000000  0.75130176  1
  Mg  Mg21  1  0.75405068  0.50000000  0.25499446  1
  Mg  Mg22  1  0.75405068  0.50000000  0.74500554  1
  Mg  Mg23  1  0.24880700  0.24798055  0.00000000  1
  Mg  Mg24  1  0.25213910  0.24894970  0.50000000  1
  Mg  Mg25  1  0.24880700  0.75201945  0.00000000  1
  Mg  Mg26  1  0.25213910  0.75105030  0.50000000  1
  Mg  Mg27  1  0.75081815  0.24933054  0.00000000  1
  Mg  Mg28  1  0.74750064  0.26394669  0.50000000  1
  Mg  Mg29  1  0.75081815  0.75066946  0.00000000  1
  Mg  Mg30  1  0.74750064  0.73605331  0.50000000  1
  B  B31  1  0.05578023  0.50000000  0.50000000  1
  O  O32  1  0.26278797  0.00000000  0.00000000  1
  O  O33  1  0.25582998  0.50000000  0.00000000  1
  O  O34  1  0.22827255  0.50000000  0.50000000  1
  O  O35  1  0.73677698  -0.00000000  0.00000000  1
  O  O36  1  0.75674473  0.00000000  0.50000000  1
  O  O37  1  0.74436271  0.50000000  0.00000000  1
  O  O38  1  0.72472997  0.50000000  0.50000000  1
  O  O39  1  0.24795805  0.25017860  0.25232562  1
  O  O40  1  0.24795805  0.25017860  0.74767438  1
  O  O41  1  0.24795805  0.74982140  0.25232562  1
  O  O42  1  0.24795805  0.74982140  0.74767438  1
  O  O43  1  0.75177735  0.25039396  0.25352423  1
  O  O44  1  0.75177735  0.25039396  0.74647577  1
  O  O45  1  0.75177735  0.74960604  0.25352423  1
  O  O46  1  0.75177735  0.74960604  0.74647577  1
  O  O47  1  0.99955669  -0.00000000  0.27030012  1
  O  O48  1  0.99955669  -0.00000000  0.72969988  1
  O  O49  1  0.00378841  0.50000000  0.23510995  1
  O  O50  1  0.00378841  0.50000000  0.76489005  1
  O  O51  1  0.49943525  -0.00000000  0.25518511  1
  O  O52  1  0.49943525  0.00000000  0.74481489  1
  O  O53  1  0.49300399  0.50000000  0.25275191  1
  O  O54  1  0.49300399  0.50000000  0.74724809  1
  O  O55  1  0.00007018  0.25952710  0.00000000  1
  O  O56  1  0.00242073  0.33635828  0.50000000  1
  O  O57  1  0.00007018  0.74047290  0.00000000  1
  O  O58  1  0.00242073  0.66364172  0.50000000  1
  O  O59  1  0.49970022  0.25126399  0.00000000  1
  O  O60  1  0.49415665  0.24939927  0.50000000  1
  O  O61  1  0.49970022  0.74873601  0.00000000  1
  O  O62  1  0.49415665  0.75060073  0.50000000  1
