# generated using pymatgen
data_AlCu(PSe3)2
_symmetry_space_group_name_H-M   'P 1'
_cell_length_a   6.28587101
_cell_length_b   6.28587093
_cell_length_c   7.81599071
_cell_angle_alpha   89.99999998
_cell_angle_beta   66.28947079
_cell_angle_gamma   119.99999959
_symmetry_Int_Tables_number   1
_chemical_formula_structural   AlCu(PSe3)2
_chemical_formula_sum   'Al1 Cu1 P2 Se6'
_cell_volume   236.87290040
_cell_formula_units_Z   1
loop_
 _symmetry_equiv_pos_site_id
 _symmetry_equiv_pos_as_xyz
  1  'x, y, z'
loop_
 _atom_site_type_symbol
 _atom_site_label
 _atom_site_symmetry_multiplicity
 _atom_site_fract_x
 _atom_site_fract_y
 _atom_site_fract_z
 _atom_site_occupancy
  Al  Al0  1  0.66551796  0.83275898  0.50172306  1
  Cu  Cu1  1  0.33441033  0.16720516  0.49838451  1
  P  P2  1  0.89339994  0.44669997  0.65990009  1
  P  P3  1  0.10780243  0.55390121  0.33829636  1
  Se  Se4  1  0.82446686  0.06921800  0.74033817  1
  Se  Se5  1  0.50441297  0.43519498  0.74033817  1
  Se  Se6  1  0.19044384  0.75524886  0.74033817  1
  Se  Se7  1  0.14248487  0.91519394  0.26022716  1
  Se  Se8  1  0.51248192  0.59728797  0.26022716  1
  Se  Se9  1  0.82457890  0.22729093  0.26022716  1
