# generated using pymatgen
data_CsTi2(CuTe4)2
_symmetry_space_group_name_H-M   'P 1'
_cell_length_a   4.03255408
_cell_length_b   10.24326117
_cell_length_c   10.64894150
_cell_angle_alpha   84.45172405
_cell_angle_beta   79.08569233
_cell_angle_gamma   101.35219693
_symmetry_Int_Tables_number   1
_chemical_formula_structural   CsTi2(CuTe4)2
_chemical_formula_sum   'Cs1 Ti2 Cu2 Te8'
_cell_volume   419.34446945
_cell_formula_units_Z   1
loop_
 _symmetry_equiv_pos_site_id
 _symmetry_equiv_pos_as_xyz
  1  'x, y, z'
loop_
 _atom_site_type_symbol
 _atom_site_label
 _atom_site_symmetry_multiplicity
 _atom_site_fract_x
 _atom_site_fract_y
 _atom_site_fract_z
 _atom_site_occupancy
  Cs  Cs0  1  0.35827004  0.34776343  0.63122335  1
  Ti  Ti1  1  0.50588386  0.20928753  0.19751980  1
  Ti  Ti2  1  0.49046768  0.78842156  0.80748619  1
  Cu  Cu3  1  0.82456973  0.58381101  0.93467154  1
  Cu  Cu4  1  0.17775240  0.41937473  0.06386993  1
  Te  Te5  1  0.68294383  0.31440111  0.94851346  1
  Te  Te6  1  0.31461482  0.68508889  0.05585924  1
  Te  Te7  1  0.98908945  0.66588069  0.68770180  1
  Te  Te8  1  0.01460225  0.33861215  0.30940766  1
  Te  Te9  1  0.06540938  0.98420365  0.85338490  1
  Te  Te10  1  0.93024527  0.01190081  0.15141027  1
  Te  Te11  1  0.29065667  0.97952293  0.39820960  1
  Te  Te12  1  0.70819462  0.01393151  0.59754226  1
