# generated using pymatgen
data_BaCaZr8(PO4)12
_symmetry_space_group_name_H-M   'P 1'
_cell_length_a   8.91760726
_cell_length_b   12.92915032
_cell_length_c   9.36286190
_cell_angle_alpha   86.18049575
_cell_angle_beta   90.00664004
_cell_angle_gamma   89.99937929
_symmetry_Int_Tables_number   1
_chemical_formula_structural   BaCaZr8(PO4)12
_chemical_formula_sum   'Ba1 Ca1 Zr8 P12 O48'
_cell_volume   1077.11291920
_cell_formula_units_Z   1
loop_
 _symmetry_equiv_pos_site_id
 _symmetry_equiv_pos_as_xyz
  1  'x, y, z'
loop_
 _atom_site_type_symbol
 _atom_site_label
 _atom_site_symmetry_multiplicity
 _atom_site_fract_x
 _atom_site_fract_y
 _atom_site_fract_z
 _atom_site_occupancy
  Ba  Ba0  1  0.50000000  0.50000000  0.50000000  1
  Ca  Ca1  1  0.00000000  -0.00000000  0.00000000  1
  Zr  Zr2  1  0.00025336  0.35896526  0.71570281  1
  Zr  Zr3  1  0.49967262  0.85785702  0.21816043  1
  Zr  Zr4  1  0.99974664  0.64103474  0.28429719  1
  Zr  Zr5  1  0.50032738  0.14214298  0.78183957  1
  Zr  Zr6  1  0.49889292  0.34643163  0.19860105  1
  Zr  Zr7  1  0.00123020  0.85410217  0.70263662  1
  Zr  Zr8  1  0.50110708  0.65356837  0.80139895  1
  Zr  Zr9  1  0.99876980  0.14589783  0.29736338  1
  P  P10  1  0.21077338  0.24081490  0.99716441  1
  P  P11  1  0.71475183  0.74707587  0.50085800  1
  P  P12  1  0.63926434  0.39375907  0.85077350  1
  P  P13  1  0.13678503  0.89267384  0.34907818  1
  P  P14  1  0.14728722  0.60810448  0.63980556  1
  P  P15  1  0.65131474  0.10379324  0.13414932  1
  P  P16  1  0.78922662  0.75918510  0.00283559  1
  P  P17  1  0.28524817  0.25292413  0.49914200  1
  P  P18  1  0.36073566  0.60624093  0.14922650  1
  P  P19  1  0.86321497  0.10732616  0.65092182  1
  P  P20  1  0.85271278  0.39189552  0.36019444  1
  P  P21  1  0.34868526  0.89620676  0.86585068  1
  O  O22  1  0.37309323  0.88805484  0.02877901  1
  O  O23  1  0.86871752  0.38712071  0.52443504  1
  O  O24  1  0.68801739  0.82761094  0.09007500  1
  O  O25  1  0.19005745  0.32776982  0.58320790  1
  O  O26  1  0.44001107  0.69614971  0.21895727  1
  O  O27  1  0.93984683  0.20136985  0.71146882  1
  O  O28  1  0.62690677  0.11194516  0.97122099  1
  O  O29  1  0.13128248  0.61287929  0.47556496  1
  O  O30  1  0.31198261  0.17238906  0.90992500  1
  O  O31  1  0.80994255  0.67223018  0.41679210  1
  O  O32  1  0.55998893  0.30385029  0.78104273  1
  O  O33  1  0.06015317  0.79863015  0.28853118  1
  O  O34  1  0.06237479  0.51398441  0.70839680  1
  O  O35  1  0.56525856  0.01199587  0.20720453  1
  O  O36  1  0.12537099  0.32058037  0.89867737  1
  O  O37  1  0.62839513  0.82392099  0.39947361  1
  O  O38  1  0.81031724  0.38592758  0.83473812  1
  O  O39  1  0.30822552  0.88632064  0.33557257  1
  O  O40  1  0.93762521  0.48601559  0.29160320  1
  O  O41  1  0.43474144  0.98800413  0.79279547  1
  O  O42  1  0.87462901  0.67941963  0.10132263  1
  O  O43  1  0.37160487  0.17607901  0.60052639  1
  O  O44  1  0.18968276  0.61407242  0.16526188  1
  O  O45  1  0.69177448  0.11367936  0.66442743  1
  O  O46  1  0.90311585  0.83230942  0.91870359  1
  O  O47  1  0.39999799  0.31892449  0.40679734  1
  O  O48  1  0.41543318  0.50186826  0.22411970  1
  O  O49  1  0.92132586  0.00919909  0.74091926  1
  O  O50  1  0.68304650  0.40256305  0.32270110  1
  O  O51  1  0.17666848  0.91194738  0.83980411  1
  O  O52  1  0.09688415  0.16769058  0.08129641  1
  O  O53  1  0.60000201  0.68107551  0.59320266  1
  O  O54  1  0.58456682  0.49813174  0.77588030  1
  O  O55  1  0.07867414  0.99080091  0.25908074  1
  O  O56  1  0.31695350  0.59743695  0.67729890  1
  O  O57  1  0.82333152  0.08805262  0.16019589  1
  O  O58  1  0.30525149  0.29915029  0.10490139  1
  O  O59  1  0.81187956  0.80854086  0.60273426  1
  O  O60  1  0.59918557  0.39415339  0.01103621  1
  O  O61  1  0.09638720  0.90096886  0.50913301  1
  O  O62  1  0.60019413  0.20415492  0.20087202  1
  O  O63  1  0.08834061  0.70834271  0.70221831  1
  O  O64  1  0.69474851  0.70084971  0.89509861  1
  O  O65  1  0.18812044  0.19145914  0.39726574  1
  O  O66  1  0.40081443  0.60584661  0.98896379  1
  O  O67  1  0.90361280  0.09903114  0.49086699  1
  O  O68  1  0.39980587  0.79584508  0.79912798  1
  O  O69  1  0.91165939  0.29165729  0.29778169  1
