# generated using pymatgen
data_Al18Co5Ni3
_symmetry_space_group_name_H-M   'P 1'
_cell_length_a   4.06306838
_cell_length_b   6.40401509
_cell_length_c   14.88258380
_cell_angle_alpha   80.48906022
_cell_angle_beta   82.15439442
_cell_angle_gamma   71.50461919
_symmetry_Int_Tables_number   1
_chemical_formula_structural   Al18Co5Ni3
_chemical_formula_sum   'Al18 Co5 Ni3'
_cell_volume   360.72788980
_cell_formula_units_Z   1
loop_
 _symmetry_equiv_pos_site_id
 _symmetry_equiv_pos_as_xyz
  1  'x, y, z'
loop_
 _atom_site_type_symbol
 _atom_site_label
 _atom_site_symmetry_multiplicity
 _atom_site_fract_x
 _atom_site_fract_y
 _atom_site_fract_z
 _atom_site_occupancy
  Al  Al0  1  0.31952316  0.08942683  0.27152686  1
  Al  Al1  1  0.31892143  0.59043315  0.77172399  1
  Al  Al2  1  0.68112155  0.41114373  0.22661317  1
  Al  Al3  1  0.68092025  0.90945241  0.72870709  1
  Al  Al4  1  0.49626889  0.63916388  0.36829834  1
  Al  Al5  1  0.49643089  0.13871150  0.86842673  1
  Al  Al6  1  0.50542995  0.85918512  0.12995498  1
  Al  Al7  1  0.50372217  0.36102192  0.63153375  1
  Al  Al8  1  0.70031434  0.19520166  0.40416966  1
  Al  Al9  1  0.69912378  0.69498922  0.90676322  1
  Al  Al10  1  0.29624385  0.31159714  0.09591517  1
  Al  Al11  1  0.29969248  0.80511547  0.59549957  1
  Al  Al12  1  0.00082638  0.74890421  0.24944304  1
  Al  Al13  1  0.99985852  0.25030341  0.74997956  1
  Al  Al14  1  0.09747599  0.77671588  0.02833213  1
  Al  Al15  1  0.09550351  0.28183446  0.52715852  1
  Al  Al16  1  0.90457833  0.71800925  0.47283409  1
  Al  Al17  1  0.90357161  0.21894735  0.97390943  1
  Co  Co18  1  0.11303949  0.41815189  0.35576914  1
  Co  Co19  1  0.11356250  0.91858047  0.85429453  1
  Co  Co20  1  0.88646535  0.08180424  0.14526506  1
  Co  Co21  1  0.88654615  0.58200011  0.64490760  1
  Co  Co22  1  0.70611083  0.52498464  0.06279371  1
  Ni  Ni23  1  0.70608284  0.02474154  0.56309279  1
  Ni  Ni24  1  0.29370468  0.97539975  0.43719090  1
  Ni  Ni25  1  0.29496110  0.47418080  0.93589700  1
