# generated using pymatgen
data_Zr3Pd4
_symmetry_space_group_name_H-M   'P 1'
_cell_length_a   5.60033607
_cell_length_b   7.54534237
_cell_length_c   7.54534172
_cell_angle_alpha   114.09079909
_cell_angle_beta   104.32418756
_cell_angle_gamma   104.32418621
_symmetry_Int_Tables_number   1
_chemical_formula_structural   Zr3Pd4
_chemical_formula_sum   'Zr6 Pd8'
_cell_volume   259.22131019
_cell_formula_units_Z   2
loop_
 _symmetry_equiv_pos_site_id
 _symmetry_equiv_pos_as_xyz
  1  'x, y, z'
loop_
 _atom_site_type_symbol
 _atom_site_label
 _atom_site_symmetry_multiplicity
 _atom_site_fract_x
 _atom_site_fract_y
 _atom_site_fract_z
 _atom_site_occupancy
  Zr  Zr0  1  0.73459835  0.73925495  0.13133197  1
  Zr  Zr1  1  0.60326638  0.86866803  0.60792299  1
  Zr  Zr2  1  0.99534340  0.39207701  0.26074505  1
  Zr  Zr3  1  0.26540165  0.26074505  0.86866803  1
  Zr  Zr4  1  0.39673362  0.13133197  0.39207701  1
  Zr  Zr5  1  0.00465660  0.60792299  0.73925495  1
  Pd  Pd6  1  -0.00000000  0.00000000  0.00000000  1
  Pd  Pd7  1  0.50000000  0.00000000  0.00000000  1
  Pd  Pd8  1  0.23805308  0.67860641  0.16075918  1
  Pd  Pd9  1  0.07729391  0.83924082  0.51784724  1
  Pd  Pd10  1  0.55944667  0.48215276  0.32139359  1
  Pd  Pd11  1  0.76194692  0.32139359  0.83924082  1
  Pd  Pd12  1  0.92270609  0.16075918  0.48215276  1
  Pd  Pd13  1  0.44055333  0.51784724  0.67860641  1
