# generated using pymatgen
data_KAlO2
_symmetry_space_group_name_H-M   'P 1'
_cell_length_a   5.58268085
_cell_length_b   5.58268085
_cell_length_c   7.77767012
_cell_angle_alpha   90.00000000
_cell_angle_beta   90.00000000
_cell_angle_gamma   90.00000000
_symmetry_Int_Tables_number   1
_chemical_formula_structural   KAlO2
_chemical_formula_sum   'K4 Al4 O8'
_cell_volume   242.40139838
_cell_formula_units_Z   4
loop_
 _symmetry_equiv_pos_site_id
 _symmetry_equiv_pos_as_xyz
  1  'x, y, z'
loop_
 _atom_site_type_symbol
 _atom_site_label
 _atom_site_symmetry_multiplicity
 _atom_site_fract_x
 _atom_site_fract_y
 _atom_site_fract_z
 _atom_site_occupancy
  O  O0  1  0.91394049  0.75610266  0.32672064  1
  O  O1  1  0.08605951  0.24389734  0.82672064  1
  O  O2  1  0.75610266  0.91394049  0.67327936  1
  O  O3  1  0.25610266  0.58605951  0.07672064  1
  O  O4  1  0.74389734  0.41394049  0.57672064  1
  O  O5  1  0.24389734  0.08605951  0.17327936  1
  O  O6  1  0.41394049  0.74389734  0.42327936  1
  O  O7  1  0.58605951  0.25610266  0.92327936  1
  Al  Al8  1  0.71248024  0.71248024  0.50000000  1
  Al  Al9  1  0.21248024  0.78751976  0.25000000  1
  Al  Al10  1  0.78751976  0.21248024  0.75000000  1
  Al  Al11  1  0.28751976  0.28751976  0.00000000  1
  K  K12  1  0.72468497  0.72468497  0.00000000  1
  K  K13  1  0.77531503  0.22468497  0.25000000  1
  K  K14  1  0.22468497  0.77531503  0.75000000  1
  K  K15  1  0.27531503  0.27531503  0.50000000  1
