# generated using pymatgen
data_Al2Fe(PO4)3
_symmetry_space_group_name_H-M   'P 1'
_cell_length_a   5.14187975
_cell_length_b   15.44200590
_cell_length_c   7.17646095
_cell_angle_alpha   89.84271881
_cell_angle_beta   89.83422858
_cell_angle_gamma   90.16390579
_symmetry_Int_Tables_number   1
_chemical_formula_structural   Al2Fe(PO4)3
_chemical_formula_sum   'Al4 Fe2 P6 O24'
_cell_volume   569.81085050
_cell_formula_units_Z   2
loop_
 _symmetry_equiv_pos_site_id
 _symmetry_equiv_pos_as_xyz
  1  'x, y, z'
loop_
 _atom_site_type_symbol
 _atom_site_label
 _atom_site_symmetry_multiplicity
 _atom_site_fract_x
 _atom_site_fract_y
 _atom_site_fract_z
 _atom_site_occupancy
  Al  Al0  1  0.79880708  0.06836736  0.75044121  1
  Al  Al1  1  0.79933319  0.39870780  0.74976108  1
  Al  Al2  1  0.80208397  0.73272760  0.75017303  1
  Al  Al3  1  0.20256970  0.26621229  0.25079342  1
  Fe  Fe4  1  0.20055958  0.59955292  0.24950086  1
  Fe  Fe5  1  0.20104105  0.93324715  0.24997192  1
  P  P6  1  0.30016378  0.10377088  0.50358921  1
  P  P7  1  0.30121372  0.42984234  0.50520435  1
  P  P8  1  0.30336402  0.76792598  0.50870615  1
  P  P9  1  0.70172209  0.23331730  0.00094651  1
  P  P10  1  0.69665679  0.56542522  0.99077765  1
  P  P11  1  0.69688141  0.89963664  0.99057523  1
  O  O12  1  0.26340097  0.19908486  0.44431178  1
  O  O13  1  0.26599798  0.52597151  0.45161810  1
  O  O14  1  0.26900251  0.86460566  0.46125241  1
  O  O15  1  0.58247854  0.08872641  0.56658079  1
  O  O16  1  0.58509970  0.41604349  0.56464554  1
  O  O17  1  0.58675014  0.75119602  0.56648587  1
  O  O18  1  0.73914877  0.13912573  0.93712624  1
  O  O19  1  0.74648625  0.47131801  0.93252565  1
  O  O20  1  0.74648874  0.80502611  0.93270215  1
  O  O21  1  0.41860785  0.24635154  0.06576141  1
  O  O22  1  0.40566943  0.57691626  0.03832754  1
  O  O23  1  0.40588909  0.91042303  0.03829354  1
  O  O24  1  0.11862525  0.08163420  0.66807718  1
  O  O25  1  0.12031509  0.40834260  0.66977559  1
  O  O26  1  0.12359008  0.74326609  0.67223772  1
  O  O27  1  0.24042927  0.04779565  0.33139608  1
  O  O28  1  0.24023015  0.37249428  0.33521983  1
  O  O29  1  0.24060145  0.71418107  0.33320204  1
  O  O30  1  0.88469770  0.25313822  0.16572315  1
  O  O31  1  0.85586229  0.58644792  0.16702750  1
  O  O32  1  0.85622894  0.91992186  0.16691848  1
  O  O33  1  0.75985269  0.29328681  0.83488247  1
  O  O34  1  0.76986000  0.62560141  0.82775267  1
  O  O35  1  0.77029075  0.96036778  0.82771563  1
