# generated using pymatgen
data_PrPt
_symmetry_space_group_name_H-M   'P 1'
_cell_length_a   3.95993422
_cell_length_b   4.59203761
_cell_length_c   5.84172858
_cell_angle_alpha   90.00000000
_cell_angle_beta   109.81201046
_cell_angle_gamma   90.00000000
_symmetry_Int_Tables_number   1
_chemical_formula_structural   PrPt
_chemical_formula_sum   'Pr2 Pt2'
_cell_volume   99.93936561
_cell_formula_units_Z   2
loop_
 _symmetry_equiv_pos_site_id
 _symmetry_equiv_pos_as_xyz
  1  'x, y, z'
loop_
 _atom_site_type_symbol
 _atom_site_label
 _atom_site_symmetry_multiplicity
 _atom_site_fract_x
 _atom_site_fract_y
 _atom_site_fract_z
 _atom_site_occupancy
  Pr  Pr0  1  0.13721498  0.75000000  0.27442996  1
  Pr  Pr1  1  0.86278502  0.25000000  0.72557004  1
  Pt  Pt2  1  0.41228375  0.75000000  0.82456750  1
  Pt  Pt3  1  0.58771625  0.25000000  0.17543250  1
