# generated using pymatgen
data_SrHfMg30O32
_symmetry_space_group_name_H-M   'P 1'
_cell_length_a   8.68100328
_cell_length_b   8.68100328
_cell_length_c   8.66923848
_cell_angle_alpha   90.00000000
_cell_angle_beta   90.00000000
_cell_angle_gamma   90.00000000
_symmetry_Int_Tables_number   1
_chemical_formula_structural   SrHfMg30O32
_chemical_formula_sum   'Sr1 Hf1 Mg30 O32'
_cell_volume   653.31223360
_cell_formula_units_Z   1
loop_
 _symmetry_equiv_pos_site_id
 _symmetry_equiv_pos_as_xyz
  1  'x, y, z'
loop_
 _atom_site_type_symbol
 _atom_site_label
 _atom_site_symmetry_multiplicity
 _atom_site_fract_x
 _atom_site_fract_y
 _atom_site_fract_z
 _atom_site_occupancy
  Sr  Sr0  1  -0.00000000  0.00000000  -0.00000000  1
  Hf  Hf1  1  -0.00000000  0.00000000  0.50000000  1
  Mg  Mg2  1  -0.00000000  0.50000000  -0.00000000  1
  Mg  Mg3  1  -0.00000000  0.50000000  0.50000000  1
  Mg  Mg4  1  0.50000000  0.00000000  -0.00000000  1
  Mg  Mg5  1  0.50000000  0.00000000  0.50000000  1
  Mg  Mg6  1  0.50000000  0.50000000  -0.00000000  1
  Mg  Mg7  1  0.50000000  0.50000000  0.50000000  1
  Mg  Mg8  1  -0.00000000  0.26247506  0.25014885  1
  Mg  Mg9  1  -0.00000000  0.26247506  0.74985115  1
  Mg  Mg10  1  -0.00000000  0.73752494  0.25014885  1
  Mg  Mg11  1  -0.00000000  0.73752494  0.74985115  1
  Mg  Mg12  1  0.50000000  0.25218260  0.25021877  1
  Mg  Mg13  1  0.50000000  0.25218260  0.74978123  1
  Mg  Mg14  1  0.50000000  0.74781740  0.25021877  1
  Mg  Mg15  1  0.50000000  0.74781740  0.74978123  1
  Mg  Mg16  1  0.26247506  0.00000000  0.25014885  1
  Mg  Mg17  1  0.26247506  0.00000000  0.74985115  1
  Mg  Mg18  1  0.25218260  0.50000000  0.25021877  1
  Mg  Mg19  1  0.25218260  0.50000000  0.74978123  1
  Mg  Mg20  1  0.73752494  0.00000000  0.25014885  1
  Mg  Mg21  1  0.73752494  0.00000000  0.74985115  1
  Mg  Mg22  1  0.74781740  0.50000000  0.25021877  1
  Mg  Mg23  1  0.74781740  0.50000000  0.74978123  1
  Mg  Mg24  1  0.25646845  0.25646845  -0.00000000  1
  Mg  Mg25  1  0.25362328  0.25362328  0.50000000  1
  Mg  Mg26  1  0.25646845  0.74353155  -0.00000000  1
  Mg  Mg27  1  0.25362328  0.74637672  0.50000000  1
  Mg  Mg28  1  0.74353155  0.25646845  -0.00000000  1
  Mg  Mg29  1  0.74637672  0.25362328  0.50000000  1
  Mg  Mg30  1  0.74353155  0.74353155  -0.00000000  1
  Mg  Mg31  1  0.74637672  0.74637672  0.50000000  1
  O  O32  1  0.27038250  0.00000000  -0.00000000  1
  O  O33  1  0.25853635  0.00000000  0.50000000  1
  O  O34  1  0.25387708  0.50000000  -0.00000000  1
  O  O35  1  0.25160600  0.50000000  0.50000000  1
  O  O36  1  0.72961750  0.00000000  -0.00000000  1
  O  O37  1  0.74146365  0.00000000  0.50000000  1
  O  O38  1  0.74612292  0.50000000  -0.00000000  1
  O  O39  1  0.74839400  0.50000000  0.50000000  1
  O  O40  1  0.24932156  0.24932156  0.24909269  1
  O  O41  1  0.24932156  0.24932156  0.75090731  1
  O  O42  1  0.24932156  0.75067844  0.24909269  1
  O  O43  1  0.24932156  0.75067844  0.75090731  1
  O  O44  1  0.75067844  0.24932156  0.24909269  1
  O  O45  1  0.75067844  0.24932156  0.75090731  1
  O  O46  1  0.75067844  0.75067844  0.24909269  1
  O  O47  1  0.75067844  0.75067844  0.75090731  1
  O  O48  1  -0.00000000  0.00000000  0.26690897  1
  O  O49  1  -0.00000000  0.00000000  0.73309103  1
  O  O50  1  -0.00000000  0.50000000  0.25342558  1
  O  O51  1  -0.00000000  0.50000000  0.74657442  1
  O  O52  1  0.50000000  0.00000000  0.25342558  1
  O  O53  1  0.50000000  0.00000000  0.74657442  1
  O  O54  1  0.50000000  0.50000000  0.25075053  1
  O  O55  1  0.50000000  0.50000000  0.74924947  1
  O  O56  1  -0.00000000  0.27038250  -0.00000000  1
  O  O57  1  -0.00000000  0.25853635  0.50000000  1
  O  O58  1  -0.00000000  0.72961750  -0.00000000  1
  O  O59  1  -0.00000000  0.74146365  0.50000000  1
  O  O60  1  0.50000000  0.25387708  -0.00000000  1
  O  O61  1  0.50000000  0.25160600  0.50000000  1
  O  O62  1  0.50000000  0.74612292  -0.00000000  1
  O  O63  1  0.50000000  0.74839400  0.50000000  1
