# generated using pymatgen
data_Ba2Pb(SO4)3
_symmetry_space_group_name_H-M   'P 1'
_cell_length_a   5.54427543
_cell_length_b   21.61476427
_cell_length_c   8.87033630
_cell_angle_alpha   90.28470095
_cell_angle_beta   90.00000000
_cell_angle_gamma   90.00000000
_symmetry_Int_Tables_number   1
_chemical_formula_structural   Ba2Pb(SO4)3
_chemical_formula_sum   'Ba8 Pb4 S12 O48'
_cell_volume   1062.99206995
_cell_formula_units_Z   4
loop_
 _symmetry_equiv_pos_site_id
 _symmetry_equiv_pos_as_xyz
  1  'x, y, z'
loop_
 _atom_site_type_symbol
 _atom_site_label
 _atom_site_symmetry_multiplicity
 _atom_site_fract_x
 _atom_site_fract_y
 _atom_site_fract_z
 _atom_site_occupancy
  Ba  Ba0  1  0.25000000  0.38578260  0.18564627  1
  Ba  Ba1  1  0.25000000  0.71983392  0.18550657  1
  Ba  Ba2  1  0.75000000  0.21891019  0.31870663  1
  Ba  Ba3  1  0.75000000  0.55266898  0.31799166  1
  Ba  Ba4  1  0.75000000  0.88626431  0.31664994  1
  Ba  Ba5  1  0.75000000  0.28009231  0.81559687  1
  Ba  Ba6  1  0.75000000  0.61395612  0.81535201  1
  Ba  Ba7  1  0.75000000  0.94780046  0.81677413  1
  Pb  Pb8  1  0.25000000  0.10994605  0.69455834  1
  Pb  Pb9  1  0.25000000  0.44472700  0.68893219  1
  Pb  Pb10  1  0.25000000  0.77816353  0.68918402  1
  Pb  Pb11  1  0.25000000  0.05422254  0.19356966  1
  S  S12  1  0.75000000  0.10476117  0.93566414  1
  S  S13  1  0.75000000  0.43779644  0.93117000  1
  S  S14  1  0.75000000  0.77142393  0.93081857  1
  S  S15  1  0.75000000  0.06211197  0.43559030  1
  S  S16  1  0.75000000  0.39620517  0.44177868  1
  S  S17  1  0.75000000  0.72962981  0.44181818  1
  S  S18  1  0.25000000  0.22757667  0.06151176  1
  S  S19  1  0.25000000  0.56244461  0.06191523  1
  S  S20  1  0.25000000  0.89715814  0.06279957  1
  S  S21  1  0.25000000  0.27030794  0.56389848  1
  S  S22  1  0.25000000  0.60387062  0.56378313  1
  S  S23  1  0.25000000  0.93823164  0.56202572  1
  O  O24  1  0.75000000  0.13375846  0.08595294  1
  O  O25  1  0.75000000  0.46499751  0.08410520  1
  O  O26  1  0.75000000  0.79846209  0.08386617  1
  O  O27  1  0.75000000  0.03323836  0.58558953  1
  O  O28  1  0.75000000  0.36531593  0.58897806  1
  O  O29  1  0.75000000  0.69864958  0.58895899  1
  O  O30  1  0.25000000  0.19995018  0.90866486  1
  O  O31  1  0.25000000  0.53344988  0.91062449  1
  O  O32  1  0.25000000  0.86815682  0.91117884  1
  O  O33  1  0.25000000  0.29776294  0.41163741  1
  O  O34  1  0.25000000  0.63138098  0.41168812  1
  O  O35  1  0.25000000  0.96592059  0.40955717  1
  O  O36  1  0.97158305  0.06415973  0.91927591  1
  O  O37  1  0.97047197  0.39730967  0.91256380  1
  O  O38  1  0.97053155  0.73095468  0.91205290  1
  O  O39  1  0.52849756  0.10261434  0.41979572  1
  O  O40  1  0.52980153  0.43690181  0.42839083  1
  O  O41  1  0.52973073  0.77027218  0.42862459  1
  O  O42  1  0.46822915  0.26823376  0.08063568  1
  O  O43  1  0.46867175  0.60312170  0.07918827  1
  O  O44  1  0.46875779  0.93772406  0.08035377  1
  O  O45  1  0.03134710  0.23000562  0.58245853  1
  O  O46  1  0.03149764  0.56350183  0.58233288  1
  O  O47  1  0.03157448  0.89797741  0.58075270  1
  O  O48  1  0.03177085  0.26823376  0.08063568  1
  O  O49  1  0.03132825  0.60312170  0.07918827  1
  O  O50  1  0.03124221  0.93772406  0.08035377  1
  O  O51  1  0.46865290  0.23000562  0.58245853  1
  O  O52  1  0.46850236  0.56350183  0.58233288  1
  O  O53  1  0.46842552  0.89797741  0.58075270  1
  O  O54  1  0.52841695  0.06415973  0.91927591  1
  O  O55  1  0.52952803  0.39730967  0.91256380  1
  O  O56  1  0.52946845  0.73095468  0.91205290  1
  O  O57  1  0.97150244  0.10261434  0.41979572  1
  O  O58  1  0.97019847  0.43690181  0.42839083  1
  O  O59  1  0.97026927  0.77027218  0.42862459  1
  O  O60  1  0.75000000  0.15016007  0.81015053  1
  O  O61  1  0.75000000  0.48476525  0.80957850  1
  O  O62  1  0.75000000  0.81845505  0.80936382  1
  O  O63  1  0.75000000  0.01636321  0.30961881  1
  O  O64  1  0.75000000  0.35141963  0.31307251  1
  O  O65  1  0.75000000  0.68485841  0.31306829  1
  O  O66  1  0.25000000  0.17995900  0.18328187  1
  O  O67  1  0.25000000  0.51601125  0.18563540  1
  O  O68  1  0.25000000  0.85028590  0.18585813  1
  O  O69  1  0.25000000  0.31864849  0.68553512  1
  O  O70  1  0.25000000  0.65213036  0.68562471  1
  O  O71  1  0.25000000  0.98646038  0.68431733  1
