# generated using pymatgen
data_MgCdTe2
_symmetry_space_group_name_H-M   'P 1'
_cell_length_a   6.56170555
_cell_length_b   6.56170555
_cell_length_c   8.04921214
_cell_angle_alpha   114.05412041
_cell_angle_beta   114.05412041
_cell_angle_gamma   90.00000000
_symmetry_Int_Tables_number   1
_chemical_formula_structural   MgCdTe2
_chemical_formula_sum   'Mg2 Cd2 Te4'
_cell_volume   283.19516146
_cell_formula_units_Z   2
loop_
 _symmetry_equiv_pos_site_id
 _symmetry_equiv_pos_as_xyz
  1  'x, y, z'
loop_
 _atom_site_type_symbol
 _atom_site_label
 _atom_site_symmetry_multiplicity
 _atom_site_fract_x
 _atom_site_fract_y
 _atom_site_fract_z
 _atom_site_occupancy
  Mg  Mg0  1  0.00000000  0.00000000  0.00000000  1
  Mg  Mg1  1  0.25000000  0.75000100  0.50000100  1
  Cd  Cd2  1  0.50000100  0.50000100  0.00000000  1
  Cd  Cd3  1  0.75000100  0.25000000  0.50000100  1
  Te  Te4  1  0.36824346  0.37500000  0.25000000  1
  Te  Te5  1  0.88175754  0.87500000  0.25000000  1
  Te  Te6  1  0.62499900  0.11824346  0.74999900  1
  Te  Te7  1  0.12500000  0.63175554  0.74999900  1
