# generated using pymatgen
data_Dy2Sb5
_symmetry_space_group_name_H-M   'P 1'
_cell_length_a   4.23392983
_cell_length_b   13.20837428
_cell_length_c   14.69687553
_cell_angle_alpha   102.14710066
_cell_angle_beta   90.00000000
_cell_angle_gamma   90.00000000
_symmetry_Int_Tables_number   1
_chemical_formula_structural   Dy2Sb5
_chemical_formula_sum   'Dy8 Sb20'
_cell_volume   803.49639954
_cell_formula_units_Z   4
loop_
 _symmetry_equiv_pos_site_id
 _symmetry_equiv_pos_as_xyz
  1  'x, y, z'
loop_
 _atom_site_type_symbol
 _atom_site_label
 _atom_site_symmetry_multiplicity
 _atom_site_fract_x
 _atom_site_fract_y
 _atom_site_fract_z
 _atom_site_occupancy
  Sb  Sb0  1  0.25000000  0.85833550  0.77924629  1
  Sb  Sb1  1  0.75000000  0.14166450  0.22075371  1
  Sb  Sb2  1  0.25000000  0.85665704  0.48167415  1
  Sb  Sb3  1  0.75000000  0.14334296  0.51832585  1
  Sb  Sb4  1  0.25000000  0.84792086  0.17260059  1
  Sb  Sb5  1  0.75000000  0.15207914  0.82739941  1
  Sb  Sb6  1  0.25000000  0.58019268  0.97535437  1
  Sb  Sb7  1  0.75000000  0.41980732  0.02464563  1
  Sb  Sb8  1  0.75000000  0.96970735  0.90622211  1
  Sb  Sb9  1  0.25000000  0.03029265  0.09377789  1
  Sb  Sb10  1  0.75000000  0.86166715  0.32261962  1
  Sb  Sb11  1  0.25000000  0.13833285  0.67738038  1
  Sb  Sb12  1  0.75000000  0.72102976  0.93830309  1
  Sb  Sb13  1  0.25000000  0.27897024  0.06169691  1
  Sb  Sb14  1  0.75000000  0.71479416  0.65290270  1
  Sb  Sb15  1  0.25000000  0.28520584  0.34709730  1
  Sb  Sb16  1  0.75000000  0.42453930  0.73451843  1
  Sb  Sb17  1  0.25000000  0.57546070  0.26548157  1
  Sb  Sb18  1  0.75000000  0.42540782  0.44913328  1
  Sb  Sb19  1  0.25000000  0.57459218  0.55086672  1
  Dy  Dy20  1  0.25000000  0.60681694  0.77045823  1
  Dy  Dy21  1  0.75000000  0.39318306  0.22954177  1
  Dy  Dy22  1  0.25000000  0.33759068  0.85494780  1
  Dy  Dy23  1  0.75000000  0.66240932  0.14505220  1
  Dy  Dy24  1  0.25000000  0.33091792  0.57762986  1
  Dy  Dy25  1  0.75000000  0.66908208  0.42237014  1
  Dy  Dy26  1  0.25000000  0.04734938  0.36160315  1
  Dy  Dy27  1  0.75000000  0.95265062  0.63839685  1
