# generated using pymatgen
data_K3GdF6
_symmetry_space_group_name_H-M   'P 1'
_cell_length_a   6.44399337
_cell_length_b   6.68886169
_cell_length_c   9.21982042
_cell_angle_alpha   90.00000000
_cell_angle_beta   91.03851748
_cell_angle_gamma   90.00000000
_symmetry_Int_Tables_number   1
_chemical_formula_structural   K3GdF6
_chemical_formula_sum   'K6 Gd2 F12'
_cell_volume   397.33646043
_cell_formula_units_Z   2
loop_
 _symmetry_equiv_pos_site_id
 _symmetry_equiv_pos_as_xyz
  1  'x, y, z'
loop_
 _atom_site_type_symbol
 _atom_site_label
 _atom_site_symmetry_multiplicity
 _atom_site_fract_x
 _atom_site_fract_y
 _atom_site_fract_z
 _atom_site_occupancy
  F  F0  1  0.87883429  0.93383211  0.77551553  1
  F  F1  1  0.62116571  0.43383211  0.72448447  1
  F  F2  1  0.12116571  0.06616789  0.22448447  1
  F  F3  1  0.37883429  0.56616789  0.27551553  1
  F  F4  1  0.82848172  0.72924914  0.07799893  1
  F  F5  1  0.67151828  0.22924914  0.42200107  1
  F  F6  1  0.17151828  0.27075086  0.92200107  1
  F  F7  1  0.32848172  0.77075086  0.57799893  1
  F  F8  1  0.21799596  0.32138682  0.55102151  1
  F  F9  1  0.28200404  0.82138682  0.94897849  1
  F  F10  1  0.78200404  0.67861318  0.44897849  1
  F  F11  1  0.71799596  0.17861318  0.05102151  1
  K  K12  1  0.51746425  0.94821119  0.24182963  1
  K  K13  1  0.98253575  0.44821119  0.25817037  1
  K  K14  1  0.48253575  0.05178881  0.75817037  1
  K  K15  1  0.01746425  0.55178881  0.74182963  1
  K  K16  1  0.00000000  0.00000000  0.50000000  1
  K  K17  1  0.50000000  0.50000000  0.00000000  1
  Gd  Gd18  1  0.50000000  0.50000000  0.50000000  1
  Gd  Gd19  1  0.00000000  0.00000000  0.00000000  1
