# generated using pymatgen
data_CuSnF6
_symmetry_space_group_name_H-M   'P 1'
_cell_length_a   5.58304316
_cell_length_b   5.58304316
_cell_length_c   5.58304316
_cell_angle_alpha   56.75375537
_cell_angle_beta   56.75375542
_cell_angle_gamma   56.75375536
_symmetry_Int_Tables_number   1
_chemical_formula_structural   CuSnF6
_chemical_formula_sum   'Cu1 Sn1 F6'
_cell_volume   113.83276567
_cell_formula_units_Z   1
loop_
 _symmetry_equiv_pos_site_id
 _symmetry_equiv_pos_as_xyz
  1  'x, y, z'
loop_
 _atom_site_type_symbol
 _atom_site_label
 _atom_site_symmetry_multiplicity
 _atom_site_fract_x
 _atom_site_fract_y
 _atom_site_fract_z
 _atom_site_occupancy
  F  F0  1  0.24950193  0.86516976  0.63738626  1
  F  F1  1  0.86516976  0.63738626  0.24950193  1
  F  F2  1  0.36261374  0.75049807  0.13483024  1
  F  F3  1  0.13483024  0.36261374  0.75049807  1
  F  F4  1  0.75049807  0.13483024  0.36261374  1
  F  F5  1  0.63738626  0.24950193  0.86516976  1
  Cu  Cu6  1  0.50000000  0.50000000  0.50000000  1
  Sn  Sn7  1  0.00000000  0.00000000  0.00000000  1
