# generated using pymatgen
data_Rb2GeF6
_symmetry_space_group_name_H-M   'P 1'
_cell_length_a   6.07953046
_cell_length_b   6.07953046
_cell_length_c   9.90047797
_cell_angle_alpha   90.00000000
_cell_angle_beta   90.00000000
_cell_angle_gamma   120.00000001
_symmetry_Int_Tables_number   1
_chemical_formula_structural   Rb2GeF6
_chemical_formula_sum   'Rb4 Ge2 F12'
_cell_volume   316.90337964
_cell_formula_units_Z   2
loop_
 _symmetry_equiv_pos_site_id
 _symmetry_equiv_pos_as_xyz
  1  'x, y, z'
loop_
 _atom_site_type_symbol
 _atom_site_label
 _atom_site_symmetry_multiplicity
 _atom_site_fract_x
 _atom_site_fract_y
 _atom_site_fract_z
 _atom_site_occupancy
  F  F0  1  0.52497421  0.47502579  0.64813875  1
  F  F1  1  0.04994842  0.52497421  0.14813875  1
  F  F2  1  0.47502579  0.95005158  0.14813875  1
  F  F3  1  0.52497421  0.04994842  0.64813875  1
  F  F4  1  0.95005158  0.47502579  0.64813875  1
  F  F5  1  0.47502579  0.52497421  0.14813875  1
  F  F6  1  0.18840873  0.81159127  0.36022612  1
  F  F7  1  0.37681746  0.18840873  0.86022612  1
  F  F8  1  0.81159127  0.62318254  0.86022612  1
  F  F9  1  0.18840873  0.37681746  0.36022612  1
  F  F10  1  0.62318254  0.81159127  0.36022612  1
  F  F11  1  0.81159127  0.18840873  0.86022612  1
  Ge  Ge12  1  0.66666667  0.33333333  0.75701523  1
  Ge  Ge13  1  0.33333333  0.66666667  0.25701523  1
  Rb  Rb14  1  0.00000000  0.00000000  0.09560577  1
  Rb  Rb15  1  0.00000000  0.00000000  0.59560577  1
  Rb  Rb16  1  0.66666667  0.33333333  0.37228438  1
  Rb  Rb17  1  0.33333333  0.66666667  0.87228438  1
