# generated using pymatgen
data_Sr2Ca6Co7CuO24
_symmetry_space_group_name_H-M   'P 1'
_cell_length_a   7.63632899
_cell_length_b   7.61566678
_cell_length_c   7.61566678
_cell_angle_alpha   89.98607116
_cell_angle_beta   90.00000000
_cell_angle_gamma   90.00000000
_symmetry_Int_Tables_number   1
_chemical_formula_structural   Sr2Ca6Co7CuO24
_chemical_formula_sum   'Sr2 Ca6 Co7 Cu1 O24'
_cell_volume   442.89470089
_cell_formula_units_Z   1
loop_
 _symmetry_equiv_pos_site_id
 _symmetry_equiv_pos_as_xyz
  1  'x, y, z'
loop_
 _atom_site_type_symbol
 _atom_site_label
 _atom_site_symmetry_multiplicity
 _atom_site_fract_x
 _atom_site_fract_y
 _atom_site_fract_z
 _atom_site_occupancy
  Sr  Sr0  1  0.24881075  0.24929240  0.75070760  1
  Sr  Sr1  1  0.75118925  0.24929240  0.75070760  1
  Ca  Ca2  1  0.24768042  0.24908583  0.24919824  1
  Ca  Ca3  1  0.24779425  0.75117626  0.24882374  1
  Ca  Ca4  1  0.24768042  0.75080176  0.75091417  1
  Ca  Ca5  1  0.75231958  0.24908583  0.24919824  1
  Ca  Ca6  1  0.75220575  0.75117626  0.24882374  1
  Ca  Ca7  1  0.75231958  0.75080176  0.75091417  1
  Co  Co8  1  0.00000000  0.99875887  0.49845001  1
  Co  Co9  1  0.00000000  0.50154999  0.00124113  1
  Co  Co10  1  0.00000000  0.50123443  0.49876557  1
  Co  Co11  1  0.50000000  0.99859668  0.00140332  1
  Co  Co12  1  0.50000000  0.99868155  0.49879132  1
  Co  Co13  1  0.50000000  0.50120868  0.00131845  1
  Co  Co14  1  0.50000000  0.50155360  0.49844640  1
  Cu  Cu15  1  0.00000000  0.99956120  0.00043880  1
  O  O16  1  0.25391799  0.99615032  0.00384968  1
  O  O17  1  0.25231283  0.99636979  0.49626562  1
  O  O18  1  0.25231283  0.50373438  0.00363021  1
  O  O19  1  0.24564979  0.50305872  0.49694128  1
  O  O20  1  0.74608201  0.99615032  0.00384968  1
  O  O21  1  0.74768717  0.99636979  0.49626562  1
  O  O22  1  0.74768717  0.50373438  0.00363021  1
  O  O23  1  0.75435021  0.50305872  0.49694128  1
  O  O24  1  0.00000000  0.25435349  0.00668400  1
  O  O25  1  0.00000000  0.25139192  0.49415688  1
  O  O26  1  0.00000000  0.74657731  0.00115091  1
  O  O27  1  0.00000000  0.74866684  0.49817817  1
  O  O28  1  0.50000000  0.25254339  0.00631047  1
  O  O29  1  0.50000000  0.24989464  0.49575820  1
  O  O30  1  0.50000000  0.74747700  0.00105064  1
  O  O31  1  0.50000000  0.74980152  0.49790078  1
  O  O32  1  0.00000000  0.99884909  0.25342269  1
  O  O33  1  0.00000000  0.99331600  0.74564651  1
  O  O34  1  0.00000000  0.50182183  0.25133316  1
  O  O35  1  0.00000000  0.50584312  0.74860808  1
  O  O36  1  0.50000000  0.99894936  0.25252300  1
  O  O37  1  0.50000000  0.99368953  0.74745661  1
  O  O38  1  0.50000000  0.50209922  0.25019848  1
  O  O39  1  0.50000000  0.50424180  0.75010536  1
