# generated using pymatgen
data_LuB2C
_symmetry_space_group_name_H-M   'P 1'
_cell_length_a   6.73413622
_cell_length_b   6.73413622
_cell_length_c   7.19549700
_cell_angle_alpha   90.00000000
_cell_angle_beta   90.00000000
_cell_angle_gamma   90.00000000
_symmetry_Int_Tables_number   1
_chemical_formula_structural   LuB2C
_chemical_formula_sum   'Lu8 B16 C8'
_cell_volume   326.30564783
_cell_formula_units_Z   8
loop_
 _symmetry_equiv_pos_site_id
 _symmetry_equiv_pos_as_xyz
  1  'x, y, z'
loop_
 _atom_site_type_symbol
 _atom_site_label
 _atom_site_symmetry_multiplicity
 _atom_site_fract_x
 _atom_site_fract_y
 _atom_site_fract_z
 _atom_site_occupancy
  B  B0  1  0.15300712  0.03426178  0.00000000  1
  B  B1  1  0.53426178  0.65300712  0.50000000  1
  B  B2  1  0.84699288  0.96573822  0.00000000  1
  B  B3  1  0.34699288  0.53426178  0.00000000  1
  B  B4  1  0.65300712  0.46573822  0.00000000  1
  B  B5  1  0.03426178  0.84699288  0.50000000  1
  B  B6  1  0.96573822  0.15300712  0.50000000  1
  B  B7  1  0.46573822  0.34699288  0.50000000  1
  B  B8  1  0.09684715  0.59326380  0.00000000  1
  B  B9  1  0.40673620  0.09684715  0.50000000  1
  B  B10  1  0.59326380  0.90315285  0.50000000  1
  B  B11  1  0.59684715  0.90673620  0.00000000  1
  B  B12  1  0.40315285  0.09326380  0.00000000  1
  B  B13  1  0.90315285  0.40673620  0.00000000  1
  B  B14  1  0.09326380  0.59684715  0.50000000  1
  B  B15  1  0.90673620  0.40315285  0.50000000  1
  C  C16  1  0.17780722  0.04000911  0.50000000  1
  C  C17  1  0.67780722  0.45999089  0.50000000  1
  C  C18  1  0.32219278  0.54000911  0.50000000  1
  C  C19  1  0.95999089  0.17780722  0.00000000  1
  C  C20  1  0.04000911  0.82219278  0.00000000  1
  C  C21  1  0.54000911  0.67780722  0.00000000  1
  C  C22  1  0.82219278  0.95999089  0.50000000  1
  C  C23  1  0.45999089  0.32219278  0.00000000  1
  Lu  Lu24  1  0.30887542  0.80887542  0.75000000  1
  Lu  Lu25  1  0.19112458  0.30887542  0.25000000  1
  Lu  Lu26  1  0.80887542  0.69112458  0.25000000  1
  Lu  Lu27  1  0.69112458  0.19112458  0.75000000  1
  Lu  Lu28  1  0.69112458  0.19112458  0.25000000  1
  Lu  Lu29  1  0.80887542  0.69112458  0.75000000  1
  Lu  Lu30  1  0.19112458  0.30887542  0.75000000  1
  Lu  Lu31  1  0.30887542  0.80887542  0.25000000  1
