# generated using pymatgen
data_Ba4Ti12O27
_symmetry_space_group_name_H-M   'P 1'
_cell_length_a   10.03618543
_cell_length_b   11.56919517
_cell_length_c   11.56919517
_cell_angle_alpha   59.85512505
_cell_angle_beta   73.63662564
_cell_angle_gamma   73.63662564
_symmetry_Int_Tables_number   1
_chemical_formula_structural   Ba4Ti12O27
_chemical_formula_sum   'Ba8 Ti24 O54'
_cell_volume   1098.54483568
_cell_formula_units_Z   2
loop_
 _symmetry_equiv_pos_site_id
 _symmetry_equiv_pos_as_xyz
  1  'x, y, z'
loop_
 _atom_site_type_symbol
 _atom_site_label
 _atom_site_symmetry_multiplicity
 _atom_site_fract_x
 _atom_site_fract_y
 _atom_site_fract_z
 _atom_site_occupancy
  O  O0  1  0.30614613  0.56715179  0.56715179  1
  O  O1  1  0.69385387  0.43284821  0.43284821  1
  O  O2  1  0.88898400  0.68628758  0.68628758  1
  O  O3  1  0.11101600  0.31371242  0.31371242  1
  O  O4  1  0.38502895  0.68372039  0.68372039  1
  O  O5  1  0.61497105  0.31627961  0.31627961  1
  O  O6  1  0.65609727  0.79463457  0.79463457  1
  O  O7  1  0.34390273  0.20536543  0.20536543  1
  O  O8  1  0.19956334  0.93125542  0.93125542  1
  O  O9  1  0.80043666  0.06874458  0.06874458  1
  O  O10  1  0.94827180  0.06500369  0.81475218  1
  O  O11  1  0.05172820  0.18524782  0.93499631  1
  O  O12  1  0.05172820  0.93499631  0.18524782  1
  O  O13  1  0.94827180  0.81475218  0.06500369  1
  O  O14  1  0.69852429  0.18046504  0.68715459  1
  O  O15  1  0.30147571  0.31284541  0.81953496  1
  O  O16  1  0.30147571  0.81953496  0.31284541  1
  O  O17  1  0.69852429  0.68715459  0.18046504  1
  O  O18  1  0.94318922  0.31035096  0.56671677  1
  O  O19  1  0.05681078  0.43328323  0.68964904  1
  O  O20  1  0.05681078  0.68964904  0.43328323  1
  O  O21  1  0.94318922  0.56671677  0.31035096  1
  O  O22  1  0.85812185  0.20680804  0.44996007  1
  O  O23  1  0.14187815  0.55003993  0.79319196  1
  O  O24  1  0.14187815  0.79319196  0.55003993  1
  O  O25  1  0.85812185  0.44996007  0.20680804  1
  O  O26  1  0.87625143  0.94680543  0.67792878  1
  O  O27  1  0.12374857  0.32207122  0.05319457  1
  O  O28  1  0.12374857  0.05319457  0.32207122  1
  O  O29  1  0.87625143  0.67792878  0.94680543  1
  O  O30  1  0.63931776  0.54765169  0.05551961  1
  O  O31  1  0.36068224  0.94448039  0.45234831  1
  O  O32  1  0.55960040  0.17374698  0.93668299  1
  O  O33  1  0.44039960  0.06331701  0.82625302  1
  O  O34  1  0.44039960  0.82625302  0.06331701  1
  O  O35  1  0.55960040  0.93668299  0.17374698  1
  O  O36  1  0.53086739  0.68935620  0.42843033  1
  O  O37  1  0.46913261  0.57156967  0.31064380  1
  O  O38  1  0.46913261  0.31064380  0.57156967  1
  O  O39  1  0.53086739  0.42843033  0.68935620  1
  O  O40  1  0.88697819  0.43328632  0.92346503  1
  O  O41  1  0.11302181  0.07653497  0.56671368  1
  O  O42  1  0.11302181  0.56671368  0.07653497  1
  O  O43  1  0.88697819  0.92346503  0.43328632  1
  O  O44  1  0.59576445  0.30483021  0.07620943  1
  O  O45  1  0.40423555  0.92379057  0.69516979  1
  O  O46  1  0.40423555  0.69516979  0.92379057  1
  O  O47  1  0.59576445  0.07620943  0.30483021  1
  O  O48  1  0.63063319  0.82339250  0.55925596  1
  O  O49  1  0.36936681  0.44074404  0.17660750  1
  O  O50  1  0.36936681  0.17660750  0.44074404  1
  O  O51  1  0.63063319  0.55925596  0.82339250  1
  O  O52  1  0.63931776  0.05551961  0.54765169  1
  O  O53  1  0.36068224  0.45234831  0.94448039  1
  Ti  Ti54  1  0.00000000  0.00000000  0.00000000  1
  Ti  Ti55  1  0.50000000  0.50000000  0.50000000  1
  Ti  Ti56  1  0.50000000  0.00000000  0.50000000  1
  Ti  Ti57  1  0.50000000  0.50000000  0.00000000  1
  Ti  Ti58  1  0.50000000  0.76976300  0.23023700  1
  Ti  Ti59  1  0.50000000  0.23023700  0.76976300  1
  Ti  Ti60  1  0.07831133  0.61332411  0.61332411  1
  Ti  Ti61  1  0.92168867  0.38667589  0.38667589  1
  Ti  Ti62  1  0.51669962  0.73647099  0.73647099  1
  Ti  Ti63  1  0.48330038  0.26352901  0.26352901  1
  Ti  Ti64  1  0.38941097  0.88888670  0.88888670  1
  Ti  Ti65  1  0.61058903  0.11111330  0.11111330  1
  Ti  Ti66  1  0.92215735  0.11962032  0.63667809  1
  Ti  Ti67  1  0.07784265  0.36332191  0.88037968  1
  Ti  Ti68  1  0.07784265  0.88037968  0.36332191  1
  Ti  Ti69  1  0.92215735  0.63667809  0.11962032  1
  Ti  Ti70  1  0.65853467  0.50906960  0.22972203  1
  Ti  Ti71  1  0.34146533  0.77027797  0.49093040  1
  Ti  Ti72  1  0.34146533  0.49093040  0.77027797  1
  Ti  Ti73  1  0.65853467  0.22972203  0.50906960  1
  Ti  Ti74  1  0.78562400  0.61260406  0.87951748  1
  Ti  Ti75  1  0.21437600  0.12048252  0.38739594  1
  Ti  Ti76  1  0.21437600  0.38739594  0.12048252  1
  Ti  Ti77  1  0.78562400  0.87951748  0.61260406  1
  Ba  Ba78  1  0.12635284  0.79539943  0.79539943  1
  Ba  Ba79  1  0.87364716  0.20460057  0.20460057  1
  Ba  Ba80  1  0.71110146  0.92376252  0.92376252  1
  Ba  Ba81  1  0.28889854  0.07623748  0.07623748  1
  Ba  Ba82  1  0.78457310  0.79018533  0.33945223  1
  Ba  Ba83  1  0.21542690  0.66054777  0.20981467  1
  Ba  Ba84  1  0.21542690  0.20981467  0.66054777  1
  Ba  Ba85  1  0.78457310  0.33945223  0.79018533  1
