# generated using pymatgen
data_Ag7AsS6
_symmetry_space_group_name_H-M   'P 1'
_cell_length_a   10.64731893
_cell_length_b   10.64731893
_cell_length_c   10.64731893
_cell_angle_alpha   90.00000000
_cell_angle_beta   90.00000000
_cell_angle_gamma   90.00000000
_symmetry_Int_Tables_number   1
_chemical_formula_structural   Ag7AsS6
_chemical_formula_sum   'Ag28 As4 S24'
_cell_volume   1207.03757366
_cell_formula_units_Z   4
loop_
 _symmetry_equiv_pos_site_id
 _symmetry_equiv_pos_as_xyz
  1  'x, y, z'
loop_
 _atom_site_type_symbol
 _atom_site_label
 _atom_site_symmetry_multiplicity
 _atom_site_fract_x
 _atom_site_fract_y
 _atom_site_fract_z
 _atom_site_occupancy
  S  S0  1  0.36953615  0.11769820  0.61600800  1
  S  S1  1  0.86953615  0.38230180  0.38399200  1
  S  S2  1  0.63046385  0.61769820  0.88399200  1
  S  S3  1  0.38230180  0.38399200  0.86953615  1
  S  S4  1  0.88399200  0.63046385  0.61769820  1
  S  S5  1  0.38399200  0.86953615  0.38230180  1
  S  S6  1  0.11769820  0.61600800  0.36953615  1
  S  S7  1  0.61600800  0.36953615  0.11769820  1
  S  S8  1  0.61769820  0.88399200  0.63046385  1
  S  S9  1  0.88230180  0.11600800  0.13046385  1
  S  S10  1  0.11600800  0.13046385  0.88230180  1
  S  S11  1  0.13046385  0.88230180  0.11600800  1
  S  S12  1  0.73463173  0.76536827  0.23463173  1
  S  S13  1  0.52812275  0.52812275  0.52812275  1
  S  S14  1  0.76536827  0.23463173  0.73463173  1
  S  S15  1  0.26536827  0.26536827  0.26536827  1
  S  S16  1  0.11670590  0.38329410  0.61670590  1
  S  S17  1  0.38329410  0.61670590  0.11670590  1
  S  S18  1  0.61670590  0.11670590  0.38329410  1
  S  S19  1  0.88329410  0.88329410  0.88329410  1
  S  S20  1  0.47187725  0.02812275  0.97187725  1
  S  S21  1  0.02812275  0.97187725  0.47187725  1
  S  S22  1  0.97187725  0.47187725  0.02812275  1
  S  S23  1  0.23463173  0.73463173  0.76536827  1
  As  As24  1  0.99552861  0.50447139  0.49552861  1
  As  As25  1  0.50447139  0.49552861  0.99552861  1
  As  As26  1  0.49552861  0.99552861  0.50447139  1
  As  As27  1  0.00447139  0.00447139  0.00447139  1
  Ag  Ag28  1  0.14912239  0.17698874  0.48868477  1
  Ag  Ag29  1  0.64912239  0.32301126  0.51131523  1
  Ag  Ag30  1  0.85087761  0.67698874  0.01131523  1
  Ag  Ag31  1  0.32301126  0.51131523  0.64912239  1
  Ag  Ag32  1  0.01131523  0.85087761  0.67698874  1
  Ag  Ag33  1  0.51131523  0.64912239  0.32301126  1
  Ag  Ag34  1  0.17698874  0.48868477  0.14912239  1
  Ag  Ag35  1  0.48868477  0.14912239  0.17698874  1
  Ag  Ag36  1  0.67698874  0.01131523  0.85087761  1
  Ag  Ag37  1  0.82301126  0.98868477  0.35087761  1
  Ag  Ag38  1  0.98868477  0.35087761  0.82301126  1
  Ag  Ag39  1  0.35087761  0.82301126  0.98868477  1
  Ag  Ag40  1  0.25648764  0.97200349  0.76601799  1
  Ag  Ag41  1  0.75648764  0.52799651  0.23398201  1
  Ag  Ag42  1  0.74351236  0.47200349  0.73398201  1
  Ag  Ag43  1  0.52799651  0.23398201  0.75648764  1
  Ag  Ag44  1  0.73398201  0.74351236  0.47200349  1
  Ag  Ag45  1  0.23398201  0.75648764  0.52799651  1
  Ag  Ag46  1  0.97200349  0.76601799  0.25648764  1
  Ag  Ag47  1  0.76601799  0.25648764  0.97200349  1
  Ag  Ag48  1  0.47200349  0.73398201  0.74351236  1
  Ag  Ag49  1  0.02799651  0.26601799  0.24351236  1
  Ag  Ag50  1  0.26601799  0.24351236  0.02799651  1
  Ag  Ag51  1  0.24351236  0.02799651  0.26601799  1
  Ag  Ag52  1  0.60268228  0.89731772  0.10268228  1
  Ag  Ag53  1  0.89731772  0.10268228  0.60268228  1
  Ag  Ag54  1  0.10268228  0.60268228  0.89731772  1
  Ag  Ag55  1  0.39731772  0.39731772  0.39731772  1
