# generated using pymatgen
data_Sm3NbS3O4
_symmetry_space_group_name_H-M   'P 1'
_cell_length_a   6.73897764
_cell_length_b   7.72392513
_cell_length_c   14.36753937
_cell_angle_alpha   90.00000000
_cell_angle_beta   90.00000000
_cell_angle_gamma   90.00000000
_symmetry_Int_Tables_number   1
_chemical_formula_structural   Sm3NbS3O4
_chemical_formula_sum   'Sm12 Nb4 S12 O16'
_cell_volume   747.84994602
_cell_formula_units_Z   4
loop_
 _symmetry_equiv_pos_site_id
 _symmetry_equiv_pos_as_xyz
  1  'x, y, z'
loop_
 _atom_site_type_symbol
 _atom_site_label
 _atom_site_symmetry_multiplicity
 _atom_site_fract_x
 _atom_site_fract_y
 _atom_site_fract_z
 _atom_site_occupancy
  O  O0  1  0.63449406  0.26358436  0.07339657  1
  O  O1  1  0.36550594  0.76358436  0.92660343  1
  O  O2  1  0.86550594  0.76358436  0.57339657  1
  O  O3  1  0.13449406  0.26358436  0.42660343  1
  O  O4  1  0.38167185  0.47890752  0.13870044  1
  O  O5  1  0.61832815  0.97890752  0.86129956  1
  O  O6  1  0.11832815  0.97890752  0.63870044  1
  O  O7  1  0.88167185  0.47890752  0.36129956  1
  O  O8  1  0.37562250  0.02992458  0.11279070  1
  O  O9  1  0.62437750  0.52992458  0.88720930  1
  O  O10  1  0.12437750  0.52992458  0.61279070  1
  O  O11  1  0.87562250  0.02992458  0.38720930  1
  O  O12  1  0.35821232  0.24268879  0.93775886  1
  O  O13  1  0.64178768  0.74268879  0.06224114  1
  O  O14  1  0.14178768  0.74268879  0.43775886  1
  O  O15  1  0.85821232  0.24268879  0.56224114  1
  S  S16  1  0.50208780  0.76064566  0.27263943  1
  S  S17  1  0.49791220  0.26064566  0.72736057  1
  S  S18  1  0.99791220  0.26064566  0.77263943  1
  S  S19  1  0.00208780  0.76064566  0.22736057  1
  S  S20  1  0.54907311  0.23949773  0.29867049  1
  S  S21  1  0.45092689  0.73949773  0.70132951  1
  S  S22  1  0.95092689  0.73949773  0.79867049  1
  S  S23  1  0.04907311  0.23949773  0.20132951  1
  S  S24  1  0.46753946  0.96964884  0.50844212  1
  S  S25  1  0.53246054  0.46964884  0.49155788  1
  S  S26  1  0.03246054  0.46964884  0.00844212  1
  S  S27  1  0.96753946  0.96964884  0.99155788  1
  Nb  Nb28  1  0.32120721  0.26470777  0.07347635  1
  Nb  Nb29  1  0.67879279  0.76470777  0.92652365  1
  Nb  Nb30  1  0.17879279  0.76470777  0.57347635  1
  Nb  Nb31  1  0.82120721  0.26470777  0.42652365  1
  Sm  Sm32  1  0.72885452  0.49524061  0.16905391  1
  Sm  Sm33  1  0.27114548  0.99524061  0.83094609  1
  Sm  Sm34  1  0.77114548  0.99524061  0.66905391  1
  Sm  Sm35  1  0.22885452  0.49524061  0.33094609  1
  Sm  Sm36  1  0.71692515  0.00585682  0.15549759  1
  Sm  Sm37  1  0.28307485  0.50585682  0.84450241  1
  Sm  Sm38  1  0.78307485  0.50585682  0.65549759  1
  Sm  Sm39  1  0.21692515  0.00585682  0.34450241  1
  Sm  Sm40  1  0.27802780  0.74949731  0.08234906  1
  Sm  Sm41  1  0.72197220  0.24949731  0.91765094  1
  Sm  Sm42  1  0.22197220  0.24949731  0.58234906  1
  Sm  Sm43  1  0.77802780  0.74949731  0.41765094  1
