# generated using pymatgen
data_CsNd(PO3)4
_symmetry_space_group_name_H-M   'P 1'
_cell_length_a   7.23109625
_cell_length_b   8.91329424
_cell_length_c   9.31676970
_cell_angle_alpha   90.00000000
_cell_angle_beta   90.00000000
_cell_angle_gamma   99.60261307
_symmetry_Int_Tables_number   1
_chemical_formula_structural   CsNd(PO3)4
_chemical_formula_sum   'Cs2 Nd2 P8 O24'
_cell_volume   592.07887329
_cell_formula_units_Z   2
loop_
 _symmetry_equiv_pos_site_id
 _symmetry_equiv_pos_as_xyz
  1  'x, y, z'
loop_
 _atom_site_type_symbol
 _atom_site_label
 _atom_site_symmetry_multiplicity
 _atom_site_fract_x
 _atom_site_fract_y
 _atom_site_fract_z
 _atom_site_occupancy
  O  O0  1  0.34374912  0.23158380  0.02939712  1
  O  O1  1  0.65625088  0.76841620  0.52939712  1
  O  O2  1  0.98967214  0.18287419  0.96307356  1
  O  O3  1  0.01032786  0.81712581  0.46307356  1
  O  O4  1  0.22399412  0.10992011  0.79137318  1
  O  O5  1  0.77600588  0.89007989  0.29137318  1
  O  O6  1  0.57551285  0.09254811  0.82362588  1
  O  O7  1  0.42448715  0.90745189  0.32362588  1
  O  O8  1  0.63915491  0.07745998  0.14475979  1
  O  O9  1  0.36084509  0.92254002  0.64475979  1
  O  O10  1  0.45266485  0.20015738  0.59347425  1
  O  O11  1  0.54733515  0.79984262  0.09347425  1
  O  O12  1  0.22408829  0.38641306  0.83304758  1
  O  O13  1  0.77591171  0.61358694  0.33304758  1
  O  O14  1  0.95701244  0.50727601  0.93680457  1
  O  O15  1  0.04298756  0.49272399  0.43680457  1
  O  O16  1  0.83823408  0.36708088  0.22927133  1
  O  O17  1  0.16176592  0.63291912  0.72927133  1
  O  O18  1  0.28787200  0.63668572  0.97785302  1
  O  O19  1  0.71212800  0.36331428  0.47785302  1
  O  O20  1  0.34812578  0.59391883  0.24562157  1
  O  O21  1  0.65187422  0.40608117  0.74562157  1
  O  O22  1  0.57497826  0.52727648  0.04785207  1
  O  O23  1  0.42502174  0.47272352  0.54785207  1
  P  P24  1  0.19160699  0.22598069  0.91893029  1
  P  P25  1  0.80839301  0.77401931  0.41893029  1
  P  P26  1  0.41662749  0.07138442  0.71773586  1
  P  P27  1  0.58337251  0.92861558  0.21773586  1
  P  P28  1  0.56059699  0.37615144  0.60192912  1
  P  P29  1  0.43940301  0.62384856  0.10192912  1
  P  P30  1  0.85539357  0.45786934  0.36496675  1
  P  P31  1  0.14460643  0.54213066  0.86496675  1
  Cs  Cs32  1  0.83071978  0.82659096  0.82720969  1
  Cs  Cs33  1  0.16928022  0.17340904  0.32720969  1
  Nd  Nd34  1  0.70014063  0.30230297  0.99247436  1
  Nd  Nd35  1  0.29985937  0.69769703  0.49247436  1
