# generated using pymatgen
data_La2Ni3
_symmetry_space_group_name_H-M   'P 1'
_cell_length_a   5.03176733
_cell_length_b   5.44293609
_cell_length_c   7.90308165
_cell_angle_alpha   90.00000000
_cell_angle_beta   90.00000000
_cell_angle_gamma   117.53104353
_symmetry_Int_Tables_number   1
_chemical_formula_structural   La2Ni3
_chemical_formula_sum   'La4 Ni6'
_cell_volume   191.93607318
_cell_formula_units_Z   2
loop_
 _symmetry_equiv_pos_site_id
 _symmetry_equiv_pos_as_xyz
  1  'x, y, z'
loop_
 _atom_site_type_symbol
 _atom_site_label
 _atom_site_symmetry_multiplicity
 _atom_site_fract_x
 _atom_site_fract_y
 _atom_site_fract_z
 _atom_site_occupancy
  Ni  Ni0  1  0.50000000  0.00000000  0.50000000  1
  Ni  Ni1  1  0.00000000  0.00000000  0.00000000  1
  Ni  Ni2  1  0.65786551  0.81573101  0.75000000  1
  Ni  Ni3  1  0.84213449  0.18426899  0.25000000  1
  Ni  Ni4  1  0.15786551  0.81573101  0.75000000  1
  Ni  Ni5  1  0.34213449  0.18426899  0.25000000  1
  La  La6  1  0.15393185  0.30786370  0.59515102  1
  La  La7  1  0.84606815  0.69213630  0.40484898  1
  La  La8  1  0.34606815  0.69213630  0.09515102  1
  La  La9  1  0.65393185  0.30786370  0.90484898  1
