# generated using pymatgen
data_Na5AsO5
_symmetry_space_group_name_H-M   'P 1'
_cell_length_a   6.03695377
_cell_length_b   6.50431754
_cell_length_c   16.62694238
_cell_angle_alpha   90.00000000
_cell_angle_beta   90.00000000
_cell_angle_gamma   90.00000000
_symmetry_Int_Tables_number   1
_chemical_formula_structural   Na5AsO5
_chemical_formula_sum   'Na20 As4 O20'
_cell_volume   652.87791390
_cell_formula_units_Z   4
loop_
 _symmetry_equiv_pos_site_id
 _symmetry_equiv_pos_as_xyz
  1  'x, y, z'
loop_
 _atom_site_type_symbol
 _atom_site_label
 _atom_site_symmetry_multiplicity
 _atom_site_fract_x
 _atom_site_fract_y
 _atom_site_fract_z
 _atom_site_occupancy
  O  O0  1  0.42701158  0.75000000  0.94182723  1
  O  O1  1  0.42701158  0.25000000  0.55817277  1
  O  O2  1  0.57298842  0.25000000  0.05817277  1
  O  O3  1  0.57298842  0.75000000  0.44182723  1
  O  O4  1  0.74371695  0.25000000  0.32414736  1
  O  O5  1  0.74371695  0.75000000  0.17585264  1
  O  O6  1  0.11071528  0.75000000  0.47987919  1
  O  O7  1  0.11071528  0.25000000  0.02012081  1
  O  O8  1  0.88928472  0.25000000  0.52012081  1
  O  O9  1  0.88928472  0.75000000  0.97987919  1
  O  O10  1  0.74432990  0.46471501  0.65495010  1
  O  O11  1  0.74432990  0.53528499  0.84504990  1
  O  O12  1  0.25567010  0.96471501  0.34504990  1
  O  O13  1  0.25567010  0.03528499  0.15495010  1
  O  O14  1  0.25567010  0.53528499  0.34504990  1
  O  O15  1  0.25567010  0.46471501  0.15495010  1
  O  O16  1  0.74432990  0.03528499  0.65495010  1
  O  O17  1  0.74432990  0.96471501  0.84504990  1
  O  O18  1  0.25628305  0.75000000  0.67585264  1
  O  O19  1  0.25628305  0.25000000  0.82414736  1
  Na  Na20  1  0.55850156  0.75000000  0.58933277  1
  Na  Na21  1  0.55850156  0.25000000  0.91066723  1
  Na  Na22  1  0.44149844  0.25000000  0.41066723  1
  Na  Na23  1  0.44149844  0.75000000  0.08933277  1
  Na  Na24  1  0.42406940  0.50000000  0.75000000  1
  Na  Na25  1  0.57593060  0.00000000  0.25000000  1
  Na  Na26  1  0.86607933  0.49425036  0.41461921  1
  Na  Na27  1  0.86607933  0.50574964  0.08538079  1
  Na  Na28  1  0.13392067  0.99425036  0.58538079  1
  Na  Na29  1  0.13392067  0.00574964  0.91461921  1
  Na  Na30  1  0.13392067  0.50574964  0.58538079  1
  Na  Na31  1  0.13392067  0.49425036  0.91461921  1
  Na  Na32  1  0.86607933  0.00574964  0.41461921  1
  Na  Na33  1  0.86607933  0.99425036  0.08538079  1
  Na  Na34  1  0.08674351  0.75000000  0.23007046  1
  Na  Na35  1  0.08674351  0.25000000  0.26992954  1
  Na  Na36  1  0.91325649  0.25000000  0.76992954  1
  Na  Na37  1  0.91325649  0.75000000  0.73007046  1
  Na  Na38  1  0.57593060  0.50000000  0.25000000  1
  Na  Na39  1  0.42406940  0.00000000  0.75000000  1
  As  As40  1  0.30662230  0.75000000  0.40406007  1
  As  As41  1  0.30662230  0.25000000  0.09593993  1
  As  As42  1  0.69337770  0.25000000  0.59593993  1
  As  As43  1  0.69337770  0.75000000  0.90406007  1
