# generated using pymatgen
data_SrY2O4
_symmetry_space_group_name_H-M   'P 1'
_cell_length_a   3.43602252
_cell_length_b   10.19098088
_cell_length_c   12.03608562
_cell_angle_alpha   90.00000000
_cell_angle_beta   90.00000000
_cell_angle_gamma   90.00000000
_symmetry_Int_Tables_number   1
_chemical_formula_structural   SrY2O4
_chemical_formula_sum   'Sr4 Y8 O16'
_cell_volume   421.46086760
_cell_formula_units_Z   4
loop_
 _symmetry_equiv_pos_site_id
 _symmetry_equiv_pos_as_xyz
  1  'x, y, z'
loop_
 _atom_site_type_symbol
 _atom_site_label
 _atom_site_symmetry_multiplicity
 _atom_site_fract_x
 _atom_site_fract_y
 _atom_site_fract_z
 _atom_site_occupancy
  O  O0  1  0.25000000  0.07599375  0.07701727  1
  O  O1  1  0.75000000  0.92400625  0.92298273  1
  O  O2  1  0.25000000  0.57599375  0.42298273  1
  O  O3  1  0.75000000  0.42400625  0.57701727  1
  O  O4  1  0.25000000  0.98396969  0.71606912  1
  O  O5  1  0.75000000  0.01603031  0.28393088  1
  O  O6  1  0.25000000  0.48396969  0.78393088  1
  O  O7  1  0.75000000  0.51603031  0.21606912  1
  O  O8  1  0.25000000  0.37496113  0.02087973  1
  O  O9  1  0.75000000  0.62503887  0.97912027  1
  O  O10  1  0.25000000  0.87496113  0.47912027  1
  O  O11  1  0.75000000  0.12503887  0.52087973  1
  O  O12  1  0.75000000  0.21048259  0.82564667  1
  O  O13  1  0.25000000  0.78951741  0.17435333  1
  O  O14  1  0.75000000  0.71048259  0.67435333  1
  O  O15  1  0.25000000  0.28951741  0.32564667  1
  Sr  Sr16  1  0.75000000  0.75368266  0.35094099  1
  Sr  Sr17  1  0.25000000  0.24631734  0.64905901  1
  Sr  Sr18  1  0.75000000  0.25368266  0.14905901  1
  Sr  Sr19  1  0.25000000  0.74631734  0.85094099  1
  Y  Y20  1  0.25000000  0.07780915  0.38970121  1
  Y  Y21  1  0.75000000  0.92219085  0.61029879  1
  Y  Y22  1  0.25000000  0.57780915  0.11029879  1
  Y  Y23  1  0.75000000  0.42219085  0.88970121  1
  Y  Y24  1  0.75000000  0.42432162  0.38764918  1
  Y  Y25  1  0.25000000  0.57567838  0.61235082  1
  Y  Y26  1  0.75000000  0.92432162  0.11235082  1
  Y  Y27  1  0.25000000  0.07567838  0.88764918  1
