# generated using pymatgen
data_KCdC3(NO)3
_symmetry_space_group_name_H-M   'P 1'
_cell_length_a   3.77321410
_cell_length_b   10.22360202
_cell_length_c   18.55489656
_cell_angle_alpha   90.00000000
_cell_angle_beta   90.00000000
_cell_angle_gamma   90.00000000
_symmetry_Int_Tables_number   1
_chemical_formula_structural   KCdC3(NO)3
_chemical_formula_sum   'K4 Cd4 C12 N12 O12'
_cell_volume   715.77070783
_cell_formula_units_Z   4
loop_
 _symmetry_equiv_pos_site_id
 _symmetry_equiv_pos_as_xyz
  1  'x, y, z'
loop_
 _atom_site_type_symbol
 _atom_site_label
 _atom_site_symmetry_multiplicity
 _atom_site_fract_x
 _atom_site_fract_y
 _atom_site_fract_z
 _atom_site_occupancy
  C  C0  1  0.25000000  0.58402514  0.62353783  1
  C  C1  1  0.25000000  0.08402514  0.87646217  1
  C  C2  1  0.75000000  0.91597486  0.12353783  1
  C  C3  1  0.75000000  0.41597486  0.37646217  1
  C  C4  1  0.25000000  0.63910306  0.02960304  1
  C  C5  1  0.75000000  0.36089694  0.97039696  1
  C  C6  1  0.25000000  0.13910306  0.47039696  1
  C  C7  1  0.75000000  0.86089694  0.52960304  1
  C  C8  1  0.75000000  0.85247784  0.78808292  1
  C  C9  1  0.25000000  0.14752216  0.21191708  1
  C  C10  1  0.75000000  0.35247784  0.71191708  1
  C  C11  1  0.25000000  0.64752216  0.28808292  1
  N  N12  1  0.75000000  0.28562463  0.65839685  1
  N  N13  1  0.75000000  0.76593386  0.49085704  1
  N  N14  1  0.25000000  0.52267190  0.56719475  1
  N  N15  1  0.75000000  0.47732810  0.43280525  1
  N  N16  1  0.25000000  0.02267190  0.93280525  1
  N  N17  1  0.75000000  0.97732810  0.06719475  1
  N  N18  1  0.25000000  0.73406614  0.99085704  1
  N  N19  1  0.75000000  0.26593386  0.00914296  1
  N  N20  1  0.75000000  0.78562463  0.84160315  1
  N  N21  1  0.25000000  0.21437537  0.15839685  1
  N  N22  1  0.25000000  0.71437537  0.34160315  1
  N  N23  1  0.25000000  0.23406614  0.50914296  1
  O  O24  1  0.25000000  0.04361335  0.43225229  1
  O  O25  1  0.25000000  0.58282854  0.23356940  1
  O  O26  1  0.75000000  0.35683386  0.32087437  1
  O  O27  1  0.25000000  0.14316614  0.82087437  1
  O  O28  1  0.75000000  0.95638665  0.56774771  1
  O  O29  1  0.75000000  0.85683386  0.17912563  1
  O  O30  1  0.25000000  0.54361335  0.06774771  1
  O  O31  1  0.75000000  0.45638665  0.93225229  1
  O  O32  1  0.75000000  0.91717146  0.73356940  1
  O  O33  1  0.25000000  0.08282854  0.26643060  1
  O  O34  1  0.25000000  0.64316614  0.67912563  1
  O  O35  1  0.75000000  0.41717146  0.76643060  1
  K  K36  1  0.75000000  0.92777467  0.33528532  1
  K  K37  1  0.25000000  0.07222533  0.66471468  1
  K  K38  1  0.75000000  0.42777467  0.16471468  1
  K  K39  1  0.25000000  0.57222533  0.83528532  1
  Cd  Cd40  1  0.75000000  0.86219077  0.95640996  1
  Cd  Cd41  1  0.25000000  0.13780923  0.04359004  1
  Cd  Cd42  1  0.75000000  0.36219077  0.54359004  1
  Cd  Cd43  1  0.25000000  0.63780923  0.45640996  1
