# generated using pymatgen
data_Gd3RuO7
_symmetry_space_group_name_H-M   'P 1'
_cell_length_a   6.48977871
_cell_length_b   6.48977872
_cell_length_c   7.48788690
_cell_angle_alpha   90.00000000
_cell_angle_beta   90.00000000
_cell_angle_gamma   110.68409907
_symmetry_Int_Tables_number   1
_chemical_formula_structural   Gd3RuO7
_chemical_formula_sum   'Gd6 Ru2 O14'
_cell_volume   295.04100989
_cell_formula_units_Z   2
loop_
 _symmetry_equiv_pos_site_id
 _symmetry_equiv_pos_as_xyz
  1  'x, y, z'
loop_
 _atom_site_type_symbol
 _atom_site_label
 _atom_site_symmetry_multiplicity
 _atom_site_fract_x
 _atom_site_fract_y
 _atom_site_fract_z
 _atom_site_occupancy
  O  O0  1  0.58721860  0.58721860  0.75000000  1
  O  O1  1  0.41278140  0.41278140  0.25000000  1
  O  O2  1  0.10815419  0.84338757  0.75000000  1
  O  O3  1  0.89184581  0.15661243  0.25000000  1
  O  O4  1  0.84338757  0.10815419  0.75000000  1
  O  O5  1  0.15661243  0.89184581  0.25000000  1
  O  O6  1  0.18282103  0.43815217  0.96114690  1
  O  O7  1  0.81717897  0.56184783  0.46114690  1
  O  O8  1  0.43815217  0.18282103  0.96114690  1
  O  O9  1  0.56184783  0.81717897  0.46114690  1
  O  O10  1  0.18282103  0.43815217  0.53885310  1
  O  O11  1  0.81717897  0.56184783  0.03885310  1
  O  O12  1  0.56184783  0.81717897  0.03885310  1
  O  O13  1  0.43815217  0.18282103  0.53885310  1
  Ru  Ru14  1  0.50000000  0.50000000  0.50000000  1
  Ru  Ru15  1  0.50000000  0.50000000  0.00000000  1
  Gd  Gd16  1  0.92617671  0.47819721  0.75000000  1
  Gd  Gd17  1  0.07382329  0.52180279  0.25000000  1
  Gd  Gd18  1  0.47819721  0.92617671  0.75000000  1
  Gd  Gd19  1  0.52180279  0.07382329  0.25000000  1
  Gd  Gd20  1  0.00000000  0.00000000  0.50000000  1
  Gd  Gd21  1  0.00000000  0.00000000  0.00000000  1
