# generated using pymatgen
data_Ba4Ir3O10
_symmetry_space_group_name_H-M   'P 1'
_cell_length_a   5.83852016
_cell_length_b   7.31173942
_cell_length_c   13.51752349
_cell_angle_alpha   90.00000000
_cell_angle_beta   90.00000000
_cell_angle_gamma   113.53171196
_symmetry_Int_Tables_number   1
_chemical_formula_structural   Ba4Ir3O10
_chemical_formula_sum   'Ba8 Ir6 O20'
_cell_volume   529.07082411
_cell_formula_units_Z   2
loop_
 _symmetry_equiv_pos_site_id
 _symmetry_equiv_pos_as_xyz
  1  'x, y, z'
loop_
 _atom_site_type_symbol
 _atom_site_label
 _atom_site_symmetry_multiplicity
 _atom_site_fract_x
 _atom_site_fract_y
 _atom_site_fract_z
 _atom_site_occupancy
  O  O0  1  0.35216292  0.20432585  0.75000000  1
  O  O1  1  0.14783708  0.79567415  0.25000000  1
  O  O2  1  0.64783708  0.79567415  0.25000000  1
  O  O3  1  0.85216292  0.20432585  0.75000000  1
  O  O4  1  0.76855697  0.53711393  0.66447782  1
  O  O5  1  0.23144303  0.46288607  0.33552218  1
  O  O6  1  0.73144303  0.46288607  0.16447782  1
  O  O7  1  0.26855697  0.53711393  0.83552218  1
  O  O8  1  0.15901397  0.77477466  0.46605802  1
  O  O9  1  0.38423931  0.22522534  0.53394198  1
  O  O10  1  0.34098603  0.22522534  0.96605802  1
  O  O11  1  0.11576069  0.77477466  0.03394198  1
  O  O12  1  0.84098603  0.22522534  0.53394198  1
  O  O13  1  0.61576069  0.77477466  0.46605802  1
  O  O14  1  0.95978967  0.91957935  0.85300986  1
  O  O15  1  0.04021033  0.08042065  0.14699014  1
  O  O16  1  0.54021033  0.08042065  0.35300986  1
  O  O17  1  0.45978967  0.91957935  0.64699014  1
  O  O18  1  0.88423931  0.22522534  0.96605802  1
  O  O19  1  0.65901397  0.77477466  0.03394198  1
  Ba  Ba20  1  0.75730171  0.51460342  0.87918385  1
  Ba  Ba21  1  0.24269829  0.48539658  0.12081615  1
  Ba  Ba22  1  0.74269829  0.48539658  0.37918385  1
  Ba  Ba23  1  0.25730171  0.51460342  0.62081615  1
  Ba  Ba24  1  0.46067349  0.92134699  0.86033024  1
  Ba  Ba25  1  0.53932651  0.07865301  0.13966976  1
  Ba  Ba26  1  0.96067349  0.92134699  0.63966976  1
  Ba  Ba27  1  0.03932651  0.07865301  0.36033024  1
  Ir  Ir28  1  0.00000000  0.00000000  0.00000000  1
  Ir  Ir29  1  0.50000000  0.00000000  0.50000000  1
  Ir  Ir30  1  0.12046159  0.24092318  0.85044730  1
  Ir  Ir31  1  0.87953841  0.75907682  0.14955270  1
  Ir  Ir32  1  0.37953841  0.75907682  0.35044730  1
  Ir  Ir33  1  0.62046159  0.24092318  0.64955270  1
