# generated using pymatgen
data_Tm2SiO5
_symmetry_space_group_name_H-M   'P 1'
_cell_length_a   6.70129731
_cell_length_b   6.69300679
_cell_length_c   9.15750813
_cell_angle_alpha   90.00000000
_cell_angle_beta   101.51110524
_cell_angle_gamma   90.00000000
_symmetry_Int_Tables_number   1
_chemical_formula_structural   Tm2SiO5
_chemical_formula_sum   'Tm8 Si4 O20'
_cell_volume   402.46955837
_cell_formula_units_Z   4
loop_
 _symmetry_equiv_pos_site_id
 _symmetry_equiv_pos_as_xyz
  1  'x, y, z'
loop_
 _atom_site_type_symbol
 _atom_site_label
 _atom_site_symmetry_multiplicity
 _atom_site_fract_x
 _atom_site_fract_y
 _atom_site_fract_z
 _atom_site_occupancy
  O  O0  1  0.42592063  0.87781552  0.60724909  1
  O  O1  1  0.07407937  0.37781552  0.39275091  1
  O  O2  1  0.57407937  0.12218448  0.39275091  1
  O  O3  1  0.92592063  0.62218448  0.60724909  1
  O  O4  1  0.00236334  0.29545895  0.89992318  1
  O  O5  1  0.49763666  0.79545895  0.10007682  1
  O  O6  1  0.99763666  0.70454105  0.10007682  1
  O  O7  1  0.50236334  0.20454105  0.89992318  1
  O  O8  1  0.96944857  0.14583275  0.61496238  1
  O  O9  1  0.53055143  0.64583275  0.38503762  1
  O  O10  1  0.03055143  0.85416725  0.38503762  1
  O  O11  1  0.46944857  0.35416725  0.61496238  1
  O  O12  1  0.30143020  0.56195904  0.78950189  1
  O  O13  1  0.19856980  0.06195904  0.21049811  1
  O  O14  1  0.69856980  0.43804096  0.21049811  1
  O  O15  1  0.80143020  0.93804096  0.78950189  1
  O  O16  1  0.68188578  0.56345226  0.85237843  1
  O  O17  1  0.81811422  0.06345226  0.14762157  1
  O  O18  1  0.31811422  0.43654774  0.14762157  1
  O  O19  1  0.18188578  0.93654774  0.85237843  1
  Si  Si20  1  0.99732219  0.09655564  0.79742262  1
  Si  Si21  1  0.50267781  0.59655564  0.20257738  1
  Si  Si22  1  0.00267781  0.90344436  0.20257738  1
  Si  Si23  1  0.49732219  0.40344436  0.79742262  1
  Tm  Tm24  1  0.27159729  0.11826970  0.46606941  1
  Tm  Tm25  1  0.22840271  0.61826970  0.53393059  1
  Tm  Tm26  1  0.72840271  0.88173030  0.53393059  1
  Tm  Tm27  1  0.77159729  0.38173030  0.46606941  1
  Tm  Tm28  1  0.00536161  0.64154672  0.85418833  1
  Tm  Tm29  1  0.49463839  0.14154672  0.14581167  1
  Tm  Tm30  1  0.99463839  0.35845328  0.14581167  1
  Tm  Tm31  1  0.50536161  0.85845328  0.85418833  1
