# generated using pymatgen
data_KNa2(PO3)3
_symmetry_space_group_name_H-M   'P 1'
_cell_length_a   6.85251240
_cell_length_b   7.05979101
_cell_length_c   9.60117626
_cell_angle_alpha   87.07978689
_cell_angle_beta   70.62433701
_cell_angle_gamma   75.44453222
_symmetry_Int_Tables_number   1
_chemical_formula_structural   KNa2(PO3)3
_chemical_formula_sum   'K2 Na4 P6 O18'
_cell_volume   423.84179261
_cell_formula_units_Z   2
loop_
 _symmetry_equiv_pos_site_id
 _symmetry_equiv_pos_as_xyz
  1  'x, y, z'
loop_
 _atom_site_type_symbol
 _atom_site_label
 _atom_site_symmetry_multiplicity
 _atom_site_fract_x
 _atom_site_fract_y
 _atom_site_fract_z
 _atom_site_occupancy
  O  O0  1  0.38785296  0.60732856  0.23143108  1
  O  O1  1  0.61214704  0.39267144  0.76856892  1
  O  O2  1  0.47555248  0.25493375  0.12694892  1
  O  O3  1  0.52444752  0.74506625  0.87305108  1
  O  O4  1  0.15114179  0.37307219  0.35003453  1
  O  O5  1  0.84885821  0.62692781  0.64996547  1
  O  O6  1  0.43439517  0.07357789  0.36296819  1
  O  O7  1  0.56560483  0.92642211  0.63703181  1
  O  O8  1  0.15319464  0.50354284  0.09974069  1
  O  O9  1  0.84680536  0.49645716  0.90025931  1
  O  O10  1  0.75073741  0.23602377  0.25927705  1
  O  O11  1  0.24926259  0.76397623  0.74072295  1
  O  O12  1  0.66577423  0.63601802  0.45272576  1
  O  O13  1  0.33422577  0.36398198  0.54727424  1
  O  O14  1  0.92963964  0.85124072  0.43969915  1
  O  O15  1  0.07036036  0.14875928  0.56030085  1
  O  O16  1  0.26481467  0.06836570  0.87191482  1
  O  O17  1  0.73518533  0.93163430  0.12808518  1
  Na  Na18  1  0.28320979  0.71087726  0.49024558  1
  Na  Na19  1  0.76770352  0.57949160  0.16890658  1
  Na  Na20  1  0.23229648  0.42050840  0.83109342  1
  Na  Na21  1  0.71679021  0.28912274  0.50975442  1
  P  P22  1  0.28993061  0.45589485  0.19608926  1
  P  P23  1  0.75874592  0.75530764  0.52669191  1
  P  P24  1  0.62261892  0.11876561  0.21715346  1
  P  P25  1  0.37738108  0.88123439  0.78284654  1
  P  P26  1  0.71006939  0.54410515  0.80391074  1
  P  P27  1  0.24125408  0.24469236  0.47330809  1
  K  K28  1  0.85079526  0.03867711  0.83308707  1
  K  K29  1  0.14920474  0.96132289  0.16691293  1
