# generated using pymatgen
data_Ca3(CoO3)2
_symmetry_space_group_name_H-M   'P 1'
_cell_length_a   6.32477603
_cell_length_b   6.32477602
_cell_length_c   6.32477603
_cell_angle_alpha   92.42887200
_cell_angle_beta   92.42887196
_cell_angle_gamma   92.42887194
_symmetry_Int_Tables_number   1
_chemical_formula_structural   Ca3(CoO3)2
_chemical_formula_sum   'Ca6 Co4 O12'
_cell_volume   252.30686626
_cell_formula_units_Z   2
loop_
 _symmetry_equiv_pos_site_id
 _symmetry_equiv_pos_as_xyz
  1  'x, y, z'
loop_
 _atom_site_type_symbol
 _atom_site_label
 _atom_site_symmetry_multiplicity
 _atom_site_fract_x
 _atom_site_fract_y
 _atom_site_fract_z
 _atom_site_occupancy
  O  O0  1  0.78979566  0.59447365  0.46199607  1
  O  O1  1  0.59447365  0.46199607  0.78979566  1
  O  O2  1  0.46199607  0.78979566  0.59447365  1
  O  O3  1  0.03800393  0.90552635  0.71020434  1
  O  O4  1  0.90552635  0.71020434  0.03800393  1
  O  O5  1  0.71020434  0.03800393  0.90552635  1
  O  O6  1  0.21020434  0.40552635  0.53800393  1
  O  O7  1  0.40552635  0.53800393  0.21020434  1
  O  O8  1  0.53800393  0.21020434  0.40552635  1
  O  O9  1  0.96199607  0.09447365  0.28979566  1
  O  O10  1  0.28979566  0.96199607  0.09447365  1
  O  O11  1  0.09447365  0.28979566  0.96199607  1
  Ca  Ca12  1  0.61867580  0.88132420  0.25000000  1
  Ca  Ca13  1  0.25000000  0.61867580  0.88132420  1
  Ca  Ca14  1  0.88132420  0.25000000  0.61867580  1
  Ca  Ca15  1  0.38132420  0.11867580  0.75000000  1
  Ca  Ca16  1  0.11867580  0.75000000  0.38132420  1
  Ca  Ca17  1  0.75000000  0.38132420  0.11867580  1
  Co  Co18  1  0.00000000  0.00000000  0.00000000  1
  Co  Co19  1  0.50000000  0.50000000  0.50000000  1
  Co  Co20  1  0.25000000  0.25000000  0.25000000  1
  Co  Co21  1  0.75000000  0.75000000  0.75000000  1
