# generated using pymatgen
data_Ce2(SbPd3)3
_symmetry_space_group_name_H-M   'P 1'
_cell_length_a   8.06233235
_cell_length_b   8.06233235
_cell_length_c   9.41288862
_cell_angle_alpha   90.00000000
_cell_angle_beta   90.00000000
_cell_angle_gamma   119.71044217
_symmetry_Int_Tables_number   1
_chemical_formula_structural   Ce2(SbPd3)3
_chemical_formula_sum   'Ce4 Sb6 Pd18'
_cell_volume   531.41613880
_cell_formula_units_Z   2
loop_
 _symmetry_equiv_pos_site_id
 _symmetry_equiv_pos_as_xyz
  1  'x, y, z'
loop_
 _atom_site_type_symbol
 _atom_site_label
 _atom_site_symmetry_multiplicity
 _atom_site_fract_x
 _atom_site_fract_y
 _atom_site_fract_z
 _atom_site_occupancy
  Pd  Pd0  1  0.33050818  0.33050818  0.96290527  1
  Pd  Pd1  1  0.63654038  0.44024608  0.75000000  1
  Pd  Pd2  1  0.36345962  0.55975392  0.25000000  1
  Pd  Pd3  1  0.44024608  0.63654038  0.75000000  1
  Pd  Pd4  1  0.34460845  0.00021107  0.08966186  1
  Pd  Pd5  1  0.65539155  0.99978893  0.58966186  1
  Pd  Pd6  1  0.00021107  0.34460845  0.41033814  1
  Pd  Pd7  1  0.99978893  0.65539155  0.91033814  1
  Pd  Pd8  1  0.65539155  0.99978893  0.91033814  1
  Pd  Pd9  1  0.34460845  0.00021107  0.41033814  1
  Pd  Pd10  1  0.99978893  0.65539155  0.58966186  1
  Pd  Pd11  1  0.85242674  0.85242674  0.75000000  1
  Pd  Pd12  1  0.33050818  0.33050818  0.53709473  1
  Pd  Pd13  1  0.66949182  0.66949182  0.03709473  1
  Pd  Pd14  1  0.00021107  0.34460845  0.08966186  1
  Pd  Pd15  1  0.66949182  0.66949182  0.46290527  1
  Pd  Pd16  1  0.14757326  0.14757326  0.25000000  1
  Pd  Pd17  1  0.55975392  0.36345962  0.25000000  1
  Sb  Sb18  1  0.00000000  0.00000000  0.50000000  1
  Sb  Sb19  1  0.32258647  0.67741353  0.00000000  1
  Sb  Sb20  1  0.67741353  0.32258647  0.50000000  1
  Sb  Sb21  1  0.67741353  0.32258647  0.00000000  1
  Sb  Sb22  1  0.00000000  0.00000000  0.00000000  1
  Sb  Sb23  1  0.32258647  0.67741353  0.50000000  1
  Ce  Ce24  1  0.01876081  0.32707202  0.75000000  1
  Ce  Ce25  1  0.98123919  0.67292798  0.25000000  1
  Ce  Ce26  1  0.32707202  0.01876081  0.75000000  1
  Ce  Ce27  1  0.67292798  0.98123919  0.25000000  1
