# generated using pymatgen
data_CaCoP2O7
_symmetry_space_group_name_H-M   'P 1'
_cell_length_a   6.66765335
_cell_length_b   6.54426062
_cell_length_c   6.60079137
_cell_angle_alpha   82.85052557
_cell_angle_beta   66.23396750
_cell_angle_gamma   87.38106581
_symmetry_Int_Tables_number   1
_chemical_formula_structural   CaCoP2O7
_chemical_formula_sum   'Ca2 Co2 P4 O14'
_cell_volume   261.54707640
_cell_formula_units_Z   2
loop_
 _symmetry_equiv_pos_site_id
 _symmetry_equiv_pos_as_xyz
  1  'x, y, z'
loop_
 _atom_site_type_symbol
 _atom_site_label
 _atom_site_symmetry_multiplicity
 _atom_site_fract_x
 _atom_site_fract_y
 _atom_site_fract_z
 _atom_site_occupancy
  O  O0  1  0.47840002  0.77103451  0.60758983  1
  O  O1  1  0.52160020  0.22896466  0.39241040  1
  O  O2  1  0.70721569  0.97593696  0.10607826  1
  O  O3  1  0.29278452  0.02406222  0.89392197  1
  O  O4  1  0.43404977  0.58692568  0.25238201  1
  O  O5  1  0.56595044  0.41307350  0.74761822  1
  O  O6  1  0.15767576  0.37503638  0.59790736  1
  O  O7  1  0.84232282  0.62496280  0.40209202  1
  O  O8  1  0.13812297  0.93549859  0.61811139  1
  O  O9  1  0.86187724  0.06450059  0.38188885  1
  O  O10  1  0.12973303  0.67498010  0.94943493  1
  O  O11  1  0.74353586  0.73150907  0.79462062  1
  O  O12  1  0.25646436  0.26849165  0.20537943  1
  O  O13  1  0.87026718  0.32501908  0.05056530  1
  P  P14  1  0.74955165  0.14313933  0.22925400  1
  P  P15  1  0.25044857  0.85685985  0.77074624  1
  P  P16  1  0.32938465  0.37307235  0.35849328  1
  P  P17  1  0.67061557  0.62692836  0.64150677  1
  Ca  Ca18  1  0.81776234  0.13640444  0.73142823  1
  Ca  Ca19  1  0.18223789  0.86359628  0.26857182  1
  Co  Co20  1  0.77398840  0.64990434  0.09994234  1
  Co  Co21  1  0.22601183  0.35009638  0.90005770  1
