# generated using pymatgen
data_P4Pb3O13
_symmetry_space_group_name_H-M   'P 1'
_cell_length_a   7.50231072
_cell_length_b   8.04103850
_cell_length_c   10.39981262
_cell_angle_alpha   102.67996208
_cell_angle_beta   104.27476851
_cell_angle_gamma   94.51169452
_symmetry_Int_Tables_number   1
_chemical_formula_structural   P4Pb3O13
_chemical_formula_sum   'P8 Pb6 O26'
_cell_volume   587.30443148
_cell_formula_units_Z   2
loop_
 _symmetry_equiv_pos_site_id
 _symmetry_equiv_pos_as_xyz
  1  'x, y, z'
loop_
 _atom_site_type_symbol
 _atom_site_label
 _atom_site_symmetry_multiplicity
 _atom_site_fract_x
 _atom_site_fract_y
 _atom_site_fract_z
 _atom_site_occupancy
  P  P0  1  0.81465462  0.30910107  0.03431052  1
  P  P1  1  0.18534538  0.69089893  0.96568948  1
  P  P2  1  0.35698937  0.03695683  0.13742154  1
  P  P3  1  0.64301063  0.96304317  0.86257846  1
  P  P4  1  0.86435393  0.03601131  0.66342725  1
  P  P5  1  0.13564607  0.96398869  0.33657275  1
  P  P6  1  0.33098481  0.30425546  0.50666894  1
  P  P7  1  0.66901519  0.69574454  0.49333106  1
  Pb  Pb8  1  0.79440614  0.27446452  0.38276803  1
  Pb  Pb9  1  0.20559386  0.72553548  0.61723197  1
  Pb  Pb10  1  0.31586245  0.26117278  0.84644170  1
  Pb  Pb11  1  0.68413755  0.73882722  0.15355830  1
  Pb  Pb12  1  0.24585746  0.47716745  0.22637764  1
  Pb  Pb13  1  0.75414254  0.52283255  0.77362236  1
  O  O14  1  0.33948051  0.61139333  0.05291097  1
  O  O15  1  0.66051949  0.38860667  0.94708903  1
  O  O16  1  0.83933865  0.37850895  0.18848482  1
  O  O17  1  0.16066135  0.62149105  0.81151518  1
  O  O18  1  0.99541721  0.31625451  0.99419347  1
  O  O19  1  0.00458279  0.68374549  0.00580653  1
  O  O20  1  0.27103244  0.89591772  0.99610495  1
  O  O21  1  0.72896756  0.10408228  0.00389505  1
  O  O22  1  0.36850739  0.20962949  0.10309911  1
  O  O23  1  0.63149261  0.79037051  0.89690089  1
  O  O24  1  0.53578546  0.98891142  0.21633330  1
  O  O25  1  0.46421454  0.01108858  0.78366670  1
  O  O26  1  0.19883208  0.02785760  0.21575553  1
  O  O27  1  0.80116792  0.97214240  0.78424447  1
  O  O28  1  0.42260494  0.34888354  0.66198679  1
  O  O29  1  0.57739506  0.65111646  0.33801321  1
  O  O30  1  0.15536647  0.39155312  0.46959954  1
  O  O31  1  0.84463353  0.60844688  0.53040046  1
  O  O32  1  0.53988821  0.67657279  0.58309623  1
  O  O33  1  0.46011179  0.32342721  0.41690377  1
  O  O34  1  0.25947015  0.09573209  0.47347498  1
  O  O35  1  0.74052985  0.90426791  0.52652502  1
  O  O36  1  0.06611794  0.00598012  0.68743481  1
  O  O37  1  0.93388206  0.99401988  0.31256519  1
  O  O38  1  0.82348388  0.21341345  0.65417219  1
  O  O39  1  0.17651612  0.78658655  0.34582781  1
