# generated using pymatgen
data_KMnO4
_symmetry_space_group_name_H-M   'P 1'
_cell_length_a   5.92929403
_cell_length_b   7.57733955
_cell_length_c   9.23189056
_cell_angle_alpha   90.00000000
_cell_angle_beta   90.00000000
_cell_angle_gamma   90.00000000
_symmetry_Int_Tables_number   1
_chemical_formula_structural   KMnO4
_chemical_formula_sum   'K4 Mn4 O16'
_cell_volume   414.77291007
_cell_formula_units_Z   4
loop_
 _symmetry_equiv_pos_site_id
 _symmetry_equiv_pos_as_xyz
  1  'x, y, z'
loop_
 _atom_site_type_symbol
 _atom_site_label
 _atom_site_symmetry_multiplicity
 _atom_site_fract_x
 _atom_site_fract_y
 _atom_site_fract_z
 _atom_site_occupancy
  O  O0  1  0.52646428  0.81079026  0.07829403  1
  O  O1  1  0.02646428  0.18920974  0.92170597  1
  O  O2  1  0.47353572  0.31079026  0.42170597  1
  O  O3  1  0.97353572  0.68920974  0.57829403  1
  O  O4  1  0.47353572  0.18920974  0.92170597  1
  O  O5  1  0.97353572  0.81079026  0.07829403  1
  O  O6  1  0.52646428  0.68920974  0.57829403  1
  O  O7  1  0.02646428  0.31079026  0.42170597  1
  O  O8  1  0.25000000  0.03630012  0.31846255  1
  O  O9  1  0.75000000  0.96369988  0.68153745  1
  O  O10  1  0.75000000  0.53630012  0.18153745  1
  O  O11  1  0.25000000  0.46369988  0.81846255  1
  O  O12  1  0.25000000  0.10165148  0.59986038  1
  O  O13  1  0.75000000  0.89834852  0.40013962  1
  O  O14  1  0.75000000  0.60165148  0.90013962  1
  O  O15  1  0.25000000  0.39834852  0.09986038  1
  K  K16  1  0.25000000  0.65687311  0.31886380  1
  K  K17  1  0.75000000  0.34312689  0.68113620  1
  K  K18  1  0.75000000  0.15687311  0.18113620  1
  K  K19  1  0.25000000  0.84312689  0.81886380  1
  Mn  Mn20  1  0.25000000  0.18905884  0.44057375  1
  Mn  Mn21  1  0.75000000  0.81094116  0.55942625  1
  Mn  Mn22  1  0.75000000  0.68905884  0.05942625  1
  Mn  Mn23  1  0.25000000  0.31094116  0.94057375  1
