# generated using pymatgen
data_SrV2(AsO5)2
_symmetry_space_group_name_H-M   'P 1'
_cell_length_a   5.00096193
_cell_length_b   12.74520534
_cell_length_c   12.92960641
_cell_angle_alpha   90.00000000
_cell_angle_beta   90.00000000
_cell_angle_gamma   90.00000000
_symmetry_Int_Tables_number   1
_chemical_formula_structural   SrV2(AsO5)2
_chemical_formula_sum   'Sr4 V8 As8 O40'
_cell_volume   824.11096022
_cell_formula_units_Z   4
loop_
 _symmetry_equiv_pos_site_id
 _symmetry_equiv_pos_as_xyz
  1  'x, y, z'
loop_
 _atom_site_type_symbol
 _atom_site_label
 _atom_site_symmetry_multiplicity
 _atom_site_fract_x
 _atom_site_fract_y
 _atom_site_fract_z
 _atom_site_occupancy
  O  O0  1  0.75649848  0.26694069  0.96699445  1
  O  O1  1  0.25649848  0.23305931  0.03300555  1
  O  O2  1  0.24350152  0.76694069  0.53300555  1
  O  O3  1  0.74350152  0.73305931  0.46699445  1
  O  O4  1  0.01960372  0.78743341  0.01037506  1
  O  O5  1  0.51960372  0.71256659  0.98962494  1
  O  O6  1  0.98039628  0.28743341  0.48962494  1
  O  O7  1  0.48039628  0.21256659  0.51037506  1
  O  O8  1  0.09415294  0.60171151  0.89411623  1
  O  O9  1  0.59415294  0.89828849  0.10588377  1
  O  O10  1  0.90584706  0.10171151  0.60588377  1
  O  O11  1  0.40584706  0.39828849  0.39411623  1
  O  O12  1  0.90566542  0.60505019  0.10958663  1
  O  O13  1  0.40566542  0.89494981  0.89041337  1
  O  O14  1  0.67783102  0.47826542  0.94534845  1
  O  O15  1  0.09433458  0.10505019  0.39041337  1
  O  O16  1  0.18710110  0.44422157  0.04494594  1
  O  O17  1  0.68710110  0.05577843  0.95505406  1
  O  O18  1  0.81289890  0.94422157  0.45505406  1
  O  O19  1  0.31289890  0.55577843  0.54494594  1
  O  O20  1  0.51658236  0.18684564  0.72263250  1
  O  O21  1  0.01658236  0.31315436  0.27736750  1
  O  O22  1  0.48341764  0.68684564  0.77736750  1
  O  O23  1  0.98341764  0.81315436  0.22263250  1
  O  O24  1  0.01663651  0.29915408  0.69785839  1
  O  O25  1  0.51663651  0.20084592  0.30214161  1
  O  O26  1  0.98336349  0.79915408  0.80214161  1
  O  O27  1  0.48336349  0.70084592  0.19785839  1
  O  O28  1  0.10255629  0.13437475  0.84994779  1
  O  O29  1  0.60255629  0.36562525  0.15005221  1
  O  O30  1  0.89744371  0.63437475  0.65005221  1
  O  O31  1  0.39744371  0.86562525  0.34994779  1
  O  O32  1  0.32787115  0.34814548  0.85271410  1
  O  O33  1  0.82787115  0.15185452  0.14728590  1
  O  O34  1  0.67212885  0.84814548  0.64728590  1
  O  O35  1  0.17212885  0.65185452  0.35271410  1
  O  O36  1  0.82216898  0.52173458  0.44534845  1
  O  O37  1  0.32216898  0.97826542  0.55465155  1
  O  O38  1  0.17783102  0.02173458  0.05465155  1
  O  O39  1  0.59433458  0.39494981  0.60958663  1
  V  V40  1  0.49349746  0.34775402  0.99333621  1
  V  V41  1  0.99349746  0.15224598  0.00666379  1
  V  V42  1  0.50650254  0.84775402  0.50666379  1
  V  V43  1  0.00650254  0.65224598  0.49333621  1
  V  V44  1  0.77408015  0.75610980  0.09745097  1
  V  V45  1  0.27408015  0.74389020  0.90254903  1
  V  V46  1  0.22591985  0.25610980  0.40254903  1
  V  V47  1  0.72591985  0.24389020  0.59745097  1
  As  As48  1  0.95867582  0.53293140  0.99720697  1
  As  As49  1  0.45867582  0.96706860  0.00279303  1
  As  As50  1  0.04132418  0.03293140  0.50279303  1
  As  As51  1  0.54132418  0.46706860  0.49720697  1
  As  As52  1  0.26509115  0.76132741  0.28093909  1
  As  As53  1  0.76509115  0.73867259  0.71906091  1
  As  As54  1  0.73490885  0.26132741  0.21906091  1
  As  As55  1  0.23490885  0.23867259  0.78093909  1
  Sr  Sr56  1  0.73815167  0.00728667  0.76748780  1
  Sr  Sr57  1  0.23815167  0.49271333  0.23251220  1
  Sr  Sr58  1  0.26184833  0.50728667  0.73251220  1
  Sr  Sr59  1  0.76184833  0.99271333  0.26748780  1
