# generated using pymatgen
data_Cr7C3
_symmetry_space_group_name_H-M   'P 1'
_cell_length_a   4.50568719
_cell_length_b   6.94450310
_cell_length_c   12.03814850
_cell_angle_alpha   90.00000000
_cell_angle_beta   90.00000000
_cell_angle_gamma   90.00000000
_symmetry_Int_Tables_number   1
_chemical_formula_structural   Cr7C3
_chemical_formula_sum   'Cr28 C12'
_cell_volume   376.67076126
_cell_formula_units_Z   4
loop_
 _symmetry_equiv_pos_site_id
 _symmetry_equiv_pos_as_xyz
  1  'x, y, z'
loop_
 _atom_site_type_symbol
 _atom_site_label
 _atom_site_symmetry_multiplicity
 _atom_site_fract_x
 _atom_site_fract_y
 _atom_site_fract_z
 _atom_site_occupancy
  C  C0  1  0.53173679  0.03344677  0.15577606  1
  C  C1  1  0.03173679  0.46655323  0.34422394  1
  C  C2  1  0.46826321  0.53344677  0.84422394  1
  C  C3  1  0.96826321  0.96655323  0.65577606  1
  C  C4  1  0.46826321  0.96655323  0.84422394  1
  C  C5  1  0.96826321  0.53344677  0.65577606  1
  C  C6  1  0.53173679  0.46655323  0.15577606  1
  C  C7  1  0.03173679  0.03344677  0.34422394  1
  C  C8  1  0.03386956  0.75000000  0.06286671  1
  C  C9  1  0.53386956  0.75000000  0.43713329  1
  C  C10  1  0.96613044  0.25000000  0.93713329  1
  C  C11  1  0.46613044  0.25000000  0.56286671  1
  Cr  Cr12  1  0.05885489  0.06490503  0.81168267  1
  Cr  Cr13  1  0.55885489  0.43509497  0.68831733  1
  Cr  Cr14  1  0.94114511  0.56490503  0.18831733  1
  Cr  Cr15  1  0.44114511  0.93509497  0.31168267  1
  Cr  Cr16  1  0.94114511  0.93509497  0.18831733  1
  Cr  Cr17  1  0.44114511  0.56490503  0.31168267  1
  Cr  Cr18  1  0.05885489  0.43509497  0.81168267  1
  Cr  Cr19  1  0.55885489  0.06490503  0.68831733  1
  Cr  Cr20  1  0.25048938  0.06701862  0.02161920  1
  Cr  Cr21  1  0.75048938  0.43298138  0.47838080  1
  Cr  Cr22  1  0.74951062  0.56701862  0.97838080  1
  Cr  Cr23  1  0.24951062  0.93298138  0.52161920  1
  Cr  Cr24  1  0.74951062  0.93298138  0.97838080  1
  Cr  Cr25  1  0.24951062  0.56701862  0.52161920  1
  Cr  Cr26  1  0.25048938  0.43298138  0.02161920  1
  Cr  Cr27  1  0.75048938  0.06701862  0.47838080  1
  Cr  Cr28  1  0.24171503  0.75000000  0.91676461  1
  Cr  Cr29  1  0.74171503  0.75000000  0.58323539  1
  Cr  Cr30  1  0.75828497  0.25000000  0.08323539  1
  Cr  Cr31  1  0.25828497  0.25000000  0.41676461  1
  Cr  Cr32  1  0.25751818  0.75000000  0.70413679  1
  Cr  Cr33  1  0.75751818  0.75000000  0.79586321  1
  Cr  Cr34  1  0.74248182  0.25000000  0.29586321  1
  Cr  Cr35  1  0.24248182  0.25000000  0.20413679  1
  Cr  Cr36  1  0.44214533  0.75000000  0.12661555  1
  Cr  Cr37  1  0.94214533  0.75000000  0.37338445  1
  Cr  Cr38  1  0.55785467  0.25000000  0.87338445  1
  Cr  Cr39  1  0.05785467  0.25000000  0.62661555  1
