# generated using pymatgen
data_Ca4Sn3S10
_symmetry_space_group_name_H-M   'P 1'
_cell_length_a   6.80270921
_cell_length_b   7.17171360
_cell_length_c   33.02885483
_cell_angle_alpha   90.00000000
_cell_angle_beta   90.00000000
_cell_angle_gamma   90.00000000
_symmetry_Int_Tables_number   1
_chemical_formula_structural   Ca4Sn3S10
_chemical_formula_sum   'Ca16 Sn12 S40'
_cell_volume   1611.38145418
_cell_formula_units_Z   4
loop_
 _symmetry_equiv_pos_site_id
 _symmetry_equiv_pos_as_xyz
  1  'x, y, z'
loop_
 _atom_site_type_symbol
 _atom_site_label
 _atom_site_symmetry_multiplicity
 _atom_site_fract_x
 _atom_site_fract_y
 _atom_site_fract_z
 _atom_site_occupancy
  Ca  Ca0  1  0.97390229  0.58874986  0.57024016  1
  Ca  Ca1  1  0.47390229  0.91125014  0.42975984  1
  Ca  Ca2  1  0.02609771  0.08874986  0.92975984  1
  Ca  Ca3  1  0.52609771  0.41125014  0.07024016  1
  Ca  Ca4  1  0.02609771  0.41125014  0.42975984  1
  Ca  Ca5  1  0.52609771  0.08874986  0.57024016  1
  Ca  Ca6  1  0.97390229  0.91125014  0.07024016  1
  Ca  Ca7  1  0.47390229  0.58874986  0.92975984  1
  Ca  Ca8  1  0.51189380  0.91683816  0.70479678  1
  Ca  Ca9  1  0.01189380  0.58316184  0.29520322  1
  Ca  Ca10  1  0.48810620  0.41683816  0.79520322  1
  Ca  Ca11  1  0.98810620  0.08316184  0.20479678  1
  Ca  Ca12  1  0.48810620  0.08316184  0.29520322  1
  Ca  Ca13  1  0.98810620  0.41683816  0.70479678  1
  Ca  Ca14  1  0.51189380  0.58316184  0.20479678  1
  Ca  Ca15  1  0.01189380  0.91683816  0.79520322  1
  Sn  Sn16  1  0.50000000  0.50000000  0.50000000  1
  Sn  Sn17  1  -0.00000000  0.00000000  0.50000000  1
  Sn  Sn18  1  0.50000000  0.00000000  0.00000000  1
  Sn  Sn19  1  -0.00000000  0.50000000  0.00000000  1
  Sn  Sn20  1  0.99633743  0.00036168  0.64573863  1
  Sn  Sn21  1  0.49633743  0.49963832  0.35426137  1
  Sn  Sn22  1  0.00366257  0.50036168  0.85426137  1
  Sn  Sn23  1  0.50366257  0.99963832  0.14573863  1
  Sn  Sn24  1  0.00366257  0.99963832  0.35426137  1
  Sn  Sn25  1  0.50366257  0.50036168  0.64573863  1
  Sn  Sn26  1  0.99633743  0.49963832  0.14573863  1
  Sn  Sn27  1  0.49633743  0.00036168  0.85426137  1
  S  S28  1  0.13084476  0.95142889  0.57268613  1
  S  S29  1  0.63084476  0.54857111  0.42731387  1
  S  S30  1  0.86915524  0.45142889  0.92731387  1
  S  S31  1  0.36915524  0.04857111  0.07268613  1
  S  S32  1  0.86915524  0.04857111  0.42731387  1
  S  S33  1  0.36915524  0.45142889  0.57268613  1
  S  S34  1  0.13084476  0.54857111  0.07268613  1
  S  S35  1  0.63084476  0.95142889  0.92731387  1
  S  S36  1  0.89255385  0.04413639  0.71803804  1
  S  S37  1  0.39255385  0.45586361  0.28196196  1
  S  S38  1  0.10744615  0.54413639  0.78196196  1
  S  S39  1  0.60744615  0.95586361  0.21803804  1
  S  S40  1  0.10744615  0.95586361  0.28196196  1
  S  S41  1  0.60744615  0.54413639  0.71803804  1
  S  S42  1  0.89255385  0.45586361  0.21803804  1
  S  S43  1  0.39255385  0.04413639  0.78196196  1
  S  S44  1  0.81629166  0.31463844  0.62463790  1
  S  S45  1  0.31629166  0.18536156  0.37536210  1
  S  S46  1  0.18370834  0.81463844  0.87536210  1
  S  S47  1  0.68370834  0.68536156  0.12463790  1
  S  S48  1  0.18370834  0.68536156  0.37536210  1
  S  S49  1  0.68370834  0.81463844  0.62463790  1
  S  S50  1  0.81629166  0.18536156  0.12463790  1
  S  S51  1  0.31629166  0.31463844  0.87536210  1
  S  S52  1  0.19127782  0.70194546  0.66385637  1
  S  S53  1  0.69127782  0.79805454  0.33614363  1
  S  S54  1  0.80872218  0.20194546  0.83614363  1
  S  S55  1  0.30872218  0.29805454  0.16385637  1
  S  S56  1  0.80872218  0.29805454  0.33614363  1
  S  S57  1  0.30872218  0.20194546  0.66385637  1
  S  S58  1  0.19127782  0.79805454  0.16385637  1
  S  S59  1  0.69127782  0.70194546  0.83614363  1
  S  S60  1  0.31627829  0.18918681  0.48302868  1
  S  S61  1  0.81627829  0.31081319  0.51697132  1
  S  S62  1  0.68372171  0.68918681  0.01697132  1
  S  S63  1  0.18372171  0.81081319  0.98302868  1
  S  S64  1  0.68372171  0.81081319  0.51697132  1
  S  S65  1  0.18372171  0.68918681  0.48302868  1
  S  S66  1  0.31627829  0.31081319  0.98302868  1
  S  S67  1  0.81627829  0.18918681  0.01697132  1
