# generated using pymatgen
data_Cu3(AsO4)2
_symmetry_space_group_name_H-M   'P 1'
_cell_length_a   5.11414905
_cell_length_b   5.58368662
_cell_length_c   6.48608739
_cell_angle_alpha   71.14060134
_cell_angle_beta   87.15551926
_cell_angle_gamma   68.11743373
_symmetry_Int_Tables_number   1
_chemical_formula_structural   Cu3(AsO4)2
_chemical_formula_sum   'Cu3 As2 O8'
_cell_volume   162.11343461
_cell_formula_units_Z   1
loop_
 _symmetry_equiv_pos_site_id
 _symmetry_equiv_pos_as_xyz
  1  'x, y, z'
loop_
 _atom_site_type_symbol
 _atom_site_label
 _atom_site_symmetry_multiplicity
 _atom_site_fract_x
 _atom_site_fract_y
 _atom_site_fract_z
 _atom_site_occupancy
  O  O0  1  0.61934815  0.87366980  0.36669125  1
  O  O1  1  0.38065185  0.12633020  0.63330875  1
  O  O2  1  0.77969750  0.79471566  0.97610826  1
  O  O3  1  0.22030250  0.20528434  0.02389174  1
  O  O4  1  0.31171187  0.65379210  0.15941070  1
  O  O5  1  0.14089077  0.66757975  0.64336206  1
  O  O6  1  0.85910923  0.33242025  0.35663794  1
  O  O7  1  0.68828813  0.34620790  0.84058930  1
  Cu  Cu8  1  0.00000000  0.00000000  0.00000000  1
  Cu  Cu9  1  0.26294883  0.20198049  0.32539373  1
  Cu  Cu10  1  0.73705117  0.79801951  0.67460627  1
  As  As11  1  0.36333902  0.34455317  0.78227022  1
  As  As12  1  0.63666098  0.65544683  0.21772978  1
