# generated using pymatgen
data_Ca3SnS5
_symmetry_space_group_name_H-M   'P 1'
_cell_length_a   9.02040088
_cell_length_b   9.02040072
_cell_length_c   11.78356948
_cell_angle_alpha   67.49566565
_cell_angle_beta   67.49566617
_cell_angle_gamma   60.00000058
_symmetry_Int_Tables_number   1
_chemical_formula_structural   Ca3SnS5
_chemical_formula_sum   'Ca9 Sn3 S15'
_cell_volume   744.84711410
_cell_formula_units_Z   3
loop_
 _symmetry_equiv_pos_site_id
 _symmetry_equiv_pos_as_xyz
  1  'x, y, z'
loop_
 _atom_site_type_symbol
 _atom_site_label
 _atom_site_symmetry_multiplicity
 _atom_site_fract_x
 _atom_site_fract_y
 _atom_site_fract_z
 _atom_site_occupancy
  Ca  Ca0  1  0.50499393  0.99386522  0.99614693  1
  Ca  Ca1  1  0.99386522  0.50499393  0.99614693  1
  Ca  Ca2  1  0.50499393  0.50499393  0.99614693  1
  Ca  Ca3  1  0.30120804  0.73341759  0.66416634  1
  Ca  Ca4  1  0.73341759  0.30120804  0.66416634  1
  Ca  Ca5  1  0.30120804  0.30120804  0.66416634  1
  Ca  Ca6  1  0.70165222  0.27105965  0.32563591  1
  Ca  Ca7  1  0.27105965  0.70165222  0.32563591  1
  Ca  Ca8  1  0.70165222  0.70165222  0.32563591  1
  Sn  Sn9  1  0.00792529  0.00792529  0.97622414  1
  Sn  Sn10  1  0.22281379  0.22281379  0.33155864  1
  Sn  Sn11  1  0.78838873  0.78838873  0.63483380  1
  S  S12  1  0.08466906  0.08466906  0.74599282  1
  S  S13  1  0.29805100  0.29805100  0.10584701  1
  S  S14  1  0.86515793  0.86515793  0.40452621  1
  S  S15  1  0.38842158  0.38842158  0.83473525  1
  S  S16  1  0.50048435  0.50048435  0.49854696  1
  S  S17  1  0.61623517  0.61623517  0.15129450  1
  S  S18  1  0.83600642  0.26911424  0.05887293  1
  S  S19  1  0.26911424  0.83600642  0.05887293  1
  S  S20  1  0.83600642  0.83600642  0.05887293  1
  S  S21  1  0.34236806  0.90864550  0.40661838  1
  S  S22  1  0.90864550  0.34236806  0.40661838  1
  S  S23  1  0.34236806  0.34236806  0.40661838  1
  S  S24  1  0.61648550  0.03832259  0.72870641  1
  S  S25  1  0.03832259  0.61648550  0.72870641  1
  S  S26  1  0.61648550  0.61648550  0.72870641  1
