# generated using pymatgen
data_BaNb8O14
_symmetry_space_group_name_H-M   'P 1'
_cell_length_a   6.02479162
_cell_length_b   9.50860302
_cell_length_c   10.40682585
_cell_angle_alpha   90.00000000
_cell_angle_beta   90.00000000
_cell_angle_gamma   90.00000000
_symmetry_Int_Tables_number   1
_chemical_formula_structural   BaNb8O14
_chemical_formula_sum   'Ba2 Nb16 O28'
_cell_volume   596.17949352
_cell_formula_units_Z   2
loop_
 _symmetry_equiv_pos_site_id
 _symmetry_equiv_pos_as_xyz
  1  'x, y, z'
loop_
 _atom_site_type_symbol
 _atom_site_label
 _atom_site_symmetry_multiplicity
 _atom_site_fract_x
 _atom_site_fract_y
 _atom_site_fract_z
 _atom_site_occupancy
  O  O0  1  0.74696196  0.50528151  0.75292815  1
  O  O1  1  0.74696196  0.49471849  0.24707185  1
  O  O2  1  0.25303804  0.00528151  0.74707185  1
  O  O3  1  0.25303804  0.99471849  0.25292815  1
  O  O4  1  0.25303804  0.49471849  0.24707185  1
  O  O5  1  0.25303804  0.50528151  0.75292815  1
  O  O6  1  0.74696196  0.99471849  0.25292815  1
  O  O7  1  0.74696196  0.00528151  0.74707185  1
  O  O8  1  0.25021740  0.74356733  0.91282652  1
  O  O9  1  0.25021740  0.25643267  0.08717348  1
  O  O10  1  0.74978260  0.24356733  0.58717348  1
  O  O11  1  0.74978260  0.75643267  0.41282652  1
  O  O12  1  0.74978260  0.25643267  0.08717348  1
  O  O13  1  0.74978260  0.74356733  0.91282652  1
  O  O14  1  0.25021740  0.75643267  0.41282652  1
  O  O15  1  0.25021740  0.24356733  0.58717348  1
  O  O16  1  0.00000000  0.50000000  0.00000000  1
  O  O17  1  0.00000000  0.00000000  0.50000000  1
  O  O18  1  0.00000000  0.23184315  0.82221534  1
  O  O19  1  0.00000000  0.76815685  0.17778466  1
  O  O20  1  0.00000000  0.73184315  0.67778466  1
  O  O21  1  0.00000000  0.26815685  0.32221534  1
  O  O22  1  0.50000000  0.24374540  0.34418211  1
  O  O23  1  0.50000000  0.75625460  0.65581789  1
  O  O24  1  0.50000000  0.74374540  0.15581789  1
  O  O25  1  0.50000000  0.25625460  0.84418211  1
  O  O26  1  0.00000000  0.00000000  0.00000000  1
  O  O27  1  0.00000000  0.50000000  0.50000000  1
  Nb  Nb28  1  0.00000000  0.38245897  0.16406192  1
  Nb  Nb29  1  0.00000000  0.61754103  0.83593808  1
  Nb  Nb30  1  0.00000000  0.88245897  0.33593808  1
  Nb  Nb31  1  0.00000000  0.11754103  0.66406192  1
  Nb  Nb32  1  0.50000000  0.38048663  0.66435614  1
  Nb  Nb33  1  0.50000000  0.61951337  0.33564386  1
  Nb  Nb34  1  0.50000000  0.88048663  0.83564386  1
  Nb  Nb35  1  0.50000000  0.11951337  0.16435614  1
  Nb  Nb36  1  0.73149154  0.62370317  0.57642244  1
  Nb  Nb37  1  0.73149154  0.37629683  0.42357756  1
  Nb  Nb38  1  0.26850846  0.12370317  0.92357756  1
  Nb  Nb39  1  0.26850846  0.87629683  0.07642244  1
  Nb  Nb40  1  0.26850846  0.37629683  0.42357756  1
  Nb  Nb41  1  0.26850846  0.62370317  0.57642244  1
  Nb  Nb42  1  0.73149154  0.87629683  0.07642244  1
  Nb  Nb43  1  0.73149154  0.12370317  0.92357756  1
  Ba  Ba44  1  0.50000000  0.50000000  0.00000000  1
  Ba  Ba45  1  0.50000000  0.00000000  0.50000000  1
