# generated using pymatgen
data_AsRh
_symmetry_space_group_name_H-M   'P 1'
_cell_length_a   3.64253121
_cell_length_b   5.72422798
_cell_length_c   6.15977420
_cell_angle_alpha   90.00000000
_cell_angle_beta   90.00000000
_cell_angle_gamma   90.00000000
_symmetry_Int_Tables_number   1
_chemical_formula_structural   AsRh
_chemical_formula_sum   'As4 Rh4'
_cell_volume   128.43547499
_cell_formula_units_Z   4
loop_
 _symmetry_equiv_pos_site_id
 _symmetry_equiv_pos_as_xyz
  1  'x, y, z'
loop_
 _atom_site_type_symbol
 _atom_site_label
 _atom_site_symmetry_multiplicity
 _atom_site_fract_x
 _atom_site_fract_y
 _atom_site_fract_z
 _atom_site_occupancy
  As  As0  1  0.25000000  0.69534679  0.91485373  1
  As  As1  1  0.75000000  0.30465321  0.08514627  1
  As  As2  1  0.25000000  0.19534679  0.58514627  1
  As  As3  1  0.75000000  0.80465321  0.41485373  1
  Rh  Rh4  1  0.25000000  0.50292699  0.30561810  1
  Rh  Rh5  1  0.75000000  0.49707301  0.69438190  1
  Rh  Rh6  1  0.25000000  0.00292699  0.19438190  1
  Rh  Rh7  1  0.75000000  0.99707301  0.80561810  1
