# generated using pymatgen
data_GdAl3(PbO4)2
_symmetry_space_group_name_H-M   'P 1'
_cell_length_a   9.57834852
_cell_length_b   9.57834852
_cell_length_c   9.57834852
_cell_angle_alpha   90.00000000
_cell_angle_beta   90.00000000
_cell_angle_gamma   90.00000000
_symmetry_Int_Tables_number   1
_chemical_formula_structural   GdAl3(PbO4)2
_chemical_formula_sum   'Gd4 Al12 Pb8 O32'
_cell_volume   878.76328971
_cell_formula_units_Z   4
loop_
 _symmetry_equiv_pos_site_id
 _symmetry_equiv_pos_as_xyz
  1  'x, y, z'
loop_
 _atom_site_type_symbol
 _atom_site_label
 _atom_site_symmetry_multiplicity
 _atom_site_fract_x
 _atom_site_fract_y
 _atom_site_fract_z
 _atom_site_occupancy
  O  O0  1  0.76416121  0.40759043  0.40759043  1
  O  O1  1  0.76416121  0.09240957  0.09240957  1
  O  O2  1  0.40759043  0.40759043  0.76416121  1
  O  O3  1  0.09240957  0.40759043  0.73583879  1
  O  O4  1  0.40759043  0.76416121  0.40759043  1
  O  O5  1  0.09240957  0.73583879  0.40759043  1
  O  O6  1  0.26416121  0.90759043  0.59240957  1
  O  O7  1  0.26416121  0.59240957  0.90759043  1
  O  O8  1  0.23583879  0.90759043  0.90759043  1
  O  O9  1  0.59240957  0.90759043  0.26416121  1
  O  O10  1  0.90759043  0.23583879  0.90759043  1
  O  O11  1  0.90759043  0.26416121  0.59240957  1
  O  O12  1  0.90759043  0.59240957  0.26416121  1
  O  O13  1  0.59240957  0.26416121  0.90759043  1
  O  O14  1  0.90759043  0.90759043  0.23583879  1
  O  O15  1  0.59240957  0.59240957  0.23583879  1
  O  O16  1  0.59240957  0.23583879  0.59240957  1
  O  O17  1  0.09240957  0.76416121  0.09240957  1
  O  O18  1  0.40759043  0.73583879  0.09240957  1
  O  O19  1  0.40759043  0.09240957  0.73583879  1
  O  O20  1  0.09240957  0.09240957  0.76416121  1
  O  O21  1  0.73583879  0.09240957  0.40759043  1
  O  O22  1  0.73583879  0.40759043  0.09240957  1
  O  O23  1  0.23583879  0.59240957  0.59240957  1
  O  O24  1  0.86157939  0.86157939  0.86157939  1
  O  O25  1  0.36157939  0.13842061  0.36157939  1
  O  O26  1  0.36157939  0.36157939  0.13842061  1
  O  O27  1  0.13842061  0.36157939  0.36157939  1
  O  O28  1  0.63842061  0.63842061  0.86157939  1
  O  O29  1  0.86157939  0.63842061  0.63842061  1
  O  O30  1  0.63842061  0.86157939  0.63842061  1
  O  O31  1  0.13842061  0.13842061  0.13842061  1
  Al  Al32  1  0.75000000  0.25000000  0.50000000  1
  Al  Al33  1  0.00000000  0.75000000  0.25000000  1
  Al  Al34  1  0.50000000  0.75000000  0.25000000  1
  Al  Al35  1  0.25000000  0.50000000  0.75000000  1
  Al  Al36  1  0.25000000  0.00000000  0.75000000  1
  Al  Al37  1  0.75000000  0.25000000  0.00000000  1
  Al  Al38  1  0.25000000  0.75000000  0.50000000  1
  Al  Al39  1  0.00000000  0.25000000  0.75000000  1
  Al  Al40  1  0.50000000  0.25000000  0.75000000  1
  Al  Al41  1  0.75000000  0.50000000  0.25000000  1
  Al  Al42  1  0.75000000  0.00000000  0.25000000  1
  Al  Al43  1  0.25000000  0.75000000  0.00000000  1
  Gd  Gd44  1  0.50000000  0.00000000  0.50000000  1
  Gd  Gd45  1  0.00000000  0.50000000  0.50000000  1
  Gd  Gd46  1  0.00000000  0.00000000  0.00000000  1
  Gd  Gd47  1  0.50000000  0.50000000  0.00000000  1
  Pb  Pb48  1  0.61650368  0.61650368  0.61650368  1
  Pb  Pb49  1  0.11650368  0.38349632  0.11650368  1
  Pb  Pb50  1  0.38349632  0.11650368  0.11650368  1
  Pb  Pb51  1  0.11650368  0.11650368  0.38349632  1
  Pb  Pb52  1  0.61650368  0.88349632  0.88349632  1
  Pb  Pb53  1  0.88349632  0.88349632  0.61650368  1
  Pb  Pb54  1  0.88349632  0.61650368  0.88349632  1
  Pb  Pb55  1  0.38349632  0.38349632  0.38349632  1
