# generated using pymatgen
data_KCeGeSe4
_symmetry_space_group_name_H-M   'P 1'
_cell_length_a   6.95072752
_cell_length_b   7.10503733
_cell_length_c   9.14972910
_cell_angle_alpha   90.00000000
_cell_angle_beta   107.88257702
_cell_angle_gamma   90.00000000
_symmetry_Int_Tables_number   1
_chemical_formula_structural   KCeGeSe4
_chemical_formula_sum   'K2 Ce2 Ge2 Se8'
_cell_volume   430.03061623
_cell_formula_units_Z   2
loop_
 _symmetry_equiv_pos_site_id
 _symmetry_equiv_pos_as_xyz
  1  'x, y, z'
loop_
 _atom_site_type_symbol
 _atom_site_label
 _atom_site_symmetry_multiplicity
 _atom_site_fract_x
 _atom_site_fract_y
 _atom_site_fract_z
 _atom_site_occupancy
  K  K0  1  0.24292187  0.72461424  0.93691674  1
  K  K1  1  0.75707813  0.22461424  0.06308326  1
  Ge  Ge2  1  0.71772914  0.74541684  0.31925437  1
  Ge  Ge3  1  0.28227086  0.24541684  0.68074563  1
  Se  Se4  1  0.92065059  0.74872983  0.15483821  1
  Se  Se5  1  0.07934941  0.24872983  0.84516179  1
  Se  Se6  1  0.48968531  0.97048767  0.71371491  1
  Se  Se7  1  0.92512265  0.80509818  0.57637009  1
  Se  Se8  1  0.07487735  0.30509818  0.42362991  1
  Se  Se9  1  0.46830403  0.98910910  0.27186509  1
  Se  Se10  1  0.53169597  0.48910910  0.72813491  1
  Se  Se11  1  0.51031469  0.47048767  0.28628509  1
  Ce  Ce12  1  0.73176856  0.21183413  0.55351263  1
  Ce  Ce13  1  0.26823144  0.71183413  0.44648737  1
