# generated using pymatgen
data_Mg3Si2
_symmetry_space_group_name_H-M   'P 1'
_cell_length_a   13.96926001
_cell_length_b   5.38103779
_cell_length_c   5.37695567
_cell_angle_alpha   92.65570501
_cell_angle_beta   101.15578658
_cell_angle_gamma   101.17644999
_symmetry_Int_Tables_number   1
_chemical_formula_structural   Mg3Si2
_chemical_formula_sum   'Mg12 Si8'
_cell_volume   387.54486578
_cell_formula_units_Z   4
loop_
 _symmetry_equiv_pos_site_id
 _symmetry_equiv_pos_as_xyz
  1  'x, y, z'
loop_
 _atom_site_type_symbol
 _atom_site_label
 _atom_site_symmetry_multiplicity
 _atom_site_fract_x
 _atom_site_fract_y
 _atom_site_fract_z
 _atom_site_occupancy
  Mg  Mg0  1  0.00017412  0.29531087  0.70389438  1
  Mg  Mg1  1  0.99985231  0.70478586  0.29612337  1
  Mg  Mg2  1  0.87501531  0.12543578  0.12461986  1
  Mg  Mg3  1  0.12501454  0.87489543  0.87509943  1
  Mg  Mg4  1  0.25014608  0.04537890  0.45404693  1
  Mg  Mg5  1  0.74990039  0.95438338  0.54571564  1
  Mg  Mg6  1  0.50015860  0.79550099  0.20416278  1
  Mg  Mg7  1  0.49985046  0.20441030  0.79586611  1
  Mg  Mg8  1  0.37499971  0.62480685  0.62523790  1
  Mg  Mg9  1  0.62501454  0.37491425  0.37510035  1
  Mg  Mg10  1  0.75015170  0.54575647  0.95431914  1
  Mg  Mg11  1  0.24985800  0.45455624  0.04601433  1
  Si  Si12  1  0.82756153  0.46409237  0.46438815  1
  Si  Si13  1  0.17248757  0.53580004  0.53575047  1
  Si  Si14  1  0.92245817  0.78575814  0.78590008  1
  Si  Si15  1  0.07755349  0.21420399  0.21416318  1
  Si  Si16  1  0.32751730  0.96423631  0.96425644  1
  Si  Si17  1  0.67248872  0.03592982  0.03566382  1
  Si  Si18  1  0.42247912  0.28591566  0.28575295  1
  Si  Si19  1  0.57754834  0.71413836  0.71427372  1
