# generated using pymatgen
data_Mg2PHO5
_symmetry_space_group_name_H-M   'P 1'
_cell_length_a   9.79262437
_cell_length_b   12.21006757
_cell_length_c   13.01261660
_cell_angle_alpha   90.00000000
_cell_angle_beta   90.00000000
_cell_angle_gamma   108.45466752
_symmetry_Int_Tables_number   1
_chemical_formula_structural   Mg2PHO5
_chemical_formula_sum   'Mg32 P16 H16 O80'
_cell_volume   1475.88732076
_cell_formula_units_Z   16
loop_
 _symmetry_equiv_pos_site_id
 _symmetry_equiv_pos_as_xyz
  1  'x, y, z'
loop_
 _atom_site_type_symbol
 _atom_site_label
 _atom_site_symmetry_multiplicity
 _atom_site_fract_x
 _atom_site_fract_y
 _atom_site_fract_z
 _atom_site_occupancy
  H  H0  1  0.53988519  0.24065746  0.04013933  1
  H  H1  1  0.46011481  0.25934254  0.54013933  1
  H  H2  1  0.46011481  0.75934254  0.95986067  1
  H  H3  1  0.53988519  0.74065746  0.45986067  1
  H  H4  1  0.27266897  0.36429379  0.92188387  1
  H  H5  1  0.72733103  0.13570621  0.42188387  1
  H  H6  1  0.72733103  0.63570621  0.07811613  1
  H  H7  1  0.27266897  0.86429379  0.57811613  1
  H  H8  1  0.77093359  0.35551958  0.82968847  1
  H  H9  1  0.22906641  0.14448042  0.32968847  1
  H  H10  1  0.22906641  0.64448042  0.17031153  1
  H  H11  1  0.77093359  0.85551958  0.67031153  1
  H  H12  1  0.04027049  0.23617395  0.70988082  1
  H  H13  1  0.95972951  0.26382605  0.20988082  1
  H  H14  1  0.95972951  0.76382605  0.29011918  1
  H  H15  1  0.04027049  0.73617395  0.79011918  1
  O  O16  1  0.83039188  0.67560300  0.88597453  1
  O  O17  1  0.16960812  0.82439700  0.38597453  1
  O  O18  1  0.16960812  0.32439700  0.11402547  1
  O  O19  1  0.83039188  0.17560300  0.61402547  1
  O  O20  1  0.75634306  0.46839046  0.95285605  1
  O  O21  1  0.24365694  0.03160954  0.45285605  1
  O  O22  1  0.24365694  0.53160954  0.04714395  1
  O  O23  1  0.75634306  0.96839046  0.54714395  1
  O  O24  1  0.01360203  0.37928768  0.98446739  1
  O  O25  1  0.98639797  0.12071232  0.48446739  1
  O  O26  1  0.98639797  0.62071232  0.01553261  1
  O  O27  1  0.01360203  0.87928768  0.51553261  1
  O  O28  1  0.97254441  0.54151891  0.83509077  1
  O  O29  1  0.02745559  0.95848109  0.33509077  1
  O  O30  1  0.02745559  0.45848109  0.16490923  1
  O  O31  1  0.97254441  0.04151891  0.66490923  1
  O  O32  1  0.20080925  0.83697576  0.90671591  1
  O  O33  1  0.79919075  0.66302424  0.40671591  1
  O  O34  1  0.79919075  0.16302424  0.09328409  1
  O  O35  1  0.20080925  0.33697576  0.59328409  1
  O  O36  1  0.23253178  0.04713131  0.94760487  1
  O  O37  1  0.76746822  0.45286869  0.44760487  1
  O  O38  1  0.76746822  0.95286869  0.05239513  1
  O  O39  1  0.23253178  0.54713131  0.55239513  1
  O  O40  1  0.97739599  0.11485052  0.97439482  1
  O  O41  1  0.02260401  0.38514948  0.47439482  1
  O  O42  1  0.02260401  0.88514948  0.02560518  1
  O  O43  1  0.97739599  0.61485052  0.52560518  1
  O  O44  1  0.01793923  0.93254553  0.83990512  1
  O  O45  1  0.98206077  0.56745447  0.33990512  1
  O  O46  1  0.98206077  0.06745447  0.16009488  1
  O  O47  1  0.01793923  0.43254553  0.66009488  1
  O  O48  1  0.68116167  0.82800182  0.85818360  1
  O  O49  1  0.31883833  0.67199818  0.35818360  1
  O  O50  1  0.31883833  0.17199818  0.14181640  1
  O  O51  1  0.68116167  0.32800182  0.64181640  1
  O  O52  1  0.74151467  0.03779268  0.79718629  1
  O  O53  1  0.25848533  0.46220732  0.29718629  1
  O  O54  1  0.25848533  0.96220732  0.20281371  1
  O  O55  1  0.74151467  0.53779268  0.70281371  1
  O  O56  1  0.51788140  0.38275212  0.76794514  1
  O  O57  1  0.48211860  0.11724788  0.26794514  1
  O  O58  1  0.48211860  0.61724788  0.23205486  1
  O  O59  1  0.51788140  0.88275212  0.73205486  1
  O  O60  1  0.53249538  0.95314467  0.91608682  1
  O  O61  1  0.46750462  0.54685533  0.41608682  1
  O  O62  1  0.46750462  0.04685533  0.08391318  1
  O  O63  1  0.53249538  0.45314467  0.58391318  1
  O  O64  1  0.31140668  0.67322082  0.84675118  1
  O  O65  1  0.68859332  0.82677918  0.34675118  1
  O  O66  1  0.68859332  0.32677918  0.15324882  1
  O  O67  1  0.31140668  0.17322082  0.65324882  1
  O  O68  1  0.25810156  0.46358780  0.79751316  1
  O  O69  1  0.74189844  0.03641220  0.29751316  1
  O  O70  1  0.74189844  0.53641220  0.20248684  1
  O  O71  1  0.25810156  0.96358780  0.70248684  1
  O  O72  1  0.48104574  0.11772567  0.77374430  1
  O  O73  1  0.51895426  0.38227433  0.27374430  1
  O  O74  1  0.51895426  0.88227433  0.22625570  1
  O  O75  1  0.48104574  0.61772567  0.72625570  1
  O  O76  1  0.47841646  0.55959395  0.90998352  1
  O  O77  1  0.52158354  0.94040605  0.40998352  1
  O  O78  1  0.52158354  0.44040605  0.09001648  1
  O  O79  1  0.47841646  0.05959395  0.59001648  1
  O  O80  1  0.56702160  0.24516097  0.96750795  1
  O  O81  1  0.43297840  0.25483903  0.46750795  1
  O  O82  1  0.43297840  0.75483903  0.03249205  1
  O  O83  1  0.56702160  0.74516097  0.53249205  1
  O  O84  1  0.31167908  0.29990748  0.91749804  1
  O  O85  1  0.68832092  0.20009252  0.41749804  1
  O  O86  1  0.68832092  0.70009252  0.08250196  1
  O  O87  1  0.31167908  0.79990748  0.58250196  1
  O  O88  1  0.81068425  0.29192758  0.83746123  1
  O  O89  1  0.18931575  0.20807242  0.33746123  1
  O  O90  1  0.18931575  0.70807242  0.16253877  1
  O  O91  1  0.81068425  0.79192758  0.66253877  1
  O  O92  1  0.07251746  0.24068290  0.78139604  1
  O  O93  1  0.92748254  0.25931710  0.28139604  1
  O  O94  1  0.92748254  0.75931710  0.21860396  1
  O  O95  1  0.07251746  0.74068290  0.71860396  1
  Mg  Mg96  1  0.44927943  0.08435154  0.92735857  1
  Mg  Mg97  1  0.55072057  0.41564846  0.42735857  1
  Mg  Mg98  1  0.55072057  0.91564846  0.07264143  1
  Mg  Mg99  1  0.44927943  0.58435154  0.57264143  1
  Mg  Mg100  1  0.52943662  0.39877951  0.93064077  1
  Mg  Mg101  1  0.47056338  0.10122049  0.43064077  1
  Mg  Mg102  1  0.47056338  0.60122049  0.06935923  1
  Mg  Mg103  1  0.52943662  0.89877951  0.56935923  1
  Mg  Mg104  1  0.95717519  0.07791538  0.82015028  1
  Mg  Mg105  1  0.04282481  0.42208462  0.32015028  1
  Mg  Mg106  1  0.04282481  0.92208462  0.17984972  1
  Mg  Mg107  1  0.95717519  0.57791538  0.67984972  1
  Mg  Mg108  1  0.02987967  0.39085639  0.82302107  1
  Mg  Mg109  1  0.97012033  0.10914361  0.32302107  1
  Mg  Mg110  1  0.97012033  0.60914361  0.17697893  1
  Mg  Mg111  1  0.02987967  0.89085639  0.67697893  1
  Mg  Mg112  1  0.80906744  0.81194821  0.97886697  1
  Mg  Mg113  1  0.19093256  0.68805179  0.47886697  1
  Mg  Mg114  1  0.19093256  0.18805179  0.02113303  1
  Mg  Mg115  1  0.80906744  0.31194821  0.52113303  1
  Mg  Mg116  1  0.21363319  0.69658160  0.99873966  1
  Mg  Mg117  1  0.78636681  0.80341840  0.49873966  1
  Mg  Mg118  1  0.78636681  0.30341840  0.00126034  1
  Mg  Mg119  1  0.21363319  0.19658160  0.50126034  1
  Mg  Mg120  1  0.69498572  0.68222175  0.76918679  1
  Mg  Mg121  1  0.30501428  0.81777825  0.26918679  1
  Mg  Mg122  1  0.30501428  0.31777825  0.23081321  1
  Mg  Mg123  1  0.69498572  0.18222175  0.73081321  1
  Mg  Mg124  1  0.29154307  0.80518032  0.74928304  1
  Mg  Mg125  1  0.70845693  0.69481968  0.24928304  1
  Mg  Mg126  1  0.70845693  0.19481968  0.25071696  1
  Mg  Mg127  1  0.29154307  0.30518032  0.75071696  1
  P  P128  1  0.88547502  0.57481007  0.92266921  1
  P  P129  1  0.11452498  0.92518993  0.42266921  1
  P  P130  1  0.11452498  0.42518993  0.07733079  1
  P  P131  1  0.88547502  0.07481007  0.57733079  1
  P  P132  1  0.12110052  0.92523180  0.92952620  1
  P  P133  1  0.87889948  0.57476820  0.42952620  1
  P  P134  1  0.87889948  0.07476820  0.07047380  1
  P  P135  1  0.12110052  0.42523180  0.57047380  1
  P  P136  1  0.61846486  0.92538222  0.82544720  1
  P  P137  1  0.38153514  0.57461778  0.32544720  1
  P  P138  1  0.38153514  0.07461778  0.17455280  1
  P  P139  1  0.61846486  0.42538222  0.67455280  1
  P  P140  1  0.37956816  0.57762897  0.82126115  1
  P  P141  1  0.62043184  0.92237103  0.32126115  1
  P  P142  1  0.62043184  0.42237103  0.17873885  1
  P  P143  1  0.37956816  0.07762897  0.67873885  1
