# generated using pymatgen
data_CuH2(SeO3)2
_symmetry_space_group_name_H-M   'P 1'
_cell_length_a   5.84363262
_cell_length_b   6.51271594
_cell_length_c   7.42330571
_cell_angle_alpha   90.00000000
_cell_angle_beta   90.00000000
_cell_angle_gamma   93.17050198
_symmetry_Int_Tables_number   1
_chemical_formula_structural   CuH2(SeO3)2
_chemical_formula_sum   'Cu2 H4 Se4 O12'
_cell_volume   282.08314309
_cell_formula_units_Z   2
loop_
 _symmetry_equiv_pos_site_id
 _symmetry_equiv_pos_as_xyz
  1  'x, y, z'
loop_
 _atom_site_type_symbol
 _atom_site_label
 _atom_site_symmetry_multiplicity
 _atom_site_fract_x
 _atom_site_fract_y
 _atom_site_fract_z
 _atom_site_occupancy
  Cu  Cu0  1  0.00000000  -0.00000000  0.00000000  1
  Cu  Cu1  1  0.50000000  0.50000000  0.50000000  1
  H  H2  1  0.90151441  0.83766242  0.59812922  1
  H  H3  1  0.59848559  0.66233758  0.09812922  1
  H  H4  1  0.40151441  0.33766242  0.90187078  1
  H  H5  1  0.09848559  0.16233758  0.40187078  1
  Se  Se6  1  0.92263425  0.28409428  0.66486328  1
  Se  Se7  1  0.57736575  0.21590572  0.16486328  1
  Se  Se8  1  0.42263425  0.78409428  0.83513672  1
  Se  Se9  1  0.07736575  0.71590572  0.33513672  1
  O  O10  1  0.55068331  0.46606137  0.23699577  1
  O  O11  1  0.44931669  0.53393863  0.76300423  1
  O  O12  1  0.94931669  0.03393863  0.73699577  1
  O  O13  1  0.32756598  0.74476998  0.45344324  1
  O  O14  1  0.05068331  0.96606137  0.26300423  1
  O  O15  1  0.17243402  0.75523002  0.95344324  1
  O  O16  1  0.67243402  0.25523002  0.54655676  1
  O  O17  1  0.82756598  0.24476998  0.04655676  1
  O  O18  1  0.87063080  0.71308252  0.51728729  1
  O  O19  1  0.62936920  0.78691748  0.01728729  1
  O  O20  1  0.12936920  0.28691748  0.48271271  1
  O  O21  1  0.37063080  0.21308252  0.98271271  1
