# generated using pymatgen
data_PBr2N
_symmetry_space_group_name_H-M   'P 1'
_cell_length_a   7.01646211
_cell_length_b   14.31017164
_cell_length_c   15.24623060
_cell_angle_alpha   90.00000000
_cell_angle_beta   90.00000000
_cell_angle_gamma   90.00000000
_symmetry_Int_Tables_number   1
_chemical_formula_structural   PBr2N
_chemical_formula_sum   'P12 Br24 N12'
_cell_volume   1530.82487746
_cell_formula_units_Z   12
loop_
 _symmetry_equiv_pos_site_id
 _symmetry_equiv_pos_as_xyz
  1  'x, y, z'
loop_
 _atom_site_type_symbol
 _atom_site_label
 _atom_site_symmetry_multiplicity
 _atom_site_fract_x
 _atom_site_fract_y
 _atom_site_fract_z
 _atom_site_occupancy
  N  N0  1  0.40806239  0.75000000  0.86119925  1
  N  N1  1  0.90806239  0.25000000  0.63880075  1
  N  N2  1  0.59193761  0.25000000  0.13880075  1
  N  N3  1  0.09193761  0.75000000  0.36119925  1
  N  N4  1  0.54023686  0.84623217  0.00543733  1
  N  N5  1  0.04023686  0.15376783  0.49456267  1
  N  N6  1  0.45976314  0.34623217  0.99456267  1
  N  N7  1  0.95976314  0.65376783  0.50543733  1
  N  N8  1  0.45976314  0.15376783  0.99456267  1
  N  N9  1  0.95976314  0.84623217  0.50543733  1
  N  N10  1  0.54023686  0.65376783  0.00543733  1
  N  N11  1  0.04023686  0.34623217  0.49456267  1
  P  P12  1  0.57981603  0.75000000  0.05575253  1
  P  P13  1  0.07981603  0.25000000  0.44424747  1
  P  P14  1  0.42018397  0.25000000  0.94424747  1
  P  P15  1  0.92018397  0.75000000  0.55575253  1
  P  P16  1  0.44313107  0.84724284  0.91067593  1
  P  P17  1  0.94313107  0.15275716  0.58932407  1
  P  P18  1  0.55686893  0.34724284  0.08932407  1
  P  P19  1  0.05686893  0.65275716  0.41067593  1
  P  P20  1  0.55686893  0.15275716  0.08932407  1
  P  P21  1  0.05686893  0.84724284  0.41067593  1
  P  P22  1  0.44313107  0.65275716  0.91067593  1
  P  P23  1  0.94313107  0.34724284  0.58932407  1
  Br  Br24  1  0.41672926  0.75000000  0.17988739  1
  Br  Br25  1  0.91672926  0.25000000  0.32011261  1
  Br  Br26  1  0.58327074  0.25000000  0.82011261  1
  Br  Br27  1  0.08327074  0.75000000  0.67988739  1
  Br  Br28  1  0.87630320  0.75000000  0.10193700  1
  Br  Br29  1  0.37630320  0.25000000  0.39806300  1
  Br  Br30  1  0.12369680  0.25000000  0.89806300  1
  Br  Br31  1  0.62369680  0.75000000  0.60193700  1
  Br  Br32  1  0.16814544  0.92226623  0.91864778  1
  Br  Br33  1  0.66814544  0.07773377  0.58135222  1
  Br  Br34  1  0.83185456  0.42226623  0.08135222  1
  Br  Br35  1  0.33185456  0.57773377  0.41864778  1
  Br  Br36  1  0.83185456  0.07773377  0.08135222  1
  Br  Br37  1  0.33185456  0.92226623  0.41864778  1
  Br  Br38  1  0.16814544  0.57773377  0.91864778  1
  Br  Br39  1  0.66814544  0.42226623  0.58135222  1
  Br  Br40  1  0.61114923  0.93839155  0.82403175  1
  Br  Br41  1  0.11114923  0.06160845  0.67596825  1
  Br  Br42  1  0.38885077  0.43839155  0.17596825  1
  Br  Br43  1  0.88885077  0.56160845  0.32403175  1
  Br  Br44  1  0.38885077  0.06160845  0.17596825  1
  Br  Br45  1  0.88885077  0.93839155  0.32403175  1
  Br  Br46  1  0.61114923  0.56160845  0.82403175  1
  Br  Br47  1  0.11114923  0.43839155  0.67596825  1
