# generated using pymatgen
data_Na2CaH10C2O11
_symmetry_space_group_name_H-M   'P 1'
_cell_length_a   7.71157886
_cell_length_b   8.25928828
_cell_length_c   9.75741483
_cell_angle_alpha   77.08103075
_cell_angle_beta   66.72373106
_cell_angle_gamma   62.17044846
_symmetry_Int_Tables_number   1
_chemical_formula_structural   Na2CaH10C2O11
_chemical_formula_sum   'Na4 Ca2 H20 C4 O22'
_cell_volume   504.27554375
_cell_formula_units_Z   2
loop_
 _symmetry_equiv_pos_site_id
 _symmetry_equiv_pos_as_xyz
  1  'x, y, z'
loop_
 _atom_site_type_symbol
 _atom_site_label
 _atom_site_symmetry_multiplicity
 _atom_site_fract_x
 _atom_site_fract_y
 _atom_site_fract_z
 _atom_site_occupancy
  H  H0  1  0.23911889  0.60246686  0.75071225  1
  H  H1  1  0.59229800  0.89753314  0.74928775  1
  H  H2  1  0.76088111  0.39753314  0.24928775  1
  H  H3  1  0.40770200  0.10246686  0.25071225  1
  H  H4  1  0.21992628  0.51287537  0.91810564  1
  H  H5  1  0.65090729  0.98712463  0.58189436  1
  H  H6  1  0.27449371  0.18490055  0.04735813  1
  H  H7  1  0.50675240  0.31509945  0.45264187  1
  H  H8  1  0.72550629  0.81509945  0.95264187  1
  H  H9  1  0.49324760  0.68490055  0.54735813  1
  H  H10  1  0.08684352  0.13327570  0.07401977  1
  H  H11  1  0.34909271  0.01287537  0.41810564  1
  H  H12  1  0.91315648  0.86672430  0.92598023  1
  H  H13  1  0.70586101  0.63327570  0.57401977  1
  H  H14  1  0.52882792  0.35124363  0.77017552  1
  H  H15  1  0.65024708  0.14875637  0.72982448  1
  H  H16  1  0.47117208  0.64875637  0.22982448  1
  H  H17  1  0.34975292  0.85124363  0.27017552  1
  H  H18  1  0.78007372  0.48712463  0.08189436  1
  H  H19  1  0.29413899  0.36672430  0.42598023  1
  C  C20  1  0.78738079  0.56101553  0.81654626  1
  C  C21  1  0.83505742  0.06101553  0.31654626  1
  C  C22  1  0.16494258  0.93898447  0.68345374  1
  C  C23  1  0.21261921  0.43898447  0.18345374  1
  O  O24  1  0.89118924  0.53625928  0.67488539  1
  O  O25  1  0.77982206  0.86753474  1.00006257  1
  O  O26  1  0.35258063  0.36753474  0.50006257  1
  O  O27  1  0.22017794  0.13246526  -0.00006257  1
  O  O28  1  0.44293872  0.98252487  0.31181699  1
  O  O29  1  0.73728058  0.51747513  0.18818301  1
  O  O30  1  0.55706128  0.01747513  0.68818301  1
  O  O31  1  0.26271942  0.48252487  0.81181699  1
  O  O32  1  0.64741937  0.63246526  0.49993743  1
  O  O33  1  0.10233391  0.96374072  0.82511461  1
  O  O34  1  0.10881076  0.46374072  0.32511461  1
  O  O35  1  0.89766609  0.03625928  0.17488539  1
  O  O36  1  0.63598614  0.71791491  0.86434845  1
  O  O37  1  0.21824951  0.78208509  0.63565155  1
  O  O38  1  0.36401386  0.28208509  0.13565155  1
  O  O39  1  0.78175049  0.21791491  0.36434845  1
  O  O40  1  0.17786946  0.07548784  0.58849110  1
  O  O41  1  0.67191837  0.25000000  0.75000000  1
  O  O42  1  0.15815160  0.57548784  0.08849110  1
  O  O43  1  0.84184840  0.42451216  0.91150890  1
  O  O44  1  0.32808163  0.75000000  0.25000000  1
  O  O45  1  0.82213054  0.92451216  0.41150890  1
  Na  Na46  1  0.10251910  0.68971811  0.48631429  1
  Na  Na47  1  0.27855150  0.81028189  0.01368571  1
  Na  Na48  1  0.89748090  0.31028189  0.51368571  1
  Na  Na49  1  0.72144850  0.18971811  0.98631429  1
  Ca  Ca50  1  0.19312151  0.25000000  0.75000000  1
  Ca  Ca51  1  0.80687849  0.75000000  0.25000000  1
