# generated using pymatgen
data_Sr3Al2(HO)12
_symmetry_space_group_name_H-M   'P 1'
_cell_length_a   11.43461222
_cell_length_b   11.43461222
_cell_length_c   11.43461222
_cell_angle_alpha   109.47122066
_cell_angle_beta   109.47122065
_cell_angle_gamma   109.47122061
_symmetry_Int_Tables_number   1
_chemical_formula_structural   Sr3Al2(HO)12
_chemical_formula_sum   'Sr12 Al8 H48 O48'
_cell_volume   1150.91283238
_cell_formula_units_Z   4
loop_
 _symmetry_equiv_pos_site_id
 _symmetry_equiv_pos_as_xyz
  1  'x, y, z'
loop_
 _atom_site_type_symbol
 _atom_site_label
 _atom_site_symmetry_multiplicity
 _atom_site_fract_x
 _atom_site_fract_y
 _atom_site_fract_z
 _atom_site_occupancy
  H  H0  1  0.11202222  0.55279874  0.36128493  1
  H  H1  1  0.94720126  0.05922348  0.80848619  1
  H  H2  1  0.13871507  0.69151381  0.75073729  1
  H  H3  1  0.38797778  0.74926271  0.44077652  1
  H  H4  1  0.38797778  0.13871507  0.94720126  1
  H  H5  1  0.74926271  0.44077652  0.38797778  1
  H  H6  1  0.69151381  0.44077652  0.55279874  1
  H  H7  1  0.44077652  0.38797778  0.74926271  1
  H  H8  1  0.80848619  0.36128493  0.74926271  1
  H  H9  1  0.05922348  0.75073729  0.11202222  1
  H  H10  1  0.75073729  0.11202222  0.05922348  1
  H  H11  1  0.94720126  0.38797778  0.13871507  1
  H  H12  1  0.44077652  0.55279874  0.69151381  1
  H  H13  1  0.74926271  0.80848619  0.36128493  1
  H  H14  1  0.13871507  0.94720126  0.38797778  1
  H  H15  1  0.55279874  0.69151381  0.44077652  1
  H  H16  1  0.36128493  0.74926271  0.80848619  1
  H  H17  1  0.80848619  0.94720126  0.05922348  1
  H  H18  1  0.69151381  0.75073729  0.13871507  1
  H  H19  1  0.75073729  0.13871507  0.69151381  1
  H  H20  1  0.05922348  0.80848619  0.94720126  1
  H  H21  1  0.11202222  0.05922348  0.75073729  1
  H  H22  1  0.88797778  0.44720126  0.63871507  1
  H  H23  1  0.05279874  0.94077652  0.19151381  1
  H  H24  1  0.86128493  0.30848619  0.24926271  1
  H  H25  1  0.61202222  0.25073729  0.55922348  1
  H  H26  1  0.61202222  0.86128493  0.05279874  1
  H  H27  1  0.25073729  0.55922348  0.61202222  1
  H  H28  1  0.30848619  0.55922348  0.44720126  1
  H  H29  1  0.55922348  0.61202222  0.25073729  1
  H  H30  1  0.19151381  0.63871507  0.25073729  1
  H  H31  1  0.94077652  0.24926271  0.88797778  1
  H  H32  1  0.24926271  0.88797778  0.94077652  1
  H  H33  1  0.05279874  0.61202222  0.86128493  1
  H  H34  1  0.55922348  0.44720126  0.30848619  1
  H  H35  1  0.25073729  0.19151381  0.63871507  1
  H  H36  1  0.86128493  0.05279874  0.61202222  1
  H  H37  1  0.44720126  0.30848619  0.55922348  1
  H  H38  1  0.63871507  0.25073729  0.19151381  1
  H  H39  1  0.19151381  0.05279874  0.94077652  1
  H  H40  1  0.30848619  0.24926271  0.86128493  1
  H  H41  1  0.24926271  0.86128493  0.30848619  1
  H  H42  1  0.44720126  0.63871507  0.88797778  1
  H  H43  1  0.63871507  0.88797778  0.44720126  1
  H  H44  1  0.94077652  0.19151381  0.05279874  1
  H  H45  1  0.88797778  0.94077652  0.24926271  1
  H  H46  1  0.55279874  0.36128493  0.11202222  1
  H  H47  1  0.36128493  0.11202222  0.55279874  1
  O  O48  1  0.92404652  0.10798668  0.58746987  1
  O  O49  1  0.58746987  0.92404652  0.10798668  1
  O  O50  1  0.91253013  0.02051681  0.33657665  1
  O  O51  1  0.39201332  0.57595348  0.91253013  1
  O  O52  1  0.47948319  0.58746987  0.16342335  1
  O  O53  1  0.10798668  0.02051681  0.18394016  1
  O  O54  1  0.57595348  0.91253013  0.39201332  1
  O  O55  1  0.16342335  0.47948319  0.58746987  1
  O  O56  1  0.02051681  0.18394016  0.10798668  1
  O  O57  1  0.92404652  0.31605984  0.33657665  1
  O  O58  1  0.39201332  0.31605984  0.47948319  1
  O  O59  1  0.91253013  0.39201332  0.57595348  1
  O  O60  1  0.16342335  0.18394016  0.57595348  1
  O  O61  1  0.58746987  0.16342335  0.47948319  1
  O  O62  1  0.57595348  0.16342335  0.18394016  1
  O  O63  1  0.18394016  0.10798668  0.02051681  1
  O  O64  1  0.18394016  0.57595348  0.16342335  1
  O  O65  1  0.10798668  0.58746987  0.92404652  1
  O  O66  1  0.02051681  0.33657665  0.91253013  1
  O  O67  1  0.31605984  0.47948319  0.39201332  1
  O  O68  1  0.33657665  0.91253013  0.02051681  1
  O  O69  1  0.31605984  0.33657665  0.92404652  1
  O  O70  1  0.68394016  0.52051681  0.60798668  1
  O  O71  1  0.97948319  0.66342335  0.08746987  1
  O  O72  1  0.89201332  0.41253013  0.07595348  1
  O  O73  1  0.81605984  0.42404652  0.83657665  1
  O  O74  1  0.81605984  0.89201332  0.97948319  1
  O  O75  1  0.42404652  0.83657665  0.81605984  1
  O  O76  1  0.41253013  0.83657665  0.52051681  1
  O  O77  1  0.83657665  0.81605984  0.42404652  1
  O  O78  1  0.08746987  0.60798668  0.42404652  1
  O  O79  1  0.66342335  0.07595348  0.68394016  1
  O  O80  1  0.07595348  0.68394016  0.66342335  1
  O  O81  1  0.97948319  0.81605984  0.89201332  1
  O  O82  1  0.83657665  0.52051681  0.41253013  1
  O  O83  1  0.42404652  0.08746987  0.60798668  1
  O  O84  1  0.89201332  0.97948319  0.81605984  1
  O  O85  1  0.52051681  0.41253013  0.83657665  1
  O  O86  1  0.60798668  0.42404652  0.08746987  1
  O  O87  1  0.08746987  0.97948319  0.66342335  1
  O  O88  1  0.41253013  0.07595348  0.89201332  1
  O  O89  1  0.07595348  0.89201332  0.41253013  1
  O  O90  1  0.52051681  0.60798668  0.68394016  1
  O  O91  1  0.60798668  0.68394016  0.52051681  1
  O  O92  1  0.66342335  0.08746987  0.97948319  1
  O  O93  1  0.68394016  0.66342335  0.07595348  1
  O  O94  1  0.47948319  0.39201332  0.31605984  1
  O  O95  1  0.33657665  0.92404652  0.31605984  1
  Al  Al96  1  0.00000000  0.00000000  0.00000000  1
  Al  Al97  1  0.00000000  0.50000000  0.00000000  1
  Al  Al98  1  0.00000000  0.00000000  0.50000000  1
  Al  Al99  1  0.50000000  0.00000000  0.00000000  1
  Al  Al100  1  0.00000000  0.50000000  0.50000000  1
  Al  Al101  1  0.50000000  0.00000000  0.50000000  1
  Al  Al102  1  0.50000000  0.50000000  0.00000000  1
  Al  Al103  1  0.50000000  0.50000000  0.50000000  1
  Sr  Sr104  1  0.37500000  0.75000000  0.12500000  1
  Sr  Sr105  1  0.12500000  0.25000000  0.37500000  1
  Sr  Sr106  1  0.37500000  0.12500000  0.25000000  1
  Sr  Sr107  1  0.25000000  0.37500000  0.12500000  1
  Sr  Sr108  1  0.12500000  0.37500000  0.75000000  1
  Sr  Sr109  1  0.75000000  0.12500000  0.37500000  1
  Sr  Sr110  1  0.75000000  0.62500000  0.87500000  1
  Sr  Sr111  1  0.62500000  0.25000000  0.87500000  1
  Sr  Sr112  1  0.87500000  0.75000000  0.62500000  1
  Sr  Sr113  1  0.62500000  0.87500000  0.75000000  1
  Sr  Sr114  1  0.87500000  0.62500000  0.25000000  1
  Sr  Sr115  1  0.25000000  0.87500000  0.62500000  1
