# generated using pymatgen
data_Li9Mn2Co5O16
_symmetry_space_group_name_H-M   'P 1'
_cell_length_a   2.88914354
_cell_length_b   17.02370371
_cell_length_c   5.88519416
_cell_angle_alpha   89.69463663
_cell_angle_beta   90.00000000
_cell_angle_gamma   90.00000000
_symmetry_Int_Tables_number   1
_chemical_formula_structural   Li9Mn2Co5O16
_chemical_formula_sum   'Li9 Mn2 Co5 O16'
_cell_volume   289.45282886
_cell_formula_units_Z   1
loop_
 _symmetry_equiv_pos_site_id
 _symmetry_equiv_pos_as_xyz
  1  'x, y, z'
loop_
 _atom_site_type_symbol
 _atom_site_label
 _atom_site_symmetry_multiplicity
 _atom_site_fract_x
 _atom_site_fract_y
 _atom_site_fract_z
 _atom_site_occupancy
  Li  Li0  1  0.50000000  0.12256929  0.25559812  1
  Li  Li1  1  0.50000000  0.37829893  0.74688318  1
  Li  Li2  1  0.50000000  0.63632382  0.25418774  1
  Li  Li3  1  -0.00000000  0.24868638  0.99407132  1
  Li  Li4  1  -0.00000000  0.50820108  0.50149362  1
  Li  Li5  1  -0.00000000  0.74623400  0.99982994  1
  Li  Li6  1  0.50000000  0.86536817  0.74531790  1
  Li  Li7  1  -0.00000000  0.99404257  0.49952242  1
  Li  Li8  1  0.00000000  0.74975458  0.50023256  1
  Mn  Mn9  1  -0.00000000  0.99778352  0.00433598  1
  Mn  Mn10  1  0.50000000  0.37648251  0.24986602  1
  Co  Co11  1  -0.00000000  0.24853046  0.50467135  1
  Co  Co12  1  -0.00000000  0.50594998  -0.01234247  1
  Co  Co13  1  0.50000000  0.64050770  0.73824204  1
  Co  Co14  1  0.50000000  0.86059138  0.26237030  1
  Co  Co15  1  0.50000000  0.12351141  0.74520985  1
  O  O16  1  0.50000000  0.00239173  0.22469558  1
  O  O17  1  0.50000000  0.24947015  0.73494791  1
  O  O18  1  0.50000000  0.48970721  0.23264611  1
  O  O19  1  0.00000000  0.11622762  0.98111416  1
  O  O20  1  -0.00000000  0.37698334  0.47178524  1
  O  O21  1  -0.00000000  0.62149564  0.98357950  1
  O  O22  1  0.50000000  0.74508155  0.75297131  1
  O  O23  1  -0.00000000  0.87702164  0.48034106  1
  O  O24  1  0.50000000  0.25897127  0.26932401  1
  O  O25  1  0.50000000  0.49763975  0.77177151  1
  O  O26  1  0.50000000  0.75648021  0.24467451  1
  O  O27  1  0.00000000  0.37390253  0.02729909  1
  O  O28  1  0.00000000  0.62470133  0.51656866  1
  O  O29  1  -0.00000000  0.88542382  0.02367716  1
  O  O30  1  0.50000000  0.99697499  0.77991276  1
  O  O31  1  0.00000000  0.12469146  0.51520157  1
