# generated using pymatgen
data_Ca3MnNiO6
_symmetry_space_group_name_H-M   'P 1'
_cell_length_a   6.39831376
_cell_length_b   6.39831397
_cell_length_c   6.39831412
_cell_angle_alpha   92.19743219
_cell_angle_beta   92.19742934
_cell_angle_gamma   92.19742769
_symmetry_Int_Tables_number   1
_chemical_formula_structural   Ca3MnNiO6
_chemical_formula_sum   'Ca6 Mn2 Ni2 O12'
_cell_volume   261.34379222
_cell_formula_units_Z   2
loop_
 _symmetry_equiv_pos_site_id
 _symmetry_equiv_pos_as_xyz
  1  'x, y, z'
loop_
 _atom_site_type_symbol
 _atom_site_label
 _atom_site_symmetry_multiplicity
 _atom_site_fract_x
 _atom_site_fract_y
 _atom_site_fract_z
 _atom_site_occupancy
  Ca  Ca0  1  0.61083701  0.88916399  0.25000000  1
  Ca  Ca1  1  0.11083701  0.75000000  0.38916399  1
  Ca  Ca2  1  0.75000000  0.38916299  0.11083701  1
  Ca  Ca3  1  0.38916399  0.11083601  0.75000000  1
  Ca  Ca4  1  0.88916299  0.25000000  0.61083601  1
  Ca  Ca5  1  0.25000000  0.61083701  0.88916299  1
  Mn  Mn6  1  0.49999900  0.49999900  0.49999900  1
  Mn  Mn7  1  0.00000000  0.00000000  0.00000000  1
  Ni  Ni8  1  0.75000000  0.75000000  0.75000000  1
  Ni  Ni9  1  0.25000000  0.25000000  0.25000000  1
  O  O10  1  0.21045915  0.42120839  0.54170081  1
  O  O11  1  0.78954185  0.57879061  0.45829919  1
  O  O12  1  0.57879161  0.45830019  0.78954185  1
  O  O13  1  0.45830019  0.78954185  0.57879161  1
  O  O14  1  0.04170081  0.92120939  0.71045815  1
  O  O15  1  0.92120839  0.71045815  0.04169981  1
  O  O16  1  0.28954185  0.95830019  0.07879061  1
  O  O17  1  0.07879161  0.28954185  0.95830019  1
  O  O18  1  0.95830019  0.07879061  0.28954185  1
  O  O19  1  0.54169981  0.21045915  0.42120839  1
  O  O20  1  0.42120839  0.54169981  0.21045815  1
  O  O21  1  0.71045815  0.04169981  0.92120939  1
