# generated using pymatgen
data_Co3AgP3(HO6)2
_symmetry_space_group_name_H-M   'P 1'
_cell_length_a   6.59595282
_cell_length_b   8.60921569
_cell_length_c   8.60921569
_cell_angle_alpha   90.68379740
_cell_angle_beta   106.80808256
_cell_angle_gamma   106.80808252
_symmetry_Int_Tables_number   1
_chemical_formula_structural   Co3AgP3(HO6)2
_chemical_formula_sum   'Co6 Ag2 P6 H4 O24'
_cell_volume   445.56153905
_cell_formula_units_Z   2
loop_
 _symmetry_equiv_pos_site_id
 _symmetry_equiv_pos_as_xyz
  1  'x, y, z'
loop_
 _atom_site_type_symbol
 _atom_site_label
 _atom_site_symmetry_multiplicity
 _atom_site_fract_x
 _atom_site_fract_y
 _atom_site_fract_z
 _atom_site_occupancy
  H  H0  1  0.31170783  0.11063985  0.12431244  1
  H  H1  1  0.18829112  0.87568727  0.88936050  1
  H  H2  1  0.68829238  0.88935999  0.87568780  1
  H  H3  1  0.81170750  0.12431257  0.11063939  1
  O  O4  1  0.30370749  0.53553900  0.89974243  1
  O  O5  1  0.15537475  0.76731612  0.95214211  1
  O  O6  1  0.65537477  0.95214277  0.76731614  1
  O  O7  1  0.84462546  0.23268372  0.04785814  1
  O  O8  1  0.39570236  0.33733833  0.33900519  1
  O  O9  1  0.10429720  0.66099365  0.66266234  1
  O  O10  1  0.60429627  0.66266151  0.66099354  1
  O  O11  1  0.89570302  0.33900619  0.33733790  1
  O  O12  1  0.19629260  0.10025779  0.46446117  1
  O  O13  1  0.34462594  0.04785829  0.23268423  1
  O  O14  1  0.72904812  0.78601434  0.99824597  1
  O  O15  1  0.77095169  0.00175391  0.21398578  1
  O  O16  1  0.27095209  0.21398550  0.00175428  1
  O  O17  1  0.22904852  0.99824593  0.78601447  1
  O  O18  1  0.53820219  0.71027262  0.22025124  1
  O  O19  1  0.96179809  0.77974925  0.28972773  1
  O  O20  1  0.46179802  0.28972722  0.77974900  1
  O  O21  1  0.80370761  0.89974205  0.53553907  1
  O  O22  1  0.88606698  0.48349757  0.82995912  1
  O  O23  1  0.61393325  0.17004109  0.51650217  1
  O  O24  1  0.11393323  0.51650227  0.17004112  1
  O  O25  1  0.38606696  0.82995875  0.48349807  1
  O  O26  1  0.69629114  0.46446084  0.10025747  1
  O  O27  1  0.03820104  0.22025181  0.71027230  1
  P  P28  1  0.24999924  0.18094386  0.81905509  1
  P  P29  1  0.74999939  0.81905598  0.18094481  1
  P  P30  1  0.38933673  0.16559036  0.39316945  1
  P  P31  1  0.11066238  0.60682980  0.83440922  1
  P  P32  1  0.61066348  0.83440948  0.60683080  1
  P  P33  1  0.88933783  0.39317004  0.16559103  1
  Co  Co34  1  0.24999932  0.77853854  0.22146125  1
  Co  Co35  1  0.61981241  0.54890259  0.87161656  1
  Co  Co36  1  0.11981262  0.87161681  0.54890327  1
  Co  Co37  1  0.38018780  0.45109725  0.12838368  1
  Co  Co38  1  0.88018759  0.12838303  0.45109698  1
  Co  Co39  1  0.75000089  0.22146130  0.77853900  1
  Ag  Ag40  1  0.24999988  0.45968425  0.54031675  1
  Ag  Ag41  1  0.75000083  0.54031681  0.45968362  1
