# generated using pymatgen
data_Nb2(PO4)3
_symmetry_space_group_name_H-M   'P 1'
_cell_length_a   8.88587578
_cell_length_b   8.91578292
_cell_length_c   12.41534831
_cell_angle_alpha   90.00000000
_cell_angle_beta   90.16386484
_cell_angle_gamma   90.00000000
_symmetry_Int_Tables_number   1
_chemical_formula_structural   Nb2(PO4)3
_chemical_formula_sum   'Nb8 P12 O48'
_cell_volume   983.59622979
_cell_formula_units_Z   4
loop_
 _symmetry_equiv_pos_site_id
 _symmetry_equiv_pos_as_xyz
  1  'x, y, z'
loop_
 _atom_site_type_symbol
 _atom_site_label
 _atom_site_symmetry_multiplicity
 _atom_site_fract_x
 _atom_site_fract_y
 _atom_site_fract_z
 _atom_site_occupancy
  O  O0  1  0.87377495  0.85676942  0.43306131  1
  O  O1  1  0.93702197  0.40687724  0.14191539  1
  O  O2  1  0.93389259  0.34571230  0.57415586  1
  O  O3  1  0.93062489  0.16430829  0.41739402  1
  O  O4  1  0.93661264  0.08584003  0.84955701  1
  O  O5  1  0.86062908  0.72016600  0.16336102  1
  O  O6  1  0.86033918  0.65048719  0.56731914  1
  O  O7  1  0.83167456  0.93619918  0.03331084  1
  O  O8  1  0.06297803  0.59312276  0.85808461  1
  O  O9  1  0.06610741  0.65428770  0.42584414  1
  O  O10  1  0.06937511  0.83569171  0.58260598  1
  O  O11  1  0.06338736  0.91415997  0.15044299  1
  O  O12  1  0.12622505  0.14323058  0.56693869  1
  O  O13  1  0.13937092  0.27983400  0.83663898  1
  O  O14  1  0.13966082  0.34951281  0.43268086  1
  O  O15  1  0.16832544  0.06380082  0.96668916  1
  O  O16  1  0.17372248  0.49324531  0.23313717  1
  O  O17  1  0.43661264  0.41415997  0.34955701  1
  O  O18  1  0.17769346  0.43998790  0.03570520  1
  O  O19  1  0.18475883  0.01470375  0.76870372  1
  O  O20  1  0.31524117  0.51470375  0.73129628  1
  O  O21  1  0.32230654  0.93998790  0.46429480  1
  O  O22  1  0.35044190  0.72542156  0.33399522  1
  O  O23  1  0.32627752  -0.00675469  0.26686283  1
  O  O24  1  0.33167456  0.56380082  0.53331084  1
  O  O25  1  0.36033918  0.84951281  0.06731914  1
  O  O26  1  0.36062908  0.77983400  0.66336102  1
  O  O27  1  0.37377495  0.64323058  0.93306131  1
  O  O28  1  0.43062489  0.33569171  0.91739402  1
  O  O29  1  0.82627752  0.50675469  0.76686283  1
  O  O30  1  0.43702197  0.09312276  0.64191539  1
  O  O31  1  0.43389259  0.15428770  0.07415586  1
  O  O32  1  0.56610741  0.84571230  0.92584414  1
  O  O33  1  0.56297803  0.90687724  0.35808461  1
  O  O34  1  0.56338736  0.58584003  0.65044299  1
  O  O35  1  0.56937511  0.66430829  0.08260598  1
  O  O36  1  0.62622505  0.35676942  0.06693869  1
  O  O37  1  0.63937092  0.22016600  0.33663898  1
  O  O38  1  0.63966082  0.15048719  0.93268086  1
  O  O39  1  0.66832544  0.43619918  0.46668916  1
  O  O40  1  0.67372248  1.00675469  0.73313717  1
  O  O41  1  0.64955810  0.27457844  0.66600478  1
  O  O42  1  0.67769346  0.06001210  0.53570520  1
  O  O43  1  0.68475883  0.48529625  0.26870372  1
  O  O44  1  0.81524117  0.98529625  0.23129628  1
  O  O45  1  0.82230654  0.56001210  0.96429480  1
  O  O46  1  0.85044190  0.77457844  0.83399522  1
  O  O47  1  0.14955810  0.22542156  0.16600478  1
  P  P48  1  0.39220980  0.61151968  0.64410599  1
  P  P49  1  0.46897127  0.75052318  0.00242828  1
  P  P50  1  0.53102873  0.24947682  0.99757172  1
  P  P51  1  0.39046992  0.89100623  0.35639966  1
  P  P52  1  0.60779020  0.38848032  0.35589401  1
  P  P53  1  0.60953008  0.10899377  0.64360034  1
  P  P54  1  0.89046992  0.60899377  0.85639966  1
  P  P55  1  0.89220980  0.88848032  0.14410599  1
  P  P56  1  0.03102873  0.25052318  0.49757172  1
  P  P57  1  0.10779020  0.11151968  0.85589401  1
  P  P58  1  0.96897127  0.74947682  0.50242828  1
  P  P59  1  0.10953008  0.39100623  0.14360034  1
  Nb  Nb60  1  0.74949204  0.53161656  0.11731813  1
  Nb  Nb61  1  0.75074894  0.46660916  0.61747197  1
  Nb  Nb62  1  0.75050796  0.03161656  0.38268187  1
  Nb  Nb63  1  0.74925106  0.96660916  0.88252803  1
  Nb  Nb64  1  0.25074894  0.03339084  0.11747197  1
  Nb  Nb65  1  0.24949204  0.96838344  0.61731813  1
  Nb  Nb66  1  0.24925106  0.53339084  0.38252803  1
  Nb  Nb67  1  0.25050796  0.46838344  0.88268187  1
