# generated using pymatgen
data_Lu2V2O7
_symmetry_space_group_name_H-M   'P 1'
_cell_length_a   7.06301940
_cell_length_b   7.06301940
_cell_length_c   7.06301940
_cell_angle_alpha   60.00000000
_cell_angle_beta   60.00000001
_cell_angle_gamma   59.99999997
_symmetry_Int_Tables_number   1
_chemical_formula_structural   Lu2V2O7
_chemical_formula_sum   'Lu4 V4 O14'
_cell_volume   249.14730833
_cell_formula_units_Z   2
loop_
 _symmetry_equiv_pos_site_id
 _symmetry_equiv_pos_as_xyz
  1  'x, y, z'
loop_
 _atom_site_type_symbol
 _atom_site_label
 _atom_site_symmetry_multiplicity
 _atom_site_fract_x
 _atom_site_fract_y
 _atom_site_fract_z
 _atom_site_occupancy
  O  O0  1  0.87500018  0.87500084  0.87499911  1
  O  O1  1  0.12500051  0.12499937  0.12499939  1
  O  O2  1  0.83465838  0.83465777  0.41534145  1
  O  O3  1  0.58465794  0.58465728  0.16534182  1
  O  O4  1  0.41534254  0.83465777  0.83465696  1
  O  O5  1  0.83465695  0.41534294  0.83465718  1
  O  O6  1  0.41534254  0.83465777  0.41534178  1
  O  O7  1  0.83465695  0.41534294  0.41534199  1
  O  O8  1  0.41534276  0.41534294  0.83465668  1
  O  O9  1  0.58465815  0.16534245  0.16534154  1
  O  O10  1  0.16534210  0.58465728  0.58465733  1
  O  O11  1  0.16534232  0.16534245  0.58465705  1
  O  O12  1  0.16534210  0.58465728  0.16534215  1
  O  O13  1  0.58465815  0.16534245  0.58465673  1
  V  V14  1  0.49999926  0.00000000  0.49999980  1
  V  V15  1  0.00000056  0.49999924  0.49999954  1
  V  V16  1  0.49999982  0.49999924  0.00000057  1
  V  V17  1  0.49999982  0.49999924  0.50000066  1
  Lu  Lu18  1  0.00000056  0.49999924  0.99999944  1
  Lu  Lu19  1  0.49999926  0.00000000  0.99999971  1
  Lu  Lu20  1  0.00000000  0.00000000  0.50000009  1
  Lu  Lu21  1  0.00000000  0.00000000  0.00000000  1
