# generated using pymatgen
data_CaH8(ClO2)2
_symmetry_space_group_name_H-M   'P 1'
_cell_length_a   6.08954075
_cell_length_b   7.79408718
_cell_length_c   8.93743123
_cell_angle_alpha   90.00000000
_cell_angle_beta   109.90552398
_cell_angle_gamma   90.00000000
_symmetry_Int_Tables_number   1
_chemical_formula_structural   CaH8(ClO2)2
_chemical_formula_sum   'Ca2 H16 Cl4 O8'
_cell_volume   398.84881545
_cell_formula_units_Z   2
loop_
 _symmetry_equiv_pos_site_id
 _symmetry_equiv_pos_as_xyz
  1  'x, y, z'
loop_
 _atom_site_type_symbol
 _atom_site_label
 _atom_site_symmetry_multiplicity
 _atom_site_fract_x
 _atom_site_fract_y
 _atom_site_fract_z
 _atom_site_occupancy
  H  H0  1  0.08492723  0.43990422  0.19461171  1
  H  H1  1  0.41507277  0.93990422  0.30538829  1
  H  H2  1  0.91507277  0.56009578  0.80538829  1
  H  H3  1  0.58492723  0.06009578  0.69461171  1
  H  H4  1  0.24411602  0.57158093  0.14789168  1
  H  H5  1  0.25588398  0.07158093  0.35210832  1
  H  H6  1  0.75588398  0.42841907  0.85210832  1
  H  H7  1  0.74411602  0.92841907  0.64789168  1
  H  H8  1  0.88844539  0.27162283  0.46953517  1
  H  H9  1  0.61155461  0.77162283  0.03046483  1
  H  H10  1  0.11155461  0.72837717  0.53046483  1
  H  H11  1  0.38844539  0.22837717  0.96953517  1
  H  H12  1  0.78531428  0.79841009  0.20298901  1
  H  H13  1  0.71468572  0.29841009  0.29701099  1
  H  H14  1  0.28531428  0.70158991  0.70298901  1
  H  H15  1  0.21468572  0.20158991  0.79701099  1
  O  O16  1  0.23188959  0.50481371  0.23866018  1
  O  O17  1  0.26811041  0.00481371  0.26133982  1
  O  O18  1  0.76811041  0.49518629  0.76133982  1
  O  O19  1  0.73188959  0.99518629  0.73866018  1
  O  O20  1  0.72772258  0.30875255  0.40971599  1
  O  O21  1  0.77227742  0.80875255  0.09028401  1
  O  O22  1  0.27227742  0.69124745  0.59028401  1
  O  O23  1  0.22772258  0.19124745  0.90971599  1
  Cl  Cl24  1  0.73231637  0.78396429  0.43397112  1
  Cl  Cl25  1  0.76768363  0.28396429  0.06602888  1
  Cl  Cl26  1  0.26768363  0.21603571  0.56602888  1
  Cl  Cl27  1  0.23231637  0.71603571  0.93397112  1
  Ca  Ca28  1  0.50000000  0.50000000  0.50000000  1
  Ca  Ca29  1  0.00000000  0.00000000  0.00000000  1
