# generated using pymatgen
data_NaAlBP2H3O10
_symmetry_space_group_name_H-M   'P 1'
_cell_length_a   6.65089480
_cell_length_b   6.65089480
_cell_length_c   9.14245610
_cell_angle_alpha   99.71398168
_cell_angle_beta   111.60369459
_cell_angle_gamma   105.18558908
_symmetry_Int_Tables_number   1
_chemical_formula_structural   NaAlBP2H3O10
_chemical_formula_sum   'Na2 Al2 B2 P4 H6 O20'
_cell_volume   346.66504589
_cell_formula_units_Z   2
loop_
 _symmetry_equiv_pos_site_id
 _symmetry_equiv_pos_as_xyz
  1  'x, y, z'
loop_
 _atom_site_type_symbol
 _atom_site_label
 _atom_site_symmetry_multiplicity
 _atom_site_fract_x
 _atom_site_fract_y
 _atom_site_fract_z
 _atom_site_occupancy
  H  H0  1  0.50000000  0.00000000  0.00000000  1
  H  H1  1  0.50000000  0.50000000  0.50000000  1
  H  H2  1  0.11913836  0.67987287  0.43296056  1
  H  H3  1  0.74691231  0.68617780  0.06703944  1
  H  H4  1  0.25308769  0.31382220  0.93296056  1
  H  H5  1  0.88086164  0.32012713  0.56703944  1
  B  B6  1  0.78374426  0.53374426  0.25000000  1
  B  B7  1  0.21625574  0.46625574  0.75000000  1
  O  O8  1  0.32053481  0.03611114  0.95527937  1
  O  O9  1  0.58083177  0.36525544  0.54472063  1
  O  O10  1  0.19727630  0.43047558  0.90129476  1
  O  O11  1  0.02918082  0.29598154  0.59870524  1
  O  O12  1  0.80272370  0.56952442  0.09870524  1
  O  O13  1  0.97081918  0.70401846  0.40129476  1
  O  O14  1  0.55851557  0.52969577  0.24265294  1
  O  O15  1  0.78704283  0.31586263  0.25734706  1
  O  O16  1  0.44148443  0.47030423  0.75734706  1
  O  O17  1  0.21295717  0.68413737  0.74265294  1
  O  O18  1  0.26829268  0.72193834  0.18444842  1
  O  O19  1  0.03748991  0.08384426  0.31555158  1
  O  O20  1  0.73170732  0.27806166  0.81555158  1
  O  O21  1  0.96251009  0.91615574  0.68444842  1
  O  O22  1  0.67813885  0.93059893  0.39150333  1
  O  O23  1  0.03909560  0.28663552  0.10849667  1
  O  O24  1  0.32186115  0.06940107  0.60849667  1
  O  O25  1  0.96090440  0.71336448  0.89150333  1
  O  O26  1  0.41916823  0.63474456  0.45527937  1
  O  O27  1  0.67946519  0.96388886  0.04472063  1
  Na  Na28  1  0.38011748  0.13011748  0.25000000  1
  Na  Na29  1  0.61988252  0.86988252  0.75000000  1
  Al  Al30  1  0.00000000  0.50000000  0.00000000  1
  Al  Al31  1  0.00000000  0.00000000  0.50000000  1
  P  P32  1  0.48032704  0.70807873  0.31887049  1
  P  P33  1  0.88920824  0.16145655  0.18112951  1
  P  P34  1  0.51967296  0.29192127  0.68112951  1
  P  P35  1  0.11079176  0.83854345  0.81887049  1
