# generated using pymatgen
data_Rb4In2S5
_symmetry_space_group_name_H-M   'P 1'
_cell_length_a   7.76029531
_cell_length_b   9.50543579
_cell_length_c   11.02183750
_cell_angle_alpha   72.71536255
_cell_angle_beta   71.00832340
_cell_angle_gamma   85.51690978
_symmetry_Int_Tables_number   1
_chemical_formula_structural   Rb4In2S5
_chemical_formula_sum   'Rb8 In4 S10'
_cell_volume   733.89756446
_cell_formula_units_Z   2
loop_
 _symmetry_equiv_pos_site_id
 _symmetry_equiv_pos_as_xyz
  1  'x, y, z'
loop_
 _atom_site_type_symbol
 _atom_site_label
 _atom_site_symmetry_multiplicity
 _atom_site_fract_x
 _atom_site_fract_y
 _atom_site_fract_z
 _atom_site_occupancy
  S  S0  1  0.25779736  0.89343891  0.18412106  1
  S  S1  1  0.79029773  0.52317330  0.95536338  1
  S  S2  1  0.80574566  0.13664924  0.22936540  1
  S  S3  1  0.19425434  0.86335076  0.77063460  1
  S  S4  1  0.82973787  0.84383327  0.56350138  1
  S  S5  1  0.17026213  0.15616673  0.43649862  1
  S  S6  1  0.20970227  0.47682670  0.04463662  1
  S  S7  1  0.27197389  0.47901748  0.65370212  1
  S  S8  1  0.74220264  0.10656109  0.81587894  1
  S  S9  1  0.72802611  0.52098252  0.34629788  1
  Rb  Rb10  1  0.77401343  0.47119055  0.66084096  1
  Rb  Rb11  1  0.49867482  0.21005736  0.08307264  1
  Rb  Rb12  1  0.11016446  0.18297355  0.90865846  1
  Rb  Rb13  1  0.88983554  0.81702645  0.09134154  1
  Rb  Rb14  1  0.54327080  0.18868099  0.54231081  1
  Rb  Rb15  1  0.45672920  0.81131901  0.45768919  1
  Rb  Rb16  1  0.50132518  0.78994264  0.91692736  1
  Rb  Rb17  1  0.22598657  0.52880945  0.33915904  1
  In  In18  1  0.12362473  0.59043189  0.83081621  1
  In  In19  1  0.03170919  0.00100367  0.34028982  1
  In  In20  1  0.96829081  0.99899633  0.65971018  1
  In  In21  1  0.87637527  0.40956811  0.16918379  1
