# generated using pymatgen
data_Zr3GeO8
_symmetry_space_group_name_H-M   'P 1'
_cell_length_a   5.07272199
_cell_length_b   5.07273880
_cell_length_c   6.41264058
_cell_angle_alpha   113.30547684
_cell_angle_beta   113.29873397
_cell_angle_gamma   90.00000004
_symmetry_Int_Tables_number   1
_chemical_formula_structural   Zr3GeO8
_chemical_formula_sum   'Zr3 Ge1 O8'
_cell_volume   136.77590898
_cell_formula_units_Z   1
loop_
 _symmetry_equiv_pos_site_id
 _symmetry_equiv_pos_as_xyz
  1  'x, y, z'
loop_
 _atom_site_type_symbol
 _atom_site_label
 _atom_site_symmetry_multiplicity
 _atom_site_fract_x
 _atom_site_fract_y
 _atom_site_fract_z
 _atom_site_occupancy
  O  O0  1  0.87501112  0.87504848  0.17725120  1
  O  O1  1  0.69775992  0.12495152  0.82274880  1
  O  O2  1  0.12493950  0.69782613  0.82280174  1
  O  O3  1  0.30213776  0.30217387  0.17719826  1
  O  O4  1  0.53590775  0.53587597  0.68026593  1
  O  O5  1  0.85564182  0.46412403  0.31973407  1
  O  O6  1  0.46416078  0.85564420  0.31977312  1
  O  O7  1  0.14438767  0.14435580  0.68022688  1
  Ge  Ge8  1  -0.00004721  0.00000000  0.00000000  1
  Zr  Zr9  1  0.75006841  0.25002092  0.50000055  1
  Zr  Zr10  1  0.25006786  0.74997908  0.49999945  1
  Zr  Zr11  1  0.49996461  0.50000000  0.00000000  1
