# generated using pymatgen
data_Ta6S
_symmetry_space_group_name_H-M   'P 1'
_cell_length_a   5.31681997
_cell_length_b   7.60082216
_cell_length_c   13.40364163
_cell_angle_alpha   85.60170942
_cell_angle_beta   78.56039430
_cell_angle_gamma   69.52779468
_symmetry_Int_Tables_number   1
_chemical_formula_structural   Ta6S
_chemical_formula_sum   'Ta24 S4'
_cell_volume   497.36298365
_cell_formula_units_Z   4
loop_
 _symmetry_equiv_pos_site_id
 _symmetry_equiv_pos_as_xyz
  1  'x, y, z'
loop_
 _atom_site_type_symbol
 _atom_site_label
 _atom_site_symmetry_multiplicity
 _atom_site_fract_x
 _atom_site_fract_y
 _atom_site_fract_z
 _atom_site_occupancy
  S  S0  1  0.52445917  0.23853154  0.54356980  1
  S  S1  1  0.30656052  0.26146846  0.95643020  1
  S  S2  1  0.47554083  0.76146846  0.45643020  1
  S  S3  1  0.69343948  0.73853154  0.04356980  1
  Ta  Ta4  1  0.00185139  0.22420881  0.45401624  1
  Ta  Ta5  1  0.68007644  0.27579119  0.04598376  1
  Ta  Ta6  1  0.99814861  0.77579119  0.54598376  1
  Ta  Ta7  1  0.31992356  0.72420881  0.95401624  1
  Ta  Ta8  1  0.40063561  0.46757014  0.40558248  1
  Ta  Ta9  1  0.27378823  0.03242986  0.09441752  1
  Ta  Ta10  1  0.59936439  0.53242986  0.59441752  1
  Ta  Ta11  1  0.72621177  0.96757014  0.90558248  1
  Ta  Ta12  1  0.81815059  0.89769135  0.17369796  1
  Ta  Ta13  1  0.88953991  0.60230865  0.32630204  1
  Ta  Ta14  1  0.18184941  0.10230865  0.82630204  1
  Ta  Ta15  1  0.11046009  0.39769135  0.67369796  1
  Ta  Ta16  1  0.64189390  0.02466508  0.39693593  1
  Ta  Ta17  1  0.06349491  0.47533492  0.10306407  1
  Ta  Ta18  1  0.35810610  0.97533492  0.60306407  1
  Ta  Ta19  1  0.93650509  0.52466508  0.89693593  1
  Ta  Ta20  1  0.21271057  0.89471043  0.31721447  1
  Ta  Ta21  1  0.42463547  0.60528957  0.18278553  1
  Ta  Ta22  1  0.78728943  0.10528957  0.68278553  1
  Ta  Ta23  1  0.57536453  0.39471043  0.81721447  1
  Ta  Ta24  1  0.15940284  0.74346839  0.75171262  1
  Ta  Ta25  1  0.65458384  0.75653161  0.74828738  1
  Ta  Ta26  1  0.84059716  0.25653161  0.24828738  1
  Ta  Ta27  1  0.34541616  0.24346839  0.25171262  1
