# generated using pymatgen
data_TlSb3S5
_symmetry_space_group_name_H-M   'P 1'
_cell_length_a   7.47970152
_cell_length_b   9.19703394
_cell_length_c   15.95388864
_cell_angle_alpha   90.00000000
_cell_angle_beta   90.00000000
_cell_angle_gamma   114.36142664
_symmetry_Int_Tables_number   1
_chemical_formula_structural   TlSb3S5
_chemical_formula_sum   'Tl4 Sb12 S20'
_cell_volume   999.76670320
_cell_formula_units_Z   4
loop_
 _symmetry_equiv_pos_site_id
 _symmetry_equiv_pos_as_xyz
  1  'x, y, z'
loop_
 _atom_site_type_symbol
 _atom_site_label
 _atom_site_symmetry_multiplicity
 _atom_site_fract_x
 _atom_site_fract_y
 _atom_site_fract_z
 _atom_site_occupancy
  S  S0  1  0.67191451  0.11131118  0.72834217  1
  S  S1  1  0.32808549  0.38868882  0.22834217  1
  S  S2  1  0.32808549  0.88868882  0.27165783  1
  S  S3  1  0.67191451  0.61131118  0.77165783  1
  S  S4  1  0.21104930  0.34084315  0.87338432  1
  S  S5  1  0.78895070  0.15915685  0.37338432  1
  S  S6  1  0.78895070  0.65915685  0.12661568  1
  S  S7  1  0.21104930  0.84084315  0.62661568  1
  S  S8  1  0.74957810  0.49990935  0.55617144  1
  S  S9  1  0.25042190  0.00009065  0.05617144  1
  S  S10  1  0.25042190  0.50009065  0.44382856  1
  S  S11  1  0.74957810  0.99990935  0.94382856  1
  S  S12  1  0.77482227  0.39680381  0.94061362  1
  S  S13  1  0.22517773  0.10319619  0.44061362  1
  S  S14  1  0.22517773  0.60319619  0.05938638  1
  S  S15  1  0.77482227  0.89680381  0.55938638  1
  S  S16  1  0.29047108  0.76317398  0.84114087  1
  S  S17  1  0.70952892  0.73682602  0.34114087  1
  S  S18  1  0.70952892  0.23682602  0.15885913  1
  S  S19  1  0.29047108  0.26317398  0.65885913  1
  Sb  Sb20  1  0.50324122  0.06344524  0.86918717  1
  Sb  Sb21  1  0.49675878  0.43655476  0.36918717  1
  Sb  Sb22  1  0.49675878  0.93655476  0.13081283  1
  Sb  Sb23  1  0.50324122  0.56344524  0.63081283  1
  Sb  Sb24  1  1.00686984  0.21321376  0.50335238  1
  Sb  Sb25  1  -0.00686984  0.28678624  0.00335238  1
  Sb  Sb26  1  -0.00686984  0.78678624  0.49664762  1
  Sb  Sb27  1  1.00686984  0.71321376  0.99664762  1
  Sb  Sb28  1  0.46653806  0.11227793  0.59632506  1
  Sb  Sb29  1  0.53346194  0.38772207  0.09632506  1
  Sb  Sb30  1  0.53346194  0.88772207  0.40367494  1
  Sb  Sb31  1  0.46653806  0.61227793  0.90367494  1
  Tl  Tl32  1  0.97327492  0.46247916  0.73601724  1
  Tl  Tl33  1  0.02672508  0.03752084  0.23601724  1
  Tl  Tl34  1  0.02672508  0.53752084  0.26398276  1
  Tl  Tl35  1  0.97327492  0.96247916  0.76398276  1
