# generated using pymatgen
data_As4S3
_symmetry_space_group_name_H-M   'P 1'
_cell_length_a   8.86684783
_cell_length_b   9.74478891
_cell_length_c   10.94458561
_cell_angle_alpha   90.00000000
_cell_angle_beta   90.00000000
_cell_angle_gamma   90.00000000
_symmetry_Int_Tables_number   1
_chemical_formula_structural   As4S3
_chemical_formula_sum   'As16 S12'
_cell_volume   945.67305298
_cell_formula_units_Z   4
loop_
 _symmetry_equiv_pos_site_id
 _symmetry_equiv_pos_as_xyz
  1  'x, y, z'
loop_
 _atom_site_type_symbol
 _atom_site_label
 _atom_site_symmetry_multiplicity
 _atom_site_fract_x
 _atom_site_fract_y
 _atom_site_fract_z
 _atom_site_occupancy
  S  S0  1  0.25000000  0.60968732  0.10352417  1
  S  S1  1  0.75000000  0.39031268  0.89647583  1
  S  S2  1  0.25000000  0.10968732  0.39647583  1
  S  S3  1  0.75000000  0.89031268  0.60352417  1
  S  S4  1  0.94236651  0.17278578  0.08642624  1
  S  S5  1  0.44236651  0.82721422  0.91357376  1
  S  S6  1  0.55763349  0.67278578  0.41357376  1
  S  S7  1  0.05763349  0.32721422  0.58642624  1
  S  S8  1  0.05763349  0.82721422  0.91357376  1
  S  S9  1  0.55763349  0.17278578  0.08642624  1
  S  S10  1  0.44236651  0.32721422  0.58642624  1
  S  S11  1  0.94236651  0.67278578  0.41357376  1
  As  As12  1  0.10736770  0.15117553  0.71107852  1
  As  As13  1  0.60736770  0.84882447  0.28892148  1
  As  As14  1  0.39263230  0.65117553  0.78892148  1
  As  As15  1  0.89263230  0.34882447  0.21107852  1
  As  As16  1  0.10736770  0.65117553  0.78892148  1
  As  As17  1  0.60736770  0.34882447  0.21107852  1
  As  As18  1  0.39263230  0.15117553  0.71107852  1
  As  As19  1  0.89263230  0.84882447  0.28892148  1
  As  As20  1  0.25000000  0.49196375  0.92859663  1
  As  As21  1  0.75000000  0.50803625  0.07140337  1
  As  As22  1  0.25000000  0.99196375  0.57140337  1
  As  As23  1  0.75000000  0.00803625  0.42859663  1
  As  As24  1  0.25000000  0.83445155  0.04999214  1
  As  As25  1  0.75000000  0.16554845  0.95000786  1
  As  As26  1  0.25000000  0.33445155  0.45000786  1
  As  As27  1  0.75000000  0.66554845  0.54999214  1
