# generated using pymatgen
data_Li6Ge2O7
_symmetry_space_group_name_H-M   'P 1'
_cell_length_a   5.37117828
_cell_length_b   8.18242062
_cell_length_c   14.39841758
_cell_angle_alpha   92.99707530
_cell_angle_beta   90.00000000
_cell_angle_gamma   90.00000000
_symmetry_Int_Tables_number   1
_chemical_formula_structural   Li6Ge2O7
_chemical_formula_sum   'Li24 Ge8 O28'
_cell_volume   631.93396830
_cell_formula_units_Z   4
loop_
 _symmetry_equiv_pos_site_id
 _symmetry_equiv_pos_as_xyz
  1  'x, y, z'
loop_
 _atom_site_type_symbol
 _atom_site_label
 _atom_site_symmetry_multiplicity
 _atom_site_fract_x
 _atom_site_fract_y
 _atom_site_fract_z
 _atom_site_occupancy
  Li  Li0  1  0.21888403  0.70459497  0.30505797  1
  Li  Li1  1  0.71888403  0.79540503  0.19494203  1
  Li  Li2  1  0.78111597  0.29540503  0.69494203  1
  Li  Li3  1  0.28111597  0.20459497  0.80505797  1
  Li  Li4  1  0.37019836  0.03793431  0.38428274  1
  Li  Li5  1  0.87019836  0.46206569  0.11571726  1
  Li  Li6  1  0.62980164  0.96206569  0.61571726  1
  Li  Li7  1  0.12980164  0.53793431  0.88428274  1
  Li  Li8  1  0.33185058  0.87021700  0.74339135  1
  Li  Li9  1  0.83185058  0.62978300  0.75660865  1
  Li  Li10  1  0.64698002  0.22363289  0.48443927  1
  Li  Li11  1  0.14698002  0.27636711  0.01556073  1
  Li  Li12  1  0.35301998  0.77636711  0.51556073  1
  Li  Li13  1  0.85301998  0.72363289  0.98443927  1
  Li  Li14  1  0.19414759  0.44840388  0.45705109  1
  Li  Li15  1  0.69414759  0.05159612  0.04294891  1
  Li  Li16  1  0.80585241  0.55159612  0.54294891  1
  Li  Li17  1  0.30585241  0.94840388  0.95705109  1
  Li  Li18  1  0.01325182  0.20046395  0.37900678  1
  Li  Li19  1  0.51325182  0.29953605  0.12099322  1
  Li  Li20  1  0.98674818  0.79953605  0.62099322  1
  Li  Li21  1  0.48674818  0.70046395  0.87900678  1
  Li  Li22  1  0.66814942  0.12978300  0.25660865  1
  Li  Li23  1  0.16814942  0.37021700  0.24339135  1
  O  O24  1  0.27207851  0.13770089  0.26719074  1
  O  O25  1  0.76995124  0.54222262  0.88020060  1
  O  O26  1  0.23004876  0.45777738  0.11979940  1
  O  O27  1  0.73004876  0.04222262  0.38020060  1
  O  O28  1  0.32304416  0.35332180  0.91089198  1
  O  O29  1  0.82304416  0.14667820  0.58910802  1
  O  O30  1  0.77207851  0.36229911  0.23280926  1
  O  O31  1  0.17695584  0.85332180  0.41089198  1
  O  O32  1  0.71198371  0.19771459  0.81567859  1
  O  O33  1  0.21198371  0.30228541  0.68432141  1
  O  O34  1  0.28801629  0.80228541  0.18432141  1
  O  O35  1  0.78801629  0.69771459  0.31567859  1
  O  O36  1  0.72792149  0.86229911  0.73280926  1
  O  O37  1  0.22792149  0.63770089  0.76719074  1
  O  O38  1  0.27821393  0.21475084  0.48269944  1
  O  O39  1  0.77821393  0.28524916  0.01730056  1
  O  O40  1  0.72178607  0.78524916  0.51730056  1
  O  O41  1  0.22178607  0.71475084  0.98269944  1
  O  O42  1  0.82375976  0.40825463  0.42835963  1
  O  O43  1  0.32375976  0.09174537  0.07164037  1
  O  O44  1  0.17624024  0.59174537  0.57164037  1
  O  O45  1  0.67695584  0.64667820  0.08910802  1
  O  O46  1  0.34748390  0.49983280  0.34010391  1
  O  O47  1  0.84748390  0.00016720  0.15989609  1
  O  O48  1  0.65251610  0.50016720  0.65989609  1
  O  O49  1  0.15251610  0.99983280  0.84010391  1
  O  O50  1  0.26995124  0.95777738  0.61979940  1
  O  O51  1  0.67624024  0.90825463  0.92835963  1
  Ge  Ge52  1  0.85084633  0.85241350  0.41305229  1
  Ge  Ge53  1  0.35084633  0.64758650  0.08694771  1
  Ge  Ge54  1  0.14915367  0.14758650  0.58694771  1
  Ge  Ge55  1  0.64915367  0.35241350  0.91305229  1
  Ge  Ge56  1  0.67243706  0.48661803  0.33069916  1
  Ge  Ge57  1  0.17243706  0.01338197  0.16930084  1
  Ge  Ge58  1  0.32756294  0.51338197  0.66930084  1
  Ge  Ge59  1  0.82756294  0.98661803  0.83069916  1
