# generated using pymatgen
data_Li9Mn2Co5O16
_symmetry_space_group_name_H-M   'P 1'
_cell_length_a   2.90158578
_cell_length_b   19.59248121
_cell_length_c   5.20086135
_cell_angle_alpha   99.47807885
_cell_angle_beta   90.00000000
_cell_angle_gamma   90.00000000
_symmetry_Int_Tables_number   1
_chemical_formula_structural   Li9Mn2Co5O16
_chemical_formula_sum   'Li9 Mn2 Co5 O16'
_cell_volume   291.62892403
_cell_formula_units_Z   1
loop_
 _symmetry_equiv_pos_site_id
 _symmetry_equiv_pos_as_xyz
  1  'x, y, z'
loop_
 _atom_site_type_symbol
 _atom_site_label
 _atom_site_symmetry_multiplicity
 _atom_site_fract_x
 _atom_site_fract_y
 _atom_site_fract_z
 _atom_site_occupancy
  Li  Li0  1  0.50000000  0.99844149  0.50397079  1
  Li  Li1  1  0.00000000  0.12818317  0.75125730  1
  Li  Li2  1  0.50000000  0.24566996  0.98950682  1
  Li  Li3  1  0.00000000  0.37564451  0.25092774  1
  Li  Li4  1  0.50000000  0.50672763  0.49999030  1
  Li  Li5  1  0.00000000  0.86753667  0.23160314  1
  Li  Li6  1  0.50000000  0.74956521  0.99589023  1
  Li  Li7  1  0.00000000  0.62841511  0.76560154  1
  Li  Li8  1  0.00000000  0.75022726  0.50266357  1
  Mn  Mn9  1  0.00000000  0.99898220  0.00320966  1
  Mn  Mn10  1  0.50000000  0.37444947  0.74788827  1
  Co  Co11  1  0.50000000  0.12858422  0.25603053  1
  Co  Co12  1  0.00000000  0.24782966  0.49509321  1
  Co  Co13  1  0.00000000  0.50440187  0.00156202  1
  Co  Co14  1  0.50000000  0.63418051  0.29052273  1
  Co  Co15  1  0.50000000  0.86582204  0.71389576  1
  O  O16  1  0.50000000  0.94600651  0.11846136  1
  O  O17  1  0.00000000  0.06260991  0.34376968  1
  O  O18  1  0.50000000  0.18576432  0.61048609  1
  O  O19  1  0.00000000  0.31975479  0.86498187  1
  O  O20  1  0.50000000  0.43622085  0.08786563  1
  O  O21  1  0.00000000  0.81840805  0.86520069  1
  O  O22  1  0.50000000  0.68269374  0.61259067  1
  O  O23  1  0.00000000  0.56431407  0.34964526  1
  O  O24  1  0.50000000  0.05530776  0.89282347  1
  O  O25  1  0.00000000  0.18424014  0.12482350  1
  O  O26  1  0.50000000  0.31566524  0.41084343  1
  O  O27  1  0.00000000  0.43002796  0.63874221  1
  O  O28  1  0.50000000  0.55516684  0.87912052  1
  O  O29  1  0.00000000  0.93886748  0.67063792  1
  O  O30  1  0.50000000  0.81913007  0.39064012  1
  O  O31  1  0.00000000  0.68116129  0.13975397  1
