# generated using pymatgen
data_Ta(NiTe)2
_symmetry_space_group_name_H-M   'P 1'
_cell_length_a   3.57647731
_cell_length_b   6.47133734
_cell_length_c   18.02380705
_cell_angle_alpha   90.00000000
_cell_angle_beta   90.00000000
_cell_angle_gamma   90.00000000
_symmetry_Int_Tables_number   1
_chemical_formula_structural   Ta(NiTe)2
_chemical_formula_sum   'Ta4 Ni8 Te8'
_cell_volume   417.15364535
_cell_formula_units_Z   4
loop_
 _symmetry_equiv_pos_site_id
 _symmetry_equiv_pos_as_xyz
  1  'x, y, z'
loop_
 _atom_site_type_symbol
 _atom_site_label
 _atom_site_symmetry_multiplicity
 _atom_site_fract_x
 _atom_site_fract_y
 _atom_site_fract_z
 _atom_site_occupancy
  Ni  Ni0  1  0.25000000  0.78871324  0.68555954  1
  Ni  Ni1  1  0.75000000  0.21128676  0.31444046  1
  Ni  Ni2  1  0.75000000  0.71128676  0.18555954  1
  Ni  Ni3  1  0.25000000  0.28871324  0.81444046  1
  Ni  Ni4  1  0.25000000  0.39787126  0.68680458  1
  Ni  Ni5  1  0.75000000  0.60212874  0.31319542  1
  Ni  Ni6  1  0.25000000  0.89787126  0.81319542  1
  Ni  Ni7  1  0.75000000  0.10212874  0.18680458  1
  Te  Te8  1  0.25000000  0.09434139  0.59782630  1
  Te  Te9  1  0.75000000  0.90565861  0.40217370  1
  Te  Te10  1  0.75000000  0.40565861  0.09782630  1
  Te  Te11  1  0.25000000  0.59434139  0.90217370  1
  Te  Te12  1  0.75000000  0.09159662  0.88835404  1
  Te  Te13  1  0.25000000  0.90840338  0.11164596  1
  Te  Te14  1  0.75000000  0.59159662  0.61164596  1
  Te  Te15  1  0.25000000  0.40840338  0.38835404  1
  Ta  Ta16  1  0.25000000  0.40578011  0.22484480  1
  Ta  Ta17  1  0.75000000  0.59421989  0.77515520  1
  Ta  Ta18  1  0.25000000  0.90578011  0.27515520  1
  Ta  Ta19  1  0.75000000  0.09421989  0.72484480  1
