# generated using pymatgen
data_SrH4O3
_symmetry_space_group_name_H-M   'P 1'
_cell_length_a   3.68772271
_cell_length_b   6.23050594
_cell_length_c   6.76900462
_cell_angle_alpha   90.00000000
_cell_angle_beta   90.00000000
_cell_angle_gamma   90.00000000
_symmetry_Int_Tables_number   1
_chemical_formula_structural   SrH4O3
_chemical_formula_sum   'Sr2 H8 O6'
_cell_volume   155.52721052
_cell_formula_units_Z   2
loop_
 _symmetry_equiv_pos_site_id
 _symmetry_equiv_pos_as_xyz
  1  'x, y, z'
loop_
 _atom_site_type_symbol
 _atom_site_label
 _atom_site_symmetry_multiplicity
 _atom_site_fract_x
 _atom_site_fract_y
 _atom_site_fract_z
 _atom_site_occupancy
  H  H0  1  0.50000000  0.29617037  0.59407966  1
  H  H1  1  0.50000000  0.70382963  0.09407966  1
  H  H2  1  0.50000000  0.96667908  0.60631384  1
  H  H3  1  0.50000000  0.03332092  0.10631384  1
  H  H4  1  0.20964940  0.11991251  0.83091512  1
  H  H5  1  0.79035060  0.88008749  0.33091512  1
  H  H6  1  0.20964940  0.88008749  0.33091512  1
  H  H7  1  0.79035060  0.11991251  0.83091512  1
  O  O8  1  0.00000000  0.21323522  0.87631383  1
  O  O9  1  0.50000000  0.56191595  0.03315330  1
  O  O10  1  0.50000000  0.93919968  0.74820115  1
  O  O11  1  0.50000000  0.06080032  0.24820115  1
  O  O12  1  0.00000000  0.78676478  0.37631383  1
  O  O13  1  0.50000000  0.43808405  0.53315330  1
  Sr  Sr14  1  0.00000000  0.62630734  0.74890798  1
  Sr  Sr15  1  0.00000000  0.37369266  0.24890798  1
