# generated using pymatgen
data_Ba5(GaS4)2
_symmetry_space_group_name_H-M   'P 1'
_cell_length_a   12.02954686
_cell_length_b   12.28189260
_cell_length_c   12.93405273
_cell_angle_alpha   118.34561442
_cell_angle_beta   90.00000000
_cell_angle_gamma   90.00000000
_symmetry_Int_Tables_number   1
_chemical_formula_structural   Ba5(GaS4)2
_chemical_formula_sum   'Ba20 Ga8 S32'
_cell_volume   1681.82589667
_cell_formula_units_Z   4
loop_
 _symmetry_equiv_pos_site_id
 _symmetry_equiv_pos_as_xyz
  1  'x, y, z'
loop_
 _atom_site_type_symbol
 _atom_site_label
 _atom_site_symmetry_multiplicity
 _atom_site_fract_x
 _atom_site_fract_y
 _atom_site_fract_z
 _atom_site_occupancy
  S  S0  1  0.95878433  0.14483888  0.00000000  1
  S  S1  1  0.45878433  0.35516112  0.00000000  1
  S  S2  1  0.54121567  0.64483888  0.00000000  1
  S  S3  1  0.04121567  0.85516112  0.00000000  1
  S  S4  1  0.25807835  0.65244578  0.81646103  1
  S  S5  1  0.75807835  0.84755422  0.18353897  1
  S  S6  1  0.24192165  0.33598475  0.18353897  1
  S  S7  1  0.74192165  0.16401525  0.81646103  1
  S  S8  1  0.74192165  0.34755422  0.18353897  1
  S  S9  1  0.24192165  0.15244578  0.81646103  1
  S  S10  1  0.75807835  0.66401525  0.81646103  1
  S  S11  1  0.25807835  0.83598475  0.18353897  1
  S  S12  1  0.99658115  0.33527825  0.37595934  1
  S  S13  1  0.49658115  0.16472175  0.62404066  1
  S  S14  1  0.65186095  0.03081454  0.00000000  1
  S  S15  1  0.50341885  0.45931891  0.62404066  1
  S  S16  1  0.00341885  0.66472175  0.62404066  1
  S  S17  1  0.50341885  0.83527825  0.37595934  1
  S  S18  1  0.49658115  0.54068109  0.37595934  1
  S  S19  1  0.99658115  0.95931891  0.62404066  1
  S  S20  1  0.64781435  0.18646591  0.37370777  1
  S  S21  1  0.14781435  0.31353409  0.62629223  1
  S  S22  1  0.85218565  0.31275814  0.62629223  1
  S  S23  1  0.35218565  0.18724186  0.37370777  1
  S  S24  1  0.35218565  0.81353409  0.62629223  1
  S  S25  1  0.85218565  0.68646591  0.37370777  1
  S  S26  1  0.14781435  0.68724186  0.37370777  1
  S  S27  1  0.64781435  0.81275814  0.62629223  1
  S  S28  1  0.34813905  0.96918546  0.00000000  1
  S  S29  1  0.84813905  0.53081454  0.00000000  1
  S  S30  1  0.15186095  0.46918546  0.00000000  1
  S  S31  1  0.00341885  0.04068109  0.37595934  1
  Ga  Ga32  1  0.50000000  0.24979794  0.49959589  1
  Ga  Ga33  1  0.00000000  0.25020206  0.50040411  1
  Ga  Ga34  1  0.50000000  0.75020206  0.50040411  1
  Ga  Ga35  1  0.00000000  0.74979794  0.49959589  1
  Ga  Ga36  1  0.76747524  0.18746912  0.00000000  1
  Ga  Ga37  1  0.26747524  0.31253088  0.00000000  1
  Ga  Ga38  1  0.73252476  0.68746912  0.00000000  1
  Ga  Ga39  1  0.23252476  0.81253088  0.00000000  1
  Ba  Ba40  1  0.25000000  0.50718083  0.50000000  1
  Ba  Ba41  1  0.75000000  0.99281917  0.50000000  1
  Ba  Ba42  1  0.75000000  0.49281917  0.50000000  1
  Ba  Ba43  1  0.25000000  0.00718083  0.50000000  1
  Ba  Ba44  1  0.49498017  0.25967663  0.19562797  1
  Ba  Ba45  1  0.99498017  0.24032337  0.80437203  1
  Ba  Ba46  1  0.00501983  0.56404866  0.80437203  1
  Ba  Ba47  1  0.50501983  0.93595134  0.19562797  1
  Ba  Ba48  1  0.50501983  0.74032337  0.80437203  1
  Ba  Ba49  1  0.00501983  0.75967663  0.19562797  1
  Ba  Ba50  1  0.99498017  0.43595134  0.19562797  1
  Ba  Ba51  1  0.49498017  0.06404866  0.80437203  1
  Ba  Ba52  1  0.65958169  0.59704400  0.20291341  1
  Ba  Ba53  1  0.15958169  0.90295600  0.79708659  1
  Ba  Ba54  1  0.84041831  0.89413059  0.79708659  1
  Ba  Ba55  1  0.34041831  0.60586941  0.20291341  1
  Ba  Ba56  1  0.34041831  0.40295600  0.79708659  1
  Ba  Ba57  1  0.84041831  0.09704400  0.20291341  1
  Ba  Ba58  1  0.15958169  0.10586941  0.20291341  1
  Ba  Ba59  1  0.65958169  0.39413059  0.79708659  1
