# generated using pymatgen
data_Li9Mn2Co5O16
_symmetry_space_group_name_H-M   'P 1'
_cell_length_a   2.92229691
_cell_length_b   9.77264480
_cell_length_c   10.33805908
_cell_angle_alpha   99.96148192
_cell_angle_beta   90.00000000
_cell_angle_gamma   90.00000000
_symmetry_Int_Tables_number   1
_chemical_formula_structural   Li9Mn2Co5O16
_chemical_formula_sum   'Li9 Mn2 Co5 O16'
_cell_volume   290.78921933
_cell_formula_units_Z   1
loop_
 _symmetry_equiv_pos_site_id
 _symmetry_equiv_pos_as_xyz
  1  'x, y, z'
loop_
 _atom_site_type_symbol
 _atom_site_label
 _atom_site_symmetry_multiplicity
 _atom_site_fract_x
 _atom_site_fract_y
 _atom_site_fract_z
 _atom_site_occupancy
  Li  Li0  1  0.50000000  -0.00306311  0.24804916  1
  Li  Li1  1  0.50000000  0.99388560  0.74662623  1
  Li  Li2  1  0.00000000  0.24976695  0.37278620  1
  Li  Li3  1  0.00000000  0.26167792  0.88413678  1
  Li  Li4  1  0.50000000  0.50150694  0.47838413  1
  Li  Li5  1  0.50000000  0.50326479  0.02310252  1
  Li  Li6  1  0.00000000  0.74307547  0.13347707  1
  Li  Li7  1  0.00000000  0.74406798  0.61195419  1
  Li  Li8  1  0.00000000  0.50078447  0.25047990  1
  Mn  Mn9  1  -0.00000000  0.00646485  -0.00032122  1
  Mn  Mn10  1  0.50000000  0.24856993  0.62563653  1
  Co  Co11  1  0.00000000  0.98744806  0.49386459  1
  Co  Co12  1  0.50000000  0.27124734  0.14269641  1
  Co  Co13  1  -0.00000000  0.50411004  0.75249704  1
  Co  Co14  1  0.50000000  0.72996517  0.35839552  1
  Co  Co15  1  0.50000000  0.74937343  0.87559279  1
  O  O16  1  0.50000000  0.89192674  0.05091656  1
  O  O17  1  0.50000000  0.88382998  0.55857772  1
  O  O18  1  0.00000000  0.12159576  0.16711933  1
  O  O19  1  -0.00000000  0.14022187  0.68268915  1
  O  O20  1  0.50000000  0.36148325  0.30734863  1
  O  O21  1  0.50000000  0.37408689  0.79503988  1
  O  O22  1  0.00000000  0.63534507  0.93139548  1
  O  O23  1  0.00000000  0.63134670  0.43519803  1
  O  O24  1  0.50000000  0.12327665  0.45664111  1
  O  O25  1  0.50000000  0.11155375  0.94085053  1
  O  O26  1  0.00000000  0.35987802  0.57157844  1
  O  O27  1  -0.00000000  0.36656433  0.06400271  1
  O  O28  1  0.50000000  0.62071050  0.70011883  1
  O  O29  1  0.50000000  0.63332352  0.19375003  1
  O  O30  1  -0.00000000  0.87532445  0.31967871  1
  O  O31  1  0.00000000  0.87738670  0.82773700  1
