# generated using pymatgen
data_P(HO)3
_symmetry_space_group_name_H-M   'P 1'
_cell_length_a   6.97045293
_cell_length_b   7.34201209
_cell_length_c   12.25209060
_cell_angle_alpha   90.00000000
_cell_angle_beta   90.00000000
_cell_angle_gamma   90.00000000
_symmetry_Int_Tables_number   1
_chemical_formula_structural   P(HO)3
_chemical_formula_sum   'P8 H24 O24'
_cell_volume   627.02707459
_cell_formula_units_Z   8
loop_
 _symmetry_equiv_pos_site_id
 _symmetry_equiv_pos_as_xyz
  1  'x, y, z'
loop_
 _atom_site_type_symbol
 _atom_site_label
 _atom_site_symmetry_multiplicity
 _atom_site_fract_x
 _atom_site_fract_y
 _atom_site_fract_z
 _atom_site_occupancy
  H  H0  1  0.65865588  0.45908543  0.25861503  1
  H  H1  1  0.15865588  0.54091457  0.74138497  1
  H  H2  1  0.15865588  0.04091457  0.75861503  1
  H  H3  1  0.65865588  0.95908543  0.24138497  1
  H  H4  1  0.55948803  0.70220325  0.09501871  1
  H  H5  1  0.05948803  0.29779675  0.90498129  1
  H  H6  1  0.05948803  0.79779675  0.59501871  1
  H  H7  1  0.55948803  0.20220325  0.40498129  1
  H  H8  1  0.16555651  0.07461531  0.44105214  1
  H  H9  1  0.66555651  0.92538469  0.55894786  1
  H  H10  1  0.66555651  0.42538469  0.94105214  1
  H  H11  1  0.16555651  0.57461531  0.05894786  1
  H  H12  1  0.98158783  0.31062881  0.51196840  1
  H  H13  1  0.48158783  0.68937119  0.48803160  1
  H  H14  1  0.48158783  0.18937119  0.01196840  1
  H  H15  1  0.93635627  0.78474914  0.30858944  1
  H  H16  1  0.18802976  0.96819978  0.15422364  1
  H  H17  1  0.68802976  0.03180022  0.84577636  1
  H  H18  1  0.68802976  0.53180022  0.65422364  1
  H  H19  1  0.18802976  0.46819978  0.34577636  1
  H  H20  1  0.93635627  0.28474914  0.19141056  1
  H  H21  1  0.43635627  0.71525086  0.80858944  1
  H  H22  1  0.43635627  0.21525086  0.69141056  1
  H  H23  1  0.98158783  0.81062881  0.98803160  1
  O  O24  1  0.86851130  0.40789138  0.28733911  1
  O  O25  1  0.36851130  0.59210862  0.71266089  1
  O  O26  1  0.36851130  0.09210862  0.78733911  1
  O  O27  1  0.86851130  0.90789138  0.21266089  1
  O  O28  1  0.96497803  0.21327795  0.12144538  1
  O  O29  1  0.45998609  0.55595380  0.50766159  1
  O  O30  1  0.45998609  0.05595380  0.99233841  1
  O  O31  1  0.95998609  0.94404620  0.00766159  1
  O  O32  1  0.24692185  0.07483146  0.37097048  1
  O  O33  1  0.74692185  0.92516854  0.62902952  1
  O  O34  1  0.74692185  0.42516854  0.87097048  1
  O  O35  1  0.24692185  0.57483146  0.12902952  1
  O  O36  1  0.51785390  0.98605893  0.25977012  1
  O  O37  1  0.01785390  0.01394107  0.74022988  1
  O  O38  1  0.01785390  0.51394107  0.75977012  1
  O  O39  1  0.51785390  0.48605893  0.24022988  1
  O  O40  1  0.52296947  0.89762478  0.46563452  1
  O  O41  1  0.02296947  0.10237522  0.53436548  1
  O  O42  1  0.02296947  0.60237522  0.96563452  1
  O  O43  1  0.52296947  0.39762478  0.03436548  1
  O  O44  1  0.96497803  0.71327795  0.37855462  1
  O  O45  1  0.46497803  0.28672205  0.62144538  1
  O  O46  1  0.46497803  0.78672205  0.87855462  1
  O  O47  1  0.95998609  0.44404620  0.49233841  1
  P  P48  1  0.46699757  0.03753504  0.38009449  1
  P  P49  1  0.96699757  0.46246496  0.88009449  1
  P  P50  1  0.96699757  0.96246496  0.61990551  1
  P  P51  1  0.46699757  0.53753504  0.11990551  1
  P  P52  1  -0.00479249  0.50277274  0.37109882  1
  P  P53  1  0.49520751  0.49722726  0.62890118  1
  P  P54  1  0.49520751  0.99722726  0.87109882  1
  P  P55  1  -0.00479249  0.00277274  0.12890118  1
