# generated using pymatgen
data_Na7(Cu6S5)2
_symmetry_space_group_name_H-M   'P 1'
_cell_length_a   3.78717191
_cell_length_b   16.16217481
_cell_length_c   16.22885257
_cell_angle_alpha   90.37390602
_cell_angle_beta   90.00000000
_cell_angle_gamma   90.00000000
_symmetry_Int_Tables_number   1
_chemical_formula_structural   Na7(Cu6S5)2
_chemical_formula_sum   'Na14 Cu24 S20'
_cell_volume   993.32962134
_cell_formula_units_Z   2
loop_
 _symmetry_equiv_pos_site_id
 _symmetry_equiv_pos_as_xyz
  1  'x, y, z'
loop_
 _atom_site_type_symbol
 _atom_site_label
 _atom_site_symmetry_multiplicity
 _atom_site_fract_x
 _atom_site_fract_y
 _atom_site_fract_z
 _atom_site_occupancy
  Na  Na0  1  0.50000000  0.50000000  0.00000000  1
  Na  Na1  1  0.00000000  0.68468673  0.89583606  1
  Na  Na2  1  0.00000000  0.31531327  0.10416394  1
  Na  Na3  1  0.00000000  0.88098570  0.29089270  1
  Na  Na4  1  0.00000000  0.11901430  0.70910730  1
  Na  Na5  1  0.50000000  0.71941963  0.40653678  1
  Na  Na6  1  0.50000000  0.28058037  0.59346322  1
  Na  Na7  1  0.50000000  0.00000000  0.00000000  1
  Na  Na8  1  0.00000000  0.80239247  0.08504939  1
  Na  Na9  1  0.00000000  0.19760753  0.91495061  1
  Na  Na10  1  0.00000000  0.60596696  0.69598300  1
  Na  Na11  1  0.00000000  0.39403304  0.30401700  1
  Na  Na12  1  0.50000000  0.79745163  0.60660272  1
  Na  Na13  1  0.50000000  0.20254837  0.39339728  1
  S  S14  1  0.00000000  0.42217063  0.64584097  1
  S  S15  1  0.00000000  0.57782937  0.35415903  1
  S  S16  1  0.50000000  0.63029984  0.56201647  1
  S  S17  1  0.50000000  0.36970016  0.43798353  1
  S  S18  1  0.50000000  0.55618382  0.82456837  1
  S  S19  1  0.50000000  0.44381618  0.17543163  1
  S  S20  1  0.50000000  0.24315809  0.76756593  1
  S  S21  1  0.50000000  0.75684191  0.23243407  1
  S  S22  1  0.00000000  0.37349935  0.94188596  1
  S  S23  1  0.00000000  0.62650065  0.05811404  1
  S  S24  1  0.50000000  0.02222427  0.34419596  1
  S  S25  1  0.50000000  0.97777573  0.65580404  1
  S  S26  1  0.00000000  0.84662083  0.47148046  1
  S  S27  1  0.00000000  0.15337917  0.52851954  1
  S  S28  1  0.00000000  0.97072621  0.13558304  1
  S  S29  1  0.00000000  0.02927379  0.86441696  1
  S  S30  1  0.00000000  0.22649108  0.26278857  1
  S  S31  1  0.00000000  0.77350892  0.73721143  1
  S  S32  1  0.50000000  0.82554233  0.94676698  1
  S  S33  1  0.50000000  0.17445767  0.05323302  1
  Cu  Cu34  1  0.50000000  0.49120684  0.58030839  1
  Cu  Cu35  1  0.50000000  0.50879316  0.41969161  1
  Cu  Cu36  1  0.00000000  0.41203894  0.50135705  1
  Cu  Cu37  1  0.00000000  0.58796106  0.49864295  1
  Cu  Cu38  1  0.50000000  0.44730761  0.73289360  1
  Cu  Cu39  1  0.50000000  0.55269239  0.26710640  1
  Cu  Cu40  1  0.00000000  0.32365152  0.75204398  1
  Cu  Cu41  1  0.00000000  0.67634848  0.24795602  1
  Cu  Cu42  1  0.50000000  0.34923514  0.86569656  1
  Cu  Cu43  1  0.50000000  0.65076486  0.13430344  1
  Cu  Cu44  1  0.00000000  0.47632489  0.84711079  1
  Cu  Cu45  1  0.00000000  0.52367511  0.15288921  1
  Cu  Cu46  1  0.50000000  0.92560519  0.44909984  1
  Cu  Cu47  1  0.50000000  0.07439481  0.55090016  1
  Cu  Cu48  1  0.00000000  0.04629276  0.43424182  1
  Cu  Cu49  1  0.00000000  0.95370724  0.56575818  1
  Cu  Cu50  1  0.50000000  0.01332985  0.19663685  1
  Cu  Cu51  1  0.50000000  0.98667015  0.80336315  1
  Cu  Cu52  1  0.00000000  0.08730887  0.27782291  1
  Cu  Cu53  1  0.00000000  0.91269113  0.72217709  1
  Cu  Cu54  1  0.50000000  0.18718892  0.19421601  1
  Cu  Cu55  1  0.50000000  0.81281108  0.80578399  1
  Cu  Cu56  1  0.00000000  0.11152485  0.10748478  1
  Cu  Cu57  1  0.00000000  0.88847515  0.89251522  1
