# generated using pymatgen
data_Ba4Ga2S7
_symmetry_space_group_name_H-M   'P 1'
_cell_length_a   7.22175185
_cell_length_b   9.14572332
_cell_length_c   11.97078981
_cell_angle_alpha   108.99653544
_cell_angle_beta   90.00000000
_cell_angle_gamma   90.00000000
_symmetry_Int_Tables_number   1
_chemical_formula_structural   Ba4Ga2S7
_chemical_formula_sum   'Ba8 Ga4 S14'
_cell_volume   747.58836269
_cell_formula_units_Z   2
loop_
 _symmetry_equiv_pos_site_id
 _symmetry_equiv_pos_as_xyz
  1  'x, y, z'
loop_
 _atom_site_type_symbol
 _atom_site_label
 _atom_site_symmetry_multiplicity
 _atom_site_fract_x
 _atom_site_fract_y
 _atom_site_fract_z
 _atom_site_occupancy
  S  S0  1  0.75000000  0.01010397  0.65671357  1
  S  S1  1  0.25000000  0.98989603  0.34328643  1
  S  S2  1  0.75000000  0.83618169  0.11337723  1
  S  S3  1  0.25000000  0.16381831  0.88662277  1
  S  S4  1  0.75000000  0.41755625  0.88903032  1
  S  S5  1  0.25000000  0.58244375  0.11096968  1
  S  S6  1  0.49984193  0.68497289  0.41173361  1
  S  S7  1  0.99984193  0.31502711  0.58826639  1
  S  S8  1  0.50015807  0.31502711  0.58826639  1
  S  S9  1  0.00015807  0.68497289  0.41173361  1
  S  S10  1  0.50266735  0.24149413  0.16542030  1
  S  S11  1  0.00266735  0.75850587  0.83457970  1
  S  S12  1  0.99733265  0.24149413  0.16542030  1
  S  S13  1  0.49733265  0.75850587  0.83457970  1
  Ga  Ga14  1  0.75000000  0.26846045  0.68812275  1
  Ga  Ga15  1  0.25000000  0.73153955  0.31187725  1
  Ga  Ga16  1  0.75000000  0.68725267  0.92005078  1
  Ga  Ga17  1  0.25000000  0.31274733  0.07994922  1
  Ba  Ba18  1  0.75000000  0.00935345  0.38787306  1
  Ba  Ba19  1  0.25000000  0.99064655  0.61212694  1
  Ba  Ba20  1  0.75000000  0.07601494  0.93270685  1
  Ba  Ba21  1  0.25000000  0.92398506  0.06729315  1
  Ba  Ba22  1  0.75000000  0.53122631  0.18324385  1
  Ba  Ba23  1  0.25000000  0.46877369  0.81675615  1
  Ba  Ba24  1  0.75000000  0.62990964  0.60923298  1
  Ba  Ba25  1  0.25000000  0.37009036  0.39076702  1
