# generated using pymatgen
data_Pb9(Br5O2)2
_symmetry_space_group_name_H-M   'P 1'
_cell_length_a   8.64829632
_cell_length_b   12.56246597
_cell_length_c   12.56246597
_cell_angle_alpha   90.00000000
_cell_angle_beta   90.00000000
_cell_angle_gamma   90.00000000
_symmetry_Int_Tables_number   1
_chemical_formula_structural   Pb9(Br5O2)2
_chemical_formula_sum   'Pb18 Br20 O8'
_cell_volume   1364.83565109
_cell_formula_units_Z   2
loop_
 _symmetry_equiv_pos_site_id
 _symmetry_equiv_pos_as_xyz
  1  'x, y, z'
loop_
 _atom_site_type_symbol
 _atom_site_label
 _atom_site_symmetry_multiplicity
 _atom_site_fract_x
 _atom_site_fract_y
 _atom_site_fract_z
 _atom_site_occupancy
  O  O0  1  0.62444999  0.29357026  0.85991867  1
  O  O1  1  0.62444999  0.64008133  0.29357026  1
  O  O2  1  0.62444999  0.85991867  0.20642974  1
  O  O3  1  0.62444999  0.20642974  0.64008133  1
  O  O4  1  0.37555001  0.70642974  0.14008133  1
  O  O5  1  0.37555001  0.35991867  0.70642974  1
  O  O6  1  0.37555001  0.14008133  0.79357026  1
  O  O7  1  0.37555001  0.79357026  0.35991867  1
  Br  Br8  1  0.12025191  0.75000000  0.75000000  1
  Br  Br9  1  0.87974809  0.25000000  0.25000000  1
  Br  Br10  1  0.40848671  0.93754090  0.62892109  1
  Br  Br11  1  0.40848671  0.87107891  0.93754090  1
  Br  Br12  1  0.40848671  0.62892109  0.56245910  1
  Br  Br13  1  0.40848671  0.56245910  0.87107891  1
  Br  Br14  1  0.59151329  0.06245910  0.37107891  1
  Br  Br15  1  0.59151329  0.12892109  0.06245910  1
  Br  Br16  1  0.59151329  0.37107891  0.43754090  1
  Br  Br17  1  0.59151329  0.43754090  0.12892109  1
  Br  Br18  1  0.00000000  0.75000000  0.25000000  1
  Br  Br19  1  0.00000000  0.25000000  0.75000000  1
  Br  Br20  1  0.12871912  0.45754865  0.12479652  1
  Br  Br21  1  0.12871912  0.37520348  0.45754865  1
  Br  Br22  1  0.12871912  0.12479652  0.04245135  1
  Br  Br23  1  0.12871912  0.04245135  0.37520348  1
  Br  Br24  1  0.87128088  0.54245135  0.87520348  1
  Br  Br25  1  0.87128088  0.62479652  0.54245135  1
  Br  Br26  1  0.87128088  0.87520348  0.95754865  1
  Br  Br27  1  0.87128088  0.95754865  0.62479652  1
  Pb  Pb28  1  0.80002212  0.75000000  0.75000000  1
  Pb  Pb29  1  0.19997788  0.25000000  0.25000000  1
  Pb  Pb30  1  0.80559841  0.32564930  0.99004545  1
  Pb  Pb31  1  0.80559841  0.50995455  0.32564930  1
  Pb  Pb32  1  0.80559841  0.99004545  0.17435070  1
  Pb  Pb33  1  0.80559841  0.17435070  0.50995455  1
  Pb  Pb34  1  0.19440159  0.67435070  0.00995455  1
  Pb  Pb35  1  0.19440159  0.49004545  0.67435070  1
  Pb  Pb36  1  0.19440159  0.00995455  0.82564930  1
  Pb  Pb37  1  0.19440159  0.82564930  0.49004545  1
  Pb  Pb38  1  0.64403989  0.11194543  0.80147920  1
  Pb  Pb39  1  0.64403989  0.69852080  0.11194543  1
  Pb  Pb40  1  0.64403989  0.80147920  0.38805457  1
  Pb  Pb41  1  0.64403989  0.38805457  0.69852080  1
  Pb  Pb42  1  0.35596011  0.88805457  0.19852080  1
  Pb  Pb43  1  0.35596011  0.30147920  0.88805457  1
  Pb  Pb44  1  0.35596011  0.19852080  0.61194543  1
  Pb  Pb45  1  0.35596011  0.61194543  0.30147920  1
