# generated using pymatgen
data_GaAu2
_symmetry_space_group_name_H-M   'P 1'
_cell_length_a   3.38993677
_cell_length_b   6.99468808
_cell_length_c   9.21159913
_cell_angle_alpha   90.00000000
_cell_angle_beta   100.60305185
_cell_angle_gamma   90.00000000
_symmetry_Int_Tables_number   1
_chemical_formula_structural   GaAu2
_chemical_formula_sum   'Ga4 Au8'
_cell_volume   214.69187233
_cell_formula_units_Z   4
loop_
 _symmetry_equiv_pos_site_id
 _symmetry_equiv_pos_as_xyz
  1  'x, y, z'
loop_
 _atom_site_type_symbol
 _atom_site_label
 _atom_site_symmetry_multiplicity
 _atom_site_fract_x
 _atom_site_fract_y
 _atom_site_fract_z
 _atom_site_occupancy
  Ga  Ga0  1  0.29079236  0.27244257  0.58158473  1
  Ga  Ga1  1  0.70920764  0.77244257  0.41841527  1
  Ga  Ga2  1  0.05934875  0.30650437  0.11869750  1
  Ga  Ga3  1  0.94065125  0.80650437  0.88130250  1
  Au  Au4  1  0.91367780  0.17906048  0.82735559  1
  Au  Au5  1  0.08632220  0.67906048  0.17264441  1
  Au  Au6  1  0.83042006  0.54927293  0.66084012  1
  Au  Au7  1  0.16957994  0.04927293  0.33915988  1
  Au  Au8  1  0.32268126  0.90326268  0.64536251  1
  Au  Au9  1  0.67731874  0.40326268  0.35463749  1
  Au  Au10  1  0.46471562  0.50145697  0.92943125  1
  Au  Au11  1  0.53528438  0.00145697  0.07056875  1
