# generated using pymatgen
data_Li9Mn2Co5O16
_symmetry_space_group_name_H-M   'P 1'
_cell_length_a   2.91320434
_cell_length_b   9.78785763
_cell_length_c   10.31957655
_cell_angle_alpha   99.89244094
_cell_angle_beta   90.00000000
_cell_angle_gamma   90.00000000
_symmetry_Int_Tables_number   1
_chemical_formula_structural   Li9Mn2Co5O16
_chemical_formula_sum   'Li9 Mn2 Co5 O16'
_cell_volume   289.87775935
_cell_formula_units_Z   1
loop_
 _symmetry_equiv_pos_site_id
 _symmetry_equiv_pos_as_xyz
  1  'x, y, z'
loop_
 _atom_site_type_symbol
 _atom_site_label
 _atom_site_symmetry_multiplicity
 _atom_site_fract_x
 _atom_site_fract_y
 _atom_site_fract_z
 _atom_site_occupancy
  Li  Li0  1  0.50000000  0.99475060  0.26471340  1
  Li  Li1  1  0.50000000  0.00075297  0.74238919  1
  Li  Li2  1  0.00000000  0.25588588  0.37970659  1
  Li  Li3  1  0.00000000  0.26063127  0.86976761  1
  Li  Li4  1  0.50000000  0.50059905  0.48914209  1
  Li  Li5  1  0.50000000  0.51002200  0.01066832  1
  Li  Li6  1  -0.00000000  0.74406192  0.13077928  1
  Li  Li7  1  0.00000000  0.74147070  0.60961113  1
  Li  Li8  1  0.00000000  0.50221655  0.25255979  1
  Mn  Mn9  1  0.00000000  0.00214717  0.00357468  1
  Mn  Mn10  1  0.50000000  0.25989220  0.13306699  1
  Co  Co11  1  0.00000000  0.99208317  0.50089558  1
  Co  Co12  1  0.50000000  0.24699473  0.62440267  1
  Co  Co13  1  -0.00000000  0.50001870  0.74588741  1
  Co  Co14  1  0.50000000  0.73301093  0.35659465  1
  Co  Co15  1  0.50000000  0.74820248  0.87278037  1
  O  O16  1  0.50000000  0.89804719  0.06217884  1
  O  O17  1  0.50000000  0.88027482  0.55918924  1
  O  O18  1  0.00000000  0.13310784  0.17292885  1
  O  O19  1  -0.00000000  0.13129304  0.68579807  1
  O  O20  1  0.50000000  0.35992794  0.29622941  1
  O  O21  1  0.50000000  0.38239463  0.80665539  1
  O  O22  1  0.00000000  0.63421861  0.92723603  1
  O  O23  1  -0.00000000  0.63313419  0.42867123  1
  O  O24  1  0.50000000  0.11574629  0.44727676  1
  O  O25  1  0.50000000  0.11678119  0.95292302  1
  O  O26  1  0.00000000  0.36513917  0.56869010  1
  O  O27  1  0.00000000  0.35781505  0.06800595  1
  O  O28  1  0.50000000  0.61638869  0.68992772  1
  O  O29  1  0.50000000  0.63383337  0.19073992  1
  O  O30  1  0.00000000  0.87037570  0.32095068  1
  O  O31  1  0.00000000  0.87878194  0.83605906  1
