# generated using pymatgen
data_CsPd2Cl5
_symmetry_space_group_name_H-M   'P 1'
_cell_length_a   5.56217734
_cell_length_b   10.95102425
_cell_length_c   16.32329490
_cell_angle_alpha   90.00000000
_cell_angle_beta   90.00000000
_cell_angle_gamma   90.00000000
_symmetry_Int_Tables_number   1
_chemical_formula_structural   CsPd2Cl5
_chemical_formula_sum   'Cs4 Pd8 Cl20'
_cell_volume   994.27701282
_cell_formula_units_Z   4
loop_
 _symmetry_equiv_pos_site_id
 _symmetry_equiv_pos_as_xyz
  1  'x, y, z'
loop_
 _atom_site_type_symbol
 _atom_site_label
 _atom_site_symmetry_multiplicity
 _atom_site_fract_x
 _atom_site_fract_y
 _atom_site_fract_z
 _atom_site_occupancy
  Cl  Cl0  1  0.53146437  0.41848685  0.08000220  1
  Cl  Cl1  1  0.03146437  0.58151315  0.41999780  1
  Cl  Cl2  1  0.46853563  0.91848685  0.91999780  1
  Cl  Cl3  1  0.96853563  0.08151315  0.58000220  1
  Cl  Cl4  1  0.46853563  0.58151315  0.91999780  1
  Cl  Cl5  1  0.96853563  0.41848685  0.58000220  1
  Cl  Cl6  1  0.53146437  0.08151315  0.08000220  1
  Cl  Cl7  1  0.03146437  0.91848685  0.41999780  1
  Cl  Cl8  1  0.88388308  0.42694944  0.82140811  1
  Cl  Cl9  1  0.38388308  0.57305056  0.67859189  1
  Cl  Cl10  1  0.11611692  0.92694944  0.17859189  1
  Cl  Cl11  1  0.61611692  0.07305056  0.32140811  1
  Cl  Cl12  1  0.04315816  0.75000000  0.01525153  1
  Cl  Cl13  1  0.54315816  0.25000000  0.48474847  1
  Cl  Cl14  1  0.95684184  0.25000000  0.98474847  1
  Cl  Cl15  1  0.45684184  0.75000000  0.51525153  1
  Cl  Cl16  1  0.38388308  0.92694944  0.67859189  1
  Cl  Cl17  1  0.88388308  0.07305056  0.82140811  1
  Cl  Cl18  1  0.61611692  0.42694944  0.32140811  1
  Cl  Cl19  1  0.11611692  0.57305056  0.17859189  1
  Pd  Pd20  1  0.71787756  0.41535501  0.95025916  1
  Pd  Pd21  1  0.21787756  0.58464499  0.54974084  1
  Pd  Pd22  1  0.28212244  0.91535501  0.04974084  1
  Pd  Pd23  1  0.78212244  0.08464499  0.45025916  1
  Pd  Pd24  1  0.28212244  0.58464499  0.04974084  1
  Pd  Pd25  1  0.78212244  0.41535501  0.45025916  1
  Pd  Pd26  1  0.71787756  0.08464499  0.95025916  1
  Pd  Pd27  1  0.21787756  0.91535501  0.54974084  1
  Cs  Cs28  1  0.60520312  0.75000000  0.26463388  1
  Cs  Cs29  1  0.10520312  0.25000000  0.23536612  1
  Cs  Cs30  1  0.39479688  0.25000000  0.73536612  1
  Cs  Cs31  1  0.89479688  0.75000000  0.76463388  1
