# generated using pymatgen
data_Ta(TeCl3)2
_symmetry_space_group_name_H-M   'P 1'
_cell_length_a   7.16192705
_cell_length_b   7.66870412
_cell_length_c   11.83897797
_cell_angle_alpha   78.98952628
_cell_angle_beta   75.82876445
_cell_angle_gamma   83.68975767
_symmetry_Int_Tables_number   1
_chemical_formula_structural   Ta(TeCl3)2
_chemical_formula_sum   'Ta2 Te4 Cl12'
_cell_volume   617.47215932
_cell_formula_units_Z   2
loop_
 _symmetry_equiv_pos_site_id
 _symmetry_equiv_pos_as_xyz
  1  'x, y, z'
loop_
 _atom_site_type_symbol
 _atom_site_label
 _atom_site_symmetry_multiplicity
 _atom_site_fract_x
 _atom_site_fract_y
 _atom_site_fract_z
 _atom_site_occupancy
  Ta  Ta0  1  0.79527385  0.33001300  0.79731695  1
  Ta  Ta1  1  0.20472615  0.66998700  0.20268305  1
  Te  Te2  1  0.27050227  0.15666351  0.49542695  1
  Te  Te3  1  0.72949773  0.84333649  0.50457305  1
  Te  Te4  1  0.39205914  0.90635863  0.66265809  1
  Te  Te5  1  0.60794086  0.09364137  0.33734191  1
  Cl  Cl6  1  0.85617137  0.28890565  0.98488737  1
  Cl  Cl7  1  0.14382863  0.71109435  0.01511263  1
  Cl  Cl8  1  0.94706226  0.04022479  0.76295820  1
  Cl  Cl9  1  0.05293774  0.95977521  0.23704180  1
  Cl  Cl10  1  0.10123909  0.44713946  0.71452482  1
  Cl  Cl11  1  0.89876091  0.55286054  0.28547518  1
  Cl  Cl12  1  0.26347500  0.62792725  0.39740551  1
  Cl  Cl13  1  0.73652500  0.37207275  0.60259449  1
  Cl  Cl14  1  0.49937233  0.79942993  0.12689940  1
  Cl  Cl15  1  0.50062767  0.20057007  0.87310060  1
  Cl  Cl16  1  0.34543067  0.37755804  0.18693183  1
  Cl  Cl17  1  0.65456933  0.62244196  0.81306817  1
