# generated using pymatgen
data_BeI2
_symmetry_space_group_name_H-M   'P 1'
_cell_length_a   12.99428250
_cell_length_b   12.99428250
_cell_length_c   14.09856414
_cell_angle_alpha   117.44113646
_cell_angle_beta   117.44113651
_cell_angle_gamma   90.00000002
_symmetry_Int_Tables_number   1
_chemical_formula_structural   BeI2
_chemical_formula_sum   'Be16 I32'
_cell_volume   1805.55599157
_cell_formula_units_Z   16
loop_
 _symmetry_equiv_pos_site_id
 _symmetry_equiv_pos_as_xyz
  1  'x, y, z'
loop_
 _atom_site_type_symbol
 _atom_site_label
 _atom_site_symmetry_multiplicity
 _atom_site_fract_x
 _atom_site_fract_y
 _atom_site_fract_z
 _atom_site_occupancy
  Be  Be0  1  0.60795752  0.56221129  0.37659300  1
  Be  Be1  1  0.31438171  0.60795752  0.87659300  1
  Be  Be2  1  0.56221129  0.76863548  0.87659300  1
  Be  Be3  1  0.73136452  0.93778871  0.62340700  1
  Be  Be4  1  0.89204248  0.18561829  0.62340700  1
  Be  Be5  1  0.18561829  0.73136452  0.12340700  1
  Be  Be6  1  0.93778871  0.89204248  0.12340700  1
  Be  Be7  1  0.76863548  0.31438171  0.37659300  1
  Be  Be8  1  0.39204248  0.43778871  0.62340700  1
  Be  Be9  1  0.68561829  0.39204248  0.12340700  1
  Be  Be10  1  0.43778871  0.23136452  0.12340700  1
  Be  Be11  1  0.26863548  0.06221129  0.37659300  1
  Be  Be12  1  0.10795752  0.81438171  0.37659300  1
  Be  Be13  1  0.81438171  0.26863548  0.87659300  1
  Be  Be14  1  0.06221129  0.10795752  0.87659300  1
  Be  Be15  1  0.23136452  0.68561829  0.62340700  1
  I  I16  1  0.66671191  0.58842302  0.24802969  1
  I  I17  1  0.15960667  0.66671191  0.74802969  1
  I  I18  1  0.58842302  0.58131778  0.74802969  1
  I  I19  1  0.91868222  0.91157698  0.75197031  1
  I  I20  1  0.83328809  0.34039333  0.75197031  1
  I  I21  1  0.34039333  0.91868222  0.25197031  1
  I  I22  1  0.91157698  0.83328809  0.25197031  1
  I  I23  1  0.58131778  0.15960667  0.24802969  1
  I  I24  1  0.33328809  0.41157698  0.75197031  1
  I  I25  1  0.84039333  0.33328809  0.25197031  1
  I  I26  1  0.41157698  0.41868222  0.25197031  1
  I  I27  1  0.08131778  0.08842302  0.24802969  1
  I  I28  1  0.16671191  0.65960667  0.24802969  1
  I  I29  1  0.65960667  0.08131778  0.74802969  1
  I  I30  1  0.08842302  0.16671191  0.74802969  1
  I  I31  1  0.41868222  0.84039333  0.75197031  1
  I  I32  1  0.75772956  0.50772956  0.51545912  1
  I  I33  1  0.50772956  0.75772956  0.01545912  1
  I  I34  1  0.74227044  0.99227044  0.48454088  1
  I  I35  1  0.99227044  0.74227044  0.98454088  1
  I  I36  1  0.24227044  0.49227044  0.48454088  1
  I  I37  1  0.49227044  0.24227044  0.98454088  1
  I  I38  1  0.25772956  0.00772956  0.51545912  1
  I  I39  1  0.00772956  0.25772956  0.01545912  1
  I  I40  1  0.57278823  0.75000000  0.50000000  1
  I  I41  1  0.25000000  0.57278823  0.00000000  1
  I  I42  1  0.75000000  0.92721177  0.00000000  1
  I  I43  1  0.92721177  0.25000000  0.50000000  1
  I  I44  1  0.42721177  0.25000000  0.50000000  1
  I  I45  1  0.75000000  0.42721177  0.00000000  1
  I  I46  1  0.25000000  0.07278823  0.00000000  1
  I  I47  1  0.07278823  0.75000000  0.50000000  1
