# generated using pymatgen
data_Sr7Re4O19
_symmetry_space_group_name_H-M   'P 1'
_cell_length_a   5.63855313
_cell_length_b   7.47564795
_cell_length_c   10.51411707
_cell_angle_alpha   98.00364754
_cell_angle_beta   90.00000000
_cell_angle_gamma   112.15590075
_symmetry_Int_Tables_number   1
_chemical_formula_structural   Sr7Re4O19
_chemical_formula_sum   'Sr7 Re4 O19'
_cell_volume   405.79975695
_cell_formula_units_Z   1
loop_
 _symmetry_equiv_pos_site_id
 _symmetry_equiv_pos_as_xyz
  1  'x, y, z'
loop_
 _atom_site_type_symbol
 _atom_site_label
 _atom_site_symmetry_multiplicity
 _atom_site_fract_x
 _atom_site_fract_y
 _atom_site_fract_z
 _atom_site_occupancy
  O  O0  1  0.00000000  0.00000000  0.50000000  1
  O  O1  1  0.30388803  0.60777605  0.38662117  1
  O  O2  1  0.69611197  0.39222395  0.61337883  1
  O  O3  1  0.95534096  0.91068192  0.85427348  1
  O  O4  1  0.04465904  0.08931808  0.14572652  1
  O  O5  1  0.60178803  0.20357606  0.93039736  1
  O  O6  1  0.39821197  0.79642394  0.06960264  1
  O  O7  1  0.68355190  0.85827381  0.28465173  1
  O  O8  1  0.82527808  0.14172619  0.71534827  1
  O  O9  1  0.31644810  0.14172619  0.71534827  1
  O  O10  1  0.17472192  0.85827381  0.28465173  1
  O  O11  1  0.87862780  0.24821610  0.37321273  1
  O  O12  1  0.63041170  0.75178390  0.62678727  1
  O  O13  1  0.12137220  0.75178390  0.62678727  1
  O  O14  1  0.36958830  0.24821610  0.37321273  1
  O  O15  1  0.48324431  0.48736424  0.15368734  1
  O  O16  1  0.99588007  0.51263576  0.84631266  1
  O  O17  1  0.51675569  0.51263576  0.84631266  1
  O  O18  1  0.00411993  0.48736424  0.15368734  1
  Sr  Sr19  1  0.78922441  0.57844883  0.41277700  1
  Sr  Sr20  1  0.21077559  0.42155117  0.58722300  1
  Sr  Sr21  1  0.58377648  0.16755296  0.16463618  1
  Sr  Sr22  1  0.41622352  0.83244704  0.83536382  1
  Sr  Sr23  1  0.50000000  0.00000000  0.50000000  1
  Sr  Sr24  1  0.14153259  0.28306518  0.95754373  1
  Sr  Sr25  1  0.85846741  0.71693482  0.04245627  1
  Re  Re26  1  0.03314154  0.06628308  0.32281830  1
  Re  Re27  1  0.96685846  0.93371692  0.67718170  1
  Re  Re28  1  0.33076231  0.66152462  0.21979510  1
  Re  Re29  1  0.66923769  0.33847538  0.78020490  1
