# generated using pymatgen
data_Mg13Au41
_symmetry_space_group_name_H-M   'P 1'
_cell_length_a   15.23408682
_cell_length_b   15.23408664
_cell_length_c   9.62160970
_cell_angle_alpha   90.00000000
_cell_angle_beta   90.00000000
_cell_angle_gamma   120.00000039
_symmetry_Int_Tables_number   1
_chemical_formula_structural   Mg13Au41
_chemical_formula_sum   'Mg26 Au82'
_cell_volume   1933.79847435
_cell_formula_units_Z   2
loop_
 _symmetry_equiv_pos_site_id
 _symmetry_equiv_pos_as_xyz
  1  'x, y, z'
loop_
 _atom_site_type_symbol
 _atom_site_label
 _atom_site_symmetry_multiplicity
 _atom_site_fract_x
 _atom_site_fract_y
 _atom_site_fract_z
 _atom_site_occupancy
  Mg  Mg0  1  0.00000000  0.00000000  0.00000000  1
  Mg  Mg1  1  0.00000000  0.00000000  0.50000000  1
  Mg  Mg2  1  0.44535358  0.00000000  0.25000000  1
  Mg  Mg3  1  0.44535358  0.44535358  0.75000000  1
  Mg  Mg4  1  0.00000000  0.55464642  0.75000000  1
  Mg  Mg5  1  1.00000000  0.44535358  0.25000000  1
  Mg  Mg6  1  0.55464642  0.55464642  0.25000000  1
  Mg  Mg7  1  0.55464642  0.00000000  0.75000000  1
  Mg  Mg8  1  0.77586266  0.00000000  0.25000000  1
  Mg  Mg9  1  0.77586266  0.77586266  0.75000000  1
  Mg  Mg10  1  1.00000000  0.22413734  0.75000000  1
  Mg  Mg11  1  0.00000000  0.77586266  0.25000000  1
  Mg  Mg12  1  0.22413734  0.22413734  0.25000000  1
  Mg  Mg13  1  0.22413734  0.00000000  0.75000000  1
  Mg  Mg14  1  0.22315021  0.44630042  0.00000000  1
  Mg  Mg15  1  0.77684979  0.22315021  0.50000000  1
  Mg  Mg16  1  0.44630042  0.22315021  0.50000000  1
  Mg  Mg17  1  0.55369958  0.77684979  0.00000000  1
  Mg  Mg18  1  0.22315021  0.77684979  0.00000000  1
  Mg  Mg19  1  0.77684979  0.55369958  0.50000000  1
  Mg  Mg20  1  0.77684979  0.55369958  0.00000000  1
  Mg  Mg21  1  0.22315021  0.77684979  0.50000000  1
  Mg  Mg22  1  0.55369958  0.77684979  0.50000000  1
  Mg  Mg23  1  0.44630042  0.22315021  0.00000000  1
  Mg  Mg24  1  0.77684979  0.22315021  0.00000000  1
  Mg  Mg25  1  0.22315021  0.44630042  0.50000000  1
  Au  Au26  1  0.33333333  0.66666667  0.00000000  1
  Au  Au27  1  0.66666667  0.33333333  0.50000000  1
  Au  Au28  1  0.66666667  0.33333333  0.00000000  1
  Au  Au29  1  0.33333333  0.66666667  0.50000000  1
  Au  Au30  1  0.10963050  0.00000000  0.25000000  1
  Au  Au31  1  0.10963050  0.10963050  0.75000000  1
  Au  Au32  1  1.00000000  0.89036950  0.75000000  1
  Au  Au33  1  0.00000000  0.10963050  0.25000000  1
  Au  Au34  1  0.89036950  0.89036950  0.25000000  1
  Au  Au35  1  0.89036950  0.00000000  0.75000000  1
  Au  Au36  1  0.11079510  0.22159020  0.00000000  1
  Au  Au37  1  0.88920490  0.11079510  0.50000000  1
  Au  Au38  1  0.22159020  0.11079510  0.50000000  1
  Au  Au39  1  0.77840980  0.88920490  0.00000000  1
  Au  Au40  1  0.11079510  0.88920490  0.00000000  1
  Au  Au41  1  0.88920490  0.77840980  0.50000000  1
  Au  Au42  1  0.88920490  0.77840980  0.00000000  1
  Au  Au43  1  0.11079510  0.88920490  0.50000000  1
  Au  Au44  1  0.77840980  0.88920490  0.50000000  1
  Au  Au45  1  0.22159020  0.11079510  0.00000000  1
  Au  Au46  1  0.88920490  0.11079510  0.00000000  1
  Au  Au47  1  0.11079510  0.22159020  0.50000000  1
  Au  Au48  1  0.44498910  0.88997820  0.00000000  1
  Au  Au49  1  0.55501090  0.44498910  0.50000000  1
  Au  Au50  1  0.88997820  0.44498910  0.50000000  1
  Au  Au51  1  0.11002180  0.55501090  0.00000000  1
  Au  Au52  1  0.44498910  0.55501090  0.00000000  1
  Au  Au53  1  0.55501090  0.11002180  0.50000000  1
  Au  Au54  1  0.55501090  0.11002180  0.00000000  1
  Au  Au55  1  0.44498910  0.55501090  0.50000000  1
  Au  Au56  1  0.11002180  0.55501090  0.50000000  1
  Au  Au57  1  0.88997820  0.44498910  0.00000000  1
  Au  Au58  1  0.55501090  0.44498910  0.00000000  1
  Au  Au59  1  0.44498910  0.88997820  0.50000000  1
  Au  Au60  1  0.22093327  0.55147941  0.25000000  1
  Au  Au61  1  0.66945386  0.22093327  0.75000000  1
  Au  Au62  1  0.55147941  0.33054614  0.75000000  1
  Au  Au63  1  0.44852059  0.66945386  0.25000000  1
  Au  Au64  1  0.33054614  0.77906673  0.25000000  1
  Au  Au65  1  0.66945386  0.44852059  0.25000000  1
  Au  Au66  1  0.77906673  0.33054614  0.25000000  1
  Au  Au67  1  0.77906673  0.44852059  0.75000000  1
  Au  Au68  1  0.55147941  0.22093327  0.25000000  1
  Au  Au69  1  0.44852059  0.77906673  0.75000000  1
  Au  Au70  1  0.33054614  0.55147941  0.75000000  1
  Au  Au71  1  0.22093327  0.66945386  0.75000000  1
  Au  Au72  1  0.11048597  0.66635053  0.25000000  1
  Au  Au73  1  0.44413544  0.11048597  0.75000000  1
  Au  Au74  1  0.66635053  0.55586456  0.75000000  1
  Au  Au75  1  0.33364947  0.44413544  0.25000000  1
  Au  Au76  1  0.55586456  0.88951403  0.25000000  1
  Au  Au77  1  0.44413544  0.33364947  0.25000000  1
  Au  Au78  1  0.88951403  0.55586456  0.25000000  1
  Au  Au79  1  0.88951403  0.33364947  0.75000000  1
  Au  Au80  1  0.66635053  0.11048597  0.25000000  1
  Au  Au81  1  0.33364947  0.88951403  0.75000000  1
  Au  Au82  1  0.55586456  0.66635053  0.75000000  1
  Au  Au83  1  0.11048597  0.44413544  0.75000000  1
  Au  Au84  1  0.11176765  0.33279325  0.25000000  1
  Au  Au85  1  0.77897440  0.11176765  0.75000000  1
  Au  Au86  1  0.33279325  0.22102560  0.75000000  1
  Au  Au87  1  0.66720675  0.77897440  0.25000000  1
  Au  Au88  1  0.22102560  0.88823235  0.25000000  1
  Au  Au89  1  0.77897440  0.66720675  0.25000000  1
  Au  Au90  1  0.88823235  0.22102560  0.25000000  1
  Au  Au91  1  0.88823235  0.66720675  0.75000000  1
  Au  Au92  1  0.33279325  0.11176765  0.25000000  1
  Au  Au93  1  0.66720675  0.88823235  0.75000000  1
  Au  Au94  1  0.22102560  0.33279325  0.75000000  1
  Au  Au95  1  0.11176765  0.77897440  0.75000000  1
  Au  Au96  1  0.33194961  0.00000000  0.00089450  1
  Au  Au97  1  0.33194961  0.33194961  0.50089450  1
  Au  Au98  1  0.00000000  0.66805039  0.50089450  1
  Au  Au99  1  1.00000000  0.33194961  0.00089450  1
  Au  Au100  1  0.66805039  0.66805039  0.00089450  1
  Au  Au101  1  0.33194961  0.00000000  0.49910550  1
  Au  Au102  1  0.66805039  0.66805039  0.49910550  1
  Au  Au103  1  0.66805039  0.00000000  0.50089450  1
  Au  Au104  1  1.00000000  0.33194961  0.49910550  1
  Au  Au105  1  0.00000000  0.66805039  0.99910550  1
  Au  Au106  1  0.66805039  0.00000000  0.99910550  1
  Au  Au107  1  0.33194961  0.33194961  0.99910550  1
