# generated using pymatgen
data_Bi2Se2Cl7
_symmetry_space_group_name_H-M   'P 1'
_cell_length_a   10.52050530
_cell_length_b   10.97531868
_cell_length_c   10.97531868
_cell_angle_alpha   90.00000000
_cell_angle_beta   90.00000000
_cell_angle_gamma   90.00000000
_symmetry_Int_Tables_number   1
_chemical_formula_structural   Bi2Se2Cl7
_chemical_formula_sum   'Bi8 Se8 Cl28'
_cell_volume   1267.27503098
_cell_formula_units_Z   4
loop_
 _symmetry_equiv_pos_site_id
 _symmetry_equiv_pos_as_xyz
  1  'x, y, z'
loop_
 _atom_site_type_symbol
 _atom_site_label
 _atom_site_symmetry_multiplicity
 _atom_site_fract_x
 _atom_site_fract_y
 _atom_site_fract_z
 _atom_site_occupancy
  Cl  Cl0  1  0.32809686  0.25000000  0.25000000  1
  Cl  Cl1  1  0.67190314  0.75000000  0.75000000  1
  Cl  Cl2  1  0.50000000  0.25000000  0.75000000  1
  Cl  Cl3  1  0.50000000  0.75000000  0.25000000  1
  Cl  Cl4  1  0.44020093  0.94825017  0.63770472  1
  Cl  Cl5  1  0.44020093  0.86229528  0.94825017  1
  Cl  Cl6  1  0.44020093  0.63770472  0.55174983  1
  Cl  Cl7  1  0.44020093  0.55174983  0.86229528  1
  Cl  Cl8  1  0.55979907  0.05174983  0.36229528  1
  Cl  Cl9  1  0.55979907  0.13770472  0.05174983  1
  Cl  Cl10  1  0.55979907  0.36229528  0.44825017  1
  Cl  Cl11  1  0.55979907  0.44825017  0.13770472  1
  Cl  Cl12  1  0.22661486  0.98302323  0.37830826  1
  Cl  Cl13  1  0.22661486  0.12169174  0.98302323  1
  Cl  Cl14  1  0.22661486  0.37830826  0.51697677  1
  Cl  Cl15  1  0.22661486  0.51697677  0.12169174  1
  Cl  Cl16  1  0.85450814  0.60447822  0.15031293  1
  Cl  Cl17  1  0.85450814  0.34968707  0.60447822  1
  Cl  Cl18  1  0.85450814  0.15031293  0.89552178  1
  Cl  Cl19  1  0.85450814  0.89552178  0.34968707  1
  Cl  Cl20  1  0.14549186  0.39552178  0.84968707  1
  Cl  Cl21  1  0.14549186  0.65031293  0.39552178  1
  Cl  Cl22  1  0.14549186  0.84968707  0.10447822  1
  Cl  Cl23  1  0.14549186  0.10447822  0.65031293  1
  Cl  Cl24  1  0.77338514  0.48302323  0.87830826  1
  Cl  Cl25  1  0.77338514  0.62169174  0.48302323  1
  Cl  Cl26  1  0.77338514  0.87830826  0.01697677  1
  Cl  Cl27  1  0.77338514  0.01697677  0.62169174  1
  Se  Se28  1  0.89226790  0.17068177  0.37826042  1
  Se  Se29  1  0.89226790  0.12173958  0.17068177  1
  Se  Se30  1  0.89226790  0.37826042  0.32931823  1
  Se  Se31  1  0.89226790  0.32931823  0.12173958  1
  Se  Se32  1  0.10773210  0.82931823  0.62173958  1
  Se  Se33  1  0.10773210  0.87826042  0.82931823  1
  Se  Se34  1  0.10773210  0.62173958  0.67068177  1
  Se  Se35  1  0.10773210  0.67068177  0.87826042  1
  Bi  Bi36  1  0.34958995  0.14042932  0.51705373  1
  Bi  Bi37  1  0.34958995  0.98294627  0.14042932  1
  Bi  Bi38  1  0.34958995  0.51705373  0.35957068  1
  Bi  Bi39  1  0.34958995  0.35957068  0.98294627  1
  Bi  Bi40  1  0.65041005  0.85957068  0.48294627  1
  Bi  Bi41  1  0.65041005  0.01705373  0.85957068  1
  Bi  Bi42  1  0.65041005  0.48294627  0.64042932  1
  Bi  Bi43  1  0.65041005  0.64042932  0.01705373  1
