# generated using pymatgen
data_NbSeCl9
_symmetry_space_group_name_H-M   'P 1'
_cell_length_a   12.57725409
_cell_length_b   13.01837098
_cell_length_c   19.74334307
_cell_angle_alpha   90.00000000
_cell_angle_beta   90.00000000
_cell_angle_gamma   118.87076601
_symmetry_Int_Tables_number   1
_chemical_formula_structural   NbSeCl9
_chemical_formula_sum   'Nb8 Se8 Cl72'
_cell_volume   2830.89638674
_cell_formula_units_Z   8
loop_
 _symmetry_equiv_pos_site_id
 _symmetry_equiv_pos_as_xyz
  1  'x, y, z'
loop_
 _atom_site_type_symbol
 _atom_site_label
 _atom_site_symmetry_multiplicity
 _atom_site_fract_x
 _atom_site_fract_y
 _atom_site_fract_z
 _atom_site_occupancy
  Cl  Cl0  1  0.24165038  0.68626234  0.29000683  1
  Cl  Cl1  1  0.75834962  0.81373766  0.79000683  1
  Cl  Cl2  1  0.75834962  0.31373766  0.70999317  1
  Cl  Cl3  1  0.24165038  0.18626234  0.20999317  1
  Cl  Cl4  1  0.30829833  0.83344070  0.43307476  1
  Cl  Cl5  1  0.69170167  0.66655930  0.93307476  1
  Cl  Cl6  1  0.69170167  0.16655930  0.56692524  1
  Cl  Cl7  1  0.30829833  0.33344070  0.06692524  1
  Cl  Cl8  1  0.45744484  0.69254465  0.39116132  1
  Cl  Cl9  1  0.54255516  0.80745535  0.89116132  1
  Cl  Cl10  1  0.54255516  0.30745535  0.60883868  1
  Cl  Cl11  1  0.45744484  0.19254465  0.10883868  1
  Cl  Cl12  1  0.02578279  0.83574948  0.23621273  1
  Cl  Cl13  1  0.97421721  0.66425052  0.73621273  1
  Cl  Cl14  1  0.97421721  0.16425052  0.76378727  1
  Cl  Cl15  1  0.02578279  0.33574948  0.26378727  1
  Cl  Cl16  1  0.89016427  0.98905185  0.28624383  1
  Cl  Cl17  1  0.10983573  0.51094815  0.78624383  1
  Cl  Cl18  1  0.10983573  0.01094815  0.71375617  1
  Cl  Cl19  1  0.89016427  0.48905185  0.21375617  1
  Cl  Cl20  1  0.10321210  0.98244942  0.37954468  1
  Cl  Cl21  1  0.89678790  0.51755058  0.87954468  1
  Cl  Cl22  1  0.89678790  0.01755058  0.62045532  1
  Cl  Cl23  1  0.10321210  0.48244942  0.12045532  1
  Cl  Cl24  1  0.46645741  0.16053911  0.42712907  1
  Cl  Cl25  1  0.53354259  0.33946089  0.92712907  1
  Cl  Cl26  1  0.53354259  0.83946089  0.57287093  1
  Cl  Cl27  1  0.46645741  0.66053911  0.07287093  1
  Cl  Cl28  1  0.69429358  0.16209510  0.23646357  1
  Cl  Cl29  1  0.30570642  0.33790490  0.73646357  1
  Cl  Cl30  1  0.30570642  0.83790490  0.76353643  1
  Cl  Cl31  1  0.69429358  0.66209510  0.26353643  1
  Cl  Cl32  1  0.61694473  0.01243010  0.38564794  1
  Cl  Cl33  1  0.38305527  0.48756990  0.88564794  1
  Cl  Cl34  1  0.38305527  0.98756990  0.61435206  1
  Cl  Cl35  1  0.61694473  0.51243010  0.11435206  1
  Cl  Cl36  1  0.76652930  0.30555615  0.38662150  1
  Cl  Cl37  1  0.23347070  0.19444385  0.88662150  1
  Cl  Cl38  1  0.23347070  0.69444385  0.61337850  1
  Cl  Cl39  1  0.76652930  0.80555615  0.11337850  1
  Cl  Cl40  1  0.55043545  0.31329115  0.28272584  1
  Cl  Cl41  1  0.44956455  0.18670885  0.78272584  1
  Cl  Cl42  1  0.44956455  0.68670885  0.71727416  1
  Cl  Cl43  1  0.55043545  0.81329115  0.21727416  1
  Cl  Cl44  1  0.40572200  0.00873995  0.28224933  1
  Cl  Cl45  1  0.59427800  0.49126005  0.78224933  1
  Cl  Cl46  1  0.59427800  0.99126005  0.71775067  1
  Cl  Cl47  1  0.40572200  0.50873995  0.21775067  1
  Cl  Cl48  1  0.73511731  0.68245593  0.59660257  1
  Cl  Cl49  1  0.26488269  0.81754407  0.09660257  1
  Cl  Cl50  1  0.26488269  0.31754407  0.40339743  1
  Cl  Cl51  1  0.73511731  0.18245593  0.90339743  1
  Cl  Cl52  1  0.80877601  0.82888811  0.44508644  1
  Cl  Cl53  1  0.19122399  0.67111189  0.94508644  1
  Cl  Cl54  1  0.19122399  0.17111189  0.55491356  1
  Cl  Cl55  1  0.80877601  0.32888811  0.05491356  1
  Cl  Cl56  1  0.94173609  0.67450410  0.39159279  1
  Cl  Cl57  1  0.05826391  0.82549590  0.89159279  1
  Cl  Cl58  1  0.05826391  0.32549590  0.60840721  1
  Cl  Cl59  1  0.94173609  0.17450410  0.10840721  1
  Cl  Cl60  1  0.65411902  0.53557357  0.44842344  1
  Cl  Cl61  1  0.34588098  0.96442643  0.94842344  1
  Cl  Cl62  1  0.34588098  0.46442643  0.55157656  1
  Cl  Cl63  1  0.65411902  0.03557357  0.05157656  1
  Cl  Cl64  1  0.87427470  0.52233923  0.53978258  1
  Cl  Cl65  1  0.12572530  0.97766077  0.03978258  1
  Cl  Cl66  1  0.12572530  0.47766077  0.46021742  1
  Cl  Cl67  1  0.87427470  0.02233923  0.96021742  1
  Cl  Cl68  1  0.02444467  0.81732105  0.53988801  1
  Cl  Cl69  1  0.97555533  0.68267895  0.03988801  1
  Cl  Cl70  1  0.97555533  0.18267895  0.46011199  1
  Cl  Cl71  1  0.02444467  0.31732105  0.96011199  1
  Se  Se72  1  0.40299449  0.81438863  0.34630139  1
  Se  Se73  1  0.59700551  0.68561137  0.84630139  1
  Se  Se74  1  0.59700551  0.18561137  0.65369861  1
  Se  Se75  1  0.40299449  0.31438863  0.15369861  1
  Se  Se76  1  0.93698650  0.85767095  0.32853672  1
  Se  Se77  1  0.06301350  0.64232905  0.82853672  1
  Se  Se78  1  0.06301350  0.14232905  0.67146328  1
  Se  Se79  1  0.93698650  0.35767095  0.17146328  1
  Nb  Nb80  1  0.58848229  0.17177996  0.33553600  1
  Nb  Nb81  1  0.41151771  0.32822004  0.83553600  1
  Nb  Nb82  1  0.41151771  0.82822004  0.66446400  1
  Nb  Nb83  1  0.58848229  0.67177996  0.16446400  1
  Nb  Nb84  1  0.83544204  0.66881689  0.50162799  1
  Nb  Nb85  1  0.16455796  0.83118311  0.00162799  1
  Nb  Nb86  1  0.16455796  0.33118311  0.49837201  1
  Nb  Nb87  1  0.83544204  0.16881689  0.99837201  1
