# generated using pymatgen
data_Na2CO3
_symmetry_space_group_name_H-M   'P 1'
_cell_length_a   5.32718169
_cell_length_b   5.21562080
_cell_length_c   6.16542976
_cell_angle_alpha   100.01735403
_cell_angle_beta   90.00000000
_cell_angle_gamma   120.71012657
_symmetry_Int_Tables_number   1
_chemical_formula_structural   Na2CO3
_chemical_formula_sum   'Na4 C2 O6'
_cell_volume   144.23464234
_cell_formula_units_Z   2
loop_
 _symmetry_equiv_pos_site_id
 _symmetry_equiv_pos_as_xyz
  1  'x, y, z'
loop_
 _atom_site_type_symbol
 _atom_site_label
 _atom_site_symmetry_multiplicity
 _atom_site_fract_x
 _atom_site_fract_y
 _atom_site_fract_z
 _atom_site_occupancy
  Na  Na0  1  0.67144212  0.34288423  0.75530893  1
  Na  Na1  1  0.32855788  0.65711577  0.24469107  1
  Na  Na2  1  0.00000000  0.00000000  0.00000000  1
  Na  Na3  1  0.00000000  0.00000000  0.50000000  1
  C  C4  1  0.33656840  0.67313680  0.75185940  1
  C  C5  1  0.66343160  0.32686320  0.24814060  1
  O  O6  1  0.20965655  0.41931310  0.82368235  1
  O  O7  1  0.38867919  0.19972967  0.28387005  1
  O  O8  1  0.18894952  0.80027033  0.71612995  1
  O  O9  1  0.81105048  0.19972967  0.28387005  1
  O  O10  1  0.61132081  0.80027033  0.71612995  1
  O  O11  1  0.79034345  0.58068690  0.17631765  1
