# generated using pymatgen
data_TbNi
_symmetry_space_group_name_H-M   'P 1'
_cell_length_a   4.19326329
_cell_length_b   5.43930930
_cell_length_c   21.25984597
_cell_angle_alpha   96.81492783
_cell_angle_beta   90.00000000
_cell_angle_gamma   90.00000000
_symmetry_Int_Tables_number   1
_chemical_formula_structural   TbNi
_chemical_formula_sum   'Tb12 Ni12'
_cell_volume   481.47823098
_cell_formula_units_Z   12
loop_
 _symmetry_equiv_pos_site_id
 _symmetry_equiv_pos_as_xyz
  1  'x, y, z'
loop_
 _atom_site_type_symbol
 _atom_site_label
 _atom_site_symmetry_multiplicity
 _atom_site_fract_x
 _atom_site_fract_y
 _atom_site_fract_z
 _atom_site_occupancy
  Tb  Tb0  1  0.75000000  0.81020928  0.39340157  1
  Tb  Tb1  1  0.75000000  0.82550787  0.89312869  1
  Tb  Tb2  1  0.75000000  0.50221026  0.22754388  1
  Tb  Tb3  1  0.75000000  0.66683038  0.55975124  1
  Tb  Tb4  1  0.25000000  0.18979072  0.60659843  1
  Tb  Tb5  1  0.25000000  0.01976112  0.27366813  1
  Tb  Tb6  1  0.25000000  0.33316962  0.44024876  1
  Tb  Tb7  1  0.75000000  0.98023888  0.72633187  1
  Tb  Tb8  1  0.25000000  0.49778974  0.77245612  1
  Tb  Tb9  1  0.25000000  0.17449213  0.10687131  1
  Tb  Tb10  1  0.75000000  0.66384119  0.06054836  1
  Tb  Tb11  1  0.25000000  0.33615881  0.93945164  1
  Ni  Ni12  1  0.75000000  0.46594087  0.67800298  1
  Ni  Ni13  1  0.25000000  0.70956579  0.65379906  1
  Ni  Ni14  1  0.75000000  0.13320267  0.51192176  1
  Ni  Ni15  1  0.75000000  0.29043421  0.34620094  1
  Ni  Ni16  1  0.75000000  0.29602626  0.84473521  1
  Ni  Ni17  1  0.25000000  0.53405913  0.32199702  1
  Ni  Ni18  1  0.75000000  0.13393231  0.01165815  1
  Ni  Ni19  1  0.25000000  0.86679733  0.48807824  1
  Ni  Ni20  1  0.25000000  0.02911536  0.82144393  1
  Ni  Ni21  1  0.25000000  0.86606769  0.98834185  1
  Ni  Ni22  1  0.25000000  0.70397374  0.15526479  1
  Ni  Ni23  1  0.75000000  0.97088464  0.17855607  1
