# generated using pymatgen
data_Li9Mn2Co5O16
_symmetry_space_group_name_H-M   'P 1'
_cell_length_a   2.90557030
_cell_length_b   10.22991776
_cell_length_c   10.32855455
_cell_angle_alpha   70.06105342
_cell_angle_beta   90.00000000
_cell_angle_gamma   90.00000000
_symmetry_Int_Tables_number   1
_chemical_formula_structural   Li9Mn2Co5O16
_chemical_formula_sum   'Li9 Mn2 Co5 O16'
_cell_volume   288.60048172
_cell_formula_units_Z   1
loop_
 _symmetry_equiv_pos_site_id
 _symmetry_equiv_pos_as_xyz
  1  'x, y, z'
loop_
 _atom_site_type_symbol
 _atom_site_label
 _atom_site_symmetry_multiplicity
 _atom_site_fract_x
 _atom_site_fract_y
 _atom_site_fract_z
 _atom_site_occupancy
  Li  Li0  1  0.50000000  0.00462021  0.25330193  1
  Li  Li1  1  0.50000000  -0.00028268  0.74416928  1
  Li  Li2  1  0.00000000  0.25485080  0.25830248  1
  Li  Li3  1  0.00000000  0.25462696  0.73783859  1
  Li  Li4  1  0.50000000  0.50226280  0.26248925  1
  Li  Li5  1  0.50000000  0.49450768  0.74015941  1
  Li  Li6  1  0.00000000  0.73754490  0.25989553  1
  Li  Li7  1  0.00000000  0.74820245  0.74502524  1
  Li  Li8  1  0.00000000  0.50129693  0.49593051  1
  Mn  Mn9  1  0.00000000  -0.00137840  -0.00006865  1
  Mn  Mn10  1  0.50000000  0.74418568  0.49550169  1
  Co  Co11  1  0.00000000  0.00498270  0.50106862  1
  Co  Co12  1  0.50000000  0.25617288  0.00053516  1
  Co  Co13  1  0.50000000  0.26501302  0.50807162  1
  Co  Co14  1  0.00000000  0.50533916  -0.00046549  1
  Co  Co15  1  0.50000000  0.74291503  0.00009825  1
  O  O16  1  0.50000000  0.89154307  0.11262346  1
  O  O17  1  0.50000000  0.87457480  0.61062967  1
  O  O18  1  -0.00000000  0.12440173  0.10962864  1
  O  O19  1  0.00000000  0.12909301  0.61366312  1
  O  O20  1  0.50000000  0.37879050  0.11447336  1
  O  O21  1  0.50000000  0.36488278  0.62237942  1
  O  O22  1  -0.00000000  0.62886773  0.11897866  1
  O  O23  1  -0.00000000  0.63918265  0.60871582  1
  O  O24  1  0.50000000  0.11660103  0.38672555  1
  O  O25  1  0.50000000  0.11057785  0.88882408  1
  O  O26  1  0.00000000  0.36336041  0.38635599  1
  O  O27  1  -0.00000000  0.36471560  0.88569252  1
  O  O28  1  0.50000000  0.63809221  0.38299553  1
  O  O29  1  0.50000000  0.61784051  0.87845563  1
  O  O30  1  0.00000000  0.86585788  0.38846636  1
  O  O31  1  0.00000000  0.87675814  0.88953878  1
