# generated using pymatgen
data_Sr3MoN4
_symmetry_space_group_name_H-M   'P 1'
_cell_length_a   9.79806110
_cell_length_b   10.57687299
_cell_length_c   11.68246634
_cell_angle_alpha   90.00000000
_cell_angle_beta   90.00000000
_cell_angle_gamma   90.00000000
_symmetry_Int_Tables_number   1
_chemical_formula_structural   Sr3MoN4
_chemical_formula_sum   'Sr24 Mo8 N32'
_cell_volume   1210.68725618
_cell_formula_units_Z   8
loop_
 _symmetry_equiv_pos_site_id
 _symmetry_equiv_pos_as_xyz
  1  'x, y, z'
loop_
 _atom_site_type_symbol
 _atom_site_label
 _atom_site_symmetry_multiplicity
 _atom_site_fract_x
 _atom_site_fract_y
 _atom_site_fract_z
 _atom_site_occupancy
  N  N0  1  0.44209374  0.15867040  0.49192524  1
  N  N1  1  0.94209374  0.84132960  0.00807476  1
  N  N2  1  0.05790626  0.65867040  0.50807476  1
  N  N3  1  0.55790626  0.34132960  0.99192524  1
  N  N4  1  0.55790626  0.84132960  0.50807476  1
  N  N5  1  0.05790626  0.15867040  0.99192524  1
  N  N6  1  0.94209374  0.34132960  0.49192524  1
  N  N7  1  0.44209374  0.65867040  0.00807476  1
  N  N8  1  0.38848623  0.99537091  0.27729468  1
  N  N9  1  0.88848623  0.00462909  0.22270532  1
  N  N10  1  0.11151377  0.49537091  0.72270532  1
  N  N11  1  0.61151377  0.50462909  0.77729468  1
  N  N12  1  0.61151377  0.00462909  0.72270532  1
  N  N13  1  0.11151377  0.99537091  0.77729468  1
  N  N14  1  0.88848623  0.50462909  0.27729468  1
  N  N15  1  0.18701290  0.49594442  0.03027066  1
  N  N16  1  0.21405554  0.23729673  0.32066849  1
  N  N17  1  0.71405554  0.76270327  0.17933151  1
  N  N18  1  0.28594446  0.73729673  0.67933151  1
  N  N19  1  0.78594446  0.26270327  0.82066849  1
  N  N20  1  0.78594446  0.76270327  0.67933151  1
  N  N21  1  0.28594446  0.23729673  0.82066849  1
  N  N22  1  0.71405554  0.26270327  0.32066849  1
  N  N23  1  0.21405554  0.73729673  0.17933151  1
  N  N24  1  0.18701290  0.99594442  0.46972934  1
  N  N25  1  0.68701290  0.00405558  0.03027066  1
  N  N26  1  0.31298710  0.49594442  0.53027066  1
  N  N27  1  0.81298710  0.50405558  0.96972934  1
  N  N28  1  0.81298710  0.00405558  0.53027066  1
  N  N29  1  0.31298710  0.99594442  0.96972934  1
  N  N30  1  0.68701290  0.50405558  0.46972934  1
  N  N31  1  0.38848623  0.49537091  0.22270532  1
  Sr  Sr32  1  0.97296087  0.12503510  0.39643368  1
  Sr  Sr33  1  0.47296087  0.87496490  0.10356632  1
  Sr  Sr34  1  0.52703913  0.62503510  0.60356632  1
  Sr  Sr35  1  0.02703913  0.37496490  0.89643368  1
  Sr  Sr36  1  0.02703913  0.87496490  0.60356632  1
  Sr  Sr37  1  0.52703913  0.12503510  0.89643368  1
  Sr  Sr38  1  0.47296087  0.37496490  0.39643368  1
  Sr  Sr39  1  0.97296087  0.62503510  0.10356632  1
  Sr  Sr40  1  0.63199443  0.02720610  0.35710077  1
  Sr  Sr41  1  0.13199443  0.97279390  0.14289923  1
  Sr  Sr42  1  0.86800557  0.52720610  0.64289923  1
  Sr  Sr43  1  0.36800557  0.47279390  0.85710077  1
  Sr  Sr44  1  0.36800557  0.97279390  0.64289923  1
  Sr  Sr45  1  0.86800557  0.02720610  0.85710077  1
  Sr  Sr46  1  0.13199443  0.47279390  0.35710077  1
  Sr  Sr47  1  0.63199443  0.52720610  0.14289923  1
  Sr  Sr48  1  0.30421212  0.28991960  0.11706204  1
  Sr  Sr49  1  0.80421212  0.21008040  0.11706204  1
  Sr  Sr50  1  0.19578788  0.28991960  0.61706204  1
  Sr  Sr51  1  0.69578788  0.71008040  0.88293796  1
  Sr  Sr52  1  0.69578788  0.21008040  0.61706204  1
  Sr  Sr53  1  0.19578788  0.78991960  0.88293796  1
  Sr  Sr54  1  0.80421212  0.71008040  0.38293796  1
  Sr  Sr55  1  0.30421212  0.78991960  0.38293796  1
  Mo  Mo56  1  0.30877315  0.10084259  0.38758732  1
  Mo  Mo57  1  0.80877315  0.89915741  0.11241268  1
  Mo  Mo58  1  0.19122685  0.60084259  0.61241268  1
  Mo  Mo59  1  0.69122685  0.39915741  0.88758732  1
  Mo  Mo60  1  0.69122685  0.89915741  0.61241268  1
  Mo  Mo61  1  0.19122685  0.10084259  0.88758732  1
  Mo  Mo62  1  0.80877315  0.39915741  0.38758732  1
  Mo  Mo63  1  0.30877315  0.60084259  0.11241268  1
