# generated using pymatgen
data_Er5BiPt2
_symmetry_space_group_name_H-M   'P 1'
_cell_length_a   7.78365359
_cell_length_b   7.78365359
_cell_length_c   8.74986749
_cell_angle_alpha   116.40970815
_cell_angle_beta   116.40970816
_cell_angle_gamma   89.99999998
_symmetry_Int_Tables_number   1
_chemical_formula_structural   Er5BiPt2
_chemical_formula_sum   'Er10 Bi2 Pt4'
_cell_volume   412.10249882
_cell_formula_units_Z   2
loop_
 _symmetry_equiv_pos_site_id
 _symmetry_equiv_pos_as_xyz
  1  'x, y, z'
loop_
 _atom_site_type_symbol
 _atom_site_label
 _atom_site_symmetry_multiplicity
 _atom_site_fract_x
 _atom_site_fract_y
 _atom_site_fract_z
 _atom_site_occupancy
  Er  Er0  1  0.00000000  0.00000000  0.00000000  1
  Er  Er1  1  0.50000000  0.50000000  0.00000000  1
  Er  Er2  1  0.29145319  0.79145319  0.27158333  1
  Er  Er3  1  0.48013015  0.29145319  0.27158333  1
  Er  Er4  1  0.79145319  0.98013015  0.27158333  1
  Er  Er5  1  0.51986985  0.70854681  0.72841667  1
  Er  Er6  1  0.20854681  0.01986985  0.72841667  1
  Er  Er7  1  0.01986985  0.51986985  0.72841667  1
  Er  Er8  1  0.70854681  0.20854681  0.72841667  1
  Er  Er9  1  0.98013015  0.48013015  0.27158333  1
  Pt  Pt10  1  0.36080297  0.86080297  0.00000000  1
  Pt  Pt11  1  0.13919703  0.36080297  0.00000000  1
  Pt  Pt12  1  0.86080297  0.63919703  0.00000000  1
  Pt  Pt13  1  0.63919703  0.13919703  0.00000000  1
  Bi  Bi14  1  0.25000000  0.25000000  0.50000000  1
  Bi  Bi15  1  0.75000000  0.75000000  0.50000000  1
