# generated using pymatgen
data_LiCoPO4
_symmetry_space_group_name_H-M   'P 1'
_cell_length_a   5.06104771
_cell_length_b   10.20050492
_cell_length_c   6.80877914
_cell_angle_alpha   90.00000000
_cell_angle_beta   90.39014963
_cell_angle_gamma   90.00000000
_symmetry_Int_Tables_number   1
_chemical_formula_structural   LiCoPO4
_chemical_formula_sum   'Li4 Co4 P4 O16'
_cell_volume   351.49672238
_cell_formula_units_Z   4
loop_
 _symmetry_equiv_pos_site_id
 _symmetry_equiv_pos_as_xyz
  1  'x, y, z'
loop_
 _atom_site_type_symbol
 _atom_site_label
 _atom_site_symmetry_multiplicity
 _atom_site_fract_x
 _atom_site_fract_y
 _atom_site_fract_z
 _atom_site_occupancy
  Li  Li0  1  0.19567843  0.34777127  0.49462181  1
  Li  Li1  1  0.80432144  0.65222817  0.50537839  1
  Li  Li2  1  0.69567836  0.15222894  0.99462265  1
  Li  Li3  1  0.30432151  0.84777149  0.00537755  1
  O  O4  1  0.18847243  0.66026707  0.56763255  1
  O  O5  1  0.75546035  0.55320454  0.25031119  1
  O  O6  1  0.81069696  0.34011596  0.05689686  1
  O  O7  1  0.81152745  0.33973237  0.43236618  1
  O  O8  1  0.11105384  0.87952198  0.25799140  1
  O  O9  1  0.31152812  0.16026686  0.93236665  1
  O  O10  1  0.18930292  0.65988446  0.94310335  1
  O  O11  1  0.74453886  0.05320531  0.24968855  1
  O  O12  1  0.25546102  0.94679511  0.75031018  1
  O  O13  1  0.31069763  0.15988425  0.55689585  1
  O  O14  1  0.88894603  0.12047845  0.74200880  1
  O  O15  1  0.38894610  0.37952177  0.24200796  1
  O  O16  1  0.61105377  0.62047866  0.75799224  1
  O  O17  1  0.68847176  0.83973258  0.06763356  1
  O  O18  1  0.68930225  0.84011617  0.44310436  1
  O  O19  1  0.24453953  0.44679490  0.74968902  1
  P  P20  1  0.19246049  0.09576953  0.74470053  1
  P  P21  1  0.30754005  0.59576974  0.75529867  1
  P  P22  1  0.69245982  0.40423068  0.24470154  1
  P  P23  1  0.80753939  0.90423089  0.25529820  1
  Co  Co24  1  0.80622393  0.65734879  0.00722372  1
  Co  Co25  1  0.69377726  0.15734858  0.49277603  1
  Co  Co26  1  0.30622262  0.84265185  0.50722417  1
  Co  Co27  1  0.19377594  0.34265163  0.99277648  1
