# generated using pymatgen
data_LiFe2P5O16
_symmetry_space_group_name_H-M   'P 1'
_cell_length_a   18.81255604
_cell_length_b   6.78206610
_cell_length_c   5.06849332
_cell_angle_alpha   90.00000000
_cell_angle_beta   89.90682694
_cell_angle_gamma   90.00000000
_symmetry_Int_Tables_number   1
_chemical_formula_structural   LiFe2P5O16
_chemical_formula_sum   'Li2 Fe4 P10 O32'
_cell_volume   646.67806369
_cell_formula_units_Z   2
loop_
 _symmetry_equiv_pos_site_id
 _symmetry_equiv_pos_as_xyz
  1  'x, y, z'
loop_
 _atom_site_type_symbol
 _atom_site_label
 _atom_site_symmetry_multiplicity
 _atom_site_fract_x
 _atom_site_fract_y
 _atom_site_fract_z
 _atom_site_occupancy
  Li  Li0  1  0.47258822  0.38395440  0.72613285  1
  Li  Li1  1  0.97258783  0.61604556  0.72613279  1
  O  O2  1  0.35826677  0.29204256  0.22289862  1
  O  O3  1  0.91655298  0.39764243  0.03400671  1
  O  O4  1  0.56987460  0.94413193  0.05545034  1
  O  O5  1  0.98601798  0.77669628  0.35422871  1
  O  O6  1  0.00948754  0.23098866  0.67388936  1
  O  O7  1  0.07782795  0.63239948  0.93075424  1
  O  O8  1  0.06987498  0.05586803  0.05545040  1
  O  O9  1  0.11690113  0.57304674  0.45616035  1
  O  O10  1  0.10869207  0.97860313  0.58580020  1
  O  O11  1  0.13674421  0.30438713  0.79167339  1
  O  O12  1  0.19638331  0.85868981  0.15618330  1
  O  O13  1  0.21153233  0.58999736  0.81196700  1
  O  O14  1  0.28859450  0.59555713  0.21512586  1
  O  O15  1  0.30564931  0.84901950  0.84937051  1
  O  O16  1  0.93039382  0.92879296  0.93852924  1
  O  O17  1  0.38937405  0.95881822  0.39892222  1
  O  O18  1  0.39143148  0.56013327  0.53335651  1
  O  O19  1  0.41655284  0.60235753  0.03400675  1
  O  O20  1  0.43039368  0.07120700  0.93852928  1
  O  O21  1  0.88937420  0.04118174  0.39892218  1
  O  O22  1  0.50948768  0.76901130  0.67388931  1
  O  O23  1  0.57782809  0.36760048  0.93075420  1
  O  O24  1  0.89143110  0.43986669  0.53335646  1
  O  O25  1  0.61690127  0.42695321  0.45616030  1
  O  O26  1  0.60869222  0.02139683  0.58580016  1
  O  O27  1  0.63674382  0.69561282  0.79167530  1
  O  O28  1  0.69638345  0.14131015  0.15618326  1
  O  O29  1  0.71153194  0.41000260  0.81196695  1
  O  O30  1  0.78859465  0.40444283  0.21512582  1
  O  O31  1  0.80564945  0.15098045  0.84937047  1
  O  O32  1  0.85826638  0.70795740  0.22289856  1
  O  O33  1  0.48601784  0.22330368  0.35422876  1
  P  P34  1  0.57725660  0.87016951  0.77354121  1
  P  P35  1  0.63067920  0.46559429  0.74467581  1
  P  P36  1  0.75038688  0.25861994  0.00722870  1
  P  P37  1  0.86901115  0.47631128  0.25053213  1
  P  P38  1  0.07725646  0.12983045  0.77354125  1
  P  P39  1  0.13067906  0.53440567  0.74467585  1
  P  P40  1  0.25038674  0.74138002  0.00722875  1
  P  P41  1  0.36901101  0.52368868  0.25053217  1
  P  P42  1  0.42045866  0.12283736  0.23093627  1
  P  P43  1  0.92045880  0.87716260  0.23093623  1
  Fe  Fe44  1  0.90756083  0.17983356  0.73817069  1
  Fe  Fe45  1  0.59294051  0.17636745  0.26185294  1
  Fe  Fe46  1  0.40756121  0.82016639  0.73817075  1
  Fe  Fe47  1  0.09294037  0.82363251  0.26185298  1
