# generated using pymatgen
data_Na4TlAu
_symmetry_space_group_name_H-M   'P 1'
_cell_length_a   5.53742573
_cell_length_b   5.75867628
_cell_length_c   12.21714868
_cell_angle_alpha   83.74468710
_cell_angle_beta   76.90154018
_cell_angle_gamma   61.26300166
_symmetry_Int_Tables_number   1
_chemical_formula_structural   Na4TlAu
_chemical_formula_sum   'Na8 Tl2 Au2'
_cell_volume   332.71295340
_cell_formula_units_Z   2
loop_
 _symmetry_equiv_pos_site_id
 _symmetry_equiv_pos_as_xyz
  1  'x, y, z'
loop_
 _atom_site_type_symbol
 _atom_site_label
 _atom_site_symmetry_multiplicity
 _atom_site_fract_x
 _atom_site_fract_y
 _atom_site_fract_z
 _atom_site_occupancy
  Na  Na0  1  0.79450829  0.00000000  0.41098342  1
  Na  Na1  1  0.33622112  0.32755775  0.00000000  1
  Na  Na2  1  0.52929969  0.66606346  0.27533715  1
  Na  Na3  1  0.47070031  0.33393654  0.72466285  1
  Na  Na4  1  0.80463685  0.66606346  0.72466285  1
  Na  Na5  1  0.19536315  0.33393654  0.27533715  1
  Na  Na6  1  0.20549171  0.00000000  0.58901658  1
  Na  Na7  1  0.66377888  0.67244225  0.00000000  1
  Au  Au8  1  0.75000000  0.50000000  0.50000000  1
  Au  Au9  1  0.25000000  0.50000000  0.50000000  1
  Tl  Tl10  1  0.93370426  0.00000000  0.13259148  1
  Tl  Tl11  1  0.06629574  0.00000000  0.86740852  1
