# generated using pymatgen
data_Na2SO4
_symmetry_space_group_name_H-M   'P 1'
_cell_length_a   5.35490276
_cell_length_b   5.35490277
_cell_length_c   7.02748456
_cell_angle_alpha   90.00000000
_cell_angle_beta   90.00000000
_cell_angle_gamma   115.55854952
_symmetry_Int_Tables_number   1
_chemical_formula_structural   Na2SO4
_chemical_formula_sum   'Na4 S2 O8'
_cell_volume   181.79392567
_cell_formula_units_Z   2
loop_
 _symmetry_equiv_pos_site_id
 _symmetry_equiv_pos_as_xyz
  1  'x, y, z'
loop_
 _atom_site_type_symbol
 _atom_site_label
 _atom_site_symmetry_multiplicity
 _atom_site_fract_x
 _atom_site_fract_y
 _atom_site_fract_z
 _atom_site_occupancy
  O  O0  1  0.24617814  0.75382186  0.07770818  1
  O  O1  1  0.75382186  0.24617814  0.57770818  1
  O  O2  1  0.75382186  0.24617814  0.92229182  1
  O  O3  1  0.24617814  0.75382186  0.42229182  1
  O  O4  1  0.15908541  0.26770340  0.75000000  1
  O  O5  1  0.84091459  0.73229660  0.25000000  1
  O  O6  1  0.73229660  0.84091459  0.75000000  1
  O  O7  1  0.26770340  0.15908541  0.25000000  1
  Na  Na8  1  0.18515705  0.81484295  0.75000000  1
  Na  Na9  1  0.81484295  0.18515705  0.25000000  1
  Na  Na10  1  0.50000000  0.50000000  0.50000000  1
  Na  Na11  1  0.50000000  0.50000000  0.00000000  1
  S  S12  1  0.84843228  0.15156772  0.75000000  1
  S  S13  1  0.15156772  0.84843228  0.25000000  1
