# generated using pymatgen
data_La2W2O9
_symmetry_space_group_name_H-M   'P 1'
_cell_length_a   7.08916388
_cell_length_b   7.47821340
_cell_length_c   7.39323993
_cell_angle_alpha   70.16561615
_cell_angle_beta   82.94922506
_cell_angle_gamma   84.51828955
_symmetry_Int_Tables_number   1
_chemical_formula_structural   La2W2O9
_chemical_formula_sum   'La4 W4 O18'
_cell_volume   365.29786900
_cell_formula_units_Z   2
loop_
 _symmetry_equiv_pos_site_id
 _symmetry_equiv_pos_as_xyz
  1  'x, y, z'
loop_
 _atom_site_type_symbol
 _atom_site_label
 _atom_site_symmetry_multiplicity
 _atom_site_fract_x
 _atom_site_fract_y
 _atom_site_fract_z
 _atom_site_occupancy
  O  O0  1  0.65171721  0.36361055  0.64600621  1
  O  O1  1  0.34828269  0.63638915  0.35399496  1
  O  O2  1  0.98184202  0.15055862  0.72802639  1
  O  O3  1  0.01815788  0.84944109  0.27197478  1
  O  O4  1  0.50809421  0.09812149  0.23290152  1
  O  O5  1  0.49190570  0.90187821  0.76709829  1
  O  O6  1  0.33826764  0.25060422  0.51085056  1
  O  O7  1  0.66173227  0.74939549  0.48915062  1
  O  O8  1  0.72802438  0.83042509  0.07835199  1
  O  O9  1  0.27197553  0.16957461  0.92164782  1
  O  O10  1  0.18545715  0.91057463  0.57974888  1
  O  O11  1  0.81454268  0.08942650  0.42025046  1
  O  O12  1  0.02571625  0.53422946  0.70750226  1
  O  O13  1  0.31870292  0.46890714  0.09540658  1
  O  O14  1  0.14484210  0.79823493  0.94035992  1
  O  O15  1  0.85515773  0.20176620  0.05963942  1
  O  O16  1  0.68129699  0.53109256  0.90459323  1
  O  O17  1  0.97428366  0.46577024  0.29249891  1
  La  La18  1  0.16010046  0.15114640  0.25921833  1
  La  La19  1  0.83990079  0.84885472  0.74078221  1
  La  La20  1  0.61993079  0.39706187  0.27899195  1
  La  La21  1  0.38006912  0.60293783  0.72100786  1
  W  W22  1  0.84210801  0.35859671  0.79740571  1
  W  W23  1  0.15789190  0.64140299  0.20259410  1
  W  W24  1  0.27074638  0.05737886  0.73401677  1
  W  W25  1  0.72925353  0.94262084  0.26598440  1
