# generated using pymatgen
data_BaAl2O4
_symmetry_space_group_name_H-M   'P 1'
_cell_length_a   10.53455929
_cell_length_b   10.53455929
_cell_length_c   8.98096178
_cell_angle_alpha   90.00000000
_cell_angle_beta   90.00000000
_cell_angle_gamma   119.99999998
_symmetry_Int_Tables_number   1
_chemical_formula_structural   BaAl2O4
_chemical_formula_sum   'Ba8 Al16 O32'
_cell_volume   863.14989739
_cell_formula_units_Z   8
loop_
 _symmetry_equiv_pos_site_id
 _symmetry_equiv_pos_as_xyz
  1  'x, y, z'
loop_
 _atom_site_type_symbol
 _atom_site_label
 _atom_site_symmetry_multiplicity
 _atom_site_fract_x
 _atom_site_fract_y
 _atom_site_fract_z
 _atom_site_occupancy
  O  O0  1  0.66666667  0.33333333  0.25000000  1
  O  O1  1  0.33333333  0.66666667  0.75000000  1
  O  O2  1  0.83333887  0.66667773  0.75000000  1
  O  O3  1  0.16666113  0.83333887  0.25000000  1
  O  O4  1  0.66667773  0.83333887  0.25000000  1
  O  O5  1  0.33332227  0.16666113  0.75000000  1
  O  O6  1  0.83333887  0.16666113  0.75000000  1
  O  O7  1  0.16666113  0.33332227  0.25000000  1
  O  O8  1  0.49999461  0.32215041  0.49999748  1
  O  O9  1  0.67784959  0.17784420  0.49999748  1
  O  O10  1  0.82215580  0.50000539  0.49999748  1
  O  O11  1  0.17784420  0.49999461  0.99999748  1
  O  O12  1  0.50000539  0.82215580  0.50000252  1
  O  O13  1  0.50000539  0.67784959  0.99999748  1
  O  O14  1  0.32215041  0.82215580  0.99999748  1
  O  O15  1  0.67784959  0.50000539  0.00000252  1
  O  O16  1  0.82215580  0.32215041  0.00000252  1
  O  O17  1  0.17784420  0.67784959  0.50000252  1
  O  O18  1  0.32215041  0.49999461  0.50000252  1
  O  O19  1  0.49999461  0.17784420  0.00000252  1
  O  O20  1  0.32215426  0.00000000  0.50000000  1
  O  O21  1  0.32215426  0.32215426  0.00000000  1
  O  O22  1  0.00000000  0.67784574  0.00000000  1
  O  O23  1  0.00000000  0.32215426  0.50000000  1
  O  O24  1  0.17784729  0.00000000  0.00000000  1
  O  O25  1  0.17784729  0.17784729  0.50000000  1
  O  O26  1  0.00000000  0.82215271  0.50000000  1
  O  O27  1  0.00000000  0.17784729  0.00000000  1
  O  O28  1  0.82215271  0.82215271  0.00000000  1
  O  O29  1  0.82215271  0.00000000  0.50000000  1
  O  O30  1  0.67784574  0.00000000  0.00000000  1
  O  O31  1  0.67784574  0.67784574  0.50000000  1
  Al  Al32  1  0.33333333  0.66666667  0.55410663  1
  Al  Al33  1  0.66666667  0.33333333  0.05410663  1
  Al  Al34  1  0.66666667  0.33333333  0.44589337  1
  Al  Al35  1  0.33333333  0.66666667  0.94589337  1
  Al  Al36  1  0.16667176  0.83333302  0.44587010  1
  Al  Al37  1  0.16666698  0.33333874  0.44587010  1
  Al  Al38  1  0.66666126  0.83332824  0.44587010  1
  Al  Al39  1  0.33333874  0.16667176  0.94587010  1
  Al  Al40  1  0.83332824  0.66666126  0.55412990  1
  Al  Al41  1  0.83332824  0.16666698  0.94587010  1
  Al  Al42  1  0.83333302  0.66666126  0.94587010  1
  Al  Al43  1  0.16666698  0.83332824  0.05412990  1
  Al  Al44  1  0.66666126  0.83333302  0.05412990  1
  Al  Al45  1  0.33333874  0.16666698  0.55412990  1
  Al  Al46  1  0.83333302  0.16667176  0.55412990  1
  Al  Al47  1  0.16667176  0.33333874  0.05412990  1
  Ba  Ba48  1  0.49996572  0.99993143  0.75000000  1
  Ba  Ba49  1  0.50003428  0.49996572  0.25000000  1
  Ba  Ba50  1  0.99993143  0.49996572  0.25000000  1
  Ba  Ba51  1  0.00006857  0.50003428  0.75000000  1
  Ba  Ba52  1  0.49996572  0.50003428  0.75000000  1
  Ba  Ba53  1  0.50003428  0.00006857  0.25000000  1
  Ba  Ba54  1  0.00000000  0.00000000  0.75000000  1
  Ba  Ba55  1  0.00000000  0.00000000  0.25000000  1
