# generated using pymatgen
data_Ca2P2O7
_symmetry_space_group_name_H-M   'P 1'
_cell_length_a   6.77239949
_cell_length_b   6.77239949
_cell_length_c   24.50461652
_cell_angle_alpha   90.00000000
_cell_angle_beta   90.00000000
_cell_angle_gamma   90.00000000
_symmetry_Int_Tables_number   1
_chemical_formula_structural   Ca2P2O7
_chemical_formula_sum   'Ca16 P16 O56'
_cell_volume   1123.91391239
_cell_formula_units_Z   8
loop_
 _symmetry_equiv_pos_site_id
 _symmetry_equiv_pos_as_xyz
  1  'x, y, z'
loop_
 _atom_site_type_symbol
 _atom_site_label
 _atom_site_symmetry_multiplicity
 _atom_site_fract_x
 _atom_site_fract_y
 _atom_site_fract_z
 _atom_site_occupancy
  O  O0  1  0.84761964  0.22682886  0.65751495  1
  O  O1  1  0.77317114  0.84761964  0.90751495  1
  O  O2  1  0.22682886  0.15238036  0.40751495  1
  O  O3  1  0.15238036  0.77317114  0.15751495  1
  O  O4  1  0.53104073  0.22182609  0.60348025  1
  O  O5  1  0.77817391  0.53104073  0.85348025  1
  O  O6  1  0.22182609  0.46895927  0.35348025  1
  O  O7  1  0.46895927  0.77817391  0.10348025  1
  O  O8  1  0.65168954  0.54606666  0.64753221  1
  O  O9  1  0.45393334  0.65168954  0.89753221  1
  O  O10  1  0.54606666  0.34831046  0.39753221  1
  O  O11  1  0.34831046  0.45393334  0.14753221  1
  O  O12  1  0.83157125  0.40897453  0.56692982  1
  O  O13  1  0.59102547  0.83157125  0.81692982  1
  O  O14  1  0.40897453  0.16842875  0.31692982  1
  O  O15  1  0.16842875  0.59102547  0.06692982  1
  O  O16  1  0.96127129  0.44388148  0.47506397  1
  O  O17  1  0.55611852  0.96127129  0.72506397  1
  O  O18  1  0.44388148  0.03872871  0.22506397  1
  O  O19  1  0.03872871  0.55611852  0.97506397  1
  O  O20  1  0.80632361  0.11645997  0.50016691  1
  O  O21  1  0.94263669  0.81987124  0.59564825  1
  O  O22  1  0.88354003  0.80632361  0.75016691  1
  O  O23  1  0.19367639  0.88354003  0.00016691  1
  O  O24  1  0.13858120  0.21162072  0.54262445  1
  O  O25  1  0.78837928  0.13858120  0.79262445  1
  O  O26  1  0.21162072  0.86141880  0.29262445  1
  O  O27  1  0.86141880  0.78837928  0.04262445  1
  O  O28  1  0.09771054  0.58329592  0.66794486  1
  O  O29  1  0.41670408  0.09771054  0.91794486  1
  O  O30  1  0.58329592  0.90228946  0.41794486  1
  O  O31  1  0.90228946  0.41670408  0.16794486  1
  O  O32  1  0.46708240  0.16085745  0.04144756  1
  O  O33  1  0.83914255  0.46708240  0.29144756  1
  O  O34  1  0.16085745  0.53291760  0.79144756  1
  O  O35  1  0.53291760  0.83914255  0.54144756  1
  O  O36  1  0.77835058  0.20190838  0.98635193  1
  O  O37  1  0.79809162  0.77835058  0.23635193  1
  O  O38  1  0.20190838  0.22164942  0.73635193  1
  O  O39  1  0.22164942  0.79809162  0.48635193  1
  O  O40  1  0.54008928  0.49661507  0.00037510  1
  O  O41  1  0.50338493  0.54008928  0.25037510  1
  O  O42  1  0.49661507  0.45991072  0.75037510  1
  O  O43  1  0.45991072  0.50338493  0.50037510  1
  O  O44  1  0.74406641  0.37651875  0.07875801  1
  O  O45  1  0.62348125  0.74406641  0.32875801  1
  O  O46  1  0.37651875  0.25593359  0.82875801  1
  O  O47  1  0.25593359  0.62348125  0.57875801  1
  O  O48  1  0.74381205  0.08950383  0.14768636  1
  O  O49  1  0.91049617  0.74381205  0.39768636  1
  O  O50  1  0.08950383  0.25618795  0.89768636  1
  O  O51  1  0.25618795  0.91049617  0.64768636  1
  O  O52  1  0.05736331  0.18012876  0.09564825  1
  O  O53  1  0.81987124  0.05736331  0.34564825  1
  O  O54  1  0.18012876  0.94263669  0.84564825  1
  O  O55  1  0.11645997  0.19367639  0.25016691  1
  P  P56  1  0.70694363  0.35105523  0.62153284  1
  P  P57  1  0.64894477  0.70694363  0.87153284  1
  P  P58  1  0.35105523  0.29305637  0.37153284  1
  P  P59  1  0.29305637  0.64894477  0.12153284  1
  P  P60  1  0.94320594  0.28326577  0.51865585  1
  P  P61  1  0.71673423  0.94320594  0.76865585  1
  P  P62  1  0.28326577  0.05679406  0.26865585  1
  P  P63  1  0.05679406  0.71673423  0.01865585  1
  P  P64  1  0.12699992  0.74239205  0.62433842  1
  P  P65  1  0.25760795  0.12699992  0.87433842  1
  P  P66  1  0.74239205  0.87300008  0.37433842  1
  P  P67  1  0.87300008  0.25760795  0.12433842  1
  P  P68  1  0.37241239  0.69024489  0.52284959  1
  P  P69  1  0.30975511  0.37241239  0.77284959  1
  P  P70  1  0.69024489  0.62758761  0.27284959  1
  P  P71  1  0.62758761  0.30975511  0.02284959  1
  Ca  Ca72  1  0.63010255  0.88995488  0.63457065  1
  Ca  Ca73  1  0.11004512  0.63010255  0.88457065  1
  Ca  Ca74  1  0.88995488  0.36989745  0.38457065  1
  Ca  Ca75  1  0.36989745  0.11004512  0.13457065  1
  Ca  Ca76  1  0.20185879  0.25978096  0.63750059  1
  Ca  Ca77  1  0.74021904  0.20185879  0.88750059  1
  Ca  Ca78  1  0.25978096  0.79814121  0.38750059  1
  Ca  Ca79  1  0.79814121  0.74021904  0.13750059  1
  Ca  Ca80  1  0.83996634  0.44830363  0.74191815  1
  Ca  Ca81  1  0.55169637  0.83996634  0.99191815  1
  Ca  Ca82  1  0.44830363  0.16003366  0.49191815  1
  Ca  Ca83  1  0.16003366  0.55169637  0.24191815  1
  Ca  Ca84  1  0.86044792  0.76972036  0.50015929  1
  Ca  Ca85  1  0.23027964  0.86044792  0.75015929  1
  Ca  Ca86  1  0.76972036  0.13955208  0.25015929  1
  Ca  Ca87  1  0.13955208  0.23027964  0.00015929  1
