# generated using pymatgen
data_TlSb5S8
_symmetry_space_group_name_H-M   'P 1'
_cell_length_a   8.56401512
_cell_length_b   9.18532037
_cell_length_c   19.67596553
_cell_angle_alpha   90.00000000
_cell_angle_beta   90.00000000
_cell_angle_gamma   90.25301560
_symmetry_Int_Tables_number   1
_chemical_formula_structural   TlSb5S8
_chemical_formula_sum   'Tl4 Sb20 S32'
_cell_volume   1547.75976390
_cell_formula_units_Z   4
loop_
 _symmetry_equiv_pos_site_id
 _symmetry_equiv_pos_as_xyz
  1  'x, y, z'
loop_
 _atom_site_type_symbol
 _atom_site_label
 _atom_site_symmetry_multiplicity
 _atom_site_fract_x
 _atom_site_fract_y
 _atom_site_fract_z
 _atom_site_occupancy
  S  S0  1  0.70892965  0.53618336  0.72248742  1
  S  S1  1  0.20892965  0.03618336  0.27751258  1
  S  S2  1  0.40584296  0.18757067  0.77095166  1
  S  S3  1  0.90584296  0.68757067  0.22904834  1
  S  S4  1  0.35920965  0.80529825  0.80231247  1
  S  S5  1  0.85920965  0.30529825  0.19768753  1
  S  S6  1  0.39788581  0.00482877  0.59559890  1
  S  S7  1  0.89788581  0.50482877  0.40440110  1
  S  S8  1  0.67057349  0.21832048  0.50752432  1
  S  S9  1  0.17057349  0.71832048  0.49247568  1
  S  S10  1  0.38857838  0.58731355  0.98296196  1
  S  S11  1  0.88857838  0.08731355  0.01703804  1
  S  S12  1  0.66619399  0.31667341  0.91640878  1
  S  S13  1  0.16619399  0.81667341  0.08359122  1
  S  S14  1  0.43318694  0.99574123  0.96297214  1
  S  S15  1  0.93318694  0.49574123  0.03702786  1
  S  S16  1  0.74515430  0.91640093  0.70777588  1
  S  S17  1  0.24515430  0.41640093  0.29222412  1
  S  S18  1  0.72219853  0.72968526  0.88817528  1
  S  S19  1  0.22219853  0.22968526  0.11182472  1
  S  S20  1  0.03424043  0.46335610  0.83216442  1
  S  S21  1  0.53424043  0.96335610  0.16783558  1
  S  S22  1  0.09279032  0.66607056  0.65924622  1
  S  S23  1  0.59279032  0.16607056  0.34075378  1
  S  S24  1  0.73352242  0.71446660  0.54040956  1
  S  S25  1  0.23352242  0.21446660  0.45959044  1
  S  S26  1  0.04749247  0.26301155  0.67657597  1
  S  S27  1  0.54749247  0.76301155  0.32342403  1
  S  S28  1  0.39255033  0.41883079  0.60231074  1
  S  S29  1  0.89255033  0.91883079  0.39768926  1
  S  S30  1  0.02246040  0.05221253  0.83706274  1
  S  S31  1  0.52246040  0.55221253  0.16293726  1
  Sb  Sb32  1  0.24084103  0.45595362  0.71383480  1
  Sb  Sb33  1  0.74084103  0.95595362  0.28616520  1
  Sb  Sb34  1  0.97072660  0.55297974  0.54193201  1
  Sb  Sb35  1  0.47072660  0.05297974  0.45806799  1
  Sb  Sb36  1  0.87713124  0.26493624  0.78479846  1
  Sb  Sb37  1  0.37713124  0.76493624  0.21520154  1
  Sb  Sb38  1  0.20268337  0.01559138  0.73550066  1
  Sb  Sb39  1  0.70268337  0.51559138  0.26449934  1
  Sb  Sb40  1  0.56603572  0.20904590  0.63095541  1
  Sb  Sb41  1  0.06603572  0.70904590  0.36904459  1
  Sb  Sb42  1  0.52279922  0.53678449  0.87066580  1
  Sb  Sb43  1  0.02279922  0.03678449  0.12933420  1
  Sb  Sb44  1  0.22830060  0.80826944  0.95622930  1
  Sb  Sb45  1  0.72830060  0.30826944  0.04377070  1
  Sb  Sb46  1  0.56604144  0.97087363  0.84597776  1
  Sb  Sb47  1  0.06604144  0.47087363  0.15402224  1
  Sb  Sb48  1  0.90449582  0.70796537  0.77057405  1
  Sb  Sb49  1  0.40449582  0.20796537  0.22942595  1
  Sb  Sb50  1  0.57683479  0.73467323  0.64968658  1
  Sb  Sb51  1  0.07683479  0.23467323  0.35031342  1
  Tl  Tl52  1  0.99230998  0.00160939  0.54919003  1
  Tl  Tl53  1  0.49230998  0.50160939  0.45080997  1
  Tl  Tl54  1  0.19159010  0.27305355  0.94785738  1
  Tl  Tl55  1  0.69159010  0.77305355  0.05214262  1
