# generated using pymatgen
data_V(PO3)4
_symmetry_space_group_name_H-M   'P 1'
_cell_length_a   12.88116824
_cell_length_b   8.41213607
_cell_length_c   9.23645515
_cell_angle_alpha   90.00000000
_cell_angle_beta   90.00000000
_cell_angle_gamma   90.00000000
_symmetry_Int_Tables_number   1
_chemical_formula_structural   V(PO3)4
_chemical_formula_sum   'V4 P16 O48'
_cell_volume   1000.84510002
_cell_formula_units_Z   4
loop_
 _symmetry_equiv_pos_site_id
 _symmetry_equiv_pos_as_xyz
  1  'x, y, z'
loop_
 _atom_site_type_symbol
 _atom_site_label
 _atom_site_symmetry_multiplicity
 _atom_site_fract_x
 _atom_site_fract_y
 _atom_site_fract_z
 _atom_site_occupancy
  O  O0  1  0.07262680  0.20051490  0.63803862  1
  O  O1  1  0.07262680  0.79948583  0.13803800  1
  O  O2  1  0.06756325  0.47272575  0.13363214  1
  O  O3  1  0.06756325  0.52727498  0.63363276  1
  O  O4  1  0.11511936  0.09402248  0.37915879  1
  O  O5  1  0.11511936  0.90597706  0.87915941  1
  O  O6  1  0.11614813  0.36896354  0.88254458  1
  O  O7  1  0.11614813  0.63103719  0.38254396  1
  O  O8  1  0.18441267  0.36465857  0.46533560  1
  O  O9  1  0.18441267  0.63534216  0.96533513  1
  O  O10  1  0.25233458  0.11858580  0.58321507  1
  O  O11  1  0.25233458  0.88141374  0.08321554  1
  O  O12  1  0.24766548  0.38141337  0.08321554  1
  O  O13  1  0.24766548  0.61858617  0.58321507  1
  O  O14  1  0.31558662  0.13534180  0.96533513  1
  O  O15  1  0.31558662  0.86465774  0.46533560  1
  O  O16  1  0.38385194  0.13103682  0.38254396  1
  O  O17  1  0.92737333  0.79948583  0.36196153  1
  O  O18  1  0.38487993  0.40597789  0.87915941  1
  O  O19  1  0.38487993  0.59402284  0.37915879  1
  O  O20  1  0.43243681  0.02727462  0.63363276  1
  O  O21  1  0.43243681  0.97272611  0.13363214  1
  O  O22  1  0.42737327  0.29948546  0.13803800  1
  O  O23  1  0.42737327  0.70051408  0.63803862  1
  O  O24  1  0.57262686  0.29948546  0.36196153  1
  O  O25  1  0.57262686  0.70051408  0.86196214  1
  O  O26  1  0.56756332  0.02727462  0.86636692  1
  O  O27  1  0.56756332  0.97272611  0.36636739  1
  O  O28  1  0.61511942  0.40597789  0.62084027  1
  O  O29  1  0.61511942  0.59402284  0.12084074  1
  O  O30  1  0.61614819  0.13103682  0.11745557  1
  O  O31  1  0.61614819  0.86896272  0.61745619  1
  O  O32  1  0.68441273  0.13534180  0.53466455  1
  O  O33  1  0.68441273  0.86465774  0.03466393  1
  O  O34  1  0.75233464  0.38141337  0.41678508  1
  O  O35  1  0.75233464  0.61858617  0.91678461  1
  O  O36  1  0.74766477  0.11858580  0.91678461  1
  O  O37  1  0.74766477  0.88141374  0.41678508  1
  O  O38  1  0.81558668  0.36465857  0.03466393  1
  O  O39  1  0.81558668  0.63534216  0.53466455  1
  O  O40  1  0.88385200  0.36896354  0.61745619  1
  O  O41  1  0.88385200  0.63103719  0.11745557  1
  O  O42  1  0.88487999  0.09402248  0.12084074  1
  O  O43  1  0.88487999  0.90597706  0.62084027  1
  O  O44  1  0.93243687  0.47272575  0.36636739  1
  O  O45  1  0.93243687  0.52727498  0.86636692  1
  O  O46  1  0.92737333  0.20051490  0.86196214  1
  O  O47  1  0.38385194  0.86896272  0.88254458  1
  P  P48  1  0.14550426  0.18419601  0.50746256  1
  P  P49  1  0.14550426  0.81580353  0.00746194  1
  P  P50  1  0.14877779  0.46407214  0.01572438  1
  P  P51  1  0.14877779  0.53592859  0.51572500  1
  P  P52  1  0.35122227  0.03592822  0.51572500  1
  P  P53  1  0.35122227  0.96407132  0.01572438  1
  P  P54  1  0.35449580  0.31580317  0.00746194  1
  P  P55  1  0.35449580  0.68419638  0.50746256  1
  P  P56  1  0.64550433  0.31580317  0.49253759  1
  P  P57  1  0.64550433  0.68419638  0.99253821  1
  P  P58  1  0.85449586  0.81580353  0.49253759  1
  P  P59  1  0.64877785  0.96407132  0.48427515  1
  P  P60  1  0.85122156  0.46407214  0.48427515  1
  P  P61  1  0.85122156  0.53592859  0.98427577  1
  P  P62  1  0.85449586  0.18419601  0.99253821  1
  P  P63  1  0.64877785  0.03592822  0.98427577  1
  V  V64  1  0.00000000  0.35598714  0.74999984  1
  V  V65  1  0.00000000  0.64401359  0.25000031  1
  V  V66  1  0.50000006  0.14401322  0.25000031  1
  V  V67  1  0.50000006  0.85598632  0.74999984  1
