# generated using pymatgen
data_Li9Mn2Co5O16
_symmetry_space_group_name_H-M   'P 1'
_cell_length_a   2.89450187
_cell_length_b   9.77065860
_cell_length_c   10.32647536
_cell_angle_alpha   99.44292650
_cell_angle_beta   90.00000000
_cell_angle_gamma   90.00000000
_symmetry_Int_Tables_number   1
_chemical_formula_structural   Li9Mn2Co5O16
_chemical_formula_sum   'Li9 Mn2 Co5 O16'
_cell_volume   288.08765732
_cell_formula_units_Z   1
loop_
 _symmetry_equiv_pos_site_id
 _symmetry_equiv_pos_as_xyz
  1  'x, y, z'
loop_
 _atom_site_type_symbol
 _atom_site_label
 _atom_site_symmetry_multiplicity
 _atom_site_fract_x
 _atom_site_fract_y
 _atom_site_fract_z
 _atom_site_occupancy
  Li  Li0  1  0.50000000  0.00469092  0.24759736  1
  Li  Li1  1  0.50000000  0.00227842  0.74828165  1
  Li  Li2  1  -0.00000000  0.24206311  0.35275956  1
  Li  Li3  1  -0.00000000  0.25563469  0.89577178  1
  Li  Li4  1  0.50000000  0.49902760  0.48706039  1
  Li  Li5  1  0.50000000  0.49846651  0.01108185  1
  Li  Li6  1  -0.00000000  0.75176988  0.13910400  1
  Li  Li7  1  -0.00000000  0.75178511  0.61596494  1
  Li  Li8  1  0.50000000  0.25026161  0.12743607  1
  Mn  Mn9  1  0.00000000  0.00840756  0.00852378  1
  Mn  Mn10  1  0.00000000  0.50106286  0.75014770  1
  Co  Co11  1  -0.00000000  0.99552564  0.49621167  1
  Co  Co12  1  0.50000000  0.24367740  0.62078313  1
  Co  Co13  1  -0.00000000  0.48248008  0.23387565  1
  Co  Co14  1  0.50000000  0.74176014  0.37414872  1
  Co  Co15  1  0.50000000  0.75511869  0.87594181  1
  O  O16  1  0.50000000  0.88826970  0.05635083  1
  O  O17  1  0.50000000  0.87845706  0.56014247  1
  O  O18  1  -0.00000000  0.11394128  0.17100730  1
  O  O19  1  -0.00000000  0.13292185  0.68039254  1
  O  O20  1  0.50000000  0.38279778  0.30857197  1
  O  O21  1  0.50000000  0.39231469  0.80934470  1
  O  O22  1  -0.00000000  0.63258849  0.91714008  1
  O  O23  1  -0.00000000  0.63011734  0.43305195  1
  O  O24  1  0.50000000  0.12402767  0.44438629  1
  O  O25  1  0.50000000  0.10972138  0.94188728  1
  O  O26  1  0.00000000  0.37565776  0.58438607  1
  O  O27  1  0.00000000  0.38491450  0.06810839  1
  O  O28  1  0.50000000  0.60895060  0.69228848  1
  O  O29  1  0.50000000  0.62158507  0.19547880  1
  O  O30  1  0.00000000  0.86775991  0.32265479  1
  O  O31  1  -0.00000000  0.87196472  0.83011797  1
