# generated using pymatgen
data_Ca3Ru2O7
_symmetry_space_group_name_H-M   'P 1'
_cell_length_a   5.42844338
_cell_length_b   5.63838821
_cell_length_c   10.17667476
_cell_angle_alpha   90.00000000
_cell_angle_beta   105.46859057
_cell_angle_gamma   90.00000000
_symmetry_Int_Tables_number   1
_chemical_formula_structural   Ca3Ru2O7
_chemical_formula_sum   'Ca6 Ru4 O14'
_cell_volume   300.20135860
_cell_formula_units_Z   2
loop_
 _symmetry_equiv_pos_site_id
 _symmetry_equiv_pos_as_xyz
  1  'x, y, z'
loop_
 _atom_site_type_symbol
 _atom_site_label
 _atom_site_symmetry_multiplicity
 _atom_site_fract_x
 _atom_site_fract_y
 _atom_site_fract_z
 _atom_site_occupancy
  O  O0  1  0.06856676  0.95479296  0.23835691  1
  O  O1  1  0.93143324  0.45479296  0.76164309  1
  O  O2  1  0.16979015  0.45479296  0.23835691  1
  O  O3  1  0.83020985  0.95479296  0.76164309  1
  O  O4  1  0.52564002  0.05039533  0.15948336  1
  O  O5  1  0.47435998  0.55039533  0.84051664  1
  O  O6  1  0.63384334  0.55039533  0.15948336  1
  O  O7  1  0.36615666  0.05039533  0.84051664  1
  O  O8  1  0.15674854  0.72545631  0.00000000  1
  O  O9  1  0.84325146  0.22545631  0.00000000  1
  O  O10  1  0.12633097  0.77371036  0.60202546  1
  O  O11  1  0.87366903  0.27371036  0.39797454  1
  O  O12  1  0.47569449  0.27371036  0.60202546  1
  O  O13  1  0.52430551  0.77371036  0.39797454  1
  Ca  Ca14  1  0.55419734  0.68967839  0.62272647  1
  Ca  Ca15  1  0.44580266  0.18967839  0.37727353  1
  Ca  Ca16  1  0.06852913  0.18967839  0.62272647  1
  Ca  Ca17  1  0.93147087  0.68967839  0.37727353  1
  Ca  Ca18  1  0.26764587  0.31126570  0.00000000  1
  Ca  Ca19  1  0.73235413  0.81126570  0.00000000  1
  Ru  Ru20  1  0.65343327  0.24901195  0.80190643  1
  Ru  Ru21  1  0.34656673  0.74901195  0.19809357  1
  Ru  Ru22  1  0.14847316  0.74901195  0.80190643  1
  Ru  Ru23  1  0.85152684  0.24901195  0.19809357  1
