# generated using pymatgen
data_Cd(Ga3Te5)2
_symmetry_space_group_name_H-M   'P 1'
_cell_length_a   21.46117630
_cell_length_b   11.52823040
_cell_length_c   7.53386779
_cell_angle_alpha   29.23072727
_cell_angle_beta   54.90159987
_cell_angle_gamma   40.49300470
_symmetry_Int_Tables_number   1
_chemical_formula_structural   Cd(Ga3Te5)2
_chemical_formula_sum   'Cd1 Ga6 Te10'
_cell_volume   567.48045714
_cell_formula_units_Z   1
loop_
 _symmetry_equiv_pos_site_id
 _symmetry_equiv_pos_as_xyz
  1  'x, y, z'
loop_
 _atom_site_type_symbol
 _atom_site_label
 _atom_site_symmetry_multiplicity
 _atom_site_fract_x
 _atom_site_fract_y
 _atom_site_fract_z
 _atom_site_occupancy
  Cd  Cd0  1  0.70001630  0.49970241  0.00025663  1
  Ga  Ga1  1  0.00150468  0.00026668  0.00254332  1
  Ga  Ga2  1  0.09879238  0.51635435  0.97721840  1
  Ga  Ga3  1  0.39850008  0.01052559  0.98665201  1
  Ga  Ga4  1  0.30119097  0.50389648  0.00256657  1
  Ga  Ga5  1  0.59974373  0.00176111  0.00158800  1
  Ga  Ga6  1  0.80024268  0.00383574  0.99280903  1
  Te  Te7  1  0.15426643  0.47415574  0.28175608  1
  Te  Te8  1  0.04394407  0.01720216  0.24035719  1
  Te  Te9  1  0.35602333  0.49449476  0.24806469  1
  Te  Te10  1  0.24574226  0.00135056  0.24275126  1
  Te  Te11  1  0.53677456  0.50108628  0.24930399  1
  Te  Te12  1  0.45121571  0.97424838  0.29224288  1
  Te  Te13  1  0.76489850  0.50150234  0.24004526  1
  Te  Te14  1  0.63510255  0.06759998  0.19083262  1
  Te  Te15  1  0.94879396  0.49671314  0.23676872  1
  Te  Te16  1  0.86324781  0.93530429  0.31424335  1
