# generated using pymatgen
data_Li9Mn2Co5O16
_symmetry_space_group_name_H-M   'P 1'
_cell_length_a   2.90192100
_cell_length_b   9.78210430
_cell_length_c   10.27711485
_cell_angle_alpha   100.36417685
_cell_angle_beta   90.00000000
_cell_angle_gamma   90.00000000
_symmetry_Int_Tables_number   1
_chemical_formula_structural   Li9Mn2Co5O16
_chemical_formula_sum   'Li9 Mn2 Co5 O16'
_cell_volume   286.97545674
_cell_formula_units_Z   1
loop_
 _symmetry_equiv_pos_site_id
 _symmetry_equiv_pos_as_xyz
  1  'x, y, z'
loop_
 _atom_site_type_symbol
 _atom_site_label
 _atom_site_symmetry_multiplicity
 _atom_site_fract_x
 _atom_site_fract_y
 _atom_site_fract_z
 _atom_site_occupancy
  Li  Li0  1  0.50000000  0.00376846  0.24394475  1
  Li  Li1  1  0.50000000  -0.00340212  0.75418880  1
  Li  Li2  1  -0.00000000  0.24524768  0.35714119  1
  Li  Li3  1  0.00000000  0.25939450  0.89159302  1
  Li  Li4  1  0.50000000  0.50440778  0.49227695  1
  Li  Li5  1  0.50000000  0.50218016  0.00872486  1
  Li  Li6  1  0.00000000  0.74513004  0.12753531  1
  Li  Li7  1  0.00000000  0.74741914  0.62344249  1
  Li  Li8  1  0.50000000  0.24960646  0.12880806  1
  Mn  Mn9  1  0.00000000  0.00960382  0.00739262  1
  Mn  Mn10  1  0.50000000  0.24964594  0.62625335  1
  Co  Co11  1  0.00000000  0.99260872  0.49603610  1
  Co  Co12  1  0.00000000  0.48283741  0.23614764  1
  Co  Co13  1  0.00000000  0.50551706  0.75280526  1
  Co  Co14  1  0.50000000  0.74096378  0.37118129  1
  Co  Co15  1  0.50000000  0.75197574  0.87422181  1
  O  O16  1  0.50000000  0.89013084  0.05267478  1
  O  O17  1  0.50000000  0.88397913  0.55703479  1
  O  O18  1  0.00000000  0.11353885  0.17424095  1
  O  O19  1  0.00000000  0.13788834  0.67942243  1
  O  O20  1  0.50000000  0.38454612  0.31083314  1
  O  O21  1  0.50000000  0.37169374  0.79801717  1
  O  O22  1  -0.00000000  0.63294307  0.93152048  1
  O  O23  1  -0.00000000  0.62983336  0.43001425  1
  O  O24  1  0.50000000  0.12263608  0.45265507  1
  O  O25  1  0.50000000  0.11200511  0.94489696  1
  O  O26  1  0.00000000  0.35946255  0.57179439  1
  O  O27  1  0.00000000  0.38446274  0.07021624  1
  O  O28  1  0.50000000  0.62322627  0.69322665  1
  O  O29  1  0.50000000  0.62039544  0.19567020  1
  O  O30  1  0.00000000  0.86736257  0.32021723  1
  O  O31  1  -0.00000000  0.87899121  0.82587178  1
