# generated using pymatgen
data_Ca11(CN5)2
_symmetry_space_group_name_H-M   'P 1'
_cell_length_a   3.61379865
_cell_length_b   14.57016175
_cell_length_c   14.57016175
_cell_angle_alpha   90.00000000
_cell_angle_beta   90.00000000
_cell_angle_gamma   90.00000000
_symmetry_Int_Tables_number   1
_chemical_formula_structural   Ca11(CN5)2
_chemical_formula_sum   'Ca22 C4 N20'
_cell_volume   767.17191839
_cell_formula_units_Z   2
loop_
 _symmetry_equiv_pos_site_id
 _symmetry_equiv_pos_as_xyz
  1  'x, y, z'
loop_
 _atom_site_type_symbol
 _atom_site_label
 _atom_site_symmetry_multiplicity
 _atom_site_fract_x
 _atom_site_fract_y
 _atom_site_fract_z
 _atom_site_occupancy
  C  C0  1  0.00000000  0.81579836  0.81579836  1
  C  C1  1  0.50000000  0.68420164  0.31579836  1
  C  C2  1  0.50000000  0.31579836  0.68420164  1
  C  C3  1  0.00000000  0.18420164  0.18420164  1
  N  N4  1  0.00000000  0.87626454  0.87626454  1
  N  N5  1  0.50000000  0.62373546  0.37626454  1
  N  N6  1  0.50000000  0.37626454  0.62373546  1
  N  N7  1  0.00000000  0.12373546  0.12373546  1
  N  N8  1  0.00000000  0.75584103  0.75584103  1
  N  N9  1  0.50000000  0.74415897  0.25584103  1
  N  N10  1  0.50000000  0.25584103  0.74415897  1
  N  N11  1  0.00000000  0.24415897  0.24415897  1
  N  N12  1  0.00000000  0.97201073  0.31122971  1
  N  N13  1  0.00000000  0.02798927  0.68877029  1
  N  N14  1  0.50000000  0.81122971  0.52798927  1
  N  N15  1  0.50000000  0.18877029  0.47201073  1
  N  N16  1  0.00000000  0.31122971  0.97201073  1
  N  N17  1  0.50000000  0.52798927  0.81122971  1
  N  N18  1  0.50000000  0.47201073  0.18877029  1
  N  N19  1  0.00000000  0.68877029  0.02798927  1
  N  N20  1  0.00000000  0.58976927  0.58976927  1
  N  N21  1  0.50000000  0.91023073  0.08976927  1
  N  N22  1  0.00000000  0.41023073  0.41023073  1
  N  N23  1  0.50000000  0.08976927  0.91023073  1
  Ca  Ca24  1  0.00000000  0.88172529  0.60633908  1
  Ca  Ca25  1  0.00000000  0.11827471  0.39366092  1
  Ca  Ca26  1  0.50000000  0.10633908  0.61827471  1
  Ca  Ca27  1  0.50000000  0.89366092  0.38172529  1
  Ca  Ca28  1  0.00000000  0.60633908  0.88172529  1
  Ca  Ca29  1  0.50000000  0.61827471  0.10633908  1
  Ca  Ca30  1  0.50000000  0.38172529  0.89366092  1
  Ca  Ca31  1  0.00000000  0.39366092  0.11827471  1
  Ca  Ca32  1  0.00000000  0.83274836  0.16725164  1
  Ca  Ca33  1  0.50000000  0.33274836  0.33274836  1
  Ca  Ca34  1  0.50000000  0.66725164  0.66725164  1
  Ca  Ca35  1  0.00000000  0.16725164  0.83274836  1
  Ca  Ca36  1  0.00000000  0.48042757  0.70478825  1
  Ca  Ca37  1  0.00000000  0.51957243  0.29521175  1
  Ca  Ca38  1  0.50000000  0.20478825  0.01957243  1
  Ca  Ca39  1  0.50000000  0.79521175  0.98042757  1
  Ca  Ca40  1  0.00000000  0.70478825  0.48042757  1
  Ca  Ca41  1  0.50000000  0.01957243  0.20478825  1
  Ca  Ca42  1  0.50000000  0.98042757  0.79521175  1
  Ca  Ca43  1  0.00000000  0.29521175  0.51957243  1
  Ca  Ca44  1  0.50000000  0.50000000  0.50000000  1
  Ca  Ca45  1  0.00000000  0.00000000  0.00000000  1
