# generated using pymatgen
data_Ca3La5Mn7NiO24
_symmetry_space_group_name_H-M   'P 1'
_cell_length_a   11.05875274
_cell_length_b   5.49531559
_cell_length_c   7.78429863
_cell_angle_alpha   90.00466886
_cell_angle_beta   89.98554884
_cell_angle_gamma   89.91301820
_symmetry_Int_Tables_number   1
_chemical_formula_structural   Ca3La5Mn7NiO24
_chemical_formula_sum   'Ca3 La5 Mn7 Ni1 O24'
_cell_volume   473.06166852
_cell_formula_units_Z   1
loop_
 _symmetry_equiv_pos_site_id
 _symmetry_equiv_pos_as_xyz
  1  'x, y, z'
loop_
 _atom_site_type_symbol
 _atom_site_label
 _atom_site_symmetry_multiplicity
 _atom_site_fract_x
 _atom_site_fract_y
 _atom_site_fract_z
 _atom_site_occupancy
  Ca  Ca0  1  0.27017086  0.51303594  0.24834521  1
  Ca  Ca1  1  0.48258484  0.01088498  0.74903028  1
  Ca  Ca2  1  0.72762620  0.48412435  0.75124372  1
  La  La3  1  0.01887095  0.99266862  0.24611298  1
  La  La4  1  0.23786013  0.49479754  0.75231305  1
  La  La5  1  0.51081830  0.99695628  0.25079960  1
  La  La6  1  0.76524475  0.50639761  0.24816467  1
  La  La7  1  0.98339823  0.00459228  0.75388776  1
  Mn  Mn8  1  0.25243750  0.00050534  0.49720845  1
  Mn  Mn9  1  0.50017630  0.50122627  0.50463941  1
  Mn  Mn10  1  0.74735922  0.99956345  0.50668846  1
  Mn  Mn11  1  0.25231478  0.99844324  0.00100210  1
  Mn  Mn12  1  0.50042261  0.50020706  0.99633849  1
  Mn  Mn13  1  0.74762816  0.00147824  0.99521472  1
  Mn  Mn14  1  0.00051437  0.49880930  0.49972565  1
  Ni  Ni15  1  0.99994696  0.49970473  0.99936480  1
  O  O16  1  0.01423416  0.56826347  0.74161842  1
  O  O17  1  0.11361133  0.21043678  0.96367690  1
  O  O18  1  0.10923467  0.21513484  0.53703560  1
  O  O19  1  0.14153530  0.71959349  0.45581249  1
  O  O20  1  0.14557262  0.72679819  0.03925103  1
  O  O21  1  0.24867251  0.08033503  0.24815139  1
  O  O22  1  0.25630281  0.93347925  0.75058854  1
  O  O23  1  0.36165470  0.27952406  0.96196624  1
  O  O24  1  0.36162054  0.28195591  0.53686913  1
  O  O25  1  0.38852936  0.78112940  0.46228170  1
  O  O26  1  0.39036679  0.77861546  0.03888559  1
  O  O27  1  0.49809576  0.43539284  0.24846673  1
  O  O28  1  0.50341775  0.57968371  0.75211249  1
  O  O29  1  0.60858451  0.21633171  0.53991265  1
  O  O30  1  0.60620838  0.21416283  0.95955677  1
  O  O31  1  0.63928711  0.72158207  0.45985731  1
  O  O32  1  0.63893414  0.72056615  0.04075811  1
  O  O33  1  0.74092314  0.06806625  0.24954495  1
  O  O34  1  0.75884867  0.91394512  0.75179925  1
  O  O35  1  0.85334507  0.27434198  0.96019858  1
  O  O36  1  0.85740106  0.27772978  0.54454629  1
  O  O37  1  0.89152305  0.78130030  0.46081097  1
  O  O38  1  0.88690560  0.79009352  0.03859351  1
  O  O39  1  0.98781679  0.42814462  0.25763001  1
