# generated using pymatgen
data_AlTl2F5
_symmetry_space_group_name_H-M   'P 1'
_cell_length_a   6.43957880
_cell_length_b   6.43957875
_cell_length_c   7.51786882
_cell_angle_alpha   90.00000000
_cell_angle_beta   90.00000000
_cell_angle_gamma   96.43241334
_symmetry_Int_Tables_number   1
_chemical_formula_structural   AlTl2F5
_chemical_formula_sum   'Al2 Tl4 F10'
_cell_volume   309.78972415
_cell_formula_units_Z   2
loop_
 _symmetry_equiv_pos_site_id
 _symmetry_equiv_pos_as_xyz
  1  'x, y, z'
loop_
 _atom_site_type_symbol
 _atom_site_label
 _atom_site_symmetry_multiplicity
 _atom_site_fract_x
 _atom_site_fract_y
 _atom_site_fract_z
 _atom_site_occupancy
  Tl  Tl0  1  0.52313048  0.93478463  0.00000000  1
  Tl  Tl1  1  0.47686952  0.06521537  0.50000000  1
  Tl  Tl2  1  0.93478463  0.52313048  0.50000000  1
  Tl  Tl3  1  0.06521537  0.47686952  0.00000000  1
  Al  Al4  1  0.00000000  0.00000000  0.25000000  1
  Al  Al5  1  0.00000000  0.00000000  0.75000000  1
  F  F6  1  0.21159146  0.21159146  0.25000000  1
  F  F7  1  0.78840854  0.78840854  0.75000000  1
  F  F8  1  0.78840854  0.78840854  0.25000000  1
  F  F9  1  0.21159146  0.21159146  0.75000000  1
  F  F10  1  0.03067556  0.96932444  0.00000000  1
  F  F11  1  0.96932444  0.03067556  0.50000000  1
  F  F12  1  0.18686551  0.81313449  0.28791079  1
  F  F13  1  0.81313449  0.18686551  0.78791079  1
  F  F14  1  0.81313449  0.18686551  0.21208921  1
  F  F15  1  0.18686551  0.81313449  0.71208921  1
