# generated using pymatgen
data_Li9Mn3P8O29
_symmetry_space_group_name_H-M   'P 1'
_cell_length_a   9.74078343
_cell_length_b   9.93267134
_cell_length_c   13.80554220
_cell_angle_alpha   91.63476290
_cell_angle_beta   90.02899536
_cell_angle_gamma   119.32872986
_symmetry_Int_Tables_number   1
_chemical_formula_structural   Li9Mn3P8O29
_chemical_formula_sum   'Li18 Mn6 P16 O58'
_cell_volume   1163.87241114
_cell_formula_units_Z   2
loop_
 _symmetry_equiv_pos_site_id
 _symmetry_equiv_pos_as_xyz
  1  'x, y, z'
loop_
 _atom_site_type_symbol
 _atom_site_label
 _atom_site_symmetry_multiplicity
 _atom_site_fract_x
 _atom_site_fract_y
 _atom_site_fract_z
 _atom_site_occupancy
  Li  Li0  1  0.10387937  0.76363997  0.93669426  1
  Li  Li1  1  0.23464564  0.90344209  0.43570060  1
  Li  Li2  1  0.09924303  0.33249776  0.43805668  1
  Li  Li3  1  0.33383839  0.66242275  0.11988246  1
  Li  Li4  1  0.32768566  0.66191725  0.61987684  1
  Li  Li5  1  0.23280396  0.33137042  0.93808421  1
  Li  Li6  1  0.66862366  0.90394664  0.93566580  1
  Li  Li7  1  0.33960280  0.23610667  0.56343169  1
  Li  Li8  1  0.66074575  0.76390511  0.43664648  1
  Li  Li9  1  0.33173317  0.09636827  0.06422224  1
  Li  Li10  1  0.76627414  0.66796383  0.06188569  1
  Li  Li11  1  0.67242534  0.33785765  0.37989956  1
  Li  Li12  1  0.99941621  0.99713887  0.00153020  1
  Li  Li13  1  0.66590503  0.33788565  0.87982409  1
  Li  Li14  1  0.90104030  0.66765629  0.56179582  1
  Li  Li15  1  0.76516360  0.09619939  0.56426206  1
  Li  Li16  1  0.89648650  0.23613382  0.06316760  1
  Li  Li17  1  0.00069924  0.00119079  0.50115851  1
  O  O18  1  0.66572131  0.75338873  0.14699780  1
  O  O19  1  0.91273433  0.24670301  0.35312680  1
  O  O20  1  0.78624738  0.99999066  0.25008878  1
  O  O21  1  0.77025560  0.00947487  0.06743124  1
  O  O22  1  0.74663687  0.07197584  0.84146749  1
  O  O23  1  0.88050298  0.36370642  0.83675340  1
  O  O24  1  0.00202229  0.78323103  0.43189159  1
  O  O25  1  0.08728122  0.75315276  0.64702038  1
  O  O26  1  0.21355988  0.99978770  0.75013236  1
  O  O27  1  0.23057672  0.99024764  0.93273167  1
  O  O28  1  0.25346043  0.92851437  0.15865652  1
  O  O29  1  0.11858285  0.63658294  0.16237302  1
  O  O30  1  0.18816829  0.66949782  0.83414657  1
  O  O31  1  0.10319567  0.47233417  0.66611575  1
  O  O32  1  0.99807267  0.22479173  0.93401321  1
  O  O33  1  0.00058884  0.21411916  0.75152187  1
  O  O34  1  0.07312598  0.32598129  0.15845814  1
  O  O35  1  0.31366692  0.79916134  0.34559099  1
  O  O36  1  0.37952605  0.89566177  0.66686007  1
  O  O37  1  0.18172160  0.50238278  0.33486024  1
  O  O38  1  0.31675621  0.64645536  0.98560215  1
  O  O39  1  0.32796702  0.64470867  0.48559401  1
  O  O40  1  0.32110279  0.50250907  0.83559445  1
  O  O41  1  0.51574934  0.89559466  0.16728080  1
  O  O42  1  0.48554503  0.79935940  0.84535770  1
  O  O43  1  0.25303215  0.32581241  0.65884108  1
  O  O44  1  0.21394946  0.21436980  0.25146520  1
  O  O45  1  0.22684919  0.22499871  0.43398317  1
  O  O46  1  0.21814048  0.21574003  0.06830633  1
  O  O47  1  0.36926655  0.47281103  0.16624441  1
  O  O48  1  0.48138305  0.66931101  0.33465467  1
  O  O49  1  0.51693224  0.63634982  0.66290193  1
  O  O50  1  0.33398287  0.24641186  0.85319796  1
  O  O51  1  0.67457990  0.92811769  0.65836087  1
  O  O52  1  0.23798387  0.00928307  0.56743901  1
  O  O53  1  0.76099194  0.99058024  0.43273344  1
  O  O54  1  0.32541243  0.07192471  0.34177492  1
  O  O55  1  0.99813656  0.21517746  0.56835876  1
  O  O56  1  0.48340198  0.36359857  0.33687947  1
  O  O57  1  0.51873873  0.33053877  0.66519107  1
  O  O58  1  0.63072305  0.52685963  0.83350691  1
  O  O59  1  0.78099504  0.78336656  0.93199564  1
  O  O60  1  0.77395814  0.77570511  0.56629100  1
  O  O61  1  0.78590192  0.78580936  0.74887879  1
  O  O62  1  0.74711008  0.67389993  0.34135356  1
  O  O63  1  0.51450632  0.20088139  0.15437845  1
  O  O64  1  0.48453289  0.10496333  0.83243096  1
  O  O65  1  0.67920558  0.49766888  0.16436926  1
  O  O66  1  0.67215833  0.35537167  0.51418441  1
  O  O67  1  0.68306995  0.35416252  0.01411291  1
  O  O68  1  0.81832464  0.49777424  0.66487327  1
  O  O69  1  0.62060444  0.10485742  0.33290305  1
  O  O70  1  0.92684995  0.67410729  0.84167919  1
  O  O71  1  0.68663707  0.20091911  0.65410403  1
  O  O72  1  0.99964103  0.78618659  0.24879937  1
  O  O73  1  0.81183456  0.33036483  0.16531650  1
  O  O74  1  0.89643001  0.52698537  0.33319702  1
  O  O75  1  0.00182757  0.77758634  0.06626112  1
  P  P76  1  0.90564220  0.22488744  0.84499334  1
  P  P77  1  0.76914124  0.08652030  0.34639817  1
  P  P78  1  0.91203261  0.68900787  0.34185972  1
  P  P79  1  0.67520597  0.34286287  0.62320570  1
  P  P80  1  0.66763018  0.34255664  0.12316079  1
  P  P81  1  0.77690754  0.68899357  0.84203544  1
  P  P82  1  0.09418997  0.77594842  0.15503345  1
  P  P83  1  0.23065305  0.91348193  0.65371886  1
  P  P84  1  0.08798072  0.31047473  0.65820745  1
  P  P85  1  0.32492731  0.65715352  0.37656934  1
  P  P86  1  0.33244343  0.65761072  0.87654250  1
  P  P87  1  0.68078021  0.77516503  0.65507425  1
  P  P88  1  0.31948454  0.22501974  0.34505473  1
  P  P89  1  0.68246268  0.91368475  0.15377470  1
  P  P90  1  0.31764496  0.08629236  0.84632552  1
  P  P91  1  0.22295271  0.31077880  0.15808650  1
  Mn  Mn92  1  0.00171130  0.56522864  0.74980240  1
  Mn  Mn93  1  0.43662204  0.43464515  0.75020401  1
  Mn  Mn94  1  0.56347647  0.56523107  0.24973854  1
  Mn  Mn95  1  0.43228604  0.00016463  0.25017657  1
  Mn  Mn96  1  0.56784464  0.00015001  0.74977537  1
  Mn  Mn97  1  0.99820517  0.43469763  0.24985419  1
