# generated using pymatgen
data_Ba(Mo3S4)2
_symmetry_space_group_name_H-M   'P 1'
_cell_length_a   6.71311861
_cell_length_b   6.71311861
_cell_length_c   6.71311861
_cell_angle_alpha   88.69753669
_cell_angle_beta   88.69753676
_cell_angle_gamma   88.69753670
_symmetry_Int_Tables_number   1
_chemical_formula_structural   Ba(Mo3S4)2
_chemical_formula_sum   'Ba1 Mo6 S8'
_cell_volume   302.30214587
_cell_formula_units_Z   1
loop_
 _symmetry_equiv_pos_site_id
 _symmetry_equiv_pos_as_xyz
  1  'x, y, z'
loop_
 _atom_site_type_symbol
 _atom_site_label
 _atom_site_symmetry_multiplicity
 _atom_site_fract_x
 _atom_site_fract_y
 _atom_site_fract_z
 _atom_site_occupancy
  S  S0  1  0.74778608  0.74778608  0.74778608  1
  S  S1  1  0.25221392  0.25221392  0.25221392  1
  S  S2  1  0.60882531  0.87514914  0.26612475  1
  S  S3  1  0.87514914  0.26612475  0.60882531  1
  S  S4  1  0.26612475  0.60882531  0.87514914  1
  S  S5  1  0.39117469  0.12485086  0.73387525  1
  S  S6  1  0.12485086  0.73387525  0.39117469  1
  S  S7  1  0.73387525  0.39117469  0.12485086  1
  Mo  Mo8  1  0.43483842  0.76483746  0.58311952  1
  Mo  Mo9  1  0.76483746  0.58311952  0.43483842  1
  Mo  Mo10  1  0.58311952  0.43483842  0.76483746  1
  Mo  Mo11  1  0.56516158  0.23516254  0.41688048  1
  Mo  Mo12  1  0.23516254  0.41688048  0.56516158  1
  Mo  Mo13  1  0.41688048  0.56516158  0.23516254  1
  Ba  Ba14  1  0.00000000  0.00000000  0.00000000  1
