# generated using pymatgen
data_NaNO
_symmetry_space_group_name_H-M   'P 1'
_cell_length_a   5.14674927
_cell_length_b   6.25666318
_cell_length_c   9.29750764
_cell_angle_alpha   90.00000000
_cell_angle_beta   90.00000000
_cell_angle_gamma   98.46682247
_symmetry_Int_Tables_number   1
_chemical_formula_structural   NaNO
_chemical_formula_sum   'Na8 N8 O8'
_cell_volume   296.13047189
_cell_formula_units_Z   8
loop_
 _symmetry_equiv_pos_site_id
 _symmetry_equiv_pos_as_xyz
  1  'x, y, z'
loop_
 _atom_site_type_symbol
 _atom_site_label
 _atom_site_symmetry_multiplicity
 _atom_site_fract_x
 _atom_site_fract_y
 _atom_site_fract_z
 _atom_site_occupancy
  N  N0  1  0.77894801  0.83596099  0.67051779  1
  N  N1  1  0.90043569  0.24908862  0.92915619  1
  N  N2  1  0.09956431  0.25091138  0.42915619  1
  N  N3  1  0.09956431  0.75091138  0.07084381  1
  N  N4  1  0.77894801  0.33596099  0.82948221  1
  N  N5  1  0.22105199  0.16403901  0.32948221  1
  N  N6  1  0.22105199  0.66403901  0.17051779  1
  N  N7  1  0.90043569  0.74908862  0.57084381  1
  O  O8  1  0.52312900  0.35607634  0.84837653  1
  O  O9  1  0.52312900  0.85607634  0.65162347  1
  O  O10  1  0.47687100  0.64392366  0.15162347  1
  O  O11  1  0.47687100  0.14392366  0.34837653  1
  O  O12  1  0.76912231  0.67999495  0.44915406  1
  O  O13  1  0.23087769  0.82000505  0.94915406  1
  O  O14  1  0.23087769  0.32000505  0.55084594  1
  O  O15  1  0.76912231  0.17999495  0.05084594  1
  Na  Na16  1  0.79003714  0.94009885  0.24948731  1
  Na  Na17  1  0.20996286  0.55990115  0.74948731  1
  Na  Na18  1  0.20996286  0.05990115  0.75051269  1
  Na  Na19  1  0.79003714  0.44009885  0.25051269  1
  Na  Na20  1  0.68276515  0.78233294  0.93617219  1
  Na  Na21  1  0.31723485  0.71766706  0.43617219  1
  Na  Na22  1  0.31723485  0.21766706  0.06382781  1
  Na  Na23  1  0.68276515  0.28233294  0.56382781  1
