# generated using pymatgen
data_Ba(CuSe)2
_symmetry_space_group_name_H-M   'P 1'
_cell_length_a   4.22958762
_cell_length_b   9.62848311
_cell_length_c   10.86842084
_cell_angle_alpha   90.00000000
_cell_angle_beta   90.00000000
_cell_angle_gamma   90.00000000
_symmetry_Int_Tables_number   1
_chemical_formula_structural   Ba(CuSe)2
_chemical_formula_sum   'Ba4 Cu8 Se8'
_cell_volume   442.61114537
_cell_formula_units_Z   4
loop_
 _symmetry_equiv_pos_site_id
 _symmetry_equiv_pos_as_xyz
  1  'x, y, z'
loop_
 _atom_site_type_symbol
 _atom_site_label
 _atom_site_symmetry_multiplicity
 _atom_site_fract_x
 _atom_site_fract_y
 _atom_site_fract_z
 _atom_site_occupancy
  Cu  Cu0  1  0.25000000  0.07820820  0.54308874  1
  Cu  Cu1  1  0.75000000  0.92179180  0.45691126  1
  Cu  Cu2  1  0.75000000  0.42179180  0.04308874  1
  Cu  Cu3  1  0.25000000  0.57820820  0.95691126  1
  Cu  Cu4  1  0.75000000  0.94406026  0.88815330  1
  Cu  Cu5  1  0.25000000  0.05593974  0.11184670  1
  Cu  Cu6  1  0.75000000  0.44406026  0.61184670  1
  Cu  Cu7  1  0.25000000  0.55593974  0.38815330  1
  Se  Se8  1  0.25000000  0.84114782  0.96113684  1
  Se  Se9  1  0.75000000  0.15885218  0.03886316  1
  Se  Se10  1  0.75000000  0.65885218  0.46113684  1
  Se  Se11  1  0.25000000  0.34114782  0.53886316  1
  Se  Se12  1  0.75000000  0.52215254  0.83070235  1
  Se  Se13  1  0.25000000  0.47784746  0.16929765  1
  Se  Se14  1  0.75000000  0.02215254  0.66929765  1
  Se  Se15  1  0.25000000  0.97784746  0.33070235  1
  Ba  Ba16  1  0.75000000  0.75773640  0.17708393  1
  Ba  Ba17  1  0.25000000  0.24226360  0.82291607  1
  Ba  Ba18  1  0.75000000  0.25773640  0.32291607  1
  Ba  Ba19  1  0.25000000  0.74226360  0.67708393  1
