# generated using pymatgen
data_Na2Li2Al3Si3ClO12
_symmetry_space_group_name_H-M   'P 1'
_cell_length_a   8.75007839
_cell_length_b   8.73659199
_cell_length_c   8.73667614
_cell_angle_alpha   90.00127299
_cell_angle_beta   90.00168589
_cell_angle_gamma   90.00945423
_symmetry_Int_Tables_number   1
_chemical_formula_structural   Na2Li2Al3Si3ClO12
_chemical_formula_sum   'Na4 Li4 Al6 Si6 Cl2 O24'
_cell_volume   667.88275342
_cell_formula_units_Z   2
loop_
 _symmetry_equiv_pos_site_id
 _symmetry_equiv_pos_as_xyz
  1  'x, y, z'
loop_
 _atom_site_type_symbol
 _atom_site_label
 _atom_site_symmetry_multiplicity
 _atom_site_fract_x
 _atom_site_fract_y
 _atom_site_fract_z
 _atom_site_occupancy
  Na  Na0  1  0.66575256  0.33776184  0.33919099  1
  Na  Na1  1  0.66673233  0.66390460  0.66362016  1
  Na  Na2  1  0.83428938  0.16135618  0.83831542  1
  Na  Na3  1  0.83325103  0.83697367  0.16444157  1
  Li  Li4  1  0.18741933  0.18875117  0.18950058  1
  Li  Li5  1  0.18785590  0.80990906  0.81209736  1
  Li  Li6  1  0.31255023  0.31192365  0.69018975  1
  Li  Li7  1  0.31214082  0.68938527  0.31128136  1
  Al  Al8  1  0.00629109  0.24991851  0.50368199  1
  Al  Al9  1  0.00628200  0.75006821  0.49821650  1
  Al  Al10  1  0.24999530  0.49977684  0.00107350  1
  Al  Al11  1  0.49358431  0.99747927  0.75102953  1
  Al  Al12  1  0.49382689  0.00298736  0.25117377  1
  Al  Al13  1  0.75000863  0.49981250  0.00081205  1
  Si  Si14  1  0.00592431  0.50175030  0.25095174  1
  Si  Si15  1  0.00587192  0.49784181  0.75094984  1
  Si  Si16  1  0.25000723  0.00017839  0.50110159  1
  Si  Si17  1  0.49411747  0.75001634  0.99909320  1
  Si  Si18  1  0.49410657  0.25000773  0.00297909  1
  Si  Si19  1  0.75000344  0.00018259  0.50107843  1
  Cl  Cl20  1  0.45533138  0.50141797  0.50150167  1
  Cl  Cl21  1  0.04469872  0.99856943  0.00147841  1
  O  O22  1  0.08646537  0.35411425  0.65840550  1
  O  O23  1  0.08618183  0.64591593  0.34329425  1
  O  O24  1  0.13769505  0.41628994  0.14718489  1
  O  O25  1  0.13754518  0.58306746  0.85503576  1
  O  O26  1  0.14766173  0.13400351  0.41704320  1
  O  O27  1  0.14774897  0.86600167  0.58477985  1
  O  O28  1  0.35214836  0.08415738  0.63515023  1
  O  O29  1  0.35245106  0.91643184  0.36714990  1
  O  O30  1  0.36239313  0.35385119  0.91751242  1
  O  O31  1  0.36234562  0.64599644  0.08429300  1
  O  O32  1  0.41357004  0.15761278  0.14693720  1
  O  O33  1  0.41377392  0.84242071  0.85507501  1
  O  O34  1  0.56826238  0.13601202  0.87508063  1
  O  O35  1  0.56790616  0.86400063  0.12733533  1
  O  O36  1  0.63453448  0.35199128  0.07346463  1
  O  O37  1  0.63489173  0.64831181  0.92891133  1
  O  O38  1  0.64634724  0.07216593  0.36234587  1
  O  O39  1  0.64598226  0.92859400  0.63960910  1
  O  O40  1  0.85406643  0.13851397  0.57301731  1
  O  O41  1  0.85361260  0.86126194  0.42944133  1
  O  O42  1  0.86544638  0.57195095  0.14890086  1
  O  O43  1  0.86514215  0.42736773  0.85258398  1
  O  O44  1  0.93174161  0.37384046  0.36502191  1
  O  O45  1  0.93204748  0.62615548  0.63706901  1
