# generated using pymatgen
data_Li19(FeAs)20
_symmetry_space_group_name_H-M   'P 1'
_cell_length_a   18.82959232
_cell_length_b   8.37564149
_cell_length_c   13.01922220
_cell_angle_alpha   75.00388660
_cell_angle_beta   73.14917959
_cell_angle_gamma   26.71787042
_symmetry_Int_Tables_number   1
_chemical_formula_structural   Li19(FeAs)20
_chemical_formula_sum   'Li19 Fe20 As20'
_cell_volume   883.50378727
_cell_formula_units_Z   1
loop_
 _symmetry_equiv_pos_site_id
 _symmetry_equiv_pos_as_xyz
  1  'x, y, z'
loop_
 _atom_site_type_symbol
 _atom_site_label
 _atom_site_symmetry_multiplicity
 _atom_site_fract_x
 _atom_site_fract_y
 _atom_site_fract_z
 _atom_site_occupancy
  As  As0  1  0.12513159  0.25213848  0.11610621  1
  As  As1  1  0.02978322  0.24336014  0.61692312  1
  As  As2  1  0.32655077  0.24871896  0.11655268  1
  As  As3  1  0.22828258  0.24810350  0.61496734  1
  As  As4  1  0.07193386  0.75126727  0.88410287  1
  As  As5  1  0.17255268  0.75147584  0.38437418  1
  As  As6  1  0.42467520  0.25320578  0.61553912  1
  As  As7  1  0.52698961  0.25063530  0.11638951  1
  As  As8  1  0.27011879  0.75685993  0.88381765  1
  As  As9  1  0.37360315  0.74986344  0.38236715  1
  As  As10  1  0.72812011  0.24831588  0.11628187  1
  As  As11  1  0.62390992  0.25548646  0.61703603  1
  As  As12  1  0.57387128  0.74793903  0.38423477  1
  As  As13  1  0.47338471  0.75022102  0.88293589  1
  As  As14  1  0.92683534  0.25024097  0.11774399  1
  As  As15  1  0.82677242  0.25035488  0.61575660  1
  As  As16  1  0.77318726  0.74734133  0.38318812  1
  As  As17  1  0.67575991  0.74447557  0.88334084  1
  As  As18  1  0.97366079  0.75337482  0.38337804  1
  As  As19  1  0.87471448  0.74690920  0.88515587  1
  Fe  Fe20  1  0.04803808  0.24919819  0.00119640  1
  Fe  Fe21  1  0.24937501  0.25192110  0.00030035  1
  Fe  Fe22  1  0.15142853  0.24641823  0.49907432  1
  Fe  Fe23  1  0.14774876  0.75435729  0.00075183  1
  Fe  Fe24  1  0.05007012  0.74918426  0.49949084  1
  Fe  Fe25  1  0.44991655  0.25023818  -0.00045699  1
  Fe  Fe26  1  0.34992318  0.24950667  0.50123990  1
  Fe  Fe27  1  0.34920246  0.74970875  0.00033923  1
  Fe  Fe28  1  0.25192953  0.75038236  0.49892522  1
  Fe  Fe29  1  0.65032449  0.24861924  0.00032636  1
  Fe  Fe30  1  0.54869323  0.25351406  0.49942522  1
  Fe  Fe31  1  0.44881246  0.74855283  0.49906691  1
  Fe  Fe32  1  0.55073773  0.75010861  0.00020025  1
  Fe  Fe33  1  0.85228801  0.24993320  0.00067269  1
  Fe  Fe34  1  0.74994193  0.24784439  0.49956351  1
  Fe  Fe35  1  0.75155768  0.74521669  0.00081112  1
  Fe  Fe36  1  0.64973620  0.75225893  0.49929360  1
  Fe  Fe37  1  0.95013028  0.25302872  0.49925390  1
  Fe  Fe38  1  0.85016728  0.74952991  0.50071428  1
  Fe  Fe39  1  0.95027490  0.75030015  -0.00126604  1
  Li  Li40  1  0.08129492  0.25528405  0.33158128  1
  Li  Li41  1  0.01543503  0.75176302  0.17016417  1
  Li  Li42  1  0.28375720  0.25196207  0.33201965  1
  Li  Li43  1  0.18395533  0.24780415  0.83142284  1
  Li  Li44  1  0.21528860  0.75012022  0.17024174  1
  Li  Li45  1  0.11555386  0.75274099  0.66771718  1
  Li  Li46  1  0.38257661  0.25281496  0.83187620  1
  Li  Li47  1  0.48341810  0.24798223  0.33170512  1
  Li  Li48  1  0.31615477  0.75081681  0.66814978  1
  Li  Li49  1  0.41644852  0.74993009  0.16779917  1
  Li  Li50  1  0.68685218  0.24353154  0.33165863  1
  Li  Li51  1  0.58436702  0.24795643  0.83239448  1
  Li  Li52  1  0.51670415  0.74835613  0.66795719  1
  Li  Li53  1  0.61673028  0.74946283  0.17016790  1
  Li  Li54  1  0.78363250  0.25141322  0.83076132  1
  Li  Li55  1  0.81629163  0.74906585  0.16983966  1
  Li  Li56  1  0.71589095  0.75097828  0.66767381  1
  Li  Li57  1  0.98390805  0.24958331  0.83193818  1
  Li  Li58  1  0.91714624  0.74832425  0.66811695  1
