# generated using pymatgen
data_LiCr(SiO3)2
_symmetry_space_group_name_H-M   'P 1'
_cell_length_a   5.33101493
_cell_length_b   8.73608014
_cell_length_c   9.31299357
_cell_angle_alpha   90.00051361
_cell_angle_beta   102.17596310
_cell_angle_gamma   89.99955748
_symmetry_Int_Tables_number   1
_chemical_formula_structural   LiCr(SiO3)2
_chemical_formula_sum   'Li4 Cr4 Si8 O24'
_cell_volume   423.96944743
_cell_formula_units_Z   4
loop_
 _symmetry_equiv_pos_site_id
 _symmetry_equiv_pos_as_xyz
  1  'x, y, z'
loop_
 _atom_site_type_symbol
 _atom_site_label
 _atom_site_symmetry_multiplicity
 _atom_site_fract_x
 _atom_site_fract_y
 _atom_site_fract_z
 _atom_site_occupancy
  Li  Li0  1  0.01046840  0.00896938  0.24786987  1
  Li  Li1  1  0.48952064  0.50896728  0.75212554  1
  Li  Li2  1  0.98953942  0.99095170  0.75213012  1
  Li  Li3  1  0.51047037  0.49094811  0.24787557  1
  O  O4  1  0.53028600  0.26771990  0.10835641  1
  O  O5  1  0.20596375  0.16670629  0.86694500  1
  O  O6  1  0.29405918  0.66671370  0.13305489  1
  O  O7  1  0.79407720  0.83331971  0.13306671  1
  O  O8  1  0.70590098  0.33331574  0.86694267  1
  O  O9  1  0.73025573  0.66471182  0.36643244  1
  O  O10  1  0.76978756  0.16470615  0.63357132  1
  O  O11  1  0.26973220  0.33528638  0.63357619  1
  O  O12  1  0.23022578  0.83529396  0.36642375  1
  O  O13  1  0.30584030  0.99039285  0.11744843  1
  O  O14  1  0.19418379  0.49039577  0.88254634  1
  O  O15  1  0.69418893  0.00963591  0.88256891  1
  O  O16  1  0.08785895  0.72805495  0.60471824  1
  O  O17  1  0.41215271  0.22806643  0.39529354  1
  O  O18  1  0.91212529  0.27193427  0.39527298  1
  O  O19  1  0.58785561  0.77191692  0.60471232  1
  O  O20  1  0.80580033  0.50963627  0.11743737  1
  O  O21  1  0.96970539  0.76772554  0.89164380  1
  O  O22  1  0.77219372  0.49468531  0.62285442  1
  O  O23  1  0.03027332  0.23229873  0.10832448  1
  O  O24  1  0.27220480  0.00532115  0.62284362  1
  O  O25  1  0.22779997  0.50532197  0.37714478  1
  O  O26  1  0.72780847  0.99467831  0.37715753  1
  O  O27  1  0.46972694  0.73230582  0.89167238  1
  Si  Si28  1  0.22370139  0.66004090  0.95055548  1
  Si  Si29  1  0.79664351  0.65962546  0.54938134  1
  Si  Si30  1  0.70337046  0.15963557  0.45061614  1
  Si  Si31  1  0.20334293  0.34036107  0.45061312  1
  Si  Si32  1  0.29664195  0.84035271  0.54938835  1
  Si  Si33  1  0.27629874  0.16003246  0.04942608  1
  Si  Si34  1  0.77628321  0.33997258  0.04942851  1
  Si  Si35  1  0.72371243  0.83997708  0.95058138  1
  Cr  Cr36  1  0.01358668  0.65640787  0.25030634  1
  Cr  Cr37  1  0.51362832  0.84360094  0.25031729  1
  Cr  Cr38  1  0.98639820  0.34360319  0.74970006  1
  Cr  Cr39  1  0.48638542  0.15641086  0.74967627  1
