# generated using pymatgen
data_K4Si23
_symmetry_space_group_name_H-M   'P 1'
_cell_length_a   10.34782943
_cell_length_b   10.34782943
_cell_length_c   10.34782943
_cell_angle_alpha   90.00000000
_cell_angle_beta   90.00000000
_cell_angle_gamma   90.00000000
_symmetry_Int_Tables_number   1
_chemical_formula_structural   K4Si23
_chemical_formula_sum   'K8 Si46'
_cell_volume   1108.02047062
_cell_formula_units_Z   2
loop_
 _symmetry_equiv_pos_site_id
 _symmetry_equiv_pos_as_xyz
  1  'x, y, z'
loop_
 _atom_site_type_symbol
 _atom_site_label
 _atom_site_symmetry_multiplicity
 _atom_site_fract_x
 _atom_site_fract_y
 _atom_site_fract_z
 _atom_site_occupancy
  Si  Si0  1  0.25000000  0.00000000  0.50000000  1
  Si  Si1  1  0.75000000  0.00000000  0.50000000  1
  Si  Si2  1  0.00000000  0.50000000  0.25000000  1
  Si  Si3  1  0.00000000  0.50000000  0.75000000  1
  Si  Si4  1  0.50000000  0.75000000  0.00000000  1
  Si  Si5  1  0.50000000  0.25000000  0.00000000  1
  Si  Si6  1  0.18484695  0.18484695  0.18484695  1
  Si  Si7  1  0.68484695  0.31515305  0.68484695  1
  Si  Si8  1  0.68484695  0.68484695  0.31515305  1
  Si  Si9  1  0.31515305  0.68484695  0.68484695  1
  Si  Si10  1  0.81515305  0.81515305  0.18484695  1
  Si  Si11  1  0.18484695  0.81515305  0.81515305  1
  Si  Si12  1  0.81515305  0.18484695  0.81515305  1
  Si  Si13  1  0.31515305  0.31515305  0.31515305  1
  Si  Si14  1  0.81515305  0.81515305  0.81515305  1
  Si  Si15  1  0.31515305  0.68484695  0.31515305  1
  Si  Si16  1  0.31515305  0.31515305  0.68484695  1
  Si  Si17  1  0.68484695  0.31515305  0.31515305  1
  Si  Si18  1  0.18484695  0.18484695  0.81515305  1
  Si  Si19  1  0.81515305  0.18484695  0.18484695  1
  Si  Si20  1  0.18484695  0.81515305  0.18484695  1
  Si  Si21  1  0.68484695  0.68484695  0.68484695  1
  Si  Si22  1  0.00000000  0.30654662  0.11863535  1
  Si  Si23  1  0.50000000  0.38136465  0.80654662  1
  Si  Si24  1  0.50000000  0.61863535  0.19345338  1
  Si  Si25  1  0.61863535  0.80654662  0.50000000  1
  Si  Si26  1  0.38136465  0.80654662  0.50000000  1
  Si  Si27  1  0.19345338  0.50000000  0.61863535  1
  Si  Si28  1  0.80654662  0.50000000  0.61863535  1
  Si  Si29  1  0.11863535  0.00000000  0.30654662  1
  Si  Si30  1  0.30654662  0.11863535  0.00000000  1
  Si  Si31  1  0.69345338  0.88136465  0.00000000  1
  Si  Si32  1  0.11863535  0.00000000  0.69345338  1
  Si  Si33  1  0.69345338  0.11863535  0.00000000  1
  Si  Si34  1  0.88136465  0.00000000  0.30654662  1
  Si  Si35  1  0.88136465  0.00000000  0.69345338  1
  Si  Si36  1  0.30654662  0.88136465  0.00000000  1
  Si  Si37  1  0.00000000  0.69345338  0.88136465  1
  Si  Si38  1  0.00000000  0.30654662  0.88136465  1
  Si  Si39  1  0.00000000  0.69345338  0.11863535  1
  Si  Si40  1  0.80654662  0.50000000  0.38136465  1
  Si  Si41  1  0.19345338  0.50000000  0.38136465  1
  Si  Si42  1  0.61863535  0.19345338  0.50000000  1
  Si  Si43  1  0.38136465  0.19345338  0.50000000  1
  Si  Si44  1  0.50000000  0.61863535  0.80654662  1
  Si  Si45  1  0.50000000  0.38136465  0.19345338  1
  K  K46  1  0.00000000  0.00000000  0.00000000  1
  K  K47  1  0.50000000  0.50000000  0.50000000  1
  K  K48  1  0.25000000  0.50000000  0.00000000  1
  K  K49  1  0.75000000  0.50000000  0.00000000  1
  K  K50  1  0.50000000  0.00000000  0.25000000  1
  K  K51  1  0.50000000  0.00000000  0.75000000  1
  K  K52  1  0.00000000  0.75000000  0.50000000  1
  K  K53  1  0.00000000  0.25000000  0.50000000  1
