# generated using pymatgen
data_Li9Mn2Co5O16
_symmetry_space_group_name_H-M   'P 1'
_cell_length_a   2.90372347
_cell_length_b   10.22937443
_cell_length_c   9.85214448
_cell_angle_alpha   99.66482908
_cell_angle_beta   90.00000000
_cell_angle_gamma   90.00000000
_symmetry_Int_Tables_number   1
_chemical_formula_structural   Li9Mn2Co5O16
_chemical_formula_sum   'Li9 Mn2 Co5 O16'
_cell_volume   288.48741523
_cell_formula_units_Z   1
loop_
 _symmetry_equiv_pos_site_id
 _symmetry_equiv_pos_as_xyz
  1  'x, y, z'
loop_
 _atom_site_type_symbol
 _atom_site_label
 _atom_site_symmetry_multiplicity
 _atom_site_fract_x
 _atom_site_fract_y
 _atom_site_fract_z
 _atom_site_occupancy
  Li  Li0  1  0.50000000  0.13244670  0.26958404  1
  Li  Li1  1  0.50000000  0.36510077  0.73685561  1
  Li  Li2  1  0.50000000  0.62618169  0.24914399  1
  Li  Li3  1  -0.00000000  0.37876110  0.25683334  1
  Li  Li4  1  0.00000000  0.62011094  0.74490827  1
  Li  Li5  1  -0.00000000  0.87546805  0.26338300  1
  Li  Li6  1  0.50000000  0.87387246  0.74226466  1
  Li  Li7  1  -0.00000000  0.12496566  0.74086687  1
  Li  Li8  1  0.00000000  0.25044657  0.49741214  1
  Mn  Mn9  1  0.00000000  0.99789350  0.99895287  1
  Mn  Mn10  1  0.50000000  0.49200928  0.49609178  1
  Co  Co11  1  -0.00000000  0.50175038  0.00020769  1
  Co  Co12  1  0.00000000  0.75475657  0.49906019  1
  Co  Co13  1  0.50000000  0.74390268  0.00103828  1
  Co  Co14  1  0.50000000  0.02059864  0.50854810  1
  Co  Co15  1  0.50000000  0.25252671  0.00014385  1
  O  O16  1  0.50000000  0.94773819  0.11107618  1
  O  O17  1  0.50000000  0.17746979  0.62472097  1
  O  O18  1  0.50000000  0.44150765  0.11434501  1
  O  O19  1  -0.00000000  0.18159357  0.10193151  1
  O  O20  1  -0.00000000  0.44443076  0.61007428  1
  O  O21  1  0.00000000  0.68940825  0.11795421  1
  O  O22  1  0.50000000  0.68021776  0.60963451  1
  O  O23  1  0.00000000  0.93529077  0.61340879  1
  O  O24  1  0.50000000  0.32890680  0.38208355  1
  O  O25  1  0.50000000  0.55996463  0.88097347  1
  O  O26  1  0.50000000  0.80755712  0.38501301  1
  O  O27  1  -0.00000000  0.55812994  0.39006620  1
  O  O28  1  -0.00000000  0.82154910  0.89068559  1
  O  O29  1  -0.00000000  0.05668313  0.38357358  1
  O  O30  1  0.50000000  0.05076922  0.88856627  1
  O  O31  1  -0.00000000  0.30799164  0.89059817  1
