# generated using pymatgen
data_NiAs2
_symmetry_space_group_name_H-M   'P 1'
_cell_length_a   5.81732232
_cell_length_b   5.87774881
_cell_length_c   11.51224167
_cell_angle_alpha   90.00000000
_cell_angle_beta   90.00000000
_cell_angle_gamma   90.00000000
_symmetry_Int_Tables_number   1
_chemical_formula_structural   NiAs2
_chemical_formula_sum   'Ni8 As16'
_cell_volume   393.63530893
_cell_formula_units_Z   8
loop_
 _symmetry_equiv_pos_site_id
 _symmetry_equiv_pos_as_xyz
  1  'x, y, z'
loop_
 _atom_site_type_symbol
 _atom_site_label
 _atom_site_symmetry_multiplicity
 _atom_site_fract_x
 _atom_site_fract_y
 _atom_site_fract_z
 _atom_site_occupancy
  Ni  Ni0  1  0.99644854  0.17486755  0.37163050  1
  Ni  Ni1  1  0.49644854  0.32513245  0.62836950  1
  Ni  Ni2  1  0.00355146  0.67486755  0.12836950  1
  Ni  Ni3  1  0.50355146  0.82513245  0.87163050  1
  Ni  Ni4  1  0.00355146  0.82513245  0.62836950  1
  Ni  Ni5  1  0.50355146  0.67486755  0.37163050  1
  Ni  Ni6  1  0.99644854  0.32513245  0.87163050  1
  Ni  Ni7  1  0.49644854  0.17486755  0.12836950  1
  As  As8  1  0.12182126  0.05331222  0.18172886  1
  As  As9  1  0.62182126  0.44668778  0.81827114  1
  As  As10  1  0.87817874  0.55331222  0.31827114  1
  As  As11  1  0.37817874  0.94668778  0.68172886  1
  As  As12  1  0.87817874  0.94668778  0.81827114  1
  As  As13  1  0.37817874  0.55331222  0.18172886  1
  As  As14  1  0.12182126  0.44668778  0.68172886  1
  As  As15  1  0.62182126  0.05331222  0.31827114  1
  As  As16  1  0.36372634  0.30921942  0.43152952  1
  As  As17  1  0.86372634  0.19078058  0.56847048  1
  As  As18  1  0.63627366  0.80921942  0.06847048  1
  As  As19  1  0.13627366  0.69078058  0.93152952  1
  As  As20  1  0.63627366  0.69078058  0.56847048  1
  As  As21  1  0.13627366  0.80921942  0.43152952  1
  As  As22  1  0.36372634  0.19078058  0.93152952  1
  As  As23  1  0.86372634  0.30921942  0.06847048  1
