# generated using pymatgen
data_K5SnSb3
_symmetry_space_group_name_H-M   'P 1'
_cell_length_a   8.88428370
_cell_length_b   9.96080396
_cell_length_c   16.24309607
_cell_angle_alpha   89.71163812
_cell_angle_beta   90.00000000
_cell_angle_gamma   90.00000000
_symmetry_Int_Tables_number   1
_chemical_formula_structural   K5SnSb3
_chemical_formula_sum   'K20 Sn4 Sb12'
_cell_volume   1437.40821820
_cell_formula_units_Z   4
loop_
 _symmetry_equiv_pos_site_id
 _symmetry_equiv_pos_as_xyz
  1  'x, y, z'
loop_
 _atom_site_type_symbol
 _atom_site_label
 _atom_site_symmetry_multiplicity
 _atom_site_fract_x
 _atom_site_fract_y
 _atom_site_fract_z
 _atom_site_occupancy
  K  K0  1  0.15940210  0.57663672  0.25940222  1
  K  K1  1  0.65940210  0.92336328  0.24059778  1
  K  K2  1  0.84059790  0.42336328  0.74059778  1
  K  K3  1  0.34059790  0.07663672  0.75940222  1
  K  K4  1  0.17198666  0.57792733  0.57945490  1
  K  K5  1  0.67198666  0.92207267  0.92054510  1
  K  K6  1  0.82801334  0.42207267  0.42054510  1
  K  K7  1  0.32801334  0.07792733  0.07945490  1
  K  K8  1  0.00616972  0.19791415  0.91349910  1
  K  K9  1  0.50616972  0.30208585  0.58650090  1
  K  K10  1  0.99383028  0.80208585  0.08650090  1
  K  K11  1  0.49383028  0.69791415  0.41349910  1
  K  K12  1  0.51963699  0.33861268  0.92247732  1
  K  K13  1  0.01963699  0.16138732  0.57752268  1
  K  K14  1  0.48036301  0.66138732  0.07752268  1
  K  K15  1  0.98036301  0.83861268  0.42247732  1
  K  K16  1  0.99261076  0.80821945  0.74469841  1
  K  K17  1  0.49261076  0.69178055  0.75530159  1
  K  K18  1  0.00738924  0.19178055  0.25530159  1
  K  K19  1  0.50738924  0.30821945  0.24469841  1
  Sn  Sn20  1  0.35678226  0.07325556  0.41326388  1
  Sn  Sn21  1  0.85678226  0.42674444  0.08673612  1
  Sn  Sn22  1  0.64321774  0.92674444  0.58673612  1
  Sn  Sn23  1  0.14321774  0.57325556  0.91326388  1
  Sb  Sb24  1  0.26294425  0.84238940  0.91960009  1
  Sb  Sb25  1  0.76294425  0.65761060  0.58039991  1
  Sb  Sb26  1  0.73705575  0.15761060  0.08039991  1
  Sb  Sb27  1  0.23705575  0.34238940  0.41960009  1
  Sb  Sb28  1  0.18799387  0.41724647  0.06615379  1
  Sb  Sb29  1  0.68799387  0.08275353  0.43384621  1
  Sb  Sb30  1  0.81200613  0.58275353  0.93384621  1
  Sb  Sb31  1  0.31200613  0.91724647  0.56615379  1
  Sb  Sb32  1  0.26615752  0.91961387  0.27258126  1
  Sb  Sb33  1  0.76615752  0.58038613  0.22741874  1
  Sb  Sb34  1  0.73384248  0.08038613  0.72741874  1
  Sb  Sb35  1  0.23384248  0.41961387  0.77258126  1
