# generated using pymatgen
data_P2W5O19
_symmetry_space_group_name_H-M   'P 1'
_cell_length_a   5.40535388
_cell_length_b   6.73341661
_cell_length_c   21.06946030
_cell_angle_alpha   96.09552027
_cell_angle_beta   90.00000000
_cell_angle_gamma   90.00000000
_symmetry_Int_Tables_number   1
_chemical_formula_structural   P2W5O19
_chemical_formula_sum   'P4 W10 O38'
_cell_volume   762.51899894
_cell_formula_units_Z   2
loop_
 _symmetry_equiv_pos_site_id
 _symmetry_equiv_pos_as_xyz
  1  'x, y, z'
loop_
 _atom_site_type_symbol
 _atom_site_label
 _atom_site_symmetry_multiplicity
 _atom_site_fract_x
 _atom_site_fract_y
 _atom_site_fract_z
 _atom_site_occupancy
  O  O0  1  0.00983578  0.98875842  0.00321528  1
  O  O1  1  0.50983578  0.01124158  0.99678472  1
  O  O2  1  0.24934384  0.03186635  0.61316493  1
  O  O3  1  0.74934384  0.96813365  0.38683507  1
  O  O4  1  0.24344611  0.78227430  0.76889840  1
  O  O5  1  0.74344611  0.21772570  0.23110160  1
  O  O6  1  0.25671783  0.95188457  0.87984669  1
  O  O7  1  0.75671783  0.04811543  0.12015331  1
  O  O8  1  0.01418511  0.98812087  0.49756574  1
  O  O9  1  0.51418511  0.01187913  0.50243426  1
  O  O10  1  0.01123174  0.27386929  0.34285541  1
  O  O11  1  0.51123174  0.72613071  0.65714459  1
  O  O12  1  0.51318875  0.29442955  0.34733725  1
  O  O13  1  0.01318875  0.70557045  0.65266275  1
  O  O14  1  0.75527179  0.64373518  0.96362722  1
  O  O15  1  0.25527179  0.35626482  0.03637278  1
  O  O16  1  0.76449844  0.30445657  0.80474792  1
  O  O17  1  0.26449844  0.69554343  0.19525208  1
  O  O18  1  0.74801598  0.38508787  0.69175477  1
  O  O19  1  0.24801598  0.61491213  0.30824523  1
  O  O20  1  0.74790432  0.67867477  0.54028371  1
  O  O21  1  0.24790432  0.32132523  0.45971629  1
  O  O22  1  0.49933365  0.31554419  0.91587214  1
  O  O23  1  0.99933365  0.68445581  0.08412786  1
  O  O24  1  0.99336439  0.29430042  0.92204142  1
  O  O25  1  0.49336439  0.70569958  0.07795858  1
  O  O26  1  0.50991416  0.64179167  0.84945070  1
  O  O27  1  0.00991416  0.35820833  0.15054930  1
  O  O28  1  0.04056779  0.62009763  0.85592649  1
  O  O29  1  0.54056779  0.37990237  0.14407351  1
  O  O30  1  0.96795663  0.07471242  0.72066633  1
  O  O31  1  0.46795663  0.92528758  0.27933367  1
  O  O32  1  0.49867818  0.09720419  0.72644501  1
  O  O33  1  0.99867818  0.90279581  0.27355499  1
  O  O34  1  0.48143837  0.37109070  0.57896837  1
  O  O35  1  0.98143837  0.62890930  0.42103163  1
  O  O36  1  0.98291530  0.34829954  0.57426014  1
  O  O37  1  0.48291530  0.65170046  0.42573986  1
  P  P38  1  0.26259973  0.74928613  0.83980146  1
  P  P39  1  0.76259973  0.25071387  0.16019854  1
  P  P40  1  0.24415521  0.78584614  0.26527062  1
  P  P41  1  0.74415521  0.21415386  0.73472938  1
  W  W42  1  0.25910169  0.14814240  0.96038950  1
  W  W43  1  0.75910169  0.85185760  0.03961050  1
  W  W44  1  0.24866033  0.89436273  0.68452401  1
  W  W45  1  0.74866033  0.10563727  0.31547599  1
  W  W46  1  0.24864302  0.17921176  0.53562247  1
  W  W47  1  0.74864302  0.82078824  0.46437753  1
  W  W48  1  0.24706009  0.46812265  0.38816803  1
  W  W49  1  0.74706009  0.53187735  0.61183197  1
  W  W50  1  0.25637176  0.53376384  0.10941491  1
  W  W51  1  0.75637176  0.46623616  0.89058509  1
