# generated using pymatgen
data_BaMn2O3
_symmetry_space_group_name_H-M   'P 1'
_cell_length_a   3.66809225
_cell_length_b   4.38687137
_cell_length_c   6.27525253
_cell_angle_alpha   110.45844639
_cell_angle_beta   106.99265448
_cell_angle_gamma   89.99985172
_symmetry_Int_Tables_number   1
_chemical_formula_structural   BaMn2O3
_chemical_formula_sum   'Ba1 Mn2 O3'
_cell_volume   89.88855462
_cell_formula_units_Z   1
loop_
 _symmetry_equiv_pos_site_id
 _symmetry_equiv_pos_as_xyz
  1  'x, y, z'
loop_
 _atom_site_type_symbol
 _atom_site_label
 _atom_site_symmetry_multiplicity
 _atom_site_fract_x
 _atom_site_fract_y
 _atom_site_fract_z
 _atom_site_occupancy
  O  O0  1  0.99999895  0.49999928  0.99999920  1
  O  O1  1  0.79429007  0.79430218  0.58860795  1
  O  O2  1  0.20570916  0.20569851  0.41139154  1
  Mn  Mn3  1  0.81144528  0.31132752  0.62270000  1
  Mn  Mn4  1  0.18855378  0.68867112  0.37729945  1
  Ba  Ba5  1  0.49999976  0.99999939  0.99999985  1
