# generated using pymatgen
data_V4P7O24
_symmetry_space_group_name_H-M   'P 1'
_cell_length_a   10.21001940
_cell_length_b   10.42625761
_cell_length_c   10.98293858
_cell_angle_alpha   112.89223731
_cell_angle_beta   108.93113762
_cell_angle_gamma   104.77469619
_symmetry_Int_Tables_number   1
_chemical_formula_structural   V4P7O24
_chemical_formula_sum   'V8 P14 O48'
_cell_volume   916.14684550
_cell_formula_units_Z   2
loop_
 _symmetry_equiv_pos_site_id
 _symmetry_equiv_pos_as_xyz
  1  'x, y, z'
loop_
 _atom_site_type_symbol
 _atom_site_label
 _atom_site_symmetry_multiplicity
 _atom_site_fract_x
 _atom_site_fract_y
 _atom_site_fract_z
 _atom_site_occupancy
  O  O0  1  0.00020662  0.67453209  0.88074476  1
  O  O1  1  0.04755914  0.68781355  0.67356964  1
  O  O2  1  0.01757058  0.87432340  0.13383595  1
  O  O3  1  0.31110280  0.89326986  0.94715578  1
  O  O4  1  0.18644563  0.83015165  0.55487186  1
  O  O5  1  0.11038059  0.71562310  0.27807595  1
  O  O6  1  0.26679157  0.35381782  0.92561493  1
  O  O7  1  0.16443559  0.01690231  0.80048761  1
  O  O8  1  0.31579709  0.99088322  0.46779325  1
  O  O9  1  0.32927808  0.70596198  0.70140708  1
  O  O10  1  0.09340558  0.06670021  0.40427902  1
  O  O11  1  0.07164014  0.14896057  0.20789917  1
  O  O12  1  0.22427382  0.44038338  0.37537979  1
  O  O13  1  0.27808547  0.17478716  0.67153000  1
  O  O14  1  0.13835399  0.51462413  0.01342979  1
  O  O15  1  0.37454535  0.76961800  0.46548922  1
  O  O16  1  0.29109998  0.84116296  0.15210419  1
  O  O17  1  0.55730328  0.72560012  0.90150983  1
  O  O18  1  0.60268468  0.89086131  0.78988690  1
  O  O19  1  0.36290038  0.25861081  0.50816249  1
  O  O20  1  0.50778161  0.60721045  0.62784368  1
  O  O21  1  0.44665499  0.04100763  0.83150275  1
  O  O22  1  0.36240590  0.52380912  0.20620584  1
  O  O23  1  0.58465119  0.35891151  0.94455728  1
  O  O24  1  0.41534881  0.64108849  0.05544272  1
  O  O25  1  0.63759410  0.47619088  0.79379416  1
  O  O26  1  0.55334501  0.95899137  0.16849725  1
  O  O27  1  0.49221839  0.39278955  0.37215632  1
  O  O28  1  0.63709962  0.74138919  0.49183751  1
  O  O29  1  0.39731532  0.10913869  0.21011310  1
  O  O30  1  0.44269672  0.27439988  0.09849017  1
  O  O31  1  0.70890002  0.15883704  0.84789581  1
  O  O32  1  0.62545465  0.23038200  0.53451078  1
  O  O33  1  0.86164601  0.48537587  0.98657021  1
  O  O34  1  0.72191453  0.82521284  0.32847000  1
  O  O35  1  0.77572618  0.55961662  0.62462021  1
  O  O36  1  0.92835986  0.85103943  0.79210083  1
  O  O37  1  0.90659442  0.93329979  0.59572098  1
  O  O38  1  0.67072192  0.29403802  0.29859292  1
  O  O39  1  0.68420291  0.00911678  0.53220675  1
  O  O40  1  0.83556441  0.98309769  0.19951239  1
  O  O41  1  0.73320843  0.64618218  0.07438507  1
  O  O42  1  0.88961941  0.28437690  0.72192405  1
  O  O43  1  0.81355437  0.16984835  0.44512814  1
  O  O44  1  0.68889720  0.10673014  0.05284422  1
  O  O45  1  0.98242942  0.12567660  0.86616405  1
  O  O46  1  0.95244086  0.31218645  0.32643036  1
  O  O47  1  0.99979338  0.32546791  0.11925524  1
  P  P48  1  0.99783474  0.99010063  0.77042633  1
  P  P49  1  0.24467220  0.81529164  0.43653429  1
  P  P50  1  0.06354157  0.31792408  0.25880946  1
  P  P51  1  0.49656257  0.72498413  0.75796273  1
  P  P52  1  0.27265436  0.13287997  0.52324497  1
  P  P53  1  0.38324862  0.94009255  0.11349219  1
  P  P54  1  0.30101321  0.51096335  0.05271761  1
  P  P55  1  0.69898679  0.48903665  0.94728239  1
  P  P56  1  0.61675138  0.05990745  0.88650781  1
  P  P57  1  0.72734564  0.86712003  0.47675503  1
  P  P58  1  0.50343743  0.27501587  0.24203727  1
  P  P59  1  0.93645843  0.68207592  0.74119054  1
  P  P60  1  0.75532780  0.18470836  0.56346571  1
  P  P61  1  0.00216526  0.00989937  0.22957367  1
  V  V62  1  0.24219540  0.84798373  0.74302274  1
  V  V63  1  0.07374915  0.68861936  0.07769358  1
  V  V64  1  0.37445271  0.22657959  0.88682355  1
  V  V65  1  0.42436882  0.58141378  0.41077662  1
  V  V66  1  0.57563118  0.41858622  0.58922338  1
  V  V67  1  0.62554729  0.77342041  0.11317645  1
  V  V68  1  0.92625085  0.31138064  0.92230642  1
  V  V69  1  0.75780460  0.15201627  0.25697726  1
