# generated using pymatgen
data_Ta2NiSe7
_symmetry_space_group_name_H-M   'P 1'
_cell_length_a   3.51497175
_cell_length_b   7.54910142
_cell_length_c   17.92156198
_cell_angle_alpha   83.55632530
_cell_angle_beta   84.37222245
_cell_angle_gamma   76.53758940
_symmetry_Int_Tables_number   1
_chemical_formula_structural   Ta2NiSe7
_chemical_formula_sum   'Ta4 Ni2 Se14'
_cell_volume   458.28308699
_cell_formula_units_Z   2
loop_
 _symmetry_equiv_pos_site_id
 _symmetry_equiv_pos_as_xyz
  1  'x, y, z'
loop_
 _atom_site_type_symbol
 _atom_site_label
 _atom_site_symmetry_multiplicity
 _atom_site_fract_x
 _atom_site_fract_y
 _atom_site_fract_z
 _atom_site_occupancy
  Ta  Ta0  1  0.84728475  0.90540880  0.40002170  1
  Ta  Ta1  1  0.15271525  0.09459120  0.59997830  1
  Ta  Ta2  1  0.77203980  0.36540098  0.09051941  1
  Ta  Ta3  1  0.22796020  0.63459902  0.90948059  1
  Ni  Ni4  1  0.31021217  0.17047081  0.20910485  1
  Ni  Ni5  1  0.68978783  0.82952919  0.79089515  1
  Se  Se6  1  0.64079887  0.70654894  0.01185331  1
  Se  Se7  1  0.35920113  0.29345106  0.98814669  1
  Se  Se8  1  0.42912883  0.84601583  0.29572651  1
  Se  Se9  1  0.57087117  0.15398417  0.70427349  1
  Se  Se10  1  0.91247453  0.03553948  0.13951145  1
  Se  Se11  1  0.08752547  0.96446052  0.86048855  1
  Se  Se12  1  0.16101326  0.50512632  0.17284715  1
  Se  Se13  1  0.83898674  0.49487368  0.82715285  1
  Se  Se14  1  0.47236852  0.63516031  0.42010264  1
  Se  Se15  1  0.52763148  0.36483969  0.57989736  1
  Se  Se16  1  0.20502081  0.14572637  0.44423200  1
  Se  Se17  1  0.79497919  0.85427363  0.55576800  1
  Se  Se18  1  0.74451695  0.21189312  0.29907298  1
  Se  Se19  1  0.25548305  0.78810688  0.70092702  1
