# generated using pymatgen
data_KSO3
_symmetry_space_group_name_H-M   'P 1'
_cell_length_a   9.92184458
_cell_length_b   9.92184413
_cell_length_c   6.44451880
_cell_angle_alpha   90.00000000
_cell_angle_beta   90.00000000
_cell_angle_gamma   120.00000150
_symmetry_Int_Tables_number   1
_chemical_formula_structural   KSO3
_chemical_formula_sum   'K6 S6 O18'
_cell_volume   549.42186654
_cell_formula_units_Z   6
loop_
 _symmetry_equiv_pos_site_id
 _symmetry_equiv_pos_as_xyz
  1  'x, y, z'
loop_
 _atom_site_type_symbol
 _atom_site_label
 _atom_site_symmetry_multiplicity
 _atom_site_fract_x
 _atom_site_fract_y
 _atom_site_fract_z
 _atom_site_occupancy
  K  K0  1  0.62015365  0.00000000  0.00000000  1
  K  K1  1  1.00000000  0.62015365  0.00000000  1
  K  K2  1  0.37984635  0.37984635  0.00000000  1
  K  K3  1  0.29548352  0.00000000  0.50000000  1
  K  K4  1  1.00000000  0.29548352  0.50000000  1
  K  K5  1  0.70451648  0.70451648  0.50000000  1
  S  S6  1  0.00000000  0.00000000  0.82621555  1
  S  S7  1  0.00000000  0.00000000  0.17378445  1
  S  S8  1  0.33333300  0.66666700  0.74039758  1
  S  S9  1  0.66666700  0.33333300  0.25960242  1
  S  S10  1  0.33333300  0.66666700  0.39618906  1
  S  S11  1  0.66666700  0.33333300  0.60381094  1
  O  O12  1  0.15700672  0.12373930  0.76740996  1
  O  O13  1  0.87626070  0.03326742  0.76740996  1
  O  O14  1  0.96673258  0.84299328  0.76740996  1
  O  O15  1  0.03326742  0.87626070  0.23259004  1
  O  O16  1  0.84299328  0.96673258  0.23259004  1
  O  O17  1  0.12373930  0.15700672  0.23259004  1
  O  O18  1  0.20484404  0.51179485  0.79998483  1
  O  O19  1  0.48820515  0.69304918  0.79998483  1
  O  O20  1  0.30695082  0.79515596  0.79998483  1
  O  O21  1  0.69304918  0.48820515  0.20001517  1
  O  O22  1  0.79515596  0.30695082  0.20001517  1
  O  O23  1  0.51179485  0.20484404  0.20001517  1
  O  O24  1  0.17198462  0.62019136  0.34322467  1
  O  O25  1  0.37980864  0.55179326  0.34322467  1
  O  O26  1  0.44820674  0.82801538  0.34322467  1
  O  O27  1  0.55179326  0.37980864  0.65677533  1
  O  O28  1  0.82801538  0.44820674  0.65677533  1
  O  O29  1  0.62019136  0.17198462  0.65677533  1
