# generated using pymatgen
data_Bi5IO7
_symmetry_space_group_name_H-M   'P 1'
_cell_length_a   4.26414555
_cell_length_b   9.70577965
_cell_length_c   13.49334174
_cell_angle_alpha   106.12041098
_cell_angle_beta   90.00000000
_cell_angle_gamma   102.68967639
_symmetry_Int_Tables_number   1
_chemical_formula_structural   Bi5IO7
_chemical_formula_sum   'Bi10 I2 O14'
_cell_volume   522.27531749
_cell_formula_units_Z   2
loop_
 _symmetry_equiv_pos_site_id
 _symmetry_equiv_pos_as_xyz
  1  'x, y, z'
loop_
 _atom_site_type_symbol
 _atom_site_label
 _atom_site_symmetry_multiplicity
 _atom_site_fract_x
 _atom_site_fract_y
 _atom_site_fract_z
 _atom_site_occupancy
  Bi  Bi0  1  0.20515682  0.41031364  0.36974807  1
  Bi  Bi1  1  0.79484318  0.58968636  0.63025193  1
  Bi  Bi2  1  0.60503848  0.21007696  0.12979694  1
  Bi  Bi3  1  0.39496152  0.78992304  0.87020306  1
  Bi  Bi4  1  0.53119902  0.06239805  0.36503257  1
  Bi  Bi5  1  0.46880098  0.93760195  0.63496743  1
  Bi  Bi6  1  0.87717479  0.75434957  0.41074811  1
  Bi  Bi7  1  0.12282521  0.24565043  0.58925189  1
  Bi  Bi8  1  0.26085226  0.52170452  0.13521150  1
  Bi  Bi9  1  0.73914774  0.47829548  0.86478850  1
  I  I10  1  0.07107601  0.14215201  0.87122687  1
  I  I11  1  0.92892399  0.85784799  0.12877313  1
  O  O12  1  0.84956401  0.69912801  0.83175802  1
  O  O13  1  0.15043599  0.30087199  0.16824198  1
  O  O14  1  0.37349010  0.74698019  0.70112796  1
  O  O15  1  0.62650990  0.25301981  0.29887204  1
  O  O16  1  0.71563663  0.43127327  0.11516650  1
  O  O17  1  0.28436337  0.56872673  0.88483350  1
  O  O18  1  0.07042078  0.14084156  0.41300763  1
  O  O19  1  0.92957922  0.85915844  0.58699237  1
  O  O20  1  0.77221320  0.54442639  0.44107867  1
  O  O21  1  0.22778680  0.45557361  0.55892133  1
  O  O22  1  0.69836963  0.39673927  0.70207201  1
  O  O23  1  0.30163037  0.60326073  0.29792799  1
  O  O24  1  0.58480943  0.16961886  0.52860670  1
  O  O25  1  0.41519057  0.83038114  0.47139330  1
