# generated using pymatgen
data_Ce3Si2S8Cl
_symmetry_space_group_name_H-M   'P 1'
_cell_length_a   7.70939861
_cell_length_b   8.77023282
_cell_length_c   11.04317069
_cell_angle_alpha   96.46949780
_cell_angle_beta   90.00000000
_cell_angle_gamma   116.07330712
_symmetry_Int_Tables_number   1
_chemical_formula_structural   Ce3Si2S8Cl
_chemical_formula_sum   'Ce6 Si4 S16 Cl2'
_cell_volume   665.38058191
_cell_formula_units_Z   2
loop_
 _symmetry_equiv_pos_site_id
 _symmetry_equiv_pos_as_xyz
  1  'x, y, z'
loop_
 _atom_site_type_symbol
 _atom_site_label
 _atom_site_symmetry_multiplicity
 _atom_site_fract_x
 _atom_site_fract_y
 _atom_site_fract_z
 _atom_site_occupancy
  Ce  Ce0  1  0.07308647  0.38998845  0.68602660  1
  Ce  Ce1  1  0.68309802  0.61001155  0.81397340  1
  Ce  Ce2  1  0.92691353  0.61001155  0.31397340  1
  Ce  Ce3  1  0.31690198  0.38998845  0.18602660  1
  Ce  Ce4  1  0.37927733  0.00000000  0.75000000  1
  Ce  Ce5  1  0.62072267  0.00000000  0.25000000  1
  Cl  Cl6  1  0.99426508  0.00000000  0.25000000  1
  Cl  Cl7  1  0.00573492  0.00000000  0.75000000  1
  Si  Si8  1  0.69143256  0.32012767  0.02993199  1
  Si  Si9  1  0.37130488  0.67987233  0.47006801  1
  Si  Si10  1  0.30856744  0.67987233  0.97006801  1
  Si  Si11  1  0.62869512  0.32012767  0.52993199  1
  S  S12  1  0.89602889  0.29193015  0.14225704  1
  S  S13  1  0.60409875  0.70806985  0.35774296  1
  S  S14  1  0.10397111  0.70806985  0.85774296  1
  S  S15  1  0.39590125  0.29193015  0.64225704  1
  S  S16  1  0.71166755  0.56900530  0.08526723  1
  S  S17  1  0.14266225  0.43099470  0.41473277  1
  S  S18  1  0.28833245  0.43099470  0.91473277  1
  S  S19  1  0.85733775  0.56900530  0.58526723  1
  S  S20  1  0.40756156  0.13139444  0.05125987  1
  S  S21  1  0.27616712  0.86860556  0.44874013  1
  S  S22  1  0.59243844  0.86860556  0.94874013  1
  S  S23  1  0.72383288  0.13139444  0.55125987  1
  S  S24  1  0.73721163  0.29562754  0.84026091  1
  S  S25  1  0.44158408  0.70437246  0.65973909  1
  S  S26  1  0.26278837  0.70437246  0.15973909  1
  S  S27  1  0.55841592  0.29562754  0.34026091  1
