# generated using pymatgen
data_Mo2(PO4)3
_symmetry_space_group_name_H-M   'P 1'
_cell_length_a   8.71900600
_cell_length_b   12.22770574
_cell_length_c   8.85855266
_cell_angle_alpha   90.00000000
_cell_angle_beta   90.00000000
_cell_angle_gamma   90.12313557
_symmetry_Int_Tables_number   1
_chemical_formula_structural   Mo2(PO4)3
_chemical_formula_sum   'Mo8 P12 O48'
_cell_volume   944.43858954
_cell_formula_units_Z   4
loop_
 _symmetry_equiv_pos_site_id
 _symmetry_equiv_pos_as_xyz
  1  'x, y, z'
loop_
 _atom_site_type_symbol
 _atom_site_label
 _atom_site_symmetry_multiplicity
 _atom_site_fract_x
 _atom_site_fract_y
 _atom_site_fract_z
 _atom_site_occupancy
  Mo  Mo0  1  0.24943384  0.61879277  0.53390427  1
  Mo  Mo1  1  0.25056616  0.88120723  0.03390427  1
  Mo  Mo2  1  0.24916472  0.38110128  0.96393920  1
  Mo  Mo3  1  0.25083528  0.11889872  0.46393920  1
  Mo  Mo4  1  0.74916472  0.88110128  0.53606080  1
  Mo  Mo5  1  0.75083528  0.61889872  0.03606080  1
  Mo  Mo6  1  0.74943384  0.11879277  0.96609573  1
  Mo  Mo7  1  0.75056616  0.38120723  0.46609573  1
  O  O8  1  0.06615013  0.86961065  0.89174398  1
  O  O9  1  0.07163680  0.59125926  0.67784413  1
  O  O10  1  0.06749726  0.16073215  0.57005760  1
  O  O11  1  0.06866199  0.43433331  0.86147883  1
  O  O12  1  0.10513378  0.57627130  0.35660418  1
  O  O13  1  0.12257112  0.83004817  0.22144943  1
  O  O14  1  0.14982153  0.97280094  0.42881393  1
  O  O15  1  0.15640350  0.23491580  -0.00380568  1
  O  O16  1  0.16162821  0.17834111  0.27088114  1
  O  O17  1  0.15425142  0.43461517  0.15586398  1
  O  O18  1  0.19843415  0.77693348  0.49244201  1
  O  O19  1  0.19255163  0.03986438  0.06247488  1
  O  O20  1  0.30744837  0.46013562  0.56247488  1
  O  O21  1  0.30156585  0.72306652  0.99244201  1
  O  O22  1  0.34574858  0.06538483  0.65586398  1
  O  O23  1  0.33837179  0.32165889  0.77088114  1
  O  O24  1  0.34359650  0.26508420  0.49619432  1
  O  O25  1  0.35017847  0.52719906  0.92881393  1
  O  O26  1  0.37742888  0.66995183  0.72144943  1
  O  O27  1  0.39486622  0.92372870  0.85660418  1
  O  O28  1  0.43133801  0.06566569  0.36147883  1
  O  O29  1  0.42836320  0.90874074  0.17784413  1
  O  O30  1  0.43250274  0.33926785  0.07005760  1
  O  O31  1  0.43384987  0.63038935  0.39174398  1
  O  O32  1  0.56615013  0.36961065  0.60825602  1
  O  O33  1  0.56749726  0.66073215  0.92994240  1
  O  O34  1  0.57163680  0.09125926  0.82215587  1
  O  O35  1  0.56866199  0.93433331  0.63852117  1
  O  O36  1  0.60513378  0.07627130  0.14339582  1
  O  O37  1  0.62257112  0.33004817  0.27854957  1
  O  O38  1  0.64982153  0.47280094  0.07118607  1
  O  O39  1  0.65640250  0.73491580  0.50380568  1
  O  O40  1  0.66162821  0.67834111  0.22911886  1
  O  O41  1  0.65425142  0.93461517  0.34413602  1
  O  O42  1  0.69843415  0.27693348  0.00755799  1
  O  O43  1  0.69255163  0.53986438  0.43752512  1
  O  O44  1  0.80744837  0.96013562  0.93752512  1
  O  O45  1  0.80156585  0.22306652  0.50755799  1
  O  O46  1  0.84574858  0.56538483  0.84413602  1
  O  O47  1  0.83837179  0.82165889  0.72911886  1
  O  O48  1  0.84359750  0.76508420  1.00380568  1
  O  O49  1  0.85017847  0.02719906  0.57118607  1
  O  O50  1  0.87742888  0.16995183  0.77855057  1
  O  O51  1  0.89486622  0.42372870  0.64339582  1
  O  O52  1  0.93133801  0.56566669  0.13852117  1
  O  O53  1  0.93250274  0.83926785  0.42994240  1
  O  O54  1  0.92836320  0.40874074  0.32215587  1
  O  O55  1  0.93384987  0.13038935  0.10825602  1
  P  P56  1  0.03298543  0.49536483  0.24926837  1
  P  P57  1  0.10712671  0.85464031  0.38873676  1
  P  P58  1  0.10920121  0.14433162  0.11020864  1
  P  P59  1  0.39079879  0.35566838  0.61020864  1
  P  P60  1  0.39287329  0.64535969  0.88873676  1
  P  P61  1  0.46701457  0.00463517  0.74926837  1
  P  P62  1  0.53298543  0.99536483  0.25073163  1
  P  P63  1  0.60712671  0.35464031  0.11126324  1
  P  P64  1  0.60920121  0.64433162  0.38979136  1
  P  P65  1  0.89079879  0.85566838  0.88979136  1
  P  P66  1  0.89287329  0.14535969  0.61126324  1
  P  P67  1  0.96701457  0.50463517  0.75073163  1
