# generated using pymatgen
data_Hg3(ClO)2
_symmetry_space_group_name_H-M   'P 1'
_cell_length_a   9.62263520
_cell_length_b   11.16262559
_cell_length_c   11.83186433
_cell_angle_alpha   108.93402149
_cell_angle_beta   90.00000000
_cell_angle_gamma   90.00000000
_symmetry_Int_Tables_number   1
_chemical_formula_structural   Hg3(ClO)2
_chemical_formula_sum   'Hg24 Cl16 O16'
_cell_volume   1202.14126663
_cell_formula_units_Z   8
loop_
 _symmetry_equiv_pos_site_id
 _symmetry_equiv_pos_as_xyz
  1  'x, y, z'
loop_
 _atom_site_type_symbol
 _atom_site_label
 _atom_site_symmetry_multiplicity
 _atom_site_fract_x
 _atom_site_fract_y
 _atom_site_fract_z
 _atom_site_occupancy
  Hg  Hg0  1  0.67256198  0.57645671  0.49355282  1
  Hg  Hg1  1  0.17256198  0.42354329  0.00644718  1
  Hg  Hg2  1  0.32743802  0.42354329  0.50644718  1
  Hg  Hg3  1  0.82743802  0.57645671  0.99355282  1
  Hg  Hg4  1  0.55419693  0.57722705  0.77746360  1
  Hg  Hg5  1  0.05419693  0.42277295  0.72253640  1
  Hg  Hg6  1  0.44580307  0.42277295  0.22253640  1
  Hg  Hg7  1  0.94580307  0.57722705  0.27746360  1
  Hg  Hg8  1  0.48236237  0.69267688  0.07642812  1
  Hg  Hg9  1  0.98236237  0.30732312  0.42357188  1
  Hg  Hg10  1  0.51763763  0.30732312  0.92357188  1
  Hg  Hg11  1  0.01763763  0.69267688  0.57642812  1
  Hg  Hg12  1  0.40045894  0.77880945  0.61517617  1
  Hg  Hg13  1  0.90045894  0.22119055  0.88482383  1
  Hg  Hg14  1  0.59954106  0.22119055  0.38482383  1
  Hg  Hg15  1  0.09954106  0.77880945  0.11517617  1
  Hg  Hg16  1  0.38584392  0.88619013  0.37056280  1
  Hg  Hg17  1  0.88584392  0.11380987  0.12943720  1
  Hg  Hg18  1  0.61415608  0.11380987  0.62943720  1
  Hg  Hg19  1  0.11415608  0.88619013  0.87056280  1
  Hg  Hg20  1  0.69227546  0.96100889  0.86749654  1
  Hg  Hg21  1  0.19227546  0.03899111  0.63250346  1
  Hg  Hg22  1  0.30772454  0.03899111  0.13250346  1
  Hg  Hg23  1  0.80772454  0.96100889  0.36749654  1
  Cl  Cl24  1  0.46972494  0.86187922  0.87417585  1
  Cl  Cl25  1  0.96972494  0.13812078  0.62582415  1
  Cl  Cl26  1  0.53027506  0.13812078  0.12582415  1
  Cl  Cl27  1  0.03027506  0.86187922  0.37417585  1
  Cl  Cl28  1  0.72968482  0.85702765  0.62689512  1
  Cl  Cl29  1  0.22968482  0.14297235  0.87310488  1
  Cl  Cl30  1  0.27031518  0.14297235  0.37310488  1
  Cl  Cl31  1  0.77031518  0.85702765  0.12689512  1
  Cl  Cl32  1  0.62221117  0.68049588  0.31479902  1
  Cl  Cl33  1  0.12221117  0.31950412  0.18520098  1
  Cl  Cl34  1  0.37778883  0.31950412  0.68520098  1
  Cl  Cl35  1  0.87778883  0.68049588  0.81479902  1
  Cl  Cl36  1  0.25943317  0.62148615  0.39695562  1
  Cl  Cl37  1  0.75943317  0.37851385  0.10304438  1
  Cl  Cl38  1  0.74056683  0.37851385  0.60304438  1
  Cl  Cl39  1  0.24056683  0.62148615  0.89695562  1
  O  O40  1  0.38534756  0.94682902  0.56129244  1
  O  O41  1  0.88534756  0.05317098  0.93870756  1
  O  O42  1  0.61465244  0.05317098  0.43870756  1
  O  O43  1  0.11465244  0.94682902  0.06129244  1
  O  O44  1  0.35116671  0.83186848  0.18589546  1
  O  O45  1  0.85116671  0.16813152  0.31410454  1
  O  O46  1  0.64883329  0.16813152  0.81410454  1
  O  O47  1  0.14883329  0.83186848  0.68589546  1
  O  O48  1  0.48853910  0.60101512  0.61629693  1
  O  O49  1  0.98853910  0.39898488  0.88370307  1
  O  O50  1  0.51146090  0.39898488  0.38370307  1
  O  O51  1  0.01146090  0.60101512  0.11629693  1
  O  O52  1  0.60501273  0.55998973  0.94430118  1
  O  O53  1  0.10501273  0.44001027  0.55569882  1
  O  O54  1  0.39498727  0.44001027  0.05569882  1
  O  O55  1  0.89498727  0.55998973  0.44430118  1
