# generated using pymatgen
data_KAl(SiO3)2
_symmetry_space_group_name_H-M   'P 1'
_cell_length_a   11.65948376
_cell_length_b   11.65948324
_cell_length_c   11.65948326
_cell_angle_alpha   106.04830185
_cell_angle_beta   111.20931969
_cell_angle_gamma   111.20931692
_symmetry_Int_Tables_number   1
_chemical_formula_structural   KAl(SiO3)2
_chemical_formula_sum   'K8 Al8 Si16 O48'
_cell_volume   1216.91686872
_cell_formula_units_Z   8
loop_
 _symmetry_equiv_pos_site_id
 _symmetry_equiv_pos_as_xyz
  1  'x, y, z'
loop_
 _atom_site_type_symbol
 _atom_site_label
 _atom_site_symmetry_multiplicity
 _atom_site_fract_x
 _atom_site_fract_y
 _atom_site_fract_z
 _atom_site_occupancy
  K  K0  1  0.77166376  0.25534890  0.74305812  1
  K  K1  1  0.98770922  0.01631486  0.24465110  1
  K  K2  1  0.01229078  0.98368514  0.75534890  1
  K  K3  1  0.48770922  0.24305812  0.97139436  1
  K  K4  1  0.72833624  0.47139436  0.48368514  1
  K  K5  1  0.27166376  0.52860564  0.51631486  1
  K  K6  1  0.22833624  0.74465110  0.25694188  1
  K  K7  1  0.51229078  0.75694188  0.02860564  1
  Al  Al8  1  0.78000465  0.73900366  0.29706400  1
  Al  Al9  1  0.05806034  0.54100099  0.76099634  1
  Al  Al10  1  0.55806034  0.79706400  0.51705935  1
  Al  Al11  1  0.44193966  0.20293600  0.48294065  1
  Al  Al12  1  0.71999535  0.01705935  0.95899901  1
  Al  Al13  1  0.28000465  0.98294065  0.04100099  1
  Al  Al14  1  0.21999535  0.26099634  0.70293600  1
  Al  Al15  1  0.94193966  0.45899901  0.23900366  1
  Si  Si16  1  0.24249165  0.01812247  0.55339172  1
  Si  Si17  1  0.53526925  0.05339172  0.31090006  1
  Si  Si18  1  0.74249165  0.18909994  0.22436918  1
  Si  Si19  1  0.54903046  0.43606290  0.77704445  1
  Si  Si20  1  0.75750835  0.98187753  0.44660828  1
  Si  Si21  1  0.25750835  0.81090006  0.77563082  1
  Si  Si22  1  0.95096954  0.72801398  0.88703244  1
  Si  Si23  1  0.04903046  0.27198602  0.11296756  1
  Si  Si24  1  0.65901846  0.72295555  0.77198602  1
  Si  Si25  1  0.84098154  0.61296756  0.06393710  1
  Si  Si26  1  0.46473075  0.94660828  0.68909994  1
  Si  Si27  1  0.15901846  0.38703244  0.93606290  1
  Si  Si28  1  0.45096954  0.56393710  0.22295555  1
  Si  Si29  1  0.96473075  0.27563082  0.51812247  1
  Si  Si30  1  0.34098154  0.27704445  0.22801398  1
  Si  Si31  1  0.03526925  0.72436918  0.48187753  1
  O  O32  1  0.54234967  0.12707725  0.45522884  1
  O  O33  1  0.92198312  0.54580492  0.13953998  1
  O  O34  1  0.05703469  0.29615307  0.98291065  1
  O  O35  1  0.36839625  0.82334363  0.71623746  1
  O  O36  1  0.10710617  0.78376254  0.65215879  1
  O  O37  1  0.90626494  0.12382179  0.04580492  1
  O  O38  1  0.57801688  0.71755685  0.62382179  1
  O  O39  1  0.45765033  0.87292275  0.54477116  1
  O  O40  1  0.39289383  0.04505262  0.67665637  1
  O  O41  1  0.27572885  0.08187492  0.45340020  1
  O  O42  1  0.32815159  0.95522884  0.91287917  1
  O  O43  1  0.09373506  0.87617821  0.95419508  1
  O  O44  1  0.04234967  0.58712083  0.41527242  1
  O  O45  1  0.95765033  0.41287917  0.58472758  1
  O  O46  1  0.40626494  0.36046002  0.78244315  1
  O  O47  1  0.68078154  0.84422669  0.90137874  1
  O  O48  1  0.18675758  0.26088162  0.20384693  1
  O  O49  1  0.55715205  0.33655485  0.65577331  1
  O  O50  1  0.94296531  0.70384693  0.01708935  1
  O  O51  1  0.82815159  0.91527242  0.37292275  1
  O  O52  1  0.07801688  0.45419508  0.86046002  1
  O  O53  1  0.42198312  0.28244315  0.37617821  1
  O  O54  1  0.62847473  0.04659980  0.82232865  1
  O  O55  1  0.89289383  0.21623746  0.34784121  1
  O  O56  1  0.31324242  0.51708935  0.07412404  1
  O  O57  1  0.17184841  0.08472758  0.62707725  1
  O  O58  1  0.59373506  0.63953998  0.21755685  1
  O  O59  1  0.60710617  0.95494738  0.32334363  1
  O  O60  1  0.94284795  0.59862126  0.77940280  1
  O  O61  1  0.63160375  0.17665637  0.28376254  1
  O  O62  1  0.13160375  0.84784121  0.45494738  1
  O  O63  1  0.87152527  0.69385392  0.41812508  1
  O  O64  1  0.31921846  0.15577331  0.09862126  1
  O  O65  1  0.86839625  0.15215879  0.54505262  1
  O  O66  1  0.18078154  0.27940280  0.83655485  1
  O  O67  1  0.55703469  0.57412404  0.76088162  1
  O  O68  1  0.72427115  0.91812508  0.54659980  1
  O  O69  1  0.37152527  0.95340020  0.17767135  1
  O  O70  1  0.67184841  0.04477116  0.08712083  1
  O  O71  1  0.44296531  0.42587596  0.23911838  1
  O  O72  1  0.81324242  0.73911838  0.79615307  1
  O  O73  1  0.68675758  0.48291065  0.92587596  1
  O  O74  1  0.05715205  0.40137874  0.22059720  1
  O  O75  1  0.81921846  0.72059720  0.16344515  1
  O  O76  1  0.12847473  0.30614608  0.58187492  1
  O  O77  1  0.44284795  0.66344515  0.34422669  1
  O  O78  1  0.22427115  0.67767135  0.80614608  1
  O  O79  1  0.77572885  0.32232865  0.19385392  1
