# generated using pymatgen
data_MgAlPO5
_symmetry_space_group_name_H-M   'P 1'
_cell_length_a   5.31395022
_cell_length_b   7.19392719
_cell_length_c   10.47514406
_cell_angle_alpha   90.00000000
_cell_angle_beta   90.00000000
_cell_angle_gamma   90.63670897
_symmetry_Int_Tables_number   1
_chemical_formula_structural   MgAlPO5
_chemical_formula_sum   'Mg4 Al4 P4 O20'
_cell_volume   400.42087273
_cell_formula_units_Z   4
loop_
 _symmetry_equiv_pos_site_id
 _symmetry_equiv_pos_as_xyz
  1  'x, y, z'
loop_
 _atom_site_type_symbol
 _atom_site_label
 _atom_site_symmetry_multiplicity
 _atom_site_fract_x
 _atom_site_fract_y
 _atom_site_fract_z
 _atom_site_occupancy
  Mg  Mg0  1  0.90447051  0.97920384  0.85697761  1
  Mg  Mg1  1  0.09552949  0.02079616  0.14302239  1
  Mg  Mg2  1  0.40447051  0.97920384  0.64302239  1
  Mg  Mg3  1  0.59552949  0.02079616  0.35697761  1
  Al  Al4  1  0.33163484  0.64231211  0.82982072  1
  Al  Al5  1  0.83163484  0.64231211  0.67017928  1
  Al  Al6  1  0.16836516  0.35768789  0.32982072  1
  Al  Al7  1  0.66836516  0.35768789  0.17017928  1
  P  P8  1  0.58824279  0.77772796  0.09330286  1
  P  P9  1  0.41175721  0.22227204  0.90669714  1
  P  P10  1  0.08824279  0.77772796  0.40669714  1
  P  P11  1  0.91175721  0.22227204  0.59330286  1
  O  O12  1  0.03859972  0.73231676  0.78708547  1
  O  O13  1  0.53859972  0.73231676  0.71291453  1
  O  O14  1  0.17601346  0.12009830  0.96030818  1
  O  O15  1  0.16795252  0.60182471  0.33409519  1
  O  O16  1  0.40839826  0.72338772  0.98363966  1
  O  O17  1  0.44389040  0.90917174  0.18428077  1
  O  O18  1  0.67601346  0.12009830  0.53969182  1
  O  O19  1  0.46140028  0.26768324  0.28708547  1
  O  O20  1  0.96140028  0.26768324  0.21291453  1
  O  O21  1  0.32398654  0.87990170  0.46030818  1
  O  O22  1  0.05610960  0.09082826  0.68428077  1
  O  O23  1  0.33204748  0.39817529  0.83409519  1
  O  O24  1  0.94389040  0.90917174  0.31571923  1
  O  O25  1  0.90839826  0.72338772  0.51636034  1
  O  O26  1  0.82398654  0.87990170  0.03969182  1
  O  O27  1  0.59160174  0.27661228  0.01636034  1
  O  O28  1  0.09160174  0.27661228  0.48363966  1
  O  O29  1  0.66795252  0.60182471  0.16590481  1
  O  O30  1  0.83204748  0.39817529  0.66590481  1
  O  O31  1  0.55610960  0.09082826  0.81571923  1
