# generated using pymatgen
data_Hg3SbAsS3
_symmetry_space_group_name_H-M   'P 1'
_cell_length_a   4.57962233
_cell_length_b   11.97738667
_cell_length_c   16.02719545
_cell_angle_alpha   91.66676579
_cell_angle_beta   90.00000000
_cell_angle_gamma   90.00000000
_symmetry_Int_Tables_number   1
_chemical_formula_structural   Hg3SbAsS3
_chemical_formula_sum   'Hg12 Sb4 As4 S12'
_cell_volume   878.75028528
_cell_formula_units_Z   4
loop_
 _symmetry_equiv_pos_site_id
 _symmetry_equiv_pos_as_xyz
  1  'x, y, z'
loop_
 _atom_site_type_symbol
 _atom_site_label
 _atom_site_symmetry_multiplicity
 _atom_site_fract_x
 _atom_site_fract_y
 _atom_site_fract_z
 _atom_site_occupancy
  Hg  Hg0  1  0.26790510  0.63371813  0.57609785  1
  Hg  Hg1  1  0.12368469  0.11959991  0.82063364  1
  Hg  Hg2  1  0.37631531  0.61959991  0.32063364  1
  Hg  Hg3  1  0.22127778  0.10583802  0.31228729  1
  Hg  Hg4  1  0.76790510  0.86628187  0.92390215  1
  Hg  Hg5  1  0.77872222  0.89416198  0.68771271  1
  Hg  Hg6  1  0.62368469  0.38040009  0.67936636  1
  Hg  Hg7  1  0.23209490  0.13371813  0.07609785  1
  Hg  Hg8  1  0.73209490  0.36628187  0.42390215  1
  Hg  Hg9  1  0.87631531  0.88040009  0.17936636  1
  Hg  Hg10  1  0.27872222  0.60583802  0.81228729  1
  Hg  Hg11  1  0.72127778  0.39416198  0.18771271  1
  Sb  Sb12  1  0.30822556  0.64588213  0.04965059  1
  Sb  Sb13  1  0.19177444  0.14588213  0.54965059  1
  Sb  Sb14  1  0.69177444  0.35411787  0.95034941  1
  Sb  Sb15  1  0.80822556  0.85411787  0.45034941  1
  As  As16  1  0.63745024  0.59336560  0.69176307  1
  As  As17  1  0.86254976  0.09336560  0.19176307  1
  As  As18  1  0.36254976  0.40663440  0.30823693  1
  As  As19  1  0.13745024  0.90663440  0.80823693  1
  S  S20  1  0.39652321  0.85066471  0.03451054  1
  S  S21  1  0.55770858  0.12071502  0.43074729  1
  S  S22  1  0.89652321  0.64933529  0.46548946  1
  S  S23  1  0.45632823  0.82354327  0.33441290  1
  S  S24  1  0.10347679  0.35066471  0.53451054  1
  S  S25  1  0.44229142  0.87928498  0.56925271  1
  S  S26  1  0.95632823  0.67645673  0.16558710  1
  S  S27  1  0.05770858  0.37928498  0.06925271  1
  S  S28  1  0.94229142  0.62071502  0.93074729  1
  S  S29  1  0.04367177  0.32354327  0.83441290  1
  S  S30  1  0.54367177  0.17645673  0.66558710  1
  S  S31  1  0.60347679  0.14933529  0.96548946  1
