# generated using pymatgen
data_PNF2
_symmetry_space_group_name_H-M   'P 1'
_cell_length_a   5.21061405
_cell_length_b   7.54315572
_cell_length_c   14.19437062
_cell_angle_alpha   90.00000000
_cell_angle_beta   90.00000000
_cell_angle_gamma   109.04924394
_symmetry_Int_Tables_number   1
_chemical_formula_structural   PNF2
_chemical_formula_sum   'P8 N8 F16'
_cell_volume   527.35064516
_cell_formula_units_Z   8
loop_
 _symmetry_equiv_pos_site_id
 _symmetry_equiv_pos_as_xyz
  1  'x, y, z'
loop_
 _atom_site_type_symbol
 _atom_site_label
 _atom_site_symmetry_multiplicity
 _atom_site_fract_x
 _atom_site_fract_y
 _atom_site_fract_z
 _atom_site_occupancy
  P  P0  1  0.07587792  0.68901845  0.61321909  1
  P  P1  1  0.68725209  0.80723256  0.92276065  1
  P  P2  1  0.92412208  0.31098155  0.38678091  1
  P  P3  1  0.07587792  0.18901845  0.88678091  1
  P  P4  1  0.31274791  0.69276744  0.42276065  1
  P  P5  1  0.31274791  0.19276744  0.07723935  1
  P  P6  1  0.68725209  0.30723256  0.57723935  1
  P  P7  1  0.92412208  0.81098155  0.11321909  1
  N  N8  1  0.16074055  0.49965876  0.37737649  1
  N  N9  1  0.83925945  0.00034124  0.87737649  1
  N  N10  1  0.25317078  0.25114412  0.97675445  1
  N  N11  1  0.16074055  0.99965876  0.12262351  1
  N  N12  1  0.83925945  0.50034124  0.62262351  1
  N  N13  1  0.74682922  0.74885588  0.02324555  1
  N  N14  1  0.25317078  0.75114412  0.52324555  1
  N  N15  1  0.74682922  0.24885588  0.47675445  1
  F  F16  1  0.62397274  0.72061461  0.41761142  1
  F  F17  1  0.62397274  0.22061461  0.08238858  1
  F  F18  1  0.72851898  0.29485045  0.30157576  1
  F  F19  1  0.27148102  0.20514955  0.80157576  1
  F  F20  1  0.30372925  0.34973788  0.14727313  1
  F  F21  1  0.72851898  0.79485045  0.19842424  1
  F  F22  1  0.37602726  0.27938539  0.58238858  1
  F  F23  1  0.96108353  0.84940653  0.63891145  1
  F  F24  1  0.03891647  0.15059347  0.36108855  1
  F  F25  1  0.69627075  0.15026212  0.64727313  1
  F  F26  1  0.27148102  0.70514955  0.69842424  1
  F  F27  1  0.96108353  0.34940653  0.86108855  1
  F  F28  1  0.03891647  0.65059347  0.13891145  1
  F  F29  1  0.30372925  0.84973788  0.35272687  1
  F  F30  1  0.69627075  0.65026212  0.85272687  1
  F  F31  1  0.37602726  0.77938539  0.91761142  1
