# generated using pymatgen
data_Sm3OsO7
_symmetry_space_group_name_H-M   'P 1'
_cell_length_a   6.56989763
_cell_length_b   6.56989763
_cell_length_c   7.54655744
_cell_angle_alpha   90.00000000
_cell_angle_beta   90.00000000
_cell_angle_gamma   110.60406598
_symmetry_Int_Tables_number   1
_chemical_formula_structural   Sm3OsO7
_chemical_formula_sum   'Sm6 Os2 O14'
_cell_volume   304.90038534
_cell_formula_units_Z   2
loop_
 _symmetry_equiv_pos_site_id
 _symmetry_equiv_pos_as_xyz
  1  'x, y, z'
loop_
 _atom_site_type_symbol
 _atom_site_label
 _atom_site_symmetry_multiplicity
 _atom_site_fract_x
 _atom_site_fract_y
 _atom_site_fract_z
 _atom_site_occupancy
  O  O0  1  0.58622763  0.58622763  0.75000000  1
  O  O1  1  0.41377237  0.41377237  0.25000000  1
  O  O2  1  0.10898332  0.84397806  0.75000000  1
  O  O3  1  0.89101668  0.15602194  0.25000000  1
  O  O4  1  0.84397806  0.10898332  0.75000000  1
  O  O5  1  0.15602194  0.89101668  0.25000000  1
  O  O6  1  0.18530554  0.43837780  0.96225379  1
  O  O7  1  0.81469446  0.56162220  0.46225379  1
  O  O8  1  0.43837780  0.18530554  0.96225379  1
  O  O9  1  0.56162220  0.81469446  0.46225379  1
  O  O10  1  0.18530554  0.43837780  0.53774621  1
  O  O11  1  0.81469446  0.56162220  0.03774621  1
  O  O12  1  0.56162220  0.81469446  0.03774621  1
  O  O13  1  0.43837780  0.18530554  0.53774621  1
  Sm  Sm14  1  0.00000000  0.00000000  0.00000000  1
  Sm  Sm15  1  0.00000000  0.00000000  0.50000000  1
  Sm  Sm16  1  0.92635408  0.47779528  0.75000000  1
  Sm  Sm17  1  0.07364592  0.52220472  0.25000000  1
  Sm  Sm18  1  0.47779528  0.92635408  0.75000000  1
  Sm  Sm19  1  0.52220472  0.07364592  0.25000000  1
  Os  Os20  1  0.50000000  0.50000000  0.00000000  1
  Os  Os21  1  0.50000000  0.50000000  0.50000000  1
