# generated using pymatgen
data_HgAs4(S2I)2
_symmetry_space_group_name_H-M   'P 1'
_cell_length_a   10.10543123
_cell_length_b   10.09952526
_cell_length_c   15.89930386
_cell_angle_alpha   90.00000000
_cell_angle_beta   90.00000000
_cell_angle_gamma   103.46587371
_symmetry_Int_Tables_number   1
_chemical_formula_structural   HgAs4(S2I)2
_chemical_formula_sum   'Hg4 As16 S16 I8'
_cell_volume   1578.07433390
_cell_formula_units_Z   4
loop_
 _symmetry_equiv_pos_site_id
 _symmetry_equiv_pos_as_xyz
  1  'x, y, z'
loop_
 _atom_site_type_symbol
 _atom_site_label
 _atom_site_symmetry_multiplicity
 _atom_site_fract_x
 _atom_site_fract_y
 _atom_site_fract_z
 _atom_site_occupancy
  Hg  Hg0  1  0.50031780  0.71136560  0.95444361  1
  Hg  Hg1  1  0.49968220  0.28863440  0.04555639  1
  Hg  Hg2  1  0.00031780  0.21136560  0.54555639  1
  Hg  Hg3  1  0.99968220  0.78863440  0.45444361  1
  As  As4  1  0.08980865  0.22271622  0.04782565  1
  As  As5  1  0.78606268  0.07102027  0.15378133  1
  As  As6  1  0.37615726  0.76235503  0.53256919  1
  As  As7  1  0.12384274  0.73764497  0.03256919  1
  As  As8  1  0.41019135  0.27728378  0.54782565  1
  As  As9  1  0.36439413  0.83344099  0.31474219  1
  As  As10  1  0.58980865  0.72271622  0.45217435  1
  As  As11  1  0.63560587  0.16655901  0.68525781  1
  As  As12  1  0.13560587  0.66655901  0.81474219  1
  As  As13  1  0.86439413  0.33344099  0.18525781  1
  As  As14  1  0.21393732  0.92897973  0.84621867  1
  As  As15  1  0.62384274  0.23764497  0.46743081  1
  As  As16  1  0.91019135  0.77728378  0.95217435  1
  As  As17  1  0.71393732  0.42897973  0.65378133  1
  As  As18  1  0.87615726  0.26235503  0.96743081  1
  As  As19  1  0.28606268  0.57102027  0.34621867  1
  S  S20  1  0.68445471  0.08701353  0.55752169  1
  S  S21  1  0.00857234  0.96657892  0.87854284  1
  S  S22  1  0.18445471  0.58701353  0.94247831  1
  S  S23  1  0.31554529  0.91298647  0.44247831  1
  S  S24  1  0.41196732  0.13434190  0.65686606  1
  S  S25  1  0.91196732  0.63434190  0.84313394  1
  S  S26  1  0.28016447  0.91770426  0.98225292  1
  S  S27  1  0.71983553  0.08229574  0.01774708  1
  S  S28  1  0.81554529  0.41298647  0.05752169  1
  S  S29  1  0.08803268  0.36565810  0.15686606  1
  S  S30  1  0.49142766  0.53342108  0.37854284  1
  S  S31  1  0.21983553  0.58229574  0.48225292  1
  S  S32  1  0.58803268  0.86565810  0.34313394  1
  S  S33  1  0.50857234  0.46657892  0.62145716  1
  S  S34  1  0.99142766  0.03342108  0.12145716  1
  S  S35  1  0.78016447  0.41770426  0.51774708  1
  I  I36  1  0.97121351  0.84548205  0.61575263  1
  I  I37  1  0.47121351  0.34548205  0.88424737  1
  I  I38  1  0.52878649  0.65451795  0.11575263  1
  I  I39  1  0.02878649  0.15451795  0.38424737  1
  I  I40  1  0.46179998  0.20648993  0.20437418  1
  I  I41  1  0.96179998  0.70648993  0.29562582  1
  I  I42  1  0.03820002  0.29351007  0.70437418  1
  I  I43  1  0.53820002  0.79351007  0.79562582  1
