# generated using pymatgen
data_AsS
_symmetry_space_group_name_H-M   'P 1'
_cell_length_a   7.27688705
_cell_length_b   7.27688705
_cell_length_c   9.54793691
_cell_angle_alpha   80.92679192
_cell_angle_beta   80.92679192
_cell_angle_gamma   85.03085942
_symmetry_Int_Tables_number   1
_chemical_formula_structural   AsS
_chemical_formula_sum   'As8 S8'
_cell_volume   492.03003285
_cell_formula_units_Z   8
loop_
 _symmetry_equiv_pos_site_id
 _symmetry_equiv_pos_as_xyz
  1  'x, y, z'
loop_
 _atom_site_type_symbol
 _atom_site_label
 _atom_site_symmetry_multiplicity
 _atom_site_fract_x
 _atom_site_fract_y
 _atom_site_fract_z
 _atom_site_occupancy
  As  As0  1  0.20810004  0.78607527  0.43425417  1
  As  As1  1  0.21392473  0.79189996  0.06574583  1
  As  As2  1  0.79189996  0.21392473  0.56574583  1
  As  As3  1  0.78607527  0.20810004  0.93425417  1
  As  As4  1  0.24872674  0.44651523  0.36324371  1
  As  As5  1  0.55348477  0.75127326  0.13675629  1
  As  As6  1  0.75127326  0.55348477  0.63675629  1
  As  As7  1  0.44651523  0.24872674  0.86324371  1
  S  S8  1  0.06675078  0.93324922  0.25000000  1
  S  S9  1  0.93324922  0.06675078  0.75000000  1
  S  S10  1  0.54616131  0.45383869  0.25000000  1
  S  S11  1  0.45383869  0.54616131  0.75000000  1
  S  S12  1  0.11827083  0.50537256  0.16088709  1
  S  S13  1  0.49462744  0.88172917  0.33911291  1
  S  S14  1  0.88172917  0.49462744  0.83911291  1
  S  S15  1  0.50537256  0.11827083  0.66088709  1
