# generated using pymatgen
data_Li9Mn2Co5O16
_symmetry_space_group_name_H-M   'P 1'
_cell_length_a   2.89434829
_cell_length_b   15.48031472
_cell_length_c   6.64439644
_cell_angle_alpha   91.70249949
_cell_angle_beta   77.41992434
_cell_angle_gamma   90.00000024
_symmetry_Int_Tables_number   1
_chemical_formula_structural   Li9Mn2Co5O16
_chemical_formula_sum   'Li9 Mn2 Co5 O16'
_cell_volume   290.42320325
_cell_formula_units_Z   1
loop_
 _symmetry_equiv_pos_site_id
 _symmetry_equiv_pos_as_xyz
  1  'x, y, z'
loop_
 _atom_site_type_symbol
 _atom_site_label
 _atom_site_symmetry_multiplicity
 _atom_site_fract_x
 _atom_site_fract_y
 _atom_site_fract_z
 _atom_site_occupancy
  Li  Li0  1  0.31386846  0.06919035  0.37226308  1
  Li  Li1  1  0.93438551  0.19506091  0.13122898  1
  Li  Li2  1  0.56535052  0.31003627  0.86929896  1
  Li  Li3  1  0.68892104  0.93816540  0.62215792  1
  Li  Li4  1  0.06475747  0.81482870  0.87048507  1
  Li  Li5  1  0.43354706  0.68535978  0.13290588  1
  Li  Li6  1  0.18865942  0.42865643  0.62268116  1
  Li  Li7  1  0.81070992  0.55728132  0.37858016  1
  Li  Li8  1  0.25058751  0.25088259  0.49882498  1
  Mn  Mn9  1  0.00347459  0.00013483  0.99305081  1
  Mn  Mn10  1  0.12361649  0.62608659  0.75276702  1
  Co  Co11  1  0.63903790  0.13358107  0.72192419  1
  Co  Co12  1  0.86199801  0.36871245  0.27600397  1
  Co  Co13  1  0.49554818  0.49445989  0.00890363  1
  Co  Co14  1  0.75063005  0.75441806  0.49873989  1
  Co  Co15  1  0.37572502  0.87310766  0.24854996  1
  O  O16  1  0.47197125  0.07881109  0.05605750  1
  O  O17  1  0.09344414  0.20921839  0.81311173  1
  O  O18  1  0.72668873  0.34735128  0.54662254  1
  O  O19  1  0.85964520  0.95979688  0.28070960  1
  O  O20  1  0.21886472  0.84105312  0.56227056  1
  O  O21  1  0.59529664  0.70850876  0.80940672  1
  O  O22  1  0.35034888  0.46620322  0.29930224  1
  O  O23  1  0.97953211  0.59169325  0.04093578  1
  O  O24  1  0.14277372  0.03528591  0.71445256  1
  O  O25  1  0.77491125  0.15039139  0.45017750  1
  O  O26  1  0.40559046  0.29058177  0.18881909  1
  O  O27  1  0.53202960  0.91689999  0.93594079  1
  O  O28  1  0.90142308  0.78683551  0.19715383  1
  O  O29  1  0.26702750  0.65875573  0.46594500  1
  O  O30  1  0.02995292  0.41340223  0.94009417  1
  O  O31  1  0.64968263  0.54524916  0.70063473  1
