# generated using pymatgen
data_Pu(SeO3)2
_symmetry_space_group_name_H-M   'P 1'
_cell_length_a   7.09987518
_cell_length_b   7.37404920
_cell_length_c   10.82509160
_cell_angle_alpha   90.00000000
_cell_angle_beta   90.00000000
_cell_angle_gamma   106.43600359
_symmetry_Int_Tables_number   1
_chemical_formula_structural   Pu(SeO3)2
_chemical_formula_sum   'Pu4 Se8 O24'
_cell_volume   543.58652529
_cell_formula_units_Z   4
loop_
 _symmetry_equiv_pos_site_id
 _symmetry_equiv_pos_as_xyz
  1  'x, y, z'
loop_
 _atom_site_type_symbol
 _atom_site_label
 _atom_site_symmetry_multiplicity
 _atom_site_fract_x
 _atom_site_fract_y
 _atom_site_fract_z
 _atom_site_occupancy
  Pu  Pu0  1  0.24554597  0.49433429  0.59579745  1
  Pu  Pu1  1  0.74554597  0.99433429  0.90420255  1
  Pu  Pu2  1  0.25445403  0.00566571  0.09579745  1
  Pu  Pu3  1  0.75445403  0.50566571  0.40420255  1
  Se  Se4  1  0.73589457  0.92975741  0.21470728  1
  Se  Se5  1  0.21491528  0.93291893  0.42668497  1
  Se  Se6  1  0.76410543  0.57024259  0.71470728  1
  Se  Se7  1  0.28508472  0.56708107  0.92668497  1
  Se  Se8  1  0.78508472  0.06708107  0.57331503  1
  Se  Se9  1  0.23589457  0.42975741  0.28529272  1
  Se  Se10  1  0.71491528  0.43291893  0.07331503  1
  Se  Se11  1  0.26410543  0.07024259  0.78529272  1
  O  O12  1  0.19436293  0.60875506  0.78335515  1
  O  O13  1  0.09460459  0.08367804  0.90332490  1
  O  O14  1  0.69436293  0.10875506  0.71664485  1
  O  O15  1  0.80563707  0.39124494  0.21664485  1
  O  O16  1  0.06878367  0.45485849  0.39884170  1
  O  O17  1  0.64658401  0.69832363  0.25679835  1
  O  O18  1  0.53028874  0.68533181  0.90764998  1
  O  O19  1  0.30999896  0.78562256  0.51947829  1
  O  O20  1  0.69000104  0.21437744  0.48052171  1
  O  O21  1  0.43121633  0.04514151  0.89884170  1
  O  O22  1  0.46971126  0.31466819  0.09235002  1
  O  O23  1  0.40539541  0.41632196  0.40332490  1
  O  O24  1  0.90539541  0.91632196  0.09667510  1
  O  O25  1  0.35341599  0.30167637  0.74320165  1
  O  O26  1  0.30563707  0.89124494  0.28335515  1
  O  O27  1  0.03028874  0.18533181  0.59235002  1
  O  O28  1  0.80999896  0.28562256  0.98052171  1
  O  O29  1  0.14658401  0.19832363  0.24320165  1
  O  O30  1  0.85341599  0.80167637  0.75679835  1
  O  O31  1  0.19000104  0.71437744  0.01947829  1
  O  O32  1  0.96971126  0.81466819  0.40764998  1
  O  O33  1  0.93121633  0.54514151  0.60115830  1
  O  O34  1  0.56878367  0.95485849  0.10115830  1
  O  O35  1  0.59460459  0.58367804  0.59667510  1
