# generated using pymatgen
data_Li9Mn2Co5O16
_symmetry_space_group_name_H-M   'P 1'
_cell_length_a   2.88997489
_cell_length_b   5.11329781
_cell_length_c   20.62390588
_cell_angle_alpha   98.66548781
_cell_angle_beta   89.99999949
_cell_angle_gamma   73.58492087
_symmetry_Int_Tables_number   1
_chemical_formula_structural   Li9Mn2Co5O16
_chemical_formula_sum   'Li9 Mn2 Co5 O16'
_cell_volume   288.71472669
_cell_formula_units_Z   1
loop_
 _symmetry_equiv_pos_site_id
 _symmetry_equiv_pos_as_xyz
  1  'x, y, z'
loop_
 _atom_site_type_symbol
 _atom_site_label
 _atom_site_symmetry_multiplicity
 _atom_site_fract_x
 _atom_site_fract_y
 _atom_site_fract_z
 _atom_site_occupancy
  Li  Li0  1  0.24523050  0.50953900  0.07059317  1
  Li  Li1  1  0.75689646  0.48620707  0.18427026  1
  Li  Li2  1  0.26009248  0.47981504  0.30575260  1
  Li  Li3  1  0.75129583  0.49740834  0.43169274  1
  Li  Li4  1  0.24898770  0.50202461  0.56488021  1
  Li  Li5  1  0.74890151  0.50219697  0.69240963  1
  Li  Li6  1  0.24657627  0.50684746  0.81113661  1
  Li  Li7  1  0.74513414  0.50973171  0.94246141  1
  Li  Li8  1  0.49488352  0.01023296  0.12424307  1
  Mn  Mn9  1  0.98881929  0.02236142  0.00572832  1
  Mn  Mn10  1  0.00211825  0.99576350  0.49913451  1
  Co  Co11  1  0.01405132  0.97189736  0.23699124  1
  Co  Co12  1  0.50261547  0.99476906  0.36878902  1
  Co  Co13  1  0.49884822  0.00230356  0.62699234  1
  Co  Co14  1  0.00113677  0.99772646  0.75067226  1
  Co  Co15  1  0.49708032  0.00583936  0.87670274  1
  O  O16  1  0.38058166  0.23883669  0.97261406  1
  O  O17  1  0.88039135  0.23921731  0.08640292  1
  O  O18  1  0.38979217  0.22041565  0.22135732  1
  O  O19  1  0.88664137  0.22671727  0.34711719  1
  O  O20  1  0.39069714  0.21860571  0.47160463  1
  O  O21  1  0.89229152  0.21541696  0.58669548  1
  O  O22  1  0.38179766  0.23640468  0.72230467  1
  O  O23  1  0.88814111  0.22371778  0.84718699  1
  O  O24  1  0.12601087  0.74797826  0.16005632  1
  O  O25  1  0.61640525  0.76718950  0.28154864  1
  O  O26  1  0.11088888  0.77822225  0.41057106  1
  O  O27  1  0.61560495  0.76879009  0.52539063  1
  O  O28  1  0.11580984  0.76838031  0.65679226  1
  O  O29  1  0.61592959  0.76814082  0.78146309  1
  O  O30  1  0.10126964  0.79746072  0.90957476  1
  O  O31  1  0.60507894  0.78984211  0.02686983  1
