# generated using pymatgen
data_Na2AlCoF7
_symmetry_space_group_name_H-M   'P 1'
_cell_length_a   7.24498702
_cell_length_b   7.24498703
_cell_length_c   24.36344258
_cell_angle_alpha   81.91740563
_cell_angle_beta   81.91740561
_cell_angle_gamma   60.54100421
_symmetry_Int_Tables_number   1
_chemical_formula_structural   Na2AlCoF7
_chemical_formula_sum   'Na16 Al8 Co8 F56'
_cell_volume   1098.63566318
_cell_formula_units_Z   8
loop_
 _symmetry_equiv_pos_site_id
 _symmetry_equiv_pos_as_xyz
  1  'x, y, z'
loop_
 _atom_site_type_symbol
 _atom_site_label
 _atom_site_symmetry_multiplicity
 _atom_site_fract_x
 _atom_site_fract_y
 _atom_site_fract_z
 _atom_site_occupancy
  F  F0  1  0.08151579  0.48404455  0.34212169  1
  F  F1  1  0.51595545  0.91848421  0.15787831  1
  F  F2  1  0.91848421  0.51595545  0.65787831  1
  F  F3  1  0.48404455  0.08151579  0.84212169  1
  F  F4  1  0.64552033  0.29540102  0.40515206  1
  F  F5  1  0.70459898  0.35447967  0.09484794  1
  F  F6  1  0.35447967  0.70459898  0.59484794  1
  F  F7  1  0.29540102  0.64552033  0.90515206  1
  F  F8  1  0.35241724  0.97762056  0.29916522  1
  F  F9  1  0.02237944  0.64758276  0.20083478  1
  F  F10  1  0.64758276  0.02237944  0.70083478  1
  F  F11  1  0.97762056  0.35241724  0.79916522  1
  F  F12  1  0.07839288  0.07590495  0.38958671  1
  F  F13  1  0.92409505  0.92160712  0.11041329  1
  F  F14  1  0.92160712  0.92409505  0.61041329  1
  F  F15  1  0.07590495  0.07839288  0.88958671  1
  F  F16  1  0.36680408  0.81127569  0.44991223  1
  F  F17  1  0.18872431  0.63319592  0.05008777  1
  F  F18  1  0.63319592  0.18872431  0.55008777  1
  F  F19  1  0.81127569  0.36680408  0.94991223  1
  F  F20  1  0.64356770  0.70598706  0.35962284  1
  F  F21  1  0.48538739  0.36248536  0.29060035  1
  F  F22  1  0.29401294  0.35643230  0.14037716  1
  F  F23  1  0.70598706  0.64356770  0.85962284  1
  F  F24  1  0.27671735  0.70605851  0.35966627  1
  F  F25  1  0.29394149  0.72328265  0.14033373  1
  F  F26  1  0.72328265  0.29394149  0.64033373  1
  F  F27  1  0.70605851  0.27671735  0.85966627  1
  F  F28  1  0.44960615  0.07532272  0.38861321  1
  F  F29  1  0.92467728  0.55039385  0.11138679  1
  F  F30  1  0.55039385  0.92467728  0.61138679  1
  F  F31  1  0.07532272  0.44960615  0.88861321  1
  F  F32  1  0.42462741  0.24036567  0.95335988  1
  F  F33  1  0.75963433  0.57537259  0.54664012  1
  F  F34  1  0.57537259  0.75963433  0.04664012  1
  F  F35  1  0.24036567  0.42462741  0.45335988  1
  F  F36  1  0.42453891  0.87235555  0.95499348  1
  F  F37  1  0.12764445  0.57546109  0.54500652  1
  F  F38  1  0.57546109  0.12764445  0.04500652  1
  F  F39  1  0.87235555  0.42453891  0.45499348  1
  F  F40  1  0.77983889  0.87485009  0.96897110  1
  F  F41  1  0.12514991  0.22016111  0.53102890  1
  F  F42  1  0.22016111  0.12514991  0.03102890  1
  F  F43  1  0.87485009  0.77983889  0.46897110  1
  F  F44  1  0.15128288  0.00487194  0.70991491  1
  F  F45  1  0.99512806  0.84871712  0.79008509  1
  F  F46  1  0.84871712  0.99512806  0.29008509  1
  F  F47  1  0.00487194  0.15128288  0.20991491  1
  F  F48  1  0.36423323  0.84745200  0.79315662  1
  F  F49  1  0.15254800  0.63576677  0.70684338  1
  F  F50  1  0.63576677  0.15254800  0.20684338  1
  F  F51  1  0.84745200  0.36423323  0.29315662  1
  F  F52  1  0.36248536  0.48538739  0.79060035  1
  F  F53  1  0.51461261  0.63751464  0.70939965  1
  F  F54  1  0.63751464  0.51461261  0.20939965  1
  F  F55  1  0.35643230  0.29401294  0.64037716  1
  Na  Na56  1  0.00000000  0.00000000  0.00000000  1
  Na  Na57  1  0.00000000  0.00000000  0.50000000  1
  Na  Na58  1  0.50000000  0.50000000  0.00000000  1
  Na  Na59  1  0.50000000  0.50000000  0.50000000  1
  Na  Na60  1  0.50000000  0.00000000  0.50000000  1
  Na  Na61  1  0.00000000  0.50000000  0.00000000  1
  Na  Na62  1  0.78921655  0.21078345  0.75000000  1
  Na  Na63  1  0.21078345  0.78921655  0.25000000  1
  Na  Na64  1  0.30055189  0.20469313  0.74734480  1
  Na  Na65  1  0.79530687  0.69944811  0.75265520  1
  Na  Na66  1  0.69944811  0.79530687  0.25265520  1
  Na  Na67  1  0.20469313  0.30055189  0.24734480  1
  Na  Na68  1  0.88147253  0.86554770  0.87806901  1
  Na  Na69  1  0.13445230  0.11852747  0.62193099  1
  Na  Na70  1  0.11852747  0.13445230  0.12193099  1
  Na  Na71  1  0.86554770  0.88147253  0.37806901  1
  Al  Al72  1  0.36078171  0.89239046  0.37440953  1
  Al  Al73  1  0.10760954  0.63921829  0.12559047  1
  Al  Al74  1  0.63921829  0.10760954  0.62559047  1
  Al  Al75  1  0.89239046  0.36078171  0.87440953  1
  Al  Al76  1  0.74725131  0.25274869  0.25000000  1
  Al  Al77  1  0.25274869  0.74725131  0.75000000  1
  Al  Al78  1  0.00000000  0.50000000  0.50000000  1
  Al  Al79  1  0.50000000  0.00000000  0.00000000  1
  Co  Co80  1  0.86264554  0.39050004  0.37403155  1
  Co  Co81  1  0.60949996  0.13735446  0.12596845  1
  Co  Co82  1  0.13735446  0.60949996  0.62596845  1
  Co  Co83  1  0.39050004  0.86264554  0.87403155  1
  Co  Co84  1  0.36604801  0.38905138  0.37236216  1
  Co  Co85  1  0.61094862  0.63395199  0.12763784  1
  Co  Co86  1  0.63395199  0.61094862  0.62763784  1
  Co  Co87  1  0.38905138  0.36604801  0.87236216  1
