# generated using pymatgen
data_BaVS3
_symmetry_space_group_name_H-M   'P 1'
_cell_length_a   5.63223278
_cell_length_b   6.80201076
_cell_length_c   6.80201107
_cell_angle_alpha   120.49463236
_cell_angle_beta   90.00000000
_cell_angle_gamma   90.00000000
_symmetry_Int_Tables_number   1
_chemical_formula_structural   BaVS3
_chemical_formula_sum   'Ba2 V2 S6'
_cell_volume   224.54303918
_cell_formula_units_Z   2
loop_
 _symmetry_equiv_pos_site_id
 _symmetry_equiv_pos_as_xyz
  1  'x, y, z'
loop_
 _atom_site_type_symbol
 _atom_site_label
 _atom_site_symmetry_multiplicity
 _atom_site_fract_x
 _atom_site_fract_y
 _atom_site_fract_z
 _atom_site_occupancy
  Ba  Ba0  1  0.75000000  0.33129122  0.66870878  1
  Ba  Ba1  1  0.25000000  0.66870878  0.33129122  1
  V  V2  1  0.50000000  0.03889548  0.03889548  1
  V  V3  1  0.00000000  0.96110452  0.96110452  1
  S  S4  1  0.75000000  0.83903199  0.16096801  1
  S  S5  1  0.26143264  0.67073486  0.83389397  1
  S  S6  1  0.25000000  0.16096801  0.83903199  1
  S  S7  1  0.23856736  0.16610603  0.32926514  1
  S  S8  1  0.76143264  0.32926514  0.16610603  1
  S  S9  1  0.73856736  0.83389397  0.67073486  1
