# generated using pymatgen
data_MnF2
_symmetry_space_group_name_H-M   'P 1'
_cell_length_a   5.00575868
_cell_length_b   5.47110783
_cell_length_c   5.94520421
_cell_angle_alpha   90.00000000
_cell_angle_beta   90.00000000
_cell_angle_gamma   90.00000000
_symmetry_Int_Tables_number   1
_chemical_formula_structural   MnF2
_chemical_formula_sum   'Mn4 F8'
_cell_volume   162.82157826
_cell_formula_units_Z   4
loop_
 _symmetry_equiv_pos_site_id
 _symmetry_equiv_pos_as_xyz
  1  'x, y, z'
loop_
 _atom_site_type_symbol
 _atom_site_label
 _atom_site_symmetry_multiplicity
 _atom_site_fract_x
 _atom_site_fract_y
 _atom_site_fract_z
 _atom_site_occupancy
  F  F0  1  0.72689503  0.08006772  0.39054277  1
  F  F1  1  0.22689503  0.91993228  0.10945723  1
  F  F2  1  0.77310497  0.58006772  0.10945723  1
  F  F3  1  0.27310497  0.41993228  0.39054277  1
  F  F4  1  0.72689503  0.58006772  0.60945723  1
  F  F5  1  0.22689503  0.41993228  0.89054277  1
  F  F6  1  0.77310497  0.08006772  0.89054277  1
  F  F7  1  0.27310497  0.91993228  0.60945723  1
  Mn  Mn8  1  0.50000000  0.75000000  0.33345305  1
  Mn  Mn9  1  0.00000000  0.25000000  0.16654695  1
  Mn  Mn10  1  0.50000000  0.25000000  0.66654695  1
  Mn  Mn11  1  0.00000000  0.75000000  0.83345305  1
