# generated using pymatgen
data_Cs3KRe6C6(S4N3)2
_symmetry_space_group_name_H-M   'P 1'
_cell_length_a   15.65419783
_cell_length_b   15.65419860
_cell_length_c   15.65419833
_cell_angle_alpha   109.47122029
_cell_angle_beta   109.47122129
_cell_angle_gamma   109.47122090
_symmetry_Int_Tables_number   1
_chemical_formula_structural   Cs3KRe6C6(S4N3)2
_chemical_formula_sum   'Cs12 K4 Re24 C24 S32 N24'
_cell_volume   2953.04860409
_cell_formula_units_Z   4
loop_
 _symmetry_equiv_pos_site_id
 _symmetry_equiv_pos_as_xyz
  1  'x, y, z'
loop_
 _atom_site_type_symbol
 _atom_site_label
 _atom_site_symmetry_multiplicity
 _atom_site_fract_x
 _atom_site_fract_y
 _atom_site_fract_z
 _atom_site_occupancy
  Cs  Cs0  1  0.75000000  0.44853347  0.69853347  1
  Cs  Cs1  1  0.30146653  0.25000000  0.55146653  1
  Cs  Cs2  1  0.80146653  0.25000000  0.05146653  1
  Cs  Cs3  1  0.69853347  0.75000000  0.44853347  1
  Cs  Cs4  1  0.75000000  0.94853347  0.19853347  1
  Cs  Cs5  1  0.25000000  0.55146653  0.30146653  1
  Cs  Cs6  1  0.19853347  0.75000000  0.94853347  1
  Cs  Cs7  1  0.55146653  0.30146653  0.25000000  1
  Cs  Cs8  1  0.25000000  0.05146653  0.80146653  1
  Cs  Cs9  1  0.94853347  0.19853347  0.75000000  1
  Cs  Cs10  1  0.05146653  0.80146653  0.25000000  1
  Cs  Cs11  1  0.44853347  0.69853347  0.75000000  1
  K  K12  1  0.50000000  0.50000000  0.50000000  1
  K  K13  1  0.00000000  0.00000000  0.50000000  1
  K  K14  1  0.50000000  0.00000000  0.00000000  1
  K  K15  1  0.00000000  0.50000000  0.00000000  1
  Re  Re16  1  0.00708628  0.53784696  0.40040609  1
  Re  Re17  1  0.03076067  0.13744087  0.03784696  1
  Re  Re18  1  0.90040609  0.36255913  0.39331981  1
  Re  Re19  1  0.63744087  0.60668019  0.09959391  1
  Re  Re20  1  0.99291372  0.46215304  0.59959391  1
  Re  Re21  1  0.49291372  0.89331981  0.53076067  1
  Re  Re22  1  0.09959391  0.63744087  0.60668019  1
  Re  Re23  1  0.96923933  0.86255913  0.96215304  1
  Re  Re24  1  0.40040609  0.00708628  0.53784696  1
  Re  Re25  1  0.03784696  0.03076067  0.13744087  1
  Re  Re26  1  0.46923933  0.50708628  0.10668019  1
  Re  Re27  1  0.89331981  0.53076067  0.49291372  1
  Re  Re28  1  0.13744087  0.03784696  0.03076067  1
  Re  Re29  1  0.60668019  0.09959391  0.63744087  1
  Re  Re30  1  0.39331981  0.90040609  0.36255913  1
  Re  Re31  1  0.36255913  0.39331981  0.90040609  1
  Re  Re32  1  0.46215304  0.59959391  0.99291372  1
  Re  Re33  1  0.86255913  0.96215304  0.96923933  1
  Re  Re34  1  0.59959391  0.99291372  0.46215304  1
  Re  Re35  1  0.50708628  0.10668019  0.46923933  1
  Re  Re36  1  0.96215304  0.96923933  0.86255913  1
  Re  Re37  1  0.53076067  0.49291372  0.89331981  1
  Re  Re38  1  0.10668019  0.46923933  0.50708628  1
  Re  Re39  1  0.53784696  0.40040609  0.00708628  1
  C  C40  1  0.94246314  0.71212278  0.93256654  1
  C  C41  1  0.44246314  0.50989660  0.23034036  1
  C  C42  1  0.00989660  0.56743346  0.27955624  1
  C  C43  1  0.73034036  0.22044376  0.78787722  1
  C  C44  1  0.23034036  0.44246314  0.50989660  1
  C  C45  1  0.27955624  0.00989660  0.56743346  1
  C  C46  1  0.26965964  0.77955624  0.21212278  1
  C  C47  1  0.28787722  0.06743346  0.05753686  1
  C  C48  1  0.76965964  0.55753686  0.49010340  1
  C  C49  1  0.43256654  0.72044376  0.99010340  1
  C  C50  1  0.72044376  0.99010340  0.43256654  1
  C  C51  1  0.71212278  0.93256654  0.94246314  1
  C  C52  1  0.55753686  0.49010340  0.76965964  1
  C  C53  1  0.49010340  0.76965964  0.55753686  1
  C  C54  1  0.99010340  0.43256654  0.72044376  1
  C  C55  1  0.21212278  0.26965964  0.77955624  1
  C  C56  1  0.93256654  0.94246314  0.71212278  1
  C  C57  1  0.77955624  0.21212278  0.26965964  1
  C  C58  1  0.50989660  0.23034036  0.44246314  1
  C  C59  1  0.22044376  0.78787722  0.73034036  1
  C  C60  1  0.56743346  0.27955624  0.00989660  1
  C  C61  1  0.78787722  0.73034036  0.22044376  1
  C  C62  1  0.06743346  0.05753686  0.28787722  1
  C  C63  1  0.05753686  0.28787722  0.06743346  1
  S  S64  1  0.50000000  0.00000000  0.31020372  1
  S  S65  1  0.68177743  0.98618769  0.61990385  1
  S  S66  1  0.61990385  0.68177743  0.98618769  1
  S  S67  1  0.43812642  0.30441026  0.81822257  1
  S  S68  1  0.88009615  0.86628384  0.06187358  1
  S  S69  1  0.93812642  0.11990385  0.13371616  1
  S  S70  1  0.63371616  0.51381231  0.19558974  1
  S  S71  1  0.36628384  0.48618769  0.80441026  1
  S  S72  1  0.56187358  0.69558974  0.18177743  1
  S  S73  1  0.81822257  0.43812642  0.30441026  1
  S  S74  1  0.50000000  0.00000000  0.68979628  1
  S  S75  1  0.68979628  0.50000000  0.00000000  1
  S  S76  1  0.18979628  0.18979628  0.18979628  1
  S  S77  1  0.30441026  0.81822257  0.43812642  1
  S  S78  1  0.19558974  0.63371616  0.51381231  1
  S  S79  1  0.98618769  0.61990385  0.68177743  1
  S  S80  1  0.86628384  0.06187358  0.88009615  1
  S  S81  1  0.80441026  0.36628384  0.48618769  1
  S  S82  1  0.06187358  0.88009615  0.86628384  1
  S  S83  1  0.31020372  0.50000000  1.00000000  1
  S  S84  1  0.18177743  0.56187358  0.69558974  1
  S  S85  1  0.13371616  0.93812642  0.11990385  1
  S  S86  1  0.00000000  0.31020372  0.50000000  1
  S  S87  1  0.69558974  0.18177743  0.56187358  1
  S  S88  1  0.38009615  0.31822257  0.01381231  1
  S  S89  1  1.00000000  0.68979628  0.50000000  1
  S  S90  1  0.48618769  0.80441026  0.36628384  1
  S  S91  1  0.11990385  0.13371616  0.93812642  1
  S  S92  1  0.01381231  0.38009615  0.31822257  1
  S  S93  1  0.51381231  0.19558974  0.63371616  1
  S  S94  1  0.81020372  0.81020372  0.81020372  1
  S  S95  1  0.31822257  0.01381231  0.38009615  1
  N  N96  1  0.93425916  0.63187204  0.92471064  1
  N  N97  1  0.07528936  0.06574084  0.36812796  1
  N  N98  1  0.00954852  0.57528936  0.20716140  1
  N  N99  1  0.42471064  0.79283860  0.99045148  1
  N  N100  1  0.99045148  0.42471064  0.79283860  1
  N  N101  1  0.92471064  0.93425916  0.63187204  1
  N  N102  1  0.70716140  0.13187204  0.19761288  1
  N  N103  1  0.43425916  0.50954852  0.30238712  1
  N  N104  1  0.69761288  0.56574084  0.49045148  1
  N  N105  1  0.06574084  0.36812796  0.07528936  1
  N  N106  1  0.29283860  0.86812796  0.80238712  1
  N  N107  1  0.80238712  0.29283860  0.86812796  1
  N  N108  1  0.56574084  0.49045148  0.69761288  1
  N  N109  1  0.63187204  0.92471064  0.93425916  1
  N  N110  1  0.86812796  0.80238712  0.29283860  1
  N  N111  1  0.49045148  0.69761288  0.56574084  1
  N  N112  1  0.30238712  0.43425916  0.50954852  1
  N  N113  1  0.57528936  0.20716140  0.00954852  1
  N  N114  1  0.36812796  0.07528936  0.06574084  1
  N  N115  1  0.79283860  0.99045148  0.42471064  1
  N  N116  1  0.19761288  0.70716140  0.13187204  1
  N  N117  1  0.13187204  0.19761288  0.70716140  1
  N  N118  1  0.50954852  0.30238712  0.43425916  1
  N  N119  1  0.20716140  0.00954852  0.57528936  1
