# generated using pymatgen
data_SrGaBO4
_symmetry_space_group_name_H-M   'P 1'
_cell_length_a   5.87872880
_cell_length_b   8.99893347
_cell_length_c   15.58092958
_cell_angle_alpha   90.00000000
_cell_angle_beta   90.00000000
_cell_angle_gamma   90.00000000
_symmetry_Int_Tables_number   1
_chemical_formula_structural   SrGaBO4
_chemical_formula_sum   'Sr8 Ga8 B8 O32'
_cell_volume   824.26684513
_cell_formula_units_Z   8
loop_
 _symmetry_equiv_pos_site_id
 _symmetry_equiv_pos_as_xyz
  1  'x, y, z'
loop_
 _atom_site_type_symbol
 _atom_site_label
 _atom_site_symmetry_multiplicity
 _atom_site_fract_x
 _atom_site_fract_y
 _atom_site_fract_z
 _atom_site_occupancy
  Sr  Sr0  1  0.39208802  0.88426302  0.64998793  1
  Sr  Sr1  1  0.60791198  0.38426302  0.14998793  1
  Sr  Sr2  1  0.60791198  0.11573698  0.35001207  1
  Sr  Sr3  1  0.89208802  0.88426302  0.85001207  1
  Sr  Sr4  1  0.10791198  0.38426302  0.35001207  1
  Sr  Sr5  1  0.39208802  0.61573698  0.85001207  1
  Sr  Sr6  1  0.89208802  0.61573698  0.64998793  1
  Sr  Sr7  1  0.10791198  0.11573698  0.14998793  1
  Ga  Ga8  1  0.36753670  0.76071757  0.05053113  1
  Ga  Ga9  1  0.13246330  0.23928243  0.55053113  1
  Ga  Ga10  1  0.86753670  0.73928243  0.05053113  1
  Ga  Ga11  1  0.63246330  0.23928243  0.94946887  1
  Ga  Ga12  1  0.63246330  0.26071757  0.55053113  1
  Ga  Ga13  1  0.86753670  0.76071757  0.44946887  1
  Ga  Ga14  1  0.36753670  0.73928243  0.44946887  1
  Ga  Ga15  1  0.13246330  0.26071757  0.94946887  1
  B  B16  1  0.12828290  0.51914386  0.14323020  1
  B  B17  1  0.37171710  0.01914386  0.85676980  1
  B  B18  1  0.87171710  0.48085614  0.85676980  1
  B  B19  1  0.87171710  0.01914386  0.64323020  1
  B  B20  1  0.62828290  0.51914386  0.35676980  1
  B  B21  1  0.12828290  0.98085614  0.35676980  1
  B  B22  1  0.62828290  0.98085614  0.14323020  1
  B  B23  1  0.37171710  0.48085614  0.64323020  1
  O  O24  1  0.58566071  0.07154139  0.88188473  1
  O  O25  1  0.91433929  0.92845861  0.38188473  1
  O  O26  1  0.32794205  0.90508673  0.37760384  1
  O  O27  1  0.35697892  0.61056040  0.68928257  1
  O  O28  1  0.58566071  0.42845861  0.61811527  1
  O  O29  1  0.67205795  0.09491327  0.62239616  1
  O  O30  1  0.61547131  0.77466744  0.51976767  1
  O  O31  1  0.64302108  0.11056040  0.18928257  1
  O  O32  1  0.17205795  0.40508673  0.62239616  1
  O  O33  1  0.11547131  0.72533256  0.51976767  1
  O  O34  1  0.91433929  0.57154139  0.11811527  1
  O  O35  1  0.88452869  0.22533256  0.01976767  1
  O  O36  1  0.11547131  0.77466744  0.98023233  1
  O  O37  1  0.88452869  0.27466744  0.48023233  1
  O  O38  1  0.85697892  0.88943960  0.68928257  1
  O  O39  1  0.41433929  0.57154139  0.38188473  1
  O  O40  1  0.35697892  0.88943960  0.81071743  1
  O  O41  1  0.14302108  0.11056040  0.31071743  1
  O  O42  1  0.38452869  0.22533256  0.48023233  1
  O  O43  1  0.08566071  0.42845861  0.88188473  1
  O  O44  1  0.17205795  0.09491327  0.87760384  1
  O  O45  1  0.82794205  0.90508673  0.12239616  1
  O  O46  1  0.67205795  0.40508673  0.87760384  1
  O  O47  1  0.85697892  0.61056040  0.81071743  1
  O  O48  1  0.14302108  0.38943960  0.18928257  1
  O  O49  1  0.61547131  0.72533256  0.98023233  1
  O  O50  1  0.08566071  0.07154139  0.61811527  1
  O  O51  1  0.64302108  0.38943960  0.31071743  1
  O  O52  1  0.82794205  0.59491327  0.37760384  1
  O  O53  1  0.32794205  0.59491327  0.12239616  1
  O  O54  1  0.41433929  0.92845861  0.11811527  1
  O  O55  1  0.38452869  0.27466744  0.01976767  1
