# generated using pymatgen
data_MnP4O11
_symmetry_space_group_name_H-M   'P 1'
_cell_length_a   5.58049959
_cell_length_b   7.63681985
_cell_length_c   22.73609901
_cell_angle_alpha   90.00000000
_cell_angle_beta   90.00000000
_cell_angle_gamma   109.81186916
_symmetry_Int_Tables_number   1
_chemical_formula_structural   MnP4O11
_chemical_formula_sum   'Mn4 P16 O44'
_cell_volume   911.59885148
_cell_formula_units_Z   4
loop_
 _symmetry_equiv_pos_site_id
 _symmetry_equiv_pos_as_xyz
  1  'x, y, z'
loop_
 _atom_site_type_symbol
 _atom_site_label
 _atom_site_symmetry_multiplicity
 _atom_site_fract_x
 _atom_site_fract_y
 _atom_site_fract_z
 _atom_site_occupancy
  Mn  Mn0  1  0.99610954  0.62825890  0.61343013  1
  Mn  Mn1  1  0.00389046  0.87174110  0.11343013  1
  Mn  Mn2  1  0.00389046  0.37174110  0.38656987  1
  Mn  Mn3  1  0.99610954  0.12825890  0.88656987  1
  P  P4  1  0.59240086  0.79238393  0.53389602  1
  P  P5  1  0.40759914  0.70761607  0.03389602  1
  P  P6  1  0.40759914  0.20761607  0.46610398  1
  P  P7  1  0.59240086  0.29238393  0.96610398  1
  P  P8  1  0.31530989  0.81929111  0.42770175  1
  P  P9  1  0.68469011  0.68070889  0.92770175  1
  P  P10  1  0.68469011  0.18070889  0.57229825  1
  P  P11  1  0.31530989  0.31929111  0.07229825  1
  P  P12  1  0.66729434  0.94529533  0.32092535  1
  P  P13  1  0.33270566  0.55470467  0.82092535  1
  P  P14  1  0.33270566  0.05470467  0.67907465  1
  P  P15  1  0.66729434  0.44529533  0.17907465  1
  P  P16  1  0.59661372  0.03566083  0.19629003  1
  P  P17  1  0.40338628  0.46433917  0.69629003  1
  P  P18  1  0.40338628  0.96433917  0.80370997  1
  P  P19  1  0.59661372  0.53566083  0.30370997  1
  O  O20  1  0.77079151  0.68922081  0.54336293  1
  O  O21  1  0.22920849  0.81077919  0.04336293  1
  O  O22  1  0.22920849  0.31077919  0.45663707  1
  O  O23  1  0.77079151  0.18922081  0.95663707  1
  O  O24  1  0.33931739  0.74683556  0.56250970  1
  O  O25  1  0.66068261  0.75316444  0.06250970  1
  O  O26  1  0.66068261  0.25316444  0.43749030  1
  O  O27  1  0.33931739  0.24683556  0.93749030  1
  O  O28  1  0.24342983  0.98609270  0.45363694  1
  O  O29  1  0.75657017  0.51390730  0.95363694  1
  O  O30  1  0.75657017  0.01390730  0.54636306  1
  O  O31  1  0.24342983  0.48609270  0.04636306  1
  O  O32  1  0.55561751  0.80490211  0.46202294  1
  O  O33  1  0.44438249  0.69509789  0.96202294  1
  O  O34  1  0.44438249  0.19509789  0.53797706  1
  O  O35  1  0.55561751  0.30490211  0.03797706  1
  O  O36  1  0.08920675  0.65021792  0.42489104  1
  O  O37  1  0.91079325  0.84978208  0.92489104  1
  O  O38  1  0.91079325  0.34978208  0.57510896  1
  O  O39  1  0.08920675  0.15021792  0.07510896  1
  O  O40  1  0.42781059  0.88576889  0.36393487  1
  O  O41  1  0.57218941  0.61423111  0.86393487  1
  O  O42  1  0.57218941  0.11423111  0.63606513  1
  O  O43  1  0.42781059  0.38576889  0.13606513  1
  O  O44  1  0.89610222  0.09079825  0.34375792  1
  O  O45  1  0.10389778  0.40920175  0.84375792  1
  O  O46  1  0.10389778  0.90920175  0.65624208  1
  O  O47  1  0.89610222  0.59079825  0.15624208  1
  O  O48  1  0.53155427  0.00186928  0.26672468  1
  O  O49  1  0.46844573  0.49813072  0.76672468  1
  O  O50  1  0.46844573  0.99813072  0.73327532  1
  O  O51  1  0.53155427  0.50186928  0.23327532  1
  O  O52  1  0.72732196  0.76438124  0.30460812  1
  O  O53  1  0.27267804  0.73561876  0.80460812  1
  O  O54  1  0.27267804  0.23561876  0.69539188  1
  O  O55  1  0.72732196  0.26438124  0.19539188  1
  O  O56  1  0.80151617  0.95912723  0.18238018  1
  O  O57  1  0.19848383  0.54087277  0.68238018  1
  O  O58  1  0.19848383  0.04087277  0.81761982  1
  O  O59  1  0.80151617  0.45912723  0.31761982  1
  O  O60  1  0.34958512  0.98239807  0.16501698  1
  O  O61  1  0.65041488  0.51760193  0.66501698  1
  O  O62  1  0.65041488  0.01760193  0.83498302  1
  O  O63  1  0.34958512  0.48239807  0.33498302  1
