# generated using pymatgen
data_Cu3Se2(ClO3)2
_symmetry_space_group_name_H-M   'P 1'
_cell_length_a   5.50408811
_cell_length_b   5.50408799
_cell_length_c   7.81397635
_cell_angle_alpha   75.68870328
_cell_angle_beta   75.68870359
_cell_angle_gamma   69.16061699
_symmetry_Int_Tables_number   1
_chemical_formula_structural   Cu3Se2(ClO3)2
_chemical_formula_sum   'Cu3 Se2 Cl2 O6'
_cell_volume   211.03159896
_cell_formula_units_Z   1
loop_
 _symmetry_equiv_pos_site_id
 _symmetry_equiv_pos_as_xyz
  1  'x, y, z'
loop_
 _atom_site_type_symbol
 _atom_site_label
 _atom_site_symmetry_multiplicity
 _atom_site_fract_x
 _atom_site_fract_y
 _atom_site_fract_z
 _atom_site_occupancy
  Cu  Cu0  1  0.56872395  0.56872395  0.17816062  1
  Cu  Cu1  1  0.00000000  0.00000000  0.00000000  1
  Cu  Cu2  1  0.43127605  0.43127605  0.82183938  1
  Se  Se3  1  0.16706516  0.16706516  0.26039400  1
  Se  Se4  1  0.83293484  0.83293484  0.73960600  1
  Cl  Cl5  1  0.29205881  0.29205881  0.63194701  1
  Cl  Cl6  1  0.70794119  0.70794119  0.36805299  1
  O  O7  1  0.73142430  0.11193277  0.85064392  1
  O  O8  1  0.26857570  0.88806723  0.14935608  1
  O  O9  1  0.35399643  0.35399643  0.13006986  1
  O  O10  1  0.64600357  0.64600357  0.86993014  1
  O  O11  1  0.88806723  0.26857570  0.14935608  1
  O  O12  1  0.11193277  0.73142430  0.85064392  1
