# generated using pymatgen
data_CsBa(BO2)3
_symmetry_space_group_name_H-M   'P 1'
_cell_length_a   12.69932987
_cell_length_b   12.69933009
_cell_length_c   7.64950653
_cell_angle_alpha   90.00000000
_cell_angle_beta   90.00000000
_cell_angle_gamma   119.99999945
_symmetry_Int_Tables_number   1
_chemical_formula_structural   CsBa(BO2)3
_chemical_formula_sum   'Cs6 Ba6 B18 O36'
_cell_volume   1068.37980438
_cell_formula_units_Z   6
loop_
 _symmetry_equiv_pos_site_id
 _symmetry_equiv_pos_as_xyz
  1  'x, y, z'
loop_
 _atom_site_type_symbol
 _atom_site_label
 _atom_site_symmetry_multiplicity
 _atom_site_fract_x
 _atom_site_fract_y
 _atom_site_fract_z
 _atom_site_occupancy
  Cs  Cs0  1  0.36337282  0.00000000  0.00000000  1
  Cs  Cs1  1  0.69532450  0.00000000  0.00000000  1
  Cs  Cs2  1  0.30467550  0.30467550  0.00000000  1
  Cs  Cs3  1  0.00000000  0.69532450  0.00000000  1
  Cs  Cs4  1  1.00000000  0.36337282  0.00000000  1
  Cs  Cs5  1  0.63662718  0.63662718  0.00000000  1
  Ba  Ba6  1  0.70219803  0.00000000  0.50000000  1
  Ba  Ba7  1  0.00000000  0.36677164  0.50000000  1
  Ba  Ba8  1  0.36677164  0.00000000  0.50000000  1
  Ba  Ba9  1  0.29780197  0.29780197  0.50000000  1
  Ba  Ba10  1  0.63322836  0.63322836  0.50000000  1
  Ba  Ba11  1  0.00000000  0.70219803  0.50000000  1
  B  B12  1  0.20510816  0.62469786  0.28467997  1
  B  B13  1  0.26632267  0.73035850  0.71438834  1
  B  B14  1  0.95745728  0.08636570  0.71646233  1
  B  B15  1  0.62469786  0.20510816  0.71532003  1
  B  B16  1  0.37530214  0.58041030  0.28467997  1
  B  B17  1  0.46403583  0.73367733  0.71438834  1
  B  B18  1  0.12890842  0.04254272  0.71646233  1
  B  B19  1  0.73035850  0.26632267  0.28561166  1
  B  B20  1  0.26964150  0.53596417  0.71438834  1
  B  B21  1  0.91363430  0.87109158  0.71646233  1
  B  B22  1  0.04254272  0.12890842  0.28353767  1
  B  B23  1  0.58041030  0.37530214  0.71532003  1
  B  B24  1  0.87109158  0.91363430  0.28353767  1
  B  B25  1  0.53596417  0.26964150  0.28561166  1
  B  B26  1  0.79489184  0.41958970  0.71532003  1
  B  B27  1  0.08636570  0.95745728  0.28353767  1
  B  B28  1  0.41958970  0.79489184  0.28467997  1
  B  B29  1  0.73367733  0.46403583  0.28561166  1
  O  O30  1  0.24994412  0.54232603  0.27973280  1
  O  O31  1  0.41738408  0.50334480  0.29552705  1
  O  O32  1  0.87564733  0.95842583  0.72124875  1
  O  O33  1  0.20733775  0.79209918  0.70233948  1
  O  O34  1  0.54232603  0.24994412  0.72026720  1
  O  O35  1  0.49665520  0.91403928  0.29552705  1
  O  O36  1  0.50334480  0.41738408  0.70447295  1
  O  O37  1  0.08596072  0.58261592  0.29552705  1
  O  O38  1  0.12435267  0.08277850  0.27875125  1
  O  O39  1  0.79266225  0.58476142  0.29766052  1
  O  O40  1  0.16118036  0.91318191  0.29524934  1
  O  O41  1  0.60465312  0.39806854  0.28010021  1
  O  O42  1  0.79209918  0.20733775  0.29766052  1
  O  O43  1  0.04157417  0.91722150  0.72124875  1
  O  O44  1  0.79341542  0.39534688  0.28010021  1
  O  O45  1  0.75005588  0.29238191  0.72026720  1
  O  O46  1  0.70761809  0.45767397  0.72026720  1
  O  O47  1  0.08681809  0.24799845  0.29524934  1
  O  O48  1  0.91722150  0.04157417  0.27875125  1
  O  O49  1  0.39806854  0.60465312  0.71989979  1
  O  O50  1  0.60193146  0.20658458  0.28010021  1
  O  O51  1  0.39534688  0.79341542  0.71989979  1
  O  O52  1  0.41523858  0.20790082  0.29766052  1
  O  O53  1  0.58476142  0.79266225  0.70233948  1
  O  O54  1  0.95842583  0.87564733  0.27875125  1
  O  O55  1  0.20790082  0.41523858  0.70233948  1
  O  O56  1  0.58261592  0.08596072  0.70447295  1
  O  O57  1  0.24799845  0.08681809  0.70475066  1
  O  O58  1  0.91403928  0.49665520  0.70447295  1
  O  O59  1  0.20658458  0.60193146  0.71989979  1
  O  O60  1  0.91318191  0.16118036  0.70475066  1
  O  O61  1  0.08277850  0.12435267  0.72124875  1
  O  O62  1  0.45767397  0.70761809  0.27973280  1
  O  O63  1  0.29238191  0.75005588  0.27973280  1
  O  O64  1  0.75200155  0.83881964  0.29524934  1
  O  O65  1  0.83881964  0.75200155  0.70475066  1
