# generated using pymatgen
data_K2Be2Zn2Si3O11
_symmetry_space_group_name_H-M   'P 1'
_cell_length_a   6.82700072
_cell_length_b   9.64579181
_cell_length_c   9.64579171
_cell_angle_alpha   60.73384148
_cell_angle_beta   69.27487981
_cell_angle_gamma   69.27487832
_symmetry_Int_Tables_number   1
_chemical_formula_structural   K2Be2Zn2Si3O11
_chemical_formula_sum   'K4 Be4 Zn4 Si6 O22'
_cell_volume   505.36214073
_cell_formula_units_Z   2
loop_
 _symmetry_equiv_pos_site_id
 _symmetry_equiv_pos_as_xyz
  1  'x, y, z'
loop_
 _atom_site_type_symbol
 _atom_site_label
 _atom_site_symmetry_multiplicity
 _atom_site_fract_x
 _atom_site_fract_y
 _atom_site_fract_z
 _atom_site_occupancy
  K  K0  1  0.86157399  0.88842601  0.38842601  1
  K  K1  1  0.55133306  0.69866694  0.19866694  1
  K  K2  1  0.13842601  0.11157399  0.61157399  1
  K  K3  1  0.44866694  0.30133306  0.80133306  1
  Be  Be4  1  0.17498124  0.50000000  0.50000000  1
  Be  Be5  1  0.82501876  1.00000000  0.00000000  1
  Be  Be6  1  0.82501876  0.50000000  0.50000000  1
  Be  Be7  1  0.17498124  0.00000000  1.00000000  1
  Zn  Zn8  1  1.00000000  0.34923313  0.15076687  1
  Zn  Zn9  1  0.50000000  0.65076687  0.84923313  1
  Zn  Zn10  1  0.50000000  0.34923313  0.15076687  1
  Zn  Zn11  1  0.00000000  0.65076687  0.84923313  1
  Si  Si12  1  0.63303215  0.27666628  0.45726941  1
  Si  Si13  1  0.63303215  0.95726941  0.77666628  1
  Si  Si14  1  0.36696785  0.72333372  0.54273059  1
  Si  Si15  1  0.90268086  0.34731914  0.84731914  1
  Si  Si16  1  0.09731914  0.65268086  0.15268086  1
  Si  Si17  1  0.36696785  0.04273059  0.22333372  1
  O  O18  1  0.03578508  0.57561971  0.35281012  1
  O  O19  1  0.03578508  0.85281012  0.07561971  1
  O  O20  1  0.37877087  0.35642336  0.48671157  1
  O  O21  1  0.32759515  0.92240485  0.42240485  1
  O  O22  1  0.72337497  0.76907100  0.78417906  1
  O  O23  1  0.67240485  0.07759515  0.57759515  1
  O  O24  1  0.96349119  0.58945685  0.08945685  1
  O  O25  1  0.72337497  0.28417906  0.26907100  1
  O  O26  1  0.27662503  0.71582094  0.73092900  1
  O  O27  1  0.62122913  0.01328843  0.14357664  1
  O  O28  1  0.22190580  0.01328843  0.14357664  1
  O  O29  1  0.96421492  0.42438029  0.64718988  1
  O  O30  1  0.77809420  0.35642336  0.48671157  1
  O  O31  1  0.77809420  0.98671157  0.85642336  1
  O  O32  1  0.62122913  0.64357664  0.51328843  1
  O  O33  1  0.37877087  0.98671157  0.85642336  1
  O  O34  1  0.64240489  0.41054315  0.91054315  1
  O  O35  1  0.27662503  0.23092900  0.21582094  1
  O  O36  1  0.03650881  0.41054315  0.91054315  1
  O  O37  1  0.35759511  0.58945685  0.08945685  1
  O  O38  1  0.96421492  0.14718988  0.92438029  1
  O  O39  1  0.22190580  0.64357664  0.51328843  1
