# generated using pymatgen
data_KMg4(PO4)3
_symmetry_space_group_name_H-M   'P 1'
_cell_length_a   6.23398505
_cell_length_b   9.67637085
_cell_length_c   16.56205728
_cell_angle_alpha   90.00000000
_cell_angle_beta   90.00000000
_cell_angle_gamma   90.00000000
_symmetry_Int_Tables_number   1
_chemical_formula_structural   KMg4(PO4)3
_chemical_formula_sum   'K4 Mg16 P12 O48'
_cell_volume   999.06223612
_cell_formula_units_Z   4
loop_
 _symmetry_equiv_pos_site_id
 _symmetry_equiv_pos_as_xyz
  1  'x, y, z'
loop_
 _atom_site_type_symbol
 _atom_site_label
 _atom_site_symmetry_multiplicity
 _atom_site_fract_x
 _atom_site_fract_y
 _atom_site_fract_z
 _atom_site_occupancy
  K  K0  1  0.00000000  0.20080599  0.96518563  1
  K  K1  1  0.50000000  0.29919401  0.46518563  1
  K  K2  1  0.00000000  0.79919401  0.03481437  1
  K  K3  1  0.50000000  0.70080599  0.53481437  1
  Mg  Mg4  1  0.24682071  0.24902881  0.20181206  1
  Mg  Mg5  1  0.00000000  0.51925696  0.64189747  1
  Mg  Mg6  1  0.25317929  0.25097119  0.70181206  1
  Mg  Mg7  1  0.25317929  0.74902881  0.29818794  1
  Mg  Mg8  1  0.74682071  0.74902881  0.29818794  1
  Mg  Mg9  1  0.00000000  0.03649476  0.40812097  1
  Mg  Mg10  1  0.50000000  0.53649476  0.09187903  1
  Mg  Mg11  1  0.00000000  0.48074304  0.35810253  1
  Mg  Mg12  1  0.24682071  0.75097119  0.79818794  1
  Mg  Mg13  1  0.75317929  0.24902881  0.20181206  1
  Mg  Mg14  1  0.50000000  0.46350524  0.90812097  1
  Mg  Mg15  1  0.00000000  0.96350524  0.59187903  1
  Mg  Mg16  1  0.75317929  0.75097119  0.79818794  1
  Mg  Mg17  1  0.50000000  0.98074304  0.14189747  1
  Mg  Mg18  1  0.74682071  0.25097119  0.70181206  1
  Mg  Mg19  1  0.50000000  0.01925696  0.85810253  1
  P  P20  1  0.50000000  0.45617635  0.27879084  1
  P  P21  1  0.00000000  0.70898433  0.46381369  1
  P  P22  1  0.50000000  0.04436706  0.33360262  1
  P  P23  1  0.50000000  0.54382365  0.72120916  1
  P  P24  1  0.00000000  0.04382365  0.77879084  1
  P  P25  1  0.50000000  0.79101567  0.96381369  1
  P  P26  1  0.00000000  0.95617635  0.22120916  1
  P  P27  1  0.50000000  0.20898433  0.03618631  1
  P  P28  1  0.00000000  0.54436706  0.16639738  1
  P  P29  1  0.00000000  0.45563294  0.83360262  1
  P  P30  1  0.50000000  0.95563294  0.66639738  1
  P  P31  1  0.00000000  0.29101567  0.53618631  1
  O  O32  1  0.00000000  0.13258287  0.52056735  1
  O  O33  1  0.79776587  0.41002445  0.87827312  1
  O  O34  1  0.30346117  0.83604385  0.91085650  1
  O  O35  1  0.19653883  0.33604385  0.58914350  1
  O  O36  1  0.70665961  0.60033891  0.68218957  1
  O  O37  1  0.79334039  0.10033891  0.81781043  1
  O  O38  1  0.50000000  0.11558571  0.24579262  1
  O  O39  1  0.70665961  0.39966109  0.31781043  1
  O  O40  1  0.20665961  0.10033891  0.81781043  1
  O  O41  1  0.50000000  0.61650448  0.27330187  1
  O  O42  1  0.50000000  0.36741713  0.02056735  1
  O  O43  1  0.69653883  0.16395615  0.08914350  1
  O  O44  1  0.50000000  0.60748147  0.80952224  1
  O  O45  1  0.20223413  0.58997555  0.12172688  1
  O  O46  1  0.29776587  0.08997555  0.37827312  1
  O  O47  1  0.79334039  0.89966109  0.18218957  1
  O  O48  1  0.80346117  0.66395615  0.41085650  1
  O  O49  1  0.00000000  0.88349552  0.77330187  1
  O  O50  1  0.70223413  0.08997555  0.37827312  1
  O  O51  1  0.20223413  0.41002445  0.87827312  1
  O  O52  1  0.20665961  0.89966109  0.18218957  1
  O  O53  1  0.19653883  0.66395615  0.41085650  1
  O  O54  1  0.00000000  0.10748147  0.69047776  1
  O  O55  1  0.50000000  0.39251853  0.19047776  1
  O  O56  1  0.30346117  0.16395615  0.08914350  1
  O  O57  1  0.29776587  0.91002445  0.62172688  1
  O  O58  1  0.00000000  0.38441429  0.74579262  1
  O  O59  1  0.00000000  0.61616632  0.82000496  1
  O  O60  1  0.50000000  0.88441429  0.75420738  1
  O  O61  1  0.00000000  0.63827499  0.54586136  1
  O  O62  1  0.50000000  0.38349552  0.72669813  1
  O  O63  1  0.50000000  0.11616632  0.67999504  1
  O  O64  1  0.00000000  0.38383368  0.17999504  1
  O  O65  1  0.00000000  0.89251853  0.30952224  1
  O  O66  1  0.69653883  0.83604385  0.91085650  1
  O  O67  1  0.29334039  0.60033891  0.68218957  1
  O  O68  1  0.50000000  0.86172501  0.04586136  1
  O  O69  1  0.50000000  0.13827499  0.95413864  1
  O  O70  1  0.70223413  0.91002445  0.62172688  1
  O  O71  1  0.29334039  0.39966109  0.31781043  1
  O  O72  1  0.80346117  0.33604385  0.58914350  1
  O  O73  1  0.00000000  0.11650448  0.22669813  1
  O  O74  1  0.00000000  0.61558571  0.25420738  1
  O  O75  1  0.00000000  0.86741713  0.47943265  1
  O  O76  1  0.00000000  0.36172501  0.45413864  1
  O  O77  1  0.79776587  0.58997555  0.12172688  1
  O  O78  1  0.50000000  0.63258287  0.97943265  1
  O  O79  1  0.50000000  0.88383368  0.32000496  1
