# generated using pymatgen
data_TlNO3
_symmetry_space_group_name_H-M   'P 1'
_cell_length_a   10.58512158
_cell_length_b   10.58512149
_cell_length_c   7.59971882
_cell_angle_alpha   90.00000000
_cell_angle_beta   90.00000000
_cell_angle_gamma   120.00000028
_symmetry_Int_Tables_number   1
_chemical_formula_structural   TlNO3
_chemical_formula_sum   'Tl9 N9 O27'
_cell_volume   737.42838855
_cell_formula_units_Z   9
loop_
 _symmetry_equiv_pos_site_id
 _symmetry_equiv_pos_as_xyz
  1  'x, y, z'
loop_
 _atom_site_type_symbol
 _atom_site_label
 _atom_site_symmetry_multiplicity
 _atom_site_fract_x
 _atom_site_fract_y
 _atom_site_fract_z
 _atom_site_occupancy
  Tl  Tl0  1  0.11424356  0.21703510  0.98370595  1
  Tl  Tl1  1  0.44502609  0.22213103  0.28259695  1
  Tl  Tl2  1  0.42937985  0.88397775  0.95214646  1
  Tl  Tl3  1  0.45459790  0.57062015  0.61881346  1
  Tl  Tl4  1  0.77786897  0.22289506  0.61592995  1
  Tl  Tl5  1  0.78296490  0.89720846  0.31703895  1
  Tl  Tl6  1  0.77710494  0.55497391  0.94926295  1
  Tl  Tl7  1  0.11602225  0.54540210  0.28548046  1
  Tl  Tl8  1  0.10279154  0.88575644  0.65037295  1
  N  N9  1  0.79724134  0.54017772  0.44026738  1
  N  N10  1  0.45982228  0.25706362  0.77360138  1
  N  N11  1  0.74293638  0.20275866  0.10693438  1
  N  N12  1  0.79410270  0.88919955  0.83788186  1
  N  N13  1  0.09509685  0.20589730  0.50454886  1
  N  N14  1  0.43380864  0.56164509  0.09701658  1
  N  N15  1  0.43835491  0.87216355  0.43034958  1
  N  N16  1  0.11080045  0.90490315  0.17121586  1
  N  N17  1  0.12783645  0.56619136  0.76368358  1
  O  O18  1  0.22893990  0.25788764  0.53635782  1
  O  O19  1  0.34791547  0.90945019  0.37906367  1
  O  O20  1  0.06824489  0.58892611  0.89429491  1
  O  O21  1  0.05060566  0.24802977  0.37463895  1
  O  O22  1  0.52068122  0.93175511  0.56096091  1
  O  O23  1  0.42544007  0.31103993  0.90237814  1
  O  O24  1  0.44626454  0.77085353  0.34727021  1
  O  O25  1  0.65561774  0.21749665  0.00343455  1
  O  O26  1  0.72551784  0.60341838  0.41335265  1
  O  O27  1  0.68896007  0.11440014  0.23571114  1
  O  O28  1  0.56187891  0.34438226  0.67010155  1
  O  O29  1  0.10688376  -0.00000746  0.27225992  1
  O  O30  1  1.00000746  0.10689122  0.60559292  1
  O  O31  1  0.56153472  0.65208453  0.04573067  1
  O  O32  1  0.19742411  0.94939434  0.04130595  1
  O  O33  1  0.78250335  0.43812109  0.33676755  1
  O  O34  1  0.02894774  0.77106010  0.20302482  1
  O  O35  1  0.39658162  0.12209946  0.74668665  1
  O  O36  1  0.75197023  0.80257589  0.70797195  1
  O  O37  1  0.74211236  0.97105226  0.86969082  1
  O  O38  1  0.09054981  0.43846528  0.71239767  1
  O  O39  1  0.22914647  0.67541101  0.68060421  1
  O  O40  1  0.89310878  0.89311624  0.93892592  1
  O  O41  1  0.88559986  0.57455993  0.56904414  1
  O  O42  1  0.41107389  0.47931878  0.22762791  1
  O  O43  1  0.87790054  0.27448216  0.08001965  1
  O  O44  1  0.32458899  0.55373546  0.01393721  1
