# generated using pymatgen
data_La3TiCl5O4
_symmetry_space_group_name_H-M   'P 1'
_cell_length_a   4.08248142
_cell_length_b   14.80485220
_cell_length_c   16.95447350
_cell_angle_alpha   90.00000000
_cell_angle_beta   90.00000000
_cell_angle_gamma   90.00000000
_symmetry_Int_Tables_number   1
_chemical_formula_structural   La3TiCl5O4
_chemical_formula_sum   'La12 Ti4 Cl20 O16'
_cell_volume   1024.73743258
_cell_formula_units_Z   4
loop_
 _symmetry_equiv_pos_site_id
 _symmetry_equiv_pos_as_xyz
  1  'x, y, z'
loop_
 _atom_site_type_symbol
 _atom_site_label
 _atom_site_symmetry_multiplicity
 _atom_site_fract_x
 _atom_site_fract_y
 _atom_site_fract_z
 _atom_site_occupancy
  La  La0  1  0.75000000  0.08066932  0.62046181  1
  La  La1  1  0.25000000  0.91933068  0.37953819  1
  La  La2  1  0.75000000  0.91564341  0.87915702  1
  La  La3  1  0.25000000  0.23918834  0.86995525  1
  La  La4  1  0.75000000  0.41933068  0.12046181  1
  La  La5  1  0.25000000  0.08435659  0.12084298  1
  La  La6  1  0.75000000  0.58435659  0.37915702  1
  La  La7  1  0.25000000  0.58066932  0.87953819  1
  La  La8  1  0.75000000  0.73918834  0.63004475  1
  La  La9  1  0.25000000  0.26081166  0.36995525  1
  La  La10  1  0.25000000  0.41564341  0.62084298  1
  La  La11  1  0.75000000  0.76081166  0.13004475  1
  Ti  Ti12  1  0.75000000  0.41077996  0.79160221  1
  Ti  Ti13  1  0.25000000  0.91077996  0.70839779  1
  Ti  Ti14  1  0.75000000  0.08922004  0.29160221  1
  Ti  Ti15  1  0.25000000  0.58922004  0.20839779  1
  Cl  Cl16  1  0.25000000  0.89921705  0.20198444  1
  Cl  Cl17  1  0.75000000  0.39921705  0.29801556  1
  Cl  Cl18  1  0.75000000  0.55649567  0.55449647  1
  Cl  Cl19  1  0.25000000  0.71568581  0.47872400  1
  Cl  Cl20  1  0.25000000  0.09638418  0.48364317  1
  Cl  Cl21  1  0.25000000  0.44350433  0.44550353  1
  Cl  Cl22  1  0.75000000  0.59638418  0.01635683  1
  Cl  Cl23  1  0.25000000  0.22490675  0.67977339  1
  Cl  Cl24  1  0.75000000  0.77509325  0.32022661  1
  Cl  Cl25  1  0.25000000  0.27509325  0.17977339  1
  Cl  Cl26  1  0.75000000  0.90361582  0.51635683  1
  Cl  Cl27  1  0.25000000  0.40361582  0.98364317  1
  Cl  Cl28  1  0.25000000  0.05649567  0.94550353  1
  Cl  Cl29  1  0.75000000  0.72490675  0.82022661  1
  Cl  Cl30  1  0.25000000  0.78431419  0.97872400  1
  Cl  Cl31  1  0.75000000  0.94350433  0.05449647  1
  Cl  Cl32  1  0.25000000  0.60078295  0.70198444  1
  Cl  Cl33  1  0.75000000  0.10078295  0.79801556  1
  Cl  Cl34  1  0.75000000  0.28431419  0.52127600  1
  Cl  Cl35  1  0.75000000  0.21568581  0.02127600  1
  O  O36  1  0.25000000  0.90999110  0.81767752  1
  O  O37  1  0.25000000  0.48206575  0.15198620  1
  O  O38  1  0.75000000  0.51793425  0.84801380  1
  O  O39  1  0.75000000  0.09000890  0.18232248  1
  O  O40  1  0.25000000  0.59000890  0.31767752  1
  O  O41  1  0.75000000  0.98206575  0.34801380  1
  O  O42  1  0.75000000  0.30171268  0.84537093  1
  O  O43  1  0.25000000  0.01793425  0.65198620  1
  O  O44  1  0.75000000  0.59144872  0.20841745  1
  O  O45  1  0.75000000  0.90855128  0.70841745  1
  O  O46  1  0.25000000  0.69828732  0.15462907  1
  O  O47  1  0.75000000  0.19828732  0.34537093  1
  O  O48  1  0.25000000  0.40855128  0.79158255  1
  O  O49  1  0.25000000  0.80171268  0.65462907  1
  O  O50  1  0.25000000  0.09144872  0.29158255  1
  O  O51  1  0.75000000  0.40999110  0.68232248  1
