# generated using pymatgen
data_BaMnF4
_symmetry_space_group_name_H-M   'P 1'
_cell_length_a   4.28106377
_cell_length_b   6.09806056
_cell_length_c   8.01688869
_cell_angle_alpha   90.00000000
_cell_angle_beta   105.48599463
_cell_angle_gamma   90.00000000
_symmetry_Int_Tables_number   1
_chemical_formula_structural   BaMnF4
_chemical_formula_sum   'Ba2 Mn2 F8'
_cell_volume   201.69225755
_cell_formula_units_Z   2
loop_
 _symmetry_equiv_pos_site_id
 _symmetry_equiv_pos_as_xyz
  1  'x, y, z'
loop_
 _atom_site_type_symbol
 _atom_site_label
 _atom_site_symmetry_multiplicity
 _atom_site_fract_x
 _atom_site_fract_y
 _atom_site_fract_z
 _atom_site_occupancy
  F  F0  1  0.91865662  0.52400253  0.83731323  1
  F  F1  1  0.08134338  0.02400253  0.16268677  1
  F  F2  1  0.46235346  0.84116205  0.92470692  1
  F  F3  1  0.53764654  0.34116205  0.07529308  1
  F  F4  1  0.70102737  0.19165893  0.40205474  1
  F  F5  1  0.29897263  0.69165893  0.59794526  1
  F  F6  1  0.66450251  0.71897557  0.32900503  1
  F  F7  1  0.33549749  0.21897557  0.67099497  1
  Mn  Mn8  1  0.41644935  0.49732427  0.83289871  1
  Mn  Mn9  1  0.58355065  0.99732427  0.16710129  1
  Ba  Ba10  1  0.84234552  0.94647666  0.68469104  1
  Ba  Ba11  1  0.15765448  0.44647666  0.31530896  1
