# generated using pymatgen
data_Li3In(BO3)2
_symmetry_space_group_name_H-M   'P 1'
_cell_length_a   5.25334106
_cell_length_b   9.04691416
_cell_length_c   10.29903130
_cell_angle_alpha   90.00000000
_cell_angle_beta   91.12442708
_cell_angle_gamma   90.00000000
_symmetry_Int_Tables_number   1
_chemical_formula_structural   Li3In(BO3)2
_chemical_formula_sum   'Li12 In4 B8 O24'
_cell_volume   489.38291915
_cell_formula_units_Z   4
loop_
 _symmetry_equiv_pos_site_id
 _symmetry_equiv_pos_as_xyz
  1  'x, y, z'
loop_
 _atom_site_type_symbol
 _atom_site_label
 _atom_site_symmetry_multiplicity
 _atom_site_fract_x
 _atom_site_fract_y
 _atom_site_fract_z
 _atom_site_occupancy
  Li  Li0  1  0.65834890  0.52519092  0.17320702  1
  Li  Li1  1  0.66900675  0.84298586  0.11765702  1
  Li  Li2  1  0.34165110  0.47480908  0.82679298  1
  Li  Li3  1  0.84165110  0.02519092  0.32679298  1
  Li  Li4  1  0.32590921  0.48613684  0.40383290  1
  Li  Li5  1  0.33099325  0.15701414  0.88234298  1
  Li  Li6  1  0.17409079  0.98613684  0.09616710  1
  Li  Li7  1  0.16900675  0.65701414  0.61765702  1
  Li  Li8  1  0.15834890  0.97480908  0.67320702  1
  Li  Li9  1  0.67409079  0.51386316  0.59616710  1
  Li  Li10  1  0.82590921  0.01386316  0.90383290  1
  Li  Li11  1  0.83099325  0.34298586  0.38234298  1
  In  In12  1  0.64991910  0.17214928  0.62317440  1
  In  In13  1  0.14991910  0.32785072  0.12317440  1
  In  In14  1  0.35008090  0.82785072  0.37682560  1
  In  In15  1  0.85008090  0.67214928  0.87682560  1
  B  B16  1  0.83630947  0.67295024  0.38051429  1
  B  B17  1  0.83388568  0.33093257  0.86915152  1
  B  B18  1  0.16611432  0.66906743  0.13084848  1
  B  B19  1  0.33630947  0.82704976  0.88051429  1
  B  B20  1  0.66611432  0.83093257  0.63084848  1
  B  B21  1  0.16369053  0.32704976  0.61948571  1
  B  B22  1  0.66369053  0.17295024  0.11948571  1
  B  B23  1  0.33388568  0.16906743  0.36915152  1
  O  O24  1  0.29352611  0.79954241  0.16399839  1
  O  O25  1  0.82316018  0.05234990  0.11930185  1
  O  O26  1  0.19816757  0.03882387  0.35940013  1
  O  O27  1  0.90982744  0.66965981  0.09077107  1
  O  O28  1  0.40982744  0.83034019  0.59077107  1
  O  O29  1  0.74732094  0.81497726  0.34850228  1
  O  O30  1  0.20647389  0.29954241  0.33600161  1
  O  O31  1  0.79352611  0.70045759  0.66399839  1
  O  O32  1  0.80183243  0.96117613  0.64059987  1
  O  O33  1  0.67683982  0.55234990  0.38069815  1
  O  O34  1  0.70647389  0.20045759  0.83600161  1
  O  O35  1  0.24732094  0.68502274  0.84850228  1
  O  O36  1  0.25267906  0.18502274  0.65149772  1
  O  O37  1  0.30183243  0.53882387  0.14059987  1
  O  O38  1  0.40572339  0.15454717  0.08777241  1
  O  O39  1  0.75267906  0.31497726  0.15149772  1
  O  O40  1  0.90572339  0.34545283  0.58777241  1
  O  O41  1  0.32316018  0.44765010  0.61930185  1
  O  O42  1  0.09017256  0.33034019  0.90922893  1
  O  O43  1  0.69816757  0.46117613  0.85940013  1
  O  O44  1  0.17683982  0.94765010  0.88069815  1
  O  O45  1  0.59017256  0.16965981  0.40922893  1
  O  O46  1  0.09427661  0.65454717  0.41222759  1
  O  O47  1  0.59427661  0.84545283  0.91222759  1
