# generated using pymatgen
data_Li9Mn2Co5O16
_symmetry_space_group_name_H-M   'P 1'
_cell_length_a   2.90126875
_cell_length_b   15.39793824
_cell_length_c   6.61932454
_cell_angle_alpha   92.23871986
_cell_angle_beta   77.34079411
_cell_angle_gamma   90.00000049
_symmetry_Int_Tables_number   1
_chemical_formula_structural   Li9Mn2Co5O16
_chemical_formula_sum   'Li9 Mn2 Co5 O16'
_cell_volume   288.28900780
_cell_formula_units_Z   1
loop_
 _symmetry_equiv_pos_site_id
 _symmetry_equiv_pos_as_xyz
  1  'x, y, z'
loop_
 _atom_site_type_symbol
 _atom_site_label
 _atom_site_symmetry_multiplicity
 _atom_site_fract_x
 _atom_site_fract_y
 _atom_site_fract_z
 _atom_site_occupancy
  Li  Li0  1  0.30860177  0.06546062  0.38279647  1
  Li  Li1  1  0.94119849  0.19252602  0.11760302  1
  Li  Li2  1  0.56286735  0.31011003  0.87426530  1
  Li  Li3  1  0.68639736  0.94860977  0.62720528  1
  Li  Li4  1  0.06292242  0.81337665  0.87415516  1
  Li  Li5  1  0.43768775  0.68449007  0.12462450  1
  Li  Li6  1  0.18647346  0.43322953  0.62705308  1
  Li  Li7  1  0.81342177  0.55428800  0.37315646  1
  Li  Li8  1  0.62599611  0.12341624  0.74800779  1
  Mn  Mn9  1  0.00530006  0.00291800  0.98939989  1
  Mn  Mn10  1  0.75200572  0.74881630  0.49598856  1
  Co  Co11  1  0.23721421  0.24445010  0.52557157  1
  Co  Co12  1  0.87594052  0.37195415  0.24811896  1
  Co  Co13  1  0.49874345  0.50151148  0.00251309  1
  Co  Co14  1  0.12407072  0.62265224  0.75185857  1
  Co  Co15  1  0.37463977  0.87826214  0.25072047  1
  O  O16  1  0.47258376  0.08160593  0.05483248  1
  O  O17  1  0.10183674  0.22156213  0.79632651  1
  O  O18  1  0.72577246  0.33471366  0.54845507  1
  O  O19  1  0.85230488  0.96765229  0.29539025  1
  O  O20  1  0.22339530  0.83131675  0.55320941  1
  O  O21  1  0.60772286  0.71590418  0.78455429  1
  O  O22  1  0.34721690  0.46235083  0.30556621  1
  O  O23  1  0.96850037  0.59106230  0.06299926  1
  O  O24  1  0.14361630  0.02685680  0.71276740  1
  O  O25  1  0.78034654  0.16730986  0.43930692  1
  O  O26  1  0.40361825  0.28814264  0.19276349  1
  O  O27  1  0.52564201  0.91400617  0.94871597  1
  O  O28  1  0.89613631  0.78404590  0.20772739  1
  O  O29  1  0.28070731  0.66738548  0.43858539  1
  O  O30  1  0.02611934  0.41328147  0.94776132  1
  O  O31  1  0.65099977  0.53673226  0.69800046  1
