# generated using pymatgen
data_Ca3Al4ZnO10
_symmetry_space_group_name_H-M   'P 1'
_cell_length_a   5.18865557
_cell_length_b   10.81394544
_cell_length_c   16.92960634
_cell_angle_alpha   90.00000000
_cell_angle_beta   90.00000000
_cell_angle_gamma   90.00000000
_symmetry_Int_Tables_number   1
_chemical_formula_structural   Ca3Al4ZnO10
_chemical_formula_sum   'Ca12 Al16 Zn4 O40'
_cell_volume   949.91747322
_cell_formula_units_Z   4
loop_
 _symmetry_equiv_pos_site_id
 _symmetry_equiv_pos_as_xyz
  1  'x, y, z'
loop_
 _atom_site_type_symbol
 _atom_site_label
 _atom_site_symmetry_multiplicity
 _atom_site_fract_x
 _atom_site_fract_y
 _atom_site_fract_z
 _atom_site_occupancy
  Ca  Ca0  1  0.29617117  0.07753897  0.39347262  1
  Ca  Ca1  1  0.70382883  0.07753897  0.89347262  1
  Ca  Ca2  1  0.70404624  0.93013444  0.60953853  1
  Ca  Ca3  1  0.72761015  0.73979419  0.79067310  1
  Ca  Ca4  1  0.29595376  0.93013444  0.10953853  1
  Ca  Ca5  1  0.29617117  0.57753897  0.10652738  1
  Ca  Ca6  1  0.29595376  0.43013444  0.39046147  1
  Ca  Ca7  1  0.72761015  0.23979419  0.70932690  1
  Ca  Ca8  1  0.70382883  0.57753897  0.60652738  1
  Ca  Ca9  1  0.27238985  0.73979419  0.29067310  1
  Ca  Ca10  1  0.27238985  0.23979419  0.20932690  1
  Ca  Ca11  1  0.70404624  0.43013444  0.89046147  1
  Al  Al12  1  0.80167789  0.00030785  0.25135495  1
  Al  Al13  1  0.36892543  0.75258369  0.46958109  1
  Al  Al14  1  0.80167789  0.50030785  0.24864505  1
  Al  Al15  1  0.63107457  0.25258369  0.53041891  1
  Al  Al16  1  0.25852019  0.25084679  0.83569087  1
  Al  Al17  1  0.36892543  0.25258369  0.03041891  1
  Al  Al18  1  0.19832211  0.00030785  0.75135495  1
  Al  Al19  1  0.25852019  0.75084679  0.66430913  1
  Al  Al20  1  0.19832211  0.50030785  0.74864505  1
  Al  Al21  1  0.12884159  0.89854194  0.92318134  1
  Al  Al22  1  0.87115841  0.89854194  0.42318134  1
  Al  Al23  1  0.74147981  0.75084679  0.16430913  1
  Al  Al24  1  0.87115841  0.39854194  0.07681866  1
  Al  Al25  1  0.63107457  0.75258369  0.96958109  1
  Al  Al26  1  0.12884159  0.39854194  0.57681866  1
  Al  Al27  1  0.74147981  0.25084679  0.33569087  1
  Zn  Zn28  1  0.85696935  0.10046793  0.07897034  1
  Zn  Zn29  1  0.85696935  0.60046793  0.42102966  1
  Zn  Zn30  1  0.14303065  0.60046793  0.92102966  1
  Zn  Zn31  1  0.14303065  0.10046793  0.57897034  1
  O  O32  1  0.46830013  0.88351671  0.92668115  1
  O  O33  1  0.40523491  0.12024481  0.78767142  1
  O  O34  1  0.59889613  0.38062899  0.28654857  1
  O  O35  1  0.99132162  0.00195856  0.49365715  1
  O  O36  1  0.00867838  0.50195856  0.50634285  1
  O  O37  1  0.40110387  0.88062899  0.71345143  1
  O  O38  1  0.99639609  0.94138239  0.32935229  1
  O  O39  1  0.53169987  0.88351671  0.42668115  1
  O  O40  1  0.59476509  0.62024481  0.21232858  1
  O  O41  1  0.99639609  0.44138239  0.17064771  1
  O  O42  1  0.53169987  0.38351671  0.07331885  1
  O  O43  1  0.51069818  0.12230324  0.58206023  1
  O  O44  1  0.00360391  0.44138239  0.67064771  1
  O  O45  1  0.57389862  0.75136205  0.07175593  1
  O  O46  1  0.02141990  0.55829234  0.31921840  1
  O  O47  1  0.97858010  0.05829234  0.68078160  1
  O  O48  1  0.48930182  0.62230324  0.41793977  1
  O  O49  1  0.07759898  0.24959088  0.33445766  1
  O  O50  1  0.51069818  0.62230324  0.91793977  1
  O  O51  1  0.48930182  0.12230324  0.08206023  1
  O  O52  1  0.95771464  0.75950423  0.93953327  1
  O  O53  1  0.42610138  0.25136205  0.92824407  1
  O  O54  1  0.97858010  0.55829234  0.81921840  1
  O  O55  1  0.99132162  0.50195856  0.00634285  1
  O  O56  1  0.42610138  0.75136205  0.57175593  1
  O  O57  1  0.00360391  0.94138239  0.82935229  1
  O  O58  1  0.95771464  0.25950423  0.56046673  1
  O  O59  1  0.46830013  0.38351671  0.57331885  1
  O  O60  1  0.57389862  0.25136205  0.42824407  1
  O  O61  1  0.40110387  0.38062899  0.78654857  1
  O  O62  1  0.92240102  0.74959088  0.66554234  1
  O  O63  1  0.04228536  0.25950423  0.06046673  1
  O  O64  1  0.92240102  0.24959088  0.83445766  1
  O  O65  1  0.59889613  0.88062899  0.21345143  1
  O  O66  1  0.40523491  0.62024481  0.71232858  1
  O  O67  1  0.02141990  0.05829234  0.18078160  1
  O  O68  1  0.04228536  0.75950423  0.43953327  1
  O  O69  1  0.00867838  0.00195856  0.99365715  1
  O  O70  1  0.59476509  0.12024481  0.28767142  1
  O  O71  1  0.07759898  0.74959088  0.16554234  1
