# generated using pymatgen
data_In(PO3)3
_symmetry_space_group_name_H-M   'P 1'
_cell_length_a   6.68719399
_cell_length_b   7.66473922
_cell_length_c   8.57339409
_cell_angle_alpha   74.34897517
_cell_angle_beta   67.04569659
_cell_angle_gamma   64.13635205
_symmetry_Int_Tables_number   1
_chemical_formula_structural   In(PO3)3
_chemical_formula_sum   'In2 P6 O18'
_cell_volume   361.46491987
_cell_formula_units_Z   2
loop_
 _symmetry_equiv_pos_site_id
 _symmetry_equiv_pos_as_xyz
  1  'x, y, z'
loop_
 _atom_site_type_symbol
 _atom_site_label
 _atom_site_symmetry_multiplicity
 _atom_site_fract_x
 _atom_site_fract_y
 _atom_site_fract_z
 _atom_site_occupancy
  In  In0  1  0.48462120  0.50519877  0.49927800  1
  In  In1  1  0.01090203  0.00519877  -0.00072200  1
  P  P2  1  0.52063374  0.96388580  0.32793628  1
  P  P3  1  0.29441491  0.54358072  0.16812753  1
  P  P4  1  0.06333276  0.24742182  0.26985386  1
  P  P5  1  0.68754418  0.46388580  0.82793628  1
  P  P6  1  0.49387684  0.04358072  0.66812753  1
  P  P7  1  0.91939156  0.74742182  0.76985386  1
  O  O8  1  0.10500681  0.44937191  0.21244196  1
  O  O9  1  0.83017968  0.28600448  0.40442109  1
  O  O10  1  0.24996600  0.10673961  0.36912203  1
  O  O11  1  0.77417236  0.60673961  0.86912203  1
  O  O12  1  0.62677266  0.54789280  0.66539111  1
  O  O13  1  0.11128906  0.66747667  0.61205560  1
  O  O14  1  0.40621213  0.26091777  0.66286774  1
  O  O15  1  0.32910201  0.94587963  0.78793019  1
  O  O16  1  0.65994343  0.04789280  0.16539111  1
  O  O17  1  0.86020868  0.25781742  0.83815229  1
  O  O18  1  0.54382161  0.75781742  0.33815229  1
  O  O19  1  0.44991357  0.48171260  0.98112232  1
  O  O20  1  0.97939475  0.78600448  0.90442109  1
  O  O21  1  0.43708817  0.44587963  0.28793019  1
  O  O22  1  0.17000236  0.76091777  0.16286774  1
  O  O23  1  0.10917868  0.16747667  0.11205560  1
  O  O24  1  0.73317932  0.94937191  0.71244196  1
  O  O25  1  0.58725151  0.98171260  0.48112232  1
