# generated using pymatgen
data_Cs3MnF7
_symmetry_space_group_name_H-M   'P 1'
_cell_length_a   6.32839940
_cell_length_b   8.57084457
_cell_length_c   8.57084457
_cell_angle_alpha   90.00000000
_cell_angle_beta   90.00000000
_cell_angle_gamma   90.00000000
_symmetry_Int_Tables_number   1
_chemical_formula_structural   Cs3MnF7
_chemical_formula_sum   'Cs6 Mn2 F14'
_cell_volume   464.88027507
_cell_formula_units_Z   2
loop_
 _symmetry_equiv_pos_site_id
 _symmetry_equiv_pos_as_xyz
  1  'x, y, z'
loop_
 _atom_site_type_symbol
 _atom_site_label
 _atom_site_symmetry_multiplicity
 _atom_site_fract_x
 _atom_site_fract_y
 _atom_site_fract_z
 _atom_site_occupancy
  Cs  Cs0  1  0.50000000  0.69296042  0.19296042  1
  Cs  Cs1  1  0.50000000  0.80703958  0.69296042  1
  Cs  Cs2  1  0.50000000  0.19296042  0.30703958  1
  Cs  Cs3  1  0.50000000  0.30703958  0.80703958  1
  Cs  Cs4  1  0.00000000  0.50000000  0.50000000  1
  Cs  Cs5  1  0.00000000  0.00000000  0.00000000  1
  Mn  Mn6  1  0.00000000  0.50000000  0.00000000  1
  Mn  Mn7  1  0.00000000  0.00000000  0.50000000  1
  F  F8  1  0.79129233  0.89285566  0.39285566  1
  F  F9  1  0.79129233  0.10714434  0.60714434  1
  F  F10  1  0.79129233  0.39285566  0.10714434  1
  F  F11  1  0.79129233  0.60714434  0.89285566  1
  F  F12  1  0.20870767  0.89285566  0.39285566  1
  F  F13  1  0.20870767  0.60714434  0.89285566  1
  F  F14  1  0.20870767  0.39285566  0.10714434  1
  F  F15  1  0.20870767  0.10714434  0.60714434  1
  F  F16  1  0.50000000  0.00000000  0.00000000  1
  F  F17  1  0.50000000  0.50000000  0.50000000  1
  F  F18  1  0.00000000  0.34742112  0.84742112  1
  F  F19  1  0.00000000  0.15257888  0.34742112  1
  F  F20  1  0.00000000  0.84742112  0.65257888  1
  F  F21  1  0.00000000  0.65257888  0.15257888  1
