# generated using pymatgen
data_Co2P2O7
_symmetry_space_group_name_H-M   'P 1'
_cell_length_a   4.55078765
_cell_length_b   5.51507629
_cell_length_c   9.90608601
_cell_angle_alpha   90.00552791
_cell_angle_beta   89.99415682
_cell_angle_gamma   97.95402332
_symmetry_Int_Tables_number   1
_chemical_formula_structural   Co2P2O7
_chemical_formula_sum   'Co4 P4 O14'
_cell_volume   246.23047177
_cell_formula_units_Z   2
loop_
 _symmetry_equiv_pos_site_id
 _symmetry_equiv_pos_as_xyz
  1  'x, y, z'
loop_
 _atom_site_type_symbol
 _atom_site_label
 _atom_site_symmetry_multiplicity
 _atom_site_fract_x
 _atom_site_fract_y
 _atom_site_fract_z
 _atom_site_occupancy
  P  P0  1  0.14759710  0.34531176  0.89080296  1
  P  P1  1  0.85240192  0.65468966  0.10919719  1
  Co  Co2  1  0.62202740  0.90793534  0.83834208  1
  O  O3  1  0.71014978  0.85285661  0.03467792  1
  Co  Co4  1  0.37797181  0.09206537  0.16165793  1
  O  O5  1  0.89005989  0.73594258  0.70132231  1
  Co  Co6  1  0.37789718  0.59207661  0.33832903  1
  O  O7  1  0.89006749  0.23591269  0.79868388  1
  O  O8  1  0.28983739  0.64715452  0.53465605  1
  P  P9  1  0.14759507  0.84534506  0.60919418  1
  O  O10  1  0.37954270  0.02640868  0.68352654  1
  O  O11  1  0.37955286  0.52639632  0.81646301  1
  O  O12  1  0.10993224  0.76408807  0.20131610  1
  O  O13  1  0.99999523  0.99999465  0.49999914  1
  P  P14  1  0.85240592  0.15465313  0.39080607  1
  O  O15  1  0.28984633  0.14714388  0.96532291  1
  O  O16  1  0.62044972  0.47360305  0.18353749  1
  O  O17  1  0.62045644  0.97359395  0.31647235  1
  O  O18  1  0.00000136  0.50000198  0.99999873  1
  Co  Co19  1  0.62209979  0.40792419  0.66166978  1
  O  O20  1  0.71016842  0.35284638  0.46534477  1
  O  O21  1  0.10994396  0.26405554  0.29867959  1
