# generated using pymatgen
data_K2CuF4
_symmetry_space_group_name_H-M   'P 1'
_cell_length_a   5.90053069
_cell_length_b   5.90053024
_cell_length_c   13.59507774
_cell_angle_alpha   102.53346264
_cell_angle_beta   102.53346165
_cell_angle_gamma   89.99999877
_symmetry_Int_Tables_number   1
_chemical_formula_structural   K2CuF4
_chemical_formula_sum   'K8 Cu4 F16'
_cell_volume   450.48798427
_cell_formula_units_Z   4
loop_
 _symmetry_equiv_pos_site_id
 _symmetry_equiv_pos_as_xyz
  1  'x, y, z'
loop_
 _atom_site_type_symbol
 _atom_site_label
 _atom_site_symmetry_multiplicity
 _atom_site_fract_x
 _atom_site_fract_y
 _atom_site_fract_z
 _atom_site_occupancy
  K  K0  1  0.42843838  0.42843838  0.85687677  1
  K  K1  1  0.57156162  0.57156162  0.14312323  1
  K  K2  1  0.92843838  0.92843838  0.85687677  1
  K  K3  1  0.07156162  0.07156162  0.14312323  1
  K  K4  1  0.82071173  0.32071173  0.64142347  1
  K  K5  1  0.17928827  0.67928827  0.35857653  1
  K  K6  1  0.67928827  0.17928827  0.35857653  1
  K  K7  1  0.32071173  0.82071173  0.64142347  1
  Cu  Cu8  1  0.00000000  0.50000000  0.00000000  1
  Cu  Cu9  1  0.50000000  0.00000000  0.00000000  1
  Cu  Cu10  1  0.75000000  0.75000000  0.50000000  1
  Cu  Cu11  1  0.25000000  0.25000000  0.50000000  1
  F  F12  1  0.17362012  0.17362012  0.34724024  1
  F  F13  1  0.50000000  0.00000000  0.50000000  1
  F  F14  1  0.57691568  0.07691568  0.15383136  1
  F  F15  1  0.50000000  0.50000000  0.50000000  1
  F  F16  1  0.73261028  0.76738972  1.00000000  1
  F  F17  1  0.82637988  0.82637988  0.65275976  1
  F  F18  1  0.07691568  0.57691568  0.15383136  1
  F  F19  1  0.42308432  0.92308432  0.84616864  1
  F  F20  1  0.32637988  0.32637988  0.65275976  1
  F  F21  1  0.00000000  0.00000000  0.50000000  1
  F  F22  1  0.26738972  0.23261028  0.00000000  1
  F  F23  1  0.92308432  0.42308432  0.84616864  1
  F  F24  1  0.23261028  0.73261028  1.00000000  1
  F  F25  1  0.67362012  0.67362012  0.34724024  1
  F  F26  1  0.76738972  0.26738972  0.00000000  1
  F  F27  1  0.00000000  0.50000000  0.50000000  1
