# generated using pymatgen
data_Ag2BiO3
_symmetry_space_group_name_H-M   'P 1'
_cell_length_a   6.13507361
_cell_length_b   6.33245138
_cell_length_c   9.84926167
_cell_angle_alpha   90.00000000
_cell_angle_beta   90.00000000
_cell_angle_gamma   90.00000000
_symmetry_Int_Tables_number   1
_chemical_formula_structural   Ag2BiO3
_chemical_formula_sum   'Ag8 Bi4 O12'
_cell_volume   382.64436102
_cell_formula_units_Z   4
loop_
 _symmetry_equiv_pos_site_id
 _symmetry_equiv_pos_as_xyz
  1  'x, y, z'
loop_
 _atom_site_type_symbol
 _atom_site_label
 _atom_site_symmetry_multiplicity
 _atom_site_fract_x
 _atom_site_fract_y
 _atom_site_fract_z
 _atom_site_occupancy
  Ag  Ag0  1  0.72229431  0.75000000  0.25000000  1
  Ag  Ag1  1  0.50000000  0.00000000  0.50000000  1
  Ag  Ag2  1  0.22229431  0.75000000  0.75000000  1
  Ag  Ag3  1  0.77770569  0.25000000  0.25000000  1
  Ag  Ag4  1  0.00000000  0.00000000  0.50000000  1
  Ag  Ag5  1  0.27770569  0.25000000  0.75000000  1
  Ag  Ag6  1  0.00000000  0.50000000  0.00000000  1
  Ag  Ag7  1  0.50000000  0.50000000  0.00000000  1
  Bi  Bi8  1  0.25000000  0.50000000  0.39592785  1
  Bi  Bi9  1  0.75000000  0.50000000  0.60407215  1
  Bi  Bi10  1  0.75000000  0.00000000  0.89592785  1
  Bi  Bi11  1  0.25000000  0.00000000  0.10407215  1
  O  O12  1  0.43510470  0.68258144  0.56198441  1
  O  O13  1  0.56489530  0.18258144  0.06198441  1
  O  O14  1  0.93510470  0.81741856  0.06198441  1
  O  O15  1  0.43510470  0.81741856  0.93801559  1
  O  O16  1  0.93510470  0.68258144  0.43801559  1
  O  O17  1  0.35482533  0.75000000  0.25000000  1
  O  O18  1  0.06489530  0.18258144  0.93801559  1
  O  O19  1  0.14517467  0.25000000  0.25000000  1
  O  O20  1  0.64517467  0.25000000  0.75000000  1
  O  O21  1  0.56489530  0.31741856  0.43801559  1
  O  O22  1  0.85482533  0.75000000  0.75000000  1
  O  O23  1  0.06489530  0.31741856  0.56198441  1
