# generated using pymatgen
data_BaZnTeCl2O3
_symmetry_space_group_name_H-M   'P 1'
_cell_length_a   5.72231446
_cell_length_b   12.52130142
_cell_length_c   19.81985712
_cell_angle_alpha   90.00000000
_cell_angle_beta   90.00000000
_cell_angle_gamma   90.00000000
_symmetry_Int_Tables_number   1
_chemical_formula_structural   BaZnTeCl2O3
_chemical_formula_sum   'Ba8 Zn8 Te8 Cl16 O24'
_cell_volume   1420.10909765
_cell_formula_units_Z   8
loop_
 _symmetry_equiv_pos_site_id
 _symmetry_equiv_pos_as_xyz
  1  'x, y, z'
loop_
 _atom_site_type_symbol
 _atom_site_label
 _atom_site_symmetry_multiplicity
 _atom_site_fract_x
 _atom_site_fract_y
 _atom_site_fract_z
 _atom_site_occupancy
  Ba  Ba0  1  0.25000000  0.83255577  0.16993420  1
  Ba  Ba1  1  0.25000000  0.44293191  0.78955713  1
  Ba  Ba2  1  0.25000000  0.33255577  0.33006580  1
  Ba  Ba3  1  0.75000000  0.16744423  0.83006580  1
  Ba  Ba4  1  0.75000000  0.05706809  0.28955713  1
  Ba  Ba5  1  0.25000000  0.94293191  0.71044287  1
  Ba  Ba6  1  0.75000000  0.66744423  0.66993420  1
  Ba  Ba7  1  0.75000000  0.55706809  0.21044287  1
  Zn  Zn8  1  0.25000000  0.07021358  0.42749045  1
  Zn  Zn9  1  0.75000000  0.51382363  0.40638209  1
  Zn  Zn10  1  0.25000000  0.98617637  0.90638209  1
  Zn  Zn11  1  0.75000000  0.92978642  0.57250955  1
  Zn  Zn12  1  0.25000000  0.48617637  0.59361791  1
  Zn  Zn13  1  0.25000000  0.57021358  0.07250955  1
  Zn  Zn14  1  0.75000000  0.01382363  0.09361791  1
  Zn  Zn15  1  0.75000000  0.42978642  0.92749045  1
  Te  Te16  1  0.75000000  0.35987441  0.66065149  1
  Te  Te17  1  0.75000000  0.85987441  0.83934851  1
  Te  Te18  1  0.75000000  0.72540078  0.04885013  1
  Te  Te19  1  0.25000000  0.64012559  0.33934851  1
  Te  Te20  1  0.25000000  0.77459922  0.54885013  1
  Te  Te21  1  0.25000000  0.27459922  0.95114987  1
  Te  Te22  1  0.75000000  0.22540078  0.45114987  1
  Te  Te23  1  0.25000000  0.14012559  0.16065149  1
  Cl  Cl24  1  0.25000000  0.87562027  0.99523448  1
  Cl  Cl25  1  0.75000000  0.93980614  0.45971966  1
  Cl  Cl26  1  0.25000000  0.44060710  0.15477851  1
  Cl  Cl27  1  0.25000000  0.19413262  0.74070494  1
  Cl  Cl28  1  0.25000000  0.56019386  0.95971966  1
  Cl  Cl29  1  0.75000000  0.05939290  0.65477851  1
  Cl  Cl30  1  0.75000000  0.12437973  0.00476552  1
  Cl  Cl31  1  0.25000000  0.06019386  0.54028034  1
  Cl  Cl32  1  0.25000000  0.94060710  0.34522149  1
  Cl  Cl33  1  0.75000000  0.43980614  0.04028034  1
  Cl  Cl34  1  0.75000000  0.30586738  0.24070494  1
  Cl  Cl35  1  0.75000000  0.55939290  0.84522149  1
  Cl  Cl36  1  0.25000000  0.69413262  0.75929506  1
  Cl  Cl37  1  0.25000000  0.37562027  0.50476552  1
  Cl  Cl38  1  0.75000000  0.80586738  0.25929506  1
  Cl  Cl39  1  0.75000000  0.62437973  0.49523448  1
  O  O40  1  0.00713510  0.33032813  0.89576555  1
  O  O41  1  0.99286490  0.66967187  0.10423445  1
  O  O42  1  0.99286490  0.16967187  0.39576555  1
  O  O43  1  0.99359463  0.96439541  0.83879675  1
  O  O44  1  0.25000000  0.16083385  0.25317230  1
  O  O45  1  0.75000000  0.33916615  0.75317230  1
  O  O46  1  0.99359463  0.46439541  0.66120325  1
  O  O47  1  0.25000000  0.14179443  0.90734504  1
  O  O48  1  0.75000000  0.85820557  0.09265496  1
  O  O49  1  0.49286490  0.33032813  0.89576555  1
  O  O50  1  0.75000000  0.83916615  0.74682770  1
  O  O51  1  0.50713510  0.16967187  0.39576555  1
  O  O52  1  0.50640537  0.96439541  0.83879675  1
  O  O53  1  0.25000000  0.66083385  0.24682770  1
  O  O54  1  0.75000000  0.35820557  0.40734504  1
  O  O55  1  0.50713510  0.66967187  0.10423445  1
  O  O56  1  0.00640537  0.03560459  0.16120325  1
  O  O57  1  0.49359463  0.53560459  0.33879675  1
  O  O58  1  0.50640537  0.46439541  0.66120325  1
  O  O59  1  0.25000000  0.64179443  0.59265496  1
  O  O60  1  0.00713510  0.83032813  0.60423445  1
  O  O61  1  0.49286490  0.83032813  0.60423445  1
  O  O62  1  0.00640537  0.53560459  0.33879675  1
  O  O63  1  0.49359463  0.03560459  0.16120325  1
