# generated using pymatgen
data_Li9Mn2Co5O16
_symmetry_space_group_name_H-M   'P 1'
_cell_length_a   2.87899999
_cell_length_b   9.87487424
_cell_length_c   10.37344635
_cell_angle_alpha   83.25008905
_cell_angle_beta   89.99999968
_cell_angle_gamma   81.61790053
_symmetry_Int_Tables_number   1
_chemical_formula_structural   Li9Mn2Co5O16
_chemical_formula_sum   'Li9 Mn2 Co5 O16'
_cell_volume   289.69793158
_cell_formula_units_Z   1
loop_
 _symmetry_equiv_pos_site_id
 _symmetry_equiv_pos_as_xyz
  1  'x, y, z'
loop_
 _atom_site_type_symbol
 _atom_site_label
 _atom_site_symmetry_multiplicity
 _atom_site_fract_x
 _atom_site_fract_y
 _atom_site_fract_z
 _atom_site_occupancy
  Li  Li0  1  0.36816146  0.26367707  0.07083410  1
  Li  Li1  1  0.13186842  0.73626316  0.18191670  1
  Li  Li2  1  0.87450485  0.25099029  0.30609498  1
  Li  Li3  1  0.62615772  0.74768456  0.43089470  1
  Li  Li4  1  0.37419455  0.25161089  0.56097829  1
  Li  Li5  1  0.12587636  0.74824729  0.68851251  1
  Li  Li6  1  0.87279306  0.25441389  0.81758656  1
  Li  Li7  1  0.62651249  0.74697503  0.94216904  1
  Li  Li8  1  0.74987002  0.50025996  0.12515179  1
  Mn  Mn9  1  0.99826811  0.00346377  0.00056287  1
  Mn  Mn10  1  0.74990593  0.50018814  0.62489411  1
  Co  Co11  1  0.50061853  0.99876295  0.25392533  1
  Co  Co12  1  0.25381692  0.49236616  0.35526401  1
  Co  Co13  1  0.00161392  0.99677216  0.50030295  1
  Co  Co14  1  0.49951868  0.00096263  0.74629077  1
  Co  Co15  1  0.24620929  0.50758143  0.89484244  1
  O  O16  1  0.44287752  0.11424496  0.91595712  1
  O  O17  1  0.18838322  0.62323357  0.01798099  1
  O  O18  1  0.94269626  0.11460747  0.16337713  1
  O  O19  1  0.69125277  0.61749446  0.28998131  1
  O  O20  1  0.44668868  0.10662263  0.41425109  1
  O  O21  1  0.19243316  0.61513368  0.54675916  1
  O  O22  1  0.94433204  0.11133592  0.66472220  1
  O  O23  1  0.69828757  0.60342487  0.77496146  1
  O  O24  1  0.31142316  0.37715367  0.23213196  1
  O  O25  1  0.05838222  0.88323556  0.33779985  1
  O  O26  1  0.80165558  0.39668883  0.47515000  1
  O  O27  1  0.55554491  0.88891018  0.58487188  1
  O  O28  1  0.30778828  0.38442344  0.70364912  1
  O  O29  1  0.05357900  0.89284200  0.83325147  1
  O  O30  1  0.80893389  0.38213222  0.95917068  1
  O  O31  1  0.55585143  0.88829714  0.08576345  1
