# generated using pymatgen
data_TiTlPO5
_symmetry_space_group_name_H-M   'P 1'
_cell_length_a   6.57824390
_cell_length_b   10.64558417
_cell_length_c   13.10809376
_cell_angle_alpha   90.00000000
_cell_angle_beta   90.00000000
_cell_angle_gamma   90.00000000
_symmetry_Int_Tables_number   1
_chemical_formula_structural   TiTlPO5
_chemical_formula_sum   'Ti8 Tl8 P8 O40'
_cell_volume   917.94996352
_cell_formula_units_Z   8
loop_
 _symmetry_equiv_pos_site_id
 _symmetry_equiv_pos_as_xyz
  1  'x, y, z'
loop_
 _atom_site_type_symbol
 _atom_site_label
 _atom_site_symmetry_multiplicity
 _atom_site_fract_x
 _atom_site_fract_y
 _atom_site_fract_z
 _atom_site_occupancy
  Ti  Ti0  1  0.25000000  0.75000000  0.88056589  1
  Ti  Ti1  1  0.75000000  0.75000000  0.38056589  1
  Ti  Ti2  1  0.75000000  0.25000000  0.11943411  1
  Ti  Ti3  1  0.50000000  0.50000000  0.00000000  1
  Ti  Ti4  1  0.25000000  0.25000000  0.61943411  1
  Ti  Ti5  1  0.00000000  0.00000000  0.50000000  1
  Ti  Ti6  1  0.50000000  0.50000000  0.50000000  1
  Ti  Ti7  1  0.00000000  0.00000000  0.00000000  1
  Tl  Tl8  1  0.04725290  0.36534702  0.35638116  1
  Tl  Tl9  1  0.95274710  0.36534702  0.85638116  1
  Tl  Tl10  1  0.95274710  0.63465298  0.64361884  1
  Tl  Tl11  1  0.45274710  0.86534702  0.14361884  1
  Tl  Tl12  1  0.45274710  0.13465298  0.35638116  1
  Tl  Tl13  1  0.04725290  0.63465298  0.14361884  1
  Tl  Tl14  1  0.54725290  0.13465298  0.85638116  1
  Tl  Tl15  1  0.54725290  0.86534702  0.64361884  1
  P  P16  1  0.58482993  0.50000000  0.25000000  1
  P  P17  1  0.41517007  0.50000000  0.75000000  1
  P  P18  1  0.08482993  0.00000000  0.75000000  1
  P  P19  1  0.75000000  0.75000000  0.93036508  1
  P  P20  1  0.91517007  0.00000000  0.25000000  1
  P  P21  1  0.75000000  0.25000000  0.56963492  1
  P  P22  1  0.25000000  0.75000000  0.43036508  1
  P  P23  1  0.25000000  0.25000000  0.06963492  1
  O  O24  1  0.45035175  0.48028331  0.34665399  1
  O  O25  1  0.70857031  0.63548146  0.00200794  1
  O  O26  1  0.20857031  0.86451854  0.50200794  1
  O  O27  1  0.72043451  0.61797040  0.26410975  1
  O  O28  1  0.29142969  0.36451854  0.99799206  1
  O  O29  1  0.95035175  0.98028331  0.65334601  1
  O  O30  1  0.56011578  0.22121316  0.63535734  1
  O  O31  1  0.06011578  0.27878684  0.13535734  1
  O  O32  1  0.77956549  0.88202960  0.26410975  1
  O  O33  1  0.93988422  0.27878684  0.63535734  1
  O  O34  1  0.79690188  0.87674799  0.47223674  1
  O  O35  1  0.54964825  0.48028331  0.84665399  1
  O  O36  1  0.93988422  0.72121316  0.86464266  1
  O  O37  1  0.70309812  0.62325201  0.47223674  1
  O  O38  1  0.22043451  0.88202960  0.76410975  1
  O  O39  1  0.27956549  0.61797040  0.76410975  1
  O  O40  1  0.56011578  0.77878684  0.86464266  1
  O  O41  1  0.70309812  0.37674799  0.02776326  1
  O  O42  1  0.20309812  0.12325201  0.52776326  1
  O  O43  1  0.04964825  0.01971669  0.34665399  1
  O  O44  1  0.79690188  0.12325201  0.02776326  1
  O  O45  1  0.20857031  0.13548146  0.99799206  1
  O  O46  1  0.79142969  0.13548146  0.49799206  1
  O  O47  1  0.04964825  0.98028331  0.15334601  1
  O  O48  1  0.70857031  0.36451854  0.49799206  1
  O  O49  1  0.43988422  0.22121316  0.13535734  1
  O  O50  1  0.79142969  0.86451854  0.00200794  1
  O  O51  1  0.45035175  0.51971669  0.15334601  1
  O  O52  1  0.29690188  0.62325201  0.97223674  1
  O  O53  1  0.06011578  0.72121316  0.36464266  1
  O  O54  1  0.72043451  0.38202960  0.23589025  1
  O  O55  1  0.22043451  0.11797040  0.73589025  1
  O  O56  1  0.43988422  0.77878684  0.36464266  1
  O  O57  1  0.54964825  0.51971669  0.65334601  1
  O  O58  1  0.77956549  0.11797040  0.23589025  1
  O  O59  1  0.20309812  0.87674799  0.97223674  1
  O  O60  1  0.27956549  0.38202960  0.73589025  1
  O  O61  1  0.95035175  0.01971669  0.84665399  1
  O  O62  1  0.29142969  0.63548146  0.50200794  1
  O  O63  1  0.29690188  0.37674799  0.52776326  1
