# generated using pymatgen
data_K3Ta2S11
_symmetry_space_group_name_H-M   'P 1'
_cell_length_a   7.79314285
_cell_length_b   8.97106212
_cell_length_c   25.12129038
_cell_angle_alpha   90.00000000
_cell_angle_beta   99.95048336
_cell_angle_gamma   90.00000000
_symmetry_Int_Tables_number   1
_chemical_formula_structural   K3Ta2S11
_chemical_formula_sum   'K12 Ta8 S44'
_cell_volume   1729.87975922
_cell_formula_units_Z   4
loop_
 _symmetry_equiv_pos_site_id
 _symmetry_equiv_pos_as_xyz
  1  'x, y, z'
loop_
 _atom_site_type_symbol
 _atom_site_label
 _atom_site_symmetry_multiplicity
 _atom_site_fract_x
 _atom_site_fract_y
 _atom_site_fract_z
 _atom_site_occupancy
  K  K0  1  0.69708786  0.76388085  0.48937797  1
  K  K1  1  0.30291214  0.26388085  0.01062203  1
  K  K2  1  0.76703675  0.24702306  0.67030071  1
  K  K3  1  0.30291214  0.23611915  0.51062203  1
  K  K4  1  0.69708786  0.73611915  0.98937797  1
  K  K5  1  0.73728661  0.71236788  0.18503818  1
  K  K6  1  0.73728661  0.78763212  0.68503818  1
  K  K7  1  0.23296325  0.74702306  0.82969929  1
  K  K8  1  0.76703675  0.25297694  0.17030071  1
  K  K9  1  0.26271339  0.21236788  0.31496182  1
  K  K10  1  0.26271339  0.28763212  0.81496182  1
  K  K11  1  0.23296325  0.75297694  0.32969929  1
  Ta  Ta12  1  0.72769607  0.32651970  0.92201058  1
  Ta  Ta13  1  0.27230393  0.67348030  0.07798942  1
  Ta  Ta14  1  0.82403450  0.46009301  0.33142177  1
  Ta  Ta15  1  0.27230393  0.82651970  0.57798942  1
  Ta  Ta16  1  0.82403450  0.03990699  0.83142177  1
  Ta  Ta17  1  0.17596550  0.53990699  0.66857823  1
  Ta  Ta18  1  0.72769607  0.17348030  0.42201058  1
  Ta  Ta19  1  0.17596550  0.96009301  0.16857823  1
  S  S20  1  0.50264124  0.51704698  0.08589546  1
  S  S21  1  0.67490562  0.37606326  0.48311102  1
  S  S22  1  1.00437222  0.97404038  0.23231111  1
  S  S23  1  0.24954235  0.68052203  0.17694832  1
  S  S24  1  0.46897530  0.53104726  0.72403263  1
  S  S25  1  0.50264124  0.98295302  0.58589546  1
  S  S26  1  0.06450121  0.94883523  0.62704076  1
  S  S27  1  0.32509438  0.62393674  0.51688898  1
  S  S28  1  0.93549879  0.05116477  0.37295924  1
  S  S29  1  0.93549879  0.44883523  0.87295924  1
  S  S30  1  0.98002584  0.63534806  0.58956236  1
  S  S31  1  0.67490562  0.12393674  0.98311102  1
  S  S32  1  0.75045765  0.31947797  0.82305168  1
  S  S33  1  0.42837460  0.58832529  0.59850642  1
  S  S34  1  -0.00437222  0.47404038  0.26768889  1
  S  S35  1  -0.00437222  0.02595962  0.76768889  1
  S  S36  1  0.46897530  0.96895274  0.22403263  1
  S  S37  1  1.00437222  0.52595962  0.73231111  1
  S  S38  1  0.02290491  0.09482388  0.09027950  1
  S  S39  1  0.62792851  0.82516229  0.80726210  1
  S  S40  1  0.91515424  0.08704588  0.50742454  1
  S  S41  1  0.42837460  0.91167471  0.09850642  1
  S  S42  1  0.91515424  0.41295412  0.00742454  1
  S  S43  1  0.06450121  0.55116477  0.12704076  1
  S  S44  1  0.08484576  0.91295412  0.49257546  1
  S  S45  1  0.01997416  0.36465194  0.41043764  1
  S  S46  1  0.53102470  0.46895274  0.27596737  1
  S  S47  1  0.32509438  0.87606326  0.01688898  1
  S  S48  1  0.75045765  0.18052203  0.32305168  1
  S  S49  1  0.37207149  0.17483771  0.19273790  1
  S  S50  1  0.24954235  0.81947797  0.67694832  1
  S  S51  1  0.02290491  0.40517612  0.59027950  1
  S  S52  1  0.57162540  0.08832529  0.90149358  1
  S  S53  1  0.62792851  0.67483771  0.30726210  1
  S  S54  1  0.49735876  0.01704698  0.41410454  1
  S  S55  1  0.98002584  0.86465194  0.08956236  1
  S  S56  1  0.37207149  0.32516229  0.69273790  1
  S  S57  1  0.53102470  0.03104726  0.77596737  1
  S  S58  1  0.01997416  0.13534806  0.91043764  1
  S  S59  1  0.08484576  0.58704588  0.99257546  1
  S  S60  1  0.49735876  0.48295302  0.91410454  1
  S  S61  1  0.97709509  0.90517612  0.90972050  1
  S  S62  1  0.57162540  0.41167471  0.40149358  1
  S  S63  1  0.97709509  0.59482388  0.40972050  1
