# generated using pymatgen
data_Ba3Lu(BO2)9
_symmetry_space_group_name_H-M   'P 1'
_cell_length_a   7.25957093
_cell_length_b   7.25957112
_cell_length_c   17.26634728
_cell_angle_alpha   90.00000000
_cell_angle_beta   90.00000000
_cell_angle_gamma   119.99999913
_symmetry_Int_Tables_number   1
_chemical_formula_structural   Ba3Lu(BO2)9
_chemical_formula_sum   'Ba6 Lu2 B18 O36'
_cell_volume   788.04864077
_cell_formula_units_Z   2
loop_
 _symmetry_equiv_pos_site_id
 _symmetry_equiv_pos_as_xyz
  1  'x, y, z'
loop_
 _atom_site_type_symbol
 _atom_site_label
 _atom_site_symmetry_multiplicity
 _atom_site_fract_x
 _atom_site_fract_y
 _atom_site_fract_z
 _atom_site_occupancy
  Ba  Ba0  1  0.33333300  0.66666700  0.86905623  1
  Ba  Ba1  1  0.00000000  0.00000000  0.75000000  1
  Ba  Ba2  1  0.33333300  0.66666700  0.63094377  1
  Ba  Ba3  1  0.66666700  0.33333300  0.13094377  1
  Ba  Ba4  1  0.66666700  0.33333300  0.36905623  1
  Ba  Ba5  1  0.00000000  0.00000000  0.25000000  1
  Lu  Lu6  1  0.00000000  0.00000000  0.00000000  1
  Lu  Lu7  1  0.00000000  0.00000000  0.50000000  1
  B  B8  1  0.44805145  0.28110023  0.58012768  1
  B  B9  1  0.37782150  0.49481143  0.25000000  1
  B  B10  1  0.88301007  0.37782150  0.75000000  1
  B  B11  1  0.28110023  0.83304878  0.41987232  1
  B  B12  1  0.83304878  0.55194855  0.91987232  1
  B  B13  1  0.71889977  0.16695122  0.91987232  1
  B  B14  1  0.71889977  0.16695122  0.58012768  1
  B  B15  1  0.62217850  0.50518857  0.75000000  1
  B  B16  1  0.16695122  0.44805145  0.08012768  1
  B  B17  1  0.50518857  0.88301007  0.25000000  1
  B  B18  1  0.55194855  0.71889977  0.41987232  1
  B  B19  1  0.49481143  0.11698993  0.75000000  1
  B  B20  1  0.11698993  0.62217850  0.25000000  1
  B  B21  1  0.44805145  0.28110023  0.91987232  1
  B  B22  1  0.16695122  0.44805145  0.41987232  1
  B  B23  1  0.28110023  0.83304878  0.08012768  1
  B  B24  1  0.55194855  0.71889977  0.08012768  1
  B  B25  1  0.83304878  0.55194855  0.58012768  1
  O  O26  1  0.49446610  0.87799773  0.08062926  1
  O  O27  1  0.87799773  0.38353163  0.58062926  1
  O  O28  1  0.49446610  0.87799773  0.41937074  1
  O  O29  1  0.24710765  0.23897711  0.92145402  1
  O  O30  1  0.58714250  0.66818959  0.75000000  1
  O  O31  1  0.61646837  0.49446610  0.91937074  1
  O  O32  1  0.50553390  0.12200227  0.58062926  1
  O  O33  1  0.99186946  0.75289235  0.57854598  1
  O  O34  1  0.12200227  0.61646837  0.41937074  1
  O  O35  1  0.33181041  0.91895291  0.75000000  1
  O  O36  1  0.75289235  0.76102289  0.07854598  1
  O  O37  1  0.00813054  0.24710765  0.07854598  1
  O  O38  1  0.54223163  0.70896638  0.25000000  1
  O  O39  1  0.29103362  0.83326525  0.25000000  1
  O  O40  1  0.08104709  0.41285750  0.75000000  1
  O  O41  1  0.87799773  0.38353163  0.91937074  1
  O  O42  1  0.76102289  0.00813054  0.57854598  1
  O  O43  1  0.91895291  0.58714250  0.25000000  1
  O  O44  1  0.38353163  0.50553390  0.08062926  1
  O  O45  1  0.12200227  0.61646837  0.08062926  1
  O  O46  1  0.16673475  0.45776837  0.25000000  1
  O  O47  1  0.23897711  0.99186946  0.07854598  1
  O  O48  1  0.76102289  0.00813054  0.92145402  1
  O  O49  1  0.99186946  0.75289235  0.92145402  1
  O  O50  1  0.00813054  0.24710765  0.42145402  1
  O  O51  1  0.45776837  0.29103362  0.75000000  1
  O  O52  1  0.66818959  0.08104709  0.25000000  1
  O  O53  1  0.83326525  0.54223163  0.75000000  1
  O  O54  1  0.50553390  0.12200227  0.91937074  1
  O  O55  1  0.61646837  0.49446610  0.58062926  1
  O  O56  1  0.75289235  0.76102289  0.42145402  1
  O  O57  1  0.24710765  0.23897711  0.57854598  1
  O  O58  1  0.23897711  0.99186946  0.42145402  1
  O  O59  1  0.70896638  0.16673475  0.75000000  1
  O  O60  1  0.38353163  0.50553390  0.41937074  1
  O  O61  1  0.41285750  0.33181041  0.25000000  1
