# generated using pymatgen
data_Ba2Cu4Te4Cl4O11
_symmetry_space_group_name_H-M   'P 1'
_cell_length_a   9.38941892
_cell_length_b   9.40654177
_cell_length_c   12.38219651
_cell_angle_alpha   110.91210921
_cell_angle_beta   98.36328954
_cell_angle_gamma   108.20505749
_symmetry_Int_Tables_number   1
_chemical_formula_structural   Ba2Cu4Te4Cl4O11
_chemical_formula_sum   'Ba4 Cu8 Te8 Cl8 O22'
_cell_volume   928.86713470
_cell_formula_units_Z   2
loop_
 _symmetry_equiv_pos_site_id
 _symmetry_equiv_pos_as_xyz
  1  'x, y, z'
loop_
 _atom_site_type_symbol
 _atom_site_label
 _atom_site_symmetry_multiplicity
 _atom_site_fract_x
 _atom_site_fract_y
 _atom_site_fract_z
 _atom_site_occupancy
  Ba  Ba0  1  0.52140794  0.78402000  0.55823141  1
  Ba  Ba1  1  0.98121965  0.71975225  0.44880320  1
  Ba  Ba2  1  0.47859206  0.21598000  0.44176859  1
  Ba  Ba3  1  0.01878035  0.28024775  0.55119680  1
  Cu  Cu4  1  0.69057651  0.55429874  0.01736924  1
  Cu  Cu5  1  0.30942349  0.44570126  0.98263076  1
  Cu  Cu6  1  0.31406405  0.10059236  0.67070222  1
  Cu  Cu7  1  0.76722884  0.90553205  0.98497076  1
  Cu  Cu8  1  0.23277116  0.09446795  0.01502924  1
  Cu  Cu9  1  0.18759547  0.40064139  0.32939766  1
  Cu  Cu10  1  0.81240453  0.59935861  0.67060234  1
  Cu  Cu11  1  0.68593595  0.89940764  0.32929778  1
  Te  Te12  1  0.78176106  0.22142120  0.24121292  1
  Te  Te13  1  0.72858689  0.25480529  0.73884776  1
  Te  Te14  1  0.27141311  0.74519471  0.26115224  1
  Te  Te15  1  0.21823894  0.77857880  0.75878708  1
  Te  Te16  1  0.97436665  0.02475057  0.75791348  1
  Te  Te17  1  0.02563335  0.97524943  0.24208652  1
  Te  Te18  1  0.44850115  0.52353106  0.73638527  1
  Te  Te19  1  0.55149885  0.47646894  0.26361473  1
  Cl  Cl20  1  0.83762251  0.68555277  0.91849194  1
  Cl  Cl21  1  0.16237749  0.31444723  0.08150806  1
  Cl  Cl22  1  0.37170351  0.03929872  0.14155546  1
  Cl  Cl23  1  0.12939907  0.46286320  0.84752841  1
  Cl  Cl24  1  0.62829649  0.96070128  0.85844454  1
  Cl  Cl25  1  0.87060093  0.53713680  0.15247159  1
  Cl  Cl26  1  0.53072505  0.69935828  0.08262694  1
  Cl  Cl27  1  0.46927495  0.30064172  0.91737306  1
  O  O28  1  0.87275227  0.04966149  0.16186964  1
  O  O29  1  0.08750499  0.05471502  0.64643661  1
  O  O30  1  0.22865313  0.63557570  0.36247386  1
  O  O31  1  0.80618088  0.09256966  0.65503692  1
  O  O32  1  0.19381912  0.90743034  0.34496308  1
  O  O33  1  0.32922615  0.29508207  0.63446658  1
  O  O34  1  0.91249501  0.94528498  0.35356339  1
  O  O35  1  0.77134687  0.36442430  0.63752614  1
  O  O36  1  0.97887898  0.38148178  0.35290782  1
  O  O37  1  0.16573971  0.19573861  0.34987125  1
  O  O38  1  0.30829285  0.58987461  0.65459173  1
  O  O39  1  0.41680356  0.45208743  0.36225075  1
  O  O40  1  0.12724773  0.95033851  0.83813036  1
  O  O41  1  0.58319644  0.54791257  0.63774925  1
  O  O42  1  0.02112102  0.61851822  0.64709218  1
  O  O43  1  0.83426029  0.80426139  0.65012875  1
  O  O44  1  0.69170715  0.41012539  0.34540827  1
  O  O45  1  0.72285503  0.12867572  0.34992788  1
  O  O46  1  0.48011964  0.88493670  0.35973590  1
  O  O47  1  0.67077385  0.70491793  0.36553342  1
  O  O48  1  0.51988036  0.11506330  0.64026410  1
  O  O49  1  0.27714497  0.87132428  0.65007212  1
