# generated using pymatgen
data_Sr3CePC3O13
_symmetry_space_group_name_H-M   'P 1'
_cell_length_a   6.65766211
_cell_length_b   6.65766186
_cell_length_c   6.65766212
_cell_angle_alpha   99.98873551
_cell_angle_beta   99.98873511
_cell_angle_gamma   99.98873926
_symmetry_Int_Tables_number   1
_chemical_formula_structural   Sr3CePC3O13
_chemical_formula_sum   'Sr3 Ce1 P1 C3 O13'
_cell_volume   279.84549271
_cell_formula_units_Z   1
loop_
 _symmetry_equiv_pos_site_id
 _symmetry_equiv_pos_as_xyz
  1  'x, y, z'
loop_
 _atom_site_type_symbol
 _atom_site_label
 _atom_site_symmetry_multiplicity
 _atom_site_fract_x
 _atom_site_fract_y
 _atom_site_fract_z
 _atom_site_occupancy
  Sr  Sr0  1  0.52589865  0.52589865  0.07911594  1
  Sr  Sr1  1  0.52589865  0.07911594  0.52589865  1
  Sr  Sr2  1  0.07911594  0.52589865  0.52589865  1
  Ce  Ce3  1  0.99988048  0.99988048  0.99988048  1
  P  P4  1  0.57950707  0.57950707  0.57950707  1
  C  C5  1  0.06692222  0.56587742  0.06692222  1
  C  C6  1  0.06692222  0.06692222  0.56587742  1
  C  C7  1  0.56587742  0.06692222  0.06692222  1
  O  O8  1  0.15945839  0.65720464  0.93998863  1
  O  O9  1  0.93998863  0.15945839  0.65720464  1
  O  O10  1  0.11120813  0.11120813  0.39466101  1
  O  O11  1  0.43861960  0.68607874  0.43861960  1
  O  O12  1  0.74454482  0.74454482  0.74454482  1
  O  O13  1  0.65720464  0.93998863  0.15945839  1
  O  O14  1  0.93998863  0.65720464  0.15945839  1
  O  O15  1  0.43861960  0.43861960  0.68607874  1
  O  O16  1  0.11120813  0.39466101  0.11120813  1
  O  O17  1  0.65720464  0.15945839  0.93998863  1
  O  O18  1  0.15945839  0.93998863  0.65720464  1
  O  O19  1  0.68607874  0.43861960  0.43861960  1
  O  O20  1  0.39466101  0.11120813  0.11120813  1
