# generated using pymatgen
data_Mo9O26
_symmetry_space_group_name_H-M   'P 1'
_cell_length_a   4.10694249
_cell_length_b   17.25429671
_cell_length_c   14.90777380
_cell_angle_alpha   95.14774154
_cell_angle_beta   90.00001751
_cell_angle_gamma   90.00001990
_symmetry_Int_Tables_number   1
_chemical_formula_structural   Mo9O26
_chemical_formula_sum   'Mo18 O52'
_cell_volume   1052.13985916
_cell_formula_units_Z   2
loop_
 _symmetry_equiv_pos_site_id
 _symmetry_equiv_pos_as_xyz
  1  'x, y, z'
loop_
 _atom_site_type_symbol
 _atom_site_label
 _atom_site_symmetry_multiplicity
 _atom_site_fract_x
 _atom_site_fract_y
 _atom_site_fract_z
 _atom_site_occupancy
  Mo  Mo0  1  0.41070497  0.58192634  0.45360104  1
  Mo  Mo1  1  0.41070515  0.91807361  0.54639894  1
  Mo  Mo2  1  0.58929503  0.41807366  0.54639896  1
  Mo  Mo3  1  0.58929485  0.08192639  0.45360106  1
  Mo  Mo4  1  0.58214063  0.86783728  0.33519893  1
  Mo  Mo5  1  0.58214043  0.63216274  0.66480108  1
  Mo  Mo6  1  0.41785937  0.13216272  0.66480107  1
  Mo  Mo7  1  0.41785957  0.36783726  0.33519892  1
  Mo  Mo8  1  0.42799848  0.95782067  0.11251674  1
  Mo  Mo9  1  0.42799840  0.54217933  0.88748325  1
  Mo  Mo10  1  0.57200152  0.04217933  0.88748326  1
  Mo  Mo11  1  0.57200160  0.45782067  0.11251675  1
  Mo  Mo12  1  0.41420358  0.66268014  0.22411521  1
  Mo  Mo13  1  0.41420306  0.83731991  0.77588483  1
  Mo  Mo14  1  0.58579642  0.33731986  0.77588479  1
  Mo  Mo15  1  0.58579694  0.16268009  0.22411517  1
  Mo  Mo16  1  0.57207310  0.75000000  0.99999998  1
  Mo  Mo17  1  0.42792690  0.25000000  0.00000002  1
  O  O18  1  0.48846569  0.83487516  0.46046321  1
  O  O19  1  0.48846534  0.66512478  0.53953687  1
  O  O20  1  0.51153431  0.16512484  0.53953679  1
  O  O21  1  0.51153466  0.33487522  0.46046313  1
  O  O22  1  0.50202530  0.96971703  0.42181166  1
  O  O23  1  0.50202528  0.53028291  0.57818836  1
  O  O24  1  0.49797470  0.03028297  0.57818834  1
  O  O25  1  0.49797472  0.46971709  0.42181164  1
  O  O26  1  0.48688761  0.62140333  0.34693557  1
  O  O27  1  0.48688762  0.87859660  0.65306443  1
  O  O28  1  0.51311239  0.37859667  0.65306443  1
  O  O29  1  0.51311238  0.12140340  0.34693557  1
  O  O30  1  0.51170695  0.76914761  0.28638110  1
  O  O31  1  0.51170679  0.73085239  0.71361895  1
  O  O32  1  0.48829305  0.23085239  0.71361890  1
  O  O33  1  0.48829321  0.26914761  0.28638105  1
  O  O34  1  0.50423791  0.92026181  0.23522600  1
  O  O35  1  0.50423766  0.57973820  0.76477399  1
  O  O36  1  0.00454462  0.25000001  0.00000004  1
  O  O37  1  0.99545538  0.74999999  0.99999996  1
  O  O38  1  0.99553972  0.45714494  0.11454448  1
  O  O39  1  0.99553976  0.04285507  0.88545551  1
  O  O40  1  0.00446028  0.54285506  0.88545552  1
  O  O41  1  0.00446024  0.95714493  0.11454449  1
  O  O42  1  0.00891195  0.16478761  0.22854093  1
  O  O43  1  0.00891175  0.33521243  0.77145900  1
  O  O44  1  0.99108805  0.83521239  0.77145907  1
  O  O45  1  0.99108825  0.66478757  0.22854100  1
  O  O46  1  0.99384273  0.37107375  0.33988942  1
  O  O47  1  0.99384259  0.12892626  0.66011055  1
  O  O48  1  0.00615727  0.62892625  0.66011058  1
  O  O49  1  0.00615741  0.87107374  0.33988945  1
  O  O50  1  0.01329969  0.07809698  0.45399737  1
  O  O51  1  0.01329988  0.42190296  0.54600262  1
  O  O52  1  0.98670031  0.92190302  0.54600263  1
  O  O53  1  0.98670012  0.57809704  0.45399738  1
  O  O54  1  0.50000000  0.00000000  0.00000000  1
  O  O55  1  0.50000000  0.50000000  0.00000000  1
  O  O56  1  0.49637701  0.35465999  0.06247646  1
  O  O57  1  0.49637722  0.14534001  0.93752357  1
  O  O58  1  0.50362299  0.64534001  0.93752354  1
  O  O59  1  0.50362278  0.85465999  0.06247643  1
  O  O60  1  0.50737845  0.20620517  0.10991674  1
  O  O61  1  0.50737852  0.29379494  0.89008337  1
  O  O62  1  0.49262155  0.79379483  0.89008326  1
  O  O63  1  0.49262148  0.70620506  0.10991663  1
  O  O64  1  0.50270939  0.05857147  0.17071527  1
  O  O65  1  0.50270958  0.44142860  0.82928463  1
  O  O66  1  0.49729061  0.94142853  0.82928473  1
  O  O67  1  0.49729042  0.55857140  0.17071537  1
  O  O68  1  0.49576234  0.42026180  0.23522601  1
  O  O69  1  0.49576209  0.07973819  0.76477400  1
