# generated using pymatgen
data_ZnNi(PO3)4
_symmetry_space_group_name_H-M   'P 1'
_cell_length_a   7.26149242
_cell_length_b   7.26167692
_cell_length_c   9.81769577
_cell_angle_alpha   98.50399518
_cell_angle_beta   110.05386166
_cell_angle_gamma   109.66528928
_symmetry_Int_Tables_number   1
_chemical_formula_structural   ZnNi(PO3)4
_chemical_formula_sum   'Zn2 Ni2 P8 O24'
_cell_volume   437.18908586
_cell_formula_units_Z   2
loop_
 _symmetry_equiv_pos_site_id
 _symmetry_equiv_pos_as_xyz
  1  'x, y, z'
loop_
 _atom_site_type_symbol
 _atom_site_label
 _atom_site_symmetry_multiplicity
 _atom_site_fract_x
 _atom_site_fract_y
 _atom_site_fract_z
 _atom_site_occupancy
  Ni  Ni0  1  0.50000000  0.50000000  0.50000000  1
  Ni  Ni1  1  0.50000000  0.00000000  0.00000000  1
  Zn  Zn2  1  0.70018462  0.95018445  0.74999622  1
  Zn  Zn3  1  0.29981538  0.04981555  0.25000378  1
  P  P4  1  0.50694872  0.31299765  0.80317814  1
  P  P5  1  0.00984932  0.70378536  0.69680976  1
  P  P6  1  0.49305128  0.68700235  0.19682186  1
  P  P7  1  0.99015068  0.29621464  0.30319024  1
  P  P8  1  0.76803322  0.72859938  0.02236543  1
  P  P9  1  0.20616100  0.74563318  0.47760201  1
  P  P10  1  0.23196678  0.27140062  0.97763457  1
  P  P11  1  0.79383900  0.25436682  0.52239799  1
  O  O12  1  0.31506705  0.31791415  0.84821972  1
  O  O13  1  0.96983596  0.46689090  0.65178251  1
  O  O14  1  0.68493295  0.68208585  0.15178028  1
  O  O15  1  0.03016404  0.53310910  0.34821749  1
  O  O16  1  0.72077257  0.50244791  0.93207834  1
  O  O17  1  0.07034698  0.78873320  0.56790421  1
  O  O18  1  0.27922743  0.49755209  0.06792166  1
  O  O19  1  0.92965302  0.21126680  0.43209579  1
  O  O20  1  0.45853112  0.34146921  0.65065412  1
  O  O21  1  0.19088872  0.80798629  0.84931483  1
  O  O22  1  0.54146888  0.65853079  0.34934588  1
  O  O23  1  0.80911128  0.19201371  0.15068517  1
  O  O24  1  0.53926358  0.12153391  0.82622527  1
  O  O25  1  0.79530492  0.71297077  0.67378507  1
  O  O26  1  0.46073642  0.87846609  0.17377473  1
  O  O27  1  0.20469508  0.28702923  0.32621493  1
  O  O28  1  0.62413978  0.80854315  0.91799168  1
  O  O29  1  0.39049261  0.70612872  0.58194812  1
  O  O30  1  0.37586022  0.19145685  0.08200832  1
  O  O31  1  0.60950739  0.29387128  0.41805188  1
  O  O32  1  0.00443891  0.84746016  0.09360212  1
  O  O33  1  0.25377112  0.91077977  0.40633108  1
  O  O34  1  0.99556109  0.15253984  0.90639788  1
  O  O35  1  0.74622888  0.08922023  0.59366892  1
