# generated using pymatgen
data_Li9Mn2Co5O16
_symmetry_space_group_name_H-M   'P 1'
_cell_length_a   2.92417214
_cell_length_b   10.71375659
_cell_length_c   10.22894835
_cell_angle_alpha   113.81972791
_cell_angle_beta   89.99999962
_cell_angle_gamma   82.15648146
_symmetry_Int_Tables_number   1
_chemical_formula_structural   Li9Mn2Co5O16
_chemical_formula_sum   'Li9 Mn2 Co5 O16'
_cell_volume   289.88443151
_cell_formula_units_Z   1
loop_
 _symmetry_equiv_pos_site_id
 _symmetry_equiv_pos_as_xyz
  1  'x, y, z'
loop_
 _atom_site_type_symbol
 _atom_site_label
 _atom_site_symmetry_multiplicity
 _atom_site_fract_x
 _atom_site_fract_y
 _atom_site_fract_z
 _atom_site_occupancy
  Li  Li0  1  0.36611334  0.26777331  0.19722526  1
  Li  Li1  1  0.13632895  0.72734210  0.54537962  1
  Li  Li2  1  0.86738608  0.26522784  0.94565140  1
  Li  Li3  1  0.86845111  0.26309778  0.44715140  1
  Li  Li4  1  0.63033227  0.73933546  0.80692426  1
  Li  Li5  1  0.37128176  0.25743647  0.69044450  1
  Li  Li6  1  0.13139825  0.73720349  0.05993735  1
  Li  Li7  1  0.62962313  0.74075374  0.30618342  1
  Li  Li8  1  0.74896431  0.50207138  0.37528986  1
  Mn  Mn9  1  0.99925495  0.00149010  0.00069277  1
  Mn  Mn10  1  0.00057568  0.99884864  0.49999237  1
  Co  Co11  1  0.50106797  0.99786406  0.74910490  1
  Co  Co12  1  0.24699806  0.50600389  0.14261957  1
  Co  Co13  1  0.75152485  0.49695029  0.87402557  1
  Co  Co14  1  0.49871262  0.00257476  0.25081483  1
  Co  Co15  1  0.25152912  0.49694175  0.61144841  1
  O  O16  1  0.44348056  0.11303887  0.97755475  1
  O  O17  1  0.18934103  0.62131793  0.32912122  1
  O  O18  1  0.94669399  0.10661201  0.70510046  1
  O  O19  1  0.94502174  0.10995652  0.20754650  1
  O  O20  1  0.69111786  0.61776429  0.59751574  1
  O  O21  1  0.44416230  0.11167540  0.47820711  1
  O  O22  1  0.19652133  0.60695733  0.83174258  1
  O  O23  1  0.69253899  0.61492203  0.08406039  1
  O  O24  1  0.30949651  0.38100699  0.42657964  1
  O  O25  1  0.05361774  0.89276452  0.79574828  1
  O  O26  1  0.80803054  0.38393893  0.15349852  1
  O  O27  1  0.80716598  0.38566804  0.66223318  1
  O  O28  1  0.55608190  0.88783619  0.02317424  1
  O  O29  1  0.30733198  0.38533603  0.91017978  1
  O  O30  1  0.05287512  0.89424976  0.29325833  1
  O  O31  1  0.55697995  0.88604009  0.52159376  1
