# generated using pymatgen
data_WSBr4
_symmetry_space_group_name_H-M   'P 1'
_cell_length_a   6.48174893
_cell_length_b   10.45984478
_cell_length_c   13.65462467
_cell_angle_alpha   110.64093764
_cell_angle_beta   90.00000000
_cell_angle_gamma   90.00000000
_symmetry_Int_Tables_number   1
_chemical_formula_structural   WSBr4
_chemical_formula_sum   'W4 S4 Br16'
_cell_volume   866.33113299
_cell_formula_units_Z   4
loop_
 _symmetry_equiv_pos_site_id
 _symmetry_equiv_pos_as_xyz
  1  'x, y, z'
loop_
 _atom_site_type_symbol
 _atom_site_label
 _atom_site_symmetry_multiplicity
 _atom_site_fract_x
 _atom_site_fract_y
 _atom_site_fract_z
 _atom_site_occupancy
  W  W0  1  0.93259501  0.23786255  0.04217922  1
  W  W1  1  0.06740499  0.76213745  0.95782078  1
  W  W2  1  0.43259501  0.76213745  0.45782078  1
  W  W3  1  0.56740499  0.23786255  0.54217922  1
  S  S4  1  0.26353103  0.61360702  0.97834874  1
  S  S5  1  0.23646897  0.61360702  0.47834874  1
  S  S6  1  0.76353103  0.38639298  0.52165126  1
  S  S7  1  0.73646897  0.38639298  0.02165126  1
  Br  Br8  1  0.72134444  0.19660463  0.69306038  1
  Br  Br9  1  0.80987646  0.79940802  0.09836920  1
  Br  Br10  1  0.23878165  0.97597606  0.07139440  1
  Br  Br11  1  0.77865556  0.19660463  0.19306038  1
  Br  Br12  1  0.19820827  0.37586766  0.16392640  1
  Br  Br13  1  0.69820827  0.62413234  0.33607360  1
  Br  Br14  1  0.76121835  0.02402394  0.92860560  1
  Br  Br15  1  0.26121835  0.97597606  0.57139440  1
  Br  Br16  1  0.69012354  0.79940802  0.59836920  1
  Br  Br17  1  0.22134444  0.80339537  0.80693962  1
  Br  Br18  1  0.30179173  0.37586766  0.66392640  1
  Br  Br19  1  0.27865556  0.80339537  0.30693962  1
  Br  Br20  1  0.19012354  0.20059198  0.90163080  1
  Br  Br21  1  0.30987646  0.20059198  0.40163080  1
  Br  Br22  1  0.80179173  0.62413234  0.83607360  1
  Br  Br23  1  0.73878165  0.02402394  0.42860560  1
