# generated using pymatgen
data_LiUPO6
_symmetry_space_group_name_H-M   'P 1'
_cell_length_a   5.12258280
_cell_length_b   10.07427793
_cell_length_c   11.02068881
_cell_angle_alpha   109.20487219
_cell_angle_beta   104.00287807
_cell_angle_gamma   102.71168359
_symmetry_Int_Tables_number   1
_chemical_formula_structural   LiUPO6
_chemical_formula_sum   'Li4 U4 P4 O24'
_cell_volume   492.47358374
_cell_formula_units_Z   4
loop_
 _symmetry_equiv_pos_site_id
 _symmetry_equiv_pos_as_xyz
  1  'x, y, z'
loop_
 _atom_site_type_symbol
 _atom_site_label
 _atom_site_symmetry_multiplicity
 _atom_site_fract_x
 _atom_site_fract_y
 _atom_site_fract_z
 _atom_site_occupancy
  Li  Li0  1  0.73947269  0.90723978  0.30467936  1
  Li  Li1  1  0.68313811  0.38333539  0.23617637  1
  Li  Li2  1  0.31686189  0.61666461  0.76382363  1
  Li  Li3  1  0.26052731  0.09276022  0.69532064  1
  U  U4  1  0.02675642  0.27886724  0.51641893  1
  U  U5  1  0.97324358  0.72113276  0.48358107  1
  U  U6  1  0.02984056  0.79329222  0.02067379  1
  U  U7  1  0.97015944  0.20670778  0.97932621  1
  P  P8  1  0.65806002  0.88936885  0.73510021  1
  P  P9  1  0.34193998  0.11063115  0.26489979  1
  P  P10  1  0.27517160  0.58546661  0.22143171  1
  P  P11  1  0.72482840  0.41453339  0.77856829  1
  O  O12  1  0.60024314  0.03956883  0.76588201  1
  O  O13  1  0.20405286  0.18342961  0.87865321  1
  O  O14  1  0.43345417  0.29665449  0.67537037  1
  O  O15  1  0.74005912  0.23350034  0.08183921  1
  O  O16  1  0.05338113  0.56795362  0.29553991  1
  O  O17  1  0.15555993  0.89054100  0.47034754  1
  O  O18  1  0.79594714  0.81657039  0.12134679  1
  O  O19  1  0.14374479  0.12570393  0.35149745  1
  O  O20  1  0.56654583  0.70334551  0.32462963  1
  O  O21  1  0.81300334  0.89839667  0.87891155  1
  O  O22  1  0.94661887  0.43204638  0.70446009  1
  O  O23  1  0.17012070  0.64177451  0.11058932  1
  O  O24  1  0.76977292  0.55442699  0.49044024  1
  O  O25  1  0.25994088  0.76649966  0.91816079  1
  O  O26  1  0.18699666  0.10160333  0.12108845  1
  O  O27  1  0.68393920  0.56789586  0.84364440  1
  O  O28  1  0.82987930  0.35822549  0.88941068  1
  O  O29  1  0.31606080  0.43210414  0.15635560  1
  O  O30  1  0.85625521  0.87429607  0.64850255  1
  O  O31  1  0.39975686  0.96043117  0.23411799  1
  O  O32  1  0.23022708  0.44557301  0.50955976  1
  O  O33  1  0.37605720  0.75620213  0.66142607  1
  O  O34  1  0.84444007  0.10945900  0.52965246  1
  O  O35  1  0.62394280  0.24379787  0.33857393  1
