# generated using pymatgen
data_Na2HoMoPO8
_symmetry_space_group_name_H-M   'P 1'
_cell_length_a   6.93204992
_cell_length_b   11.48085866
_cell_length_c   11.48085851
_cell_angle_alpha   64.11985781
_cell_angle_beta   72.42848440
_cell_angle_gamma   72.42848633
_symmetry_Int_Tables_number   1
_chemical_formula_structural   Na2HoMoPO8
_chemical_formula_sum   'Na8 Ho4 Mo4 P4 O32'
_cell_volume   768.14986168
_cell_formula_units_Z   4
loop_
 _symmetry_equiv_pos_site_id
 _symmetry_equiv_pos_as_xyz
  1  'x, y, z'
loop_
 _atom_site_type_symbol
 _atom_site_label
 _atom_site_symmetry_multiplicity
 _atom_site_fract_x
 _atom_site_fract_y
 _atom_site_fract_z
 _atom_site_occupancy
  Na  Na0  1  0.64226552  0.29060819  0.90310097  1
  Na  Na1  1  0.14226552  0.40310097  0.79060819  1
  Na  Na2  1  0.16402532  0.79060819  0.40310097  1
  Na  Na3  1  0.35773448  0.70939181  0.09689903  1
  Na  Na4  1  0.33597468  0.09689903  0.70939181  1
  Na  Na5  1  0.66402532  0.90310097  0.29060819  1
  Na  Na6  1  0.85773448  0.59689903  0.20939181  1
  Na  Na7  1  0.83597468  0.20939181  0.59689903  1
  Ho  Ho8  1  0.25000000  0.17798585  0.32201415  1
  Ho  Ho9  1  0.75000000  0.82201415  0.67798585  1
  Ho  Ho10  1  0.25000000  0.67798585  0.82201415  1
  Ho  Ho11  1  0.75000000  0.32201415  0.17798585  1
  Mo  Mo12  1  0.82214502  0.92785498  0.92785498  1
  Mo  Mo13  1  0.32214502  0.42785498  0.42785498  1
  Mo  Mo14  1  0.17785498  0.07214502  0.07214502  1
  Mo  Mo15  1  0.67785498  0.57214502  0.57214502  1
  P  P16  1  0.25000000  0.43092783  0.06907217  1
  P  P17  1  0.75000000  0.56907217  0.93092783  1
  P  P18  1  0.75000000  0.06907217  0.43092783  1
  P  P19  1  0.25000000  0.93092783  0.56907217  1
  O  O20  1  0.66914387  0.06108276  0.57498915  1
  O  O21  1  0.41060907  0.60437171  0.65418260  1
  O  O22  1  0.72596712  0.86196543  0.10169987  1
  O  O23  1  0.06707302  0.35939473  0.15667207  1
  O  O24  1  0.16914387  0.07498915  0.56108276  1
  O  O25  1  0.19478422  0.57498915  0.06108276  1
  O  O26  1  0.27403288  0.13803457  0.89830013  1
  O  O27  1  0.80521578  0.42501085  0.93891724  1
  O  O28  1  0.33085613  0.93891724  0.42501085  1
  O  O29  1  0.66916338  0.89562829  0.84581740  1
  O  O30  1  0.58313983  0.14060527  0.34332793  1
  O  O31  1  0.43292698  0.34332793  0.14060527  1
  O  O32  1  0.22596712  0.60169987  0.36196543  1
  O  O33  1  0.16916338  0.34581740  0.39562829  1
  O  O34  1  0.56707302  0.65667207  0.85939473  1
  O  O35  1  0.68963242  0.63803457  0.39830013  1
  O  O36  1  0.31036758  0.36196543  0.60169987  1
  O  O37  1  0.30521578  0.43891724  0.92501085  1
  O  O38  1  0.91686017  0.15667207  0.35939473  1
  O  O39  1  0.77403288  0.39830013  0.63803457  1
  O  O40  1  0.83085613  0.92501085  0.43891724  1
  O  O41  1  0.91060907  0.15418260  0.10437171  1
  O  O42  1  0.41686017  0.85939473  0.65667207  1
  O  O43  1  0.08313983  0.84332793  0.64060527  1
  O  O44  1  0.33083662  0.10437171  0.15418260  1
  O  O45  1  0.58939093  0.39562829  0.34581740  1
  O  O46  1  0.69478422  0.56108276  0.07498915  1
  O  O47  1  0.83083662  0.65418260  0.60437171  1
  O  O48  1  0.81036758  0.10169987  0.86196543  1
  O  O49  1  0.08939093  0.84581740  0.89562829  1
  O  O50  1  0.93292698  0.64060527  0.84332793  1
  O  O51  1  0.18963242  0.89830013  0.13803457  1
