# generated using pymatgen
data_FePO4
_symmetry_space_group_name_H-M   'P 1'
_cell_length_a   5.60502621
_cell_length_b   7.56730100
_cell_length_c   8.18968631
_cell_angle_alpha   90.00000000
_cell_angle_beta   96.62468453
_cell_angle_gamma   90.00000000
_symmetry_Int_Tables_number   1
_chemical_formula_structural   FePO4
_chemical_formula_sum   'Fe4 P4 O16'
_cell_volume   345.04559187
_cell_formula_units_Z   4
loop_
 _symmetry_equiv_pos_site_id
 _symmetry_equiv_pos_as_xyz
  1  'x, y, z'
loop_
 _atom_site_type_symbol
 _atom_site_label
 _atom_site_symmetry_multiplicity
 _atom_site_fract_x
 _atom_site_fract_y
 _atom_site_fract_z
 _atom_site_occupancy
  Fe  Fe0  1  0.11100519  0.30888502  0.43982273  1
  Fe  Fe1  1  0.38899481  0.80888502  0.06017727  1
  Fe  Fe2  1  0.88899481  0.69111498  0.56017727  1
  Fe  Fe3  1  0.61100519  0.19111498  0.93982273  1
  P  P4  1  0.58576424  0.45471520  0.26981001  1
  P  P5  1  0.41423576  0.54528480  0.73018999  1
  P  P6  1  0.08576424  0.04528480  0.76981001  1
  P  P7  1  0.91423576  0.95471520  0.23018999  1
  O  O8  1  0.87008864  0.85733468  0.38744676  1
  O  O9  1  0.41499976  0.34971326  0.36706054  1
  O  O10  1  0.08500024  0.84971326  0.13293946  1
  O  O11  1  0.49207456  0.64210114  0.23274821  1
  O  O12  1  0.37008864  0.64266532  0.88744676  1
  O  O13  1  0.66645952  0.97316759  0.11563292  1
  O  O14  1  0.62991136  0.35733468  0.11255324  1
  O  O15  1  0.16645952  0.52683241  0.61563292  1
  O  O16  1  0.00792544  0.14210114  0.26725179  1
  O  O17  1  0.12991136  0.14266532  0.61255324  1
  O  O18  1  0.91499976  0.15028674  0.86706054  1
  O  O19  1  0.58500024  0.65028674  0.63293946  1
  O  O20  1  0.83354048  0.47316759  0.38436708  1
  O  O21  1  0.50792544  0.35789886  0.76725179  1
  O  O22  1  0.99207456  0.85789886  0.73274821  1
  O  O23  1  0.33354048  0.02683241  0.88436708  1
