# generated using pymatgen
data_Rb2Mo2O7
_symmetry_space_group_name_H-M   'P 1'
_cell_length_a   8.41308239
_cell_length_b   8.41308259
_cell_length_c   12.18651774
_cell_angle_alpha   90.00000000
_cell_angle_beta   90.00000000
_cell_angle_gamma   102.79279064
_symmetry_Int_Tables_number   1
_chemical_formula_structural   Rb2Mo2O7
_chemical_formula_sum   'Rb8 Mo8 O28'
_cell_volume   841.15003733
_cell_formula_units_Z   4
loop_
 _symmetry_equiv_pos_site_id
 _symmetry_equiv_pos_as_xyz
  1  'x, y, z'
loop_
 _atom_site_type_symbol
 _atom_site_label
 _atom_site_symmetry_multiplicity
 _atom_site_fract_x
 _atom_site_fract_y
 _atom_site_fract_z
 _atom_site_occupancy
  Rb  Rb0  1  0.70685409  0.27956936  0.25000000  1
  Rb  Rb1  1  0.27956936  0.70685409  0.75000000  1
  Rb  Rb2  1  0.23437362  0.72612443  0.25000000  1
  Rb  Rb3  1  0.99550302  0.99550302  0.00000000  1
  Rb  Rb4  1  0.72612443  0.23437362  0.75000000  1
  Rb  Rb5  1  0.22301279  0.25256334  0.25000000  1
  Rb  Rb6  1  0.99550302  0.99550302  0.50000000  1
  Rb  Rb7  1  0.25256334  0.22301279  0.75000000  1
  Mo  Mo8  1  0.48137368  0.97520580  0.48839334  1
  Mo  Mo9  1  0.75754180  0.81589501  0.25000000  1
  Mo  Mo10  1  0.97520580  0.48137368  0.51160666  1
  Mo  Mo11  1  0.56378623  0.56378623  0.50000000  1
  Mo  Mo12  1  0.56378623  0.56378623  0.00000000  1
  Mo  Mo13  1  0.48137368  0.97520580  0.01160666  1
  Mo  Mo14  1  0.97520580  0.48137368  0.98839334  1
  Mo  Mo15  1  0.81589501  0.75754180  0.75000000  1
  O  O16  1  0.69855079  0.75638333  0.62393238  1
  O  O17  1  0.68100168  0.09204224  0.03453498  1
  O  O18  1  0.42630454  0.01472664  0.62440431  1
  O  O19  1  0.44142750  0.47752682  0.88975079  1
  O  O20  1  0.47752682  0.44142750  0.11024921  1
  O  O21  1  0.09204224  0.68100168  0.96546502  1
  O  O22  1  0.90357394  0.58518102  0.75000000  1
  O  O23  1  0.74759536  0.46371949  0.96843813  1
  O  O24  1  0.75638333  0.69855079  0.12393238  1
  O  O25  1  0.33741272  0.03483222  0.39970419  1
  O  O26  1  0.01472664  0.42630454  0.37559569  1
  O  O27  1  0.03483222  0.33741272  0.89970419  1
  O  O28  1  0.46371949  0.74759536  0.46843813  1
  O  O29  1  0.97301988  0.94032661  0.75000000  1
  O  O30  1  0.47752682  0.44142750  0.38975079  1
  O  O31  1  0.46371949  0.74759536  0.03156187  1
  O  O32  1  0.68100168  0.09204224  0.46546502  1
  O  O33  1  0.33741272  0.03483222  0.10029581  1
  O  O34  1  0.74759536  0.46371949  0.53156187  1
  O  O35  1  0.42630454  0.01472664  0.87559569  1
  O  O36  1  0.03483222  0.33741272  0.60029581  1
  O  O37  1  0.09204224  0.68100168  0.53453498  1
  O  O38  1  0.44142750  0.47752682  0.61024921  1
  O  O39  1  0.01472664  0.42630454  0.12440431  1
  O  O40  1  0.69855079  0.75638333  0.87606762  1
  O  O41  1  0.75638333  0.69855079  0.37606762  1
  O  O42  1  0.94032661  0.97301988  0.25000000  1
  O  O43  1  0.58518102  0.90357394  0.25000000  1
