# generated using pymatgen
data_NaAl(MoO4)2
_symmetry_space_group_name_H-M   'P 1'
_cell_length_a   5.40895966
_cell_length_b   5.58201681
_cell_length_c   13.53109912
_cell_angle_alpha   89.81871703
_cell_angle_beta   90.00000000
_cell_angle_gamma   118.97963315
_symmetry_Int_Tables_number   1
_chemical_formula_structural   NaAl(MoO4)2
_chemical_formula_sum   'Na2 Al2 Mo4 O16'
_cell_volume   357.38795651
_cell_formula_units_Z   2
loop_
 _symmetry_equiv_pos_site_id
 _symmetry_equiv_pos_as_xyz
  1  'x, y, z'
loop_
 _atom_site_type_symbol
 _atom_site_label
 _atom_site_symmetry_multiplicity
 _atom_site_fract_x
 _atom_site_fract_y
 _atom_site_fract_z
 _atom_site_occupancy
  Na  Na0  1  0.92895220  0.00000000  0.75000000  1
  Na  Na1  1  0.07104780  0.00000000  0.25000000  1
  Al  Al2  1  0.00000000  0.00000000  0.00000000  1
  Al  Al3  1  0.00000000  0.00000000  0.50000000  1
  Mo  Mo4  1  0.63930631  0.33738925  0.62003337  1
  Mo  Mo5  1  0.36069369  0.66261075  0.37996663  1
  Mo  Mo6  1  0.69808294  0.33738925  0.12003337  1
  Mo  Mo7  1  0.30191706  0.66261075  0.87996663  1
  O  O8  1  0.73479461  0.33000884  0.74307439  1
  O  O9  1  0.79497685  0.17373490  0.54923297  1
  O  O10  1  0.37875805  0.17373490  0.04923297  1
  O  O11  1  0.08571473  0.30978380  0.91956292  1
  O  O12  1  0.20502315  0.82626510  0.45076703  1
  O  O13  1  0.10792500  0.85355299  0.89054901  1
  O  O14  1  0.59521423  0.33000884  0.24307439  1
  O  O15  1  0.74562799  0.85355299  0.39054901  1
  O  O16  1  0.40478577  0.66999116  0.75692561  1
  O  O17  1  0.22406906  0.30978380  0.41956292  1
  O  O18  1  0.26520539  0.66999116  0.25692561  1
  O  O19  1  0.91428527  0.69021620  0.08043708  1
  O  O20  1  0.62124195  0.82626510  0.95076703  1
  O  O21  1  0.25437201  0.14644701  0.60945099  1
  O  O22  1  0.89207500  0.14644701  0.10945099  1
  O  O23  1  0.77593094  0.69021620  0.58043708  1
