# generated using pymatgen
data_FePO4
_symmetry_space_group_name_H-M   'P 1'
_cell_length_a   8.92097261
_cell_length_b   9.35021120
_cell_length_c   9.78831440
_cell_angle_alpha   90.00000000
_cell_angle_beta   90.00000000
_cell_angle_gamma   90.00000000
_symmetry_Int_Tables_number   1
_chemical_formula_structural   FePO4
_chemical_formula_sum   'Fe8 P8 O32'
_cell_volume   816.47245383
_cell_formula_units_Z   8
loop_
 _symmetry_equiv_pos_site_id
 _symmetry_equiv_pos_as_xyz
  1  'x, y, z'
loop_
 _atom_site_type_symbol
 _atom_site_label
 _atom_site_symmetry_multiplicity
 _atom_site_fract_x
 _atom_site_fract_y
 _atom_site_fract_z
 _atom_site_occupancy
  Fe  Fe0  1  0.06413056  0.21423343  0.60352000  1
  Fe  Fe1  1  0.43586944  0.78576657  0.10352000  1
  Fe  Fe2  1  0.43586944  0.71423343  0.60352000  1
  Fe  Fe3  1  0.56413056  0.21423343  0.89648000  1
  Fe  Fe4  1  0.06413056  0.28576657  0.10352000  1
  Fe  Fe5  1  0.56413056  0.28576657  0.39648000  1
  Fe  Fe6  1  0.93586944  0.78576657  0.39648000  1
  Fe  Fe7  1  0.93586944  0.71423343  0.89648000  1
  P  P8  1  0.61974282  0.62025933  0.32814367  1
  P  P9  1  0.38025718  0.12025933  0.17185633  1
  P  P10  1  0.11974282  0.87974067  0.67185633  1
  P  P11  1  0.38025718  0.37974067  0.67185633  1
  P  P12  1  0.61974282  0.87974067  0.82814367  1
  P  P13  1  0.88025718  0.37974067  0.82814367  1
  P  P14  1  0.88025718  0.12025933  0.32814367  1
  P  P15  1  0.11974282  0.62025933  0.17185633  1
  O  O16  1  0.60150032  0.69578093  0.18853330  1
  O  O17  1  0.88617721  0.54309711  0.80555547  1
  O  O18  1  0.51016992  0.16800956  0.07707439  1
  O  O19  1  0.48983008  0.66800956  0.42292561  1
  O  O20  1  0.11382279  0.04309711  0.69444453  1
  O  O21  1  0.51016992  0.33199044  0.57707439  1
  O  O22  1  0.98983008  0.83199044  0.57707439  1
  O  O23  1  0.27198078  0.65936643  0.10726014  1
  O  O24  1  0.89849968  0.19578093  0.18853330  1
  O  O25  1  0.01016992  0.33199044  0.92292561  1
  O  O26  1  0.72801922  0.15936643  0.39273986  1
  O  O27  1  0.10150032  0.69578093  0.31146670  1
  O  O28  1  0.39849968  0.19578093  0.31146670  1
  O  O29  1  0.60150032  0.80421907  0.68853330  1
  O  O30  1  0.48983008  0.83199044  0.92292561  1
  O  O31  1  0.22801922  0.15936643  0.10726014  1
  O  O32  1  0.11382279  0.45690289  0.19444453  1
  O  O33  1  0.22801922  0.34063357  0.60726014  1
  O  O34  1  0.01016992  0.16800956  0.42292561  1
  O  O35  1  0.72801922  0.34063357  0.89273986  1
  O  O36  1  0.27198078  0.84063357  0.60726014  1
  O  O37  1  0.38617721  0.95690289  0.19444453  1
  O  O38  1  0.89849968  0.30421907  0.68853330  1
  O  O39  1  0.88617721  0.95690289  0.30555547  1
  O  O40  1  0.77198078  0.84063357  0.89273986  1
  O  O41  1  0.77198078  0.65936643  0.39273986  1
  O  O42  1  0.98983008  0.66800956  0.07707439  1
  O  O43  1  0.61382279  0.04309711  0.80555547  1
  O  O44  1  0.61382279  0.45690289  0.30555547  1
  O  O45  1  0.39849968  0.30421907  0.81146670  1
  O  O46  1  0.38617721  0.54309711  0.69444453  1
  O  O47  1  0.10150032  0.80421907  0.81146670  1
