# generated using pymatgen
data_Na2DyMoPO8
_symmetry_space_group_name_H-M   'P 1'
_cell_length_a   6.95783533
_cell_length_b   11.50284004
_cell_length_c   11.50283930
_cell_angle_alpha   64.16469234
_cell_angle_beta   72.39579278
_cell_angle_gamma   72.39579539
_symmetry_Int_Tables_number   1
_chemical_formula_structural   Na2DyMoPO8
_chemical_formula_sum   'Na8 Dy4 Mo4 P4 O32'
_cell_volume   774.02526382
_cell_formula_units_Z   4
loop_
 _symmetry_equiv_pos_site_id
 _symmetry_equiv_pos_as_xyz
  1  'x, y, z'
loop_
 _atom_site_type_symbol
 _atom_site_label
 _atom_site_symmetry_multiplicity
 _atom_site_fract_x
 _atom_site_fract_y
 _atom_site_fract_z
 _atom_site_occupancy
  Na  Na0  1  0.83685080  0.20933814  0.59716780  1
  Na  Na1  1  0.33685080  0.09716780  0.70933814  1
  Na  Na2  1  0.35664327  0.70933814  0.09716780  1
  Na  Na3  1  0.85664327  0.59716780  0.20933814  1
  Na  Na4  1  0.14335673  0.40283220  0.79066186  1
  Na  Na5  1  0.64335673  0.29066186  0.90283220  1
  Na  Na6  1  0.16314920  0.79066186  0.40283220  1
  Na  Na7  1  0.66314920  0.90283220  0.29066186  1
  Dy  Dy8  1  0.25000000  0.17791676  0.32208324  1
  Dy  Dy9  1  0.75000000  0.82208324  0.67791676  1
  Dy  Dy10  1  0.25000000  0.67791676  0.82208324  1
  Dy  Dy11  1  0.75000000  0.32208324  0.17791676  1
  Mo  Mo12  1  0.82200638  0.92799362  0.92799362  1
  Mo  Mo13  1  0.67799362  0.57200638  0.57200638  1
  Mo  Mo14  1  0.17799362  0.07200638  0.07200638  1
  Mo  Mo15  1  0.32200638  0.42799362  0.42799362  1
  P  P16  1  0.75000000  0.06916508  0.43083492  1
  P  P17  1  0.25000000  0.93083492  0.56916508  1
  P  P18  1  0.25000000  0.43083492  0.06916508  1
  P  P19  1  0.75000000  0.56916508  0.93083492  1
  O  O20  1  0.58362555  0.14035472  0.34357485  1
  O  O21  1  0.33078751  0.93854368  0.42538958  1
  O  O22  1  0.66921249  0.06145632  0.57461042  1
  O  O23  1  0.16939443  0.34641643  0.39575693  1
  O  O24  1  0.30527923  0.43854368  0.92538958  1
  O  O25  1  0.91637445  0.15642515  0.35964528  1
  O  O26  1  0.30959291  0.36209772  0.60155665  1
  O  O27  1  0.93244488  0.64035472  0.84357485  1
  O  O28  1  0.69472077  0.56145632  0.07461042  1
  O  O29  1  0.56755512  0.65642515  0.85964528  1
  O  O30  1  0.91156780  0.15358357  0.10424307  1
  O  O31  1  0.58843220  0.39575693  0.34641643  1
  O  O32  1  0.83078751  0.92538958  0.43854368  1
  O  O33  1  0.72675272  0.86209772  0.10155665  1
  O  O34  1  0.43244488  0.34357485  0.14035472  1
  O  O35  1  0.08843220  0.84641643  0.89575693  1
  O  O36  1  0.69040709  0.63790228  0.39844335  1
  O  O37  1  0.16921249  0.07461042  0.56145632  1
  O  O38  1  0.08362555  0.84357485  0.64035472  1
  O  O39  1  0.41156780  0.60424307  0.65358357  1
  O  O40  1  0.06755512  0.35964528  0.15642515  1
  O  O41  1  0.77324728  0.39844335  0.63790228  1
  O  O42  1  0.19472077  0.57461042  0.06145632  1
  O  O43  1  0.19040709  0.89844335  0.13790228  1
  O  O44  1  0.27324728  0.13790228  0.89844335  1
  O  O45  1  0.33060557  0.10424307  0.15358357  1
  O  O46  1  0.22675272  0.60155665  0.36209772  1
  O  O47  1  0.80527923  0.42538958  0.93854368  1
  O  O48  1  0.66939443  0.89575693  0.84641643  1
  O  O49  1  0.41637445  0.85964528  0.65642515  1
  O  O50  1  0.80959291  0.10155665  0.86209772  1
  O  O51  1  0.83060557  0.65358357  0.60424307  1
