# generated using pymatgen
data_Na2MnP2O7
_symmetry_space_group_name_H-M   'P 1'
_cell_length_a   5.38056836
_cell_length_b   6.66645732
_cell_length_c   9.53521944
_cell_angle_alpha   109.77823530
_cell_angle_beta   95.24319098
_cell_angle_gamma   106.18885854
_symmetry_Int_Tables_number   1
_chemical_formula_structural   Na2MnP2O7
_chemical_formula_sum   'Na4 Mn2 P4 O14'
_cell_volume   302.48611600
_cell_formula_units_Z   2
loop_
 _symmetry_equiv_pos_site_id
 _symmetry_equiv_pos_as_xyz
  1  'x, y, z'
loop_
 _atom_site_type_symbol
 _atom_site_label
 _atom_site_symmetry_multiplicity
 _atom_site_fract_x
 _atom_site_fract_y
 _atom_site_fract_z
 _atom_site_occupancy
  Na  Na0  1  0.34842585  0.13613308  0.72857003  1
  Na  Na1  1  0.65157415  0.86386692  0.27142997  1
  Na  Na2  1  0.87435689  0.21985857  0.96430855  1
  Na  Na3  1  0.12564311  0.78014143  0.03569145  1
  Mn  Mn4  1  0.08888761  0.60045237  0.36288103  1
  Mn  Mn5  1  0.91111239  0.39954763  0.63711897  1
  P  P6  1  0.74331598  0.83743522  0.61101721  1
  P  P7  1  0.25668402  0.16256478  0.38898279  1
  P  P8  1  0.56776771  0.66960002  0.86573635  1
  P  P9  1  0.43223229  0.33039998  0.13426365  1
  O  O10  1  0.73198337  0.50894668  0.83259359  1
  O  O11  1  0.10060580  0.90881300  0.33069898  1
  O  O12  1  0.89939420  0.09118700  0.66930102  1
  O  O13  1  0.62718926  0.82071550  0.75902665  1
  O  O14  1  0.51185378  0.76078935  0.48047201  1
  O  O15  1  0.26801663  0.49105332  0.16740641  1
  O  O16  1  0.48814622  0.23921065  0.51952799  1
  O  O17  1  0.06680203  0.30228915  0.42045964  1
  O  O18  1  0.93319797  0.69771085  0.57954036  1
  O  O19  1  0.33386393  0.15096345  0.97349959  1
  O  O20  1  0.37281074  0.17928450  0.24097335  1
  O  O21  1  0.26968141  0.54561656  0.82118691  1
  O  O22  1  0.73031859  0.45438344  0.17881309  1
  O  O23  1  0.66613607  0.84903655  0.02650041  1
