# generated using pymatgen
data_VAg2PO6
_symmetry_space_group_name_H-M   'P 1'
_cell_length_a   6.34926281
_cell_length_b   6.43455235
_cell_length_c   7.05730056
_cell_angle_alpha   89.97026360
_cell_angle_beta   116.73319836
_cell_angle_gamma   90.00000147
_symmetry_Int_Tables_number   1
_chemical_formula_structural   VAg2PO6
_chemical_formula_sum   'V2 Ag4 P2 O12'
_cell_volume   257.50494301
_cell_formula_units_Z   2
loop_
 _symmetry_equiv_pos_site_id
 _symmetry_equiv_pos_as_xyz
  1  'x, y, z'
loop_
 _atom_site_type_symbol
 _atom_site_label
 _atom_site_symmetry_multiplicity
 _atom_site_fract_x
 _atom_site_fract_y
 _atom_site_fract_z
 _atom_site_occupancy
  V  V0  1  0.61484744  0.08645823  0.22969487  1
  V  V1  1  0.38515256  0.91354177  0.77030513  1
  Ag  Ag2  1  0.36407684  0.61865980  0.23984006  1
  Ag  Ag3  1  0.87576322  0.61865980  0.23984006  1
  Ag  Ag4  1  0.63592316  0.38134020  0.76015994  1
  Ag  Ag5  1  0.12423678  0.38134020  0.76015994  1
  P  P6  1  0.84659106  0.84930796  0.69318111  1
  P  P7  1  0.15340894  0.15069204  0.30681889  1
  O  O8  1  0.51007352  0.79686782  0.02014804  1
  O  O9  1  0.09854258  0.36501306  0.19708415  1
  O  O10  1  0.31526104  0.02347625  0.23746212  1
  O  O11  1  0.30105258  0.71416080  0.60210617  1
  O  O12  1  0.68473896  0.97652375  0.76253788  1
  O  O13  1  0.27687302  0.17378619  0.55374504  1
  O  O14  1  0.92220208  0.02347625  0.23746212  1
  O  O15  1  0.90145742  0.63498694  0.80291585  1
  O  O16  1  0.69894742  0.28583920  0.39789383  1
  O  O17  1  0.48992648  0.20313218  0.97985196  1
  O  O18  1  0.07779792  0.97652375  0.76253788  1
  O  O19  1  0.72312698  0.82621381  0.44625496  1
