# generated using pymatgen
data_Na4Zr(MoO4)4
_symmetry_space_group_name_H-M   'P 1'
_cell_length_a   9.92250567
_cell_length_b   9.92250604
_cell_length_c   9.92250595
_cell_angle_alpha   106.46477787
_cell_angle_beta   110.99503675
_cell_angle_gamma   110.99503357
_symmetry_Int_Tables_number   1
_chemical_formula_structural   Na4Zr(MoO4)4
_chemical_formula_sum   'Na8 Zr2 Mo8 O32'
_cell_volume   750.49959271
_cell_formula_units_Z   2
loop_
 _symmetry_equiv_pos_site_id
 _symmetry_equiv_pos_as_xyz
  1  'x, y, z'
loop_
 _atom_site_type_symbol
 _atom_site_label
 _atom_site_symmetry_multiplicity
 _atom_site_fract_x
 _atom_site_fract_y
 _atom_site_fract_z
 _atom_site_occupancy
  Na  Na0  1  0.13683079  0.36874886  0.45920183  1
  Na  Na1  1  0.36316921  0.82237104  0.23191807  1
  Na  Na2  1  0.09045297  0.95920183  0.32237104  1
  Na  Na3  1  0.90954703  0.04079817  0.67762896  1
  Na  Na4  1  0.86316921  0.63125114  0.54079817  1
  Na  Na5  1  0.40954703  0.73191807  0.86874886  1
  Na  Na6  1  0.59045297  0.26808193  0.13125114  1
  Na  Na7  1  0.63683079  0.17762896  0.76808193  1
  Zr  Zr8  1  0.75000000  0.62500000  0.87500000  1
  Zr  Zr9  1  0.25000000  0.37500000  0.12500000  1
  Mo  Mo10  1  0.51396960  0.70902343  0.55227756  1
  Mo  Mo11  1  0.01396960  0.46169204  0.80494618  1
  Mo  Mo12  1  0.48603040  0.29097657  0.44772244  1
  Mo  Mo13  1  0.84325413  0.05227756  0.03830796  1
  Mo  Mo14  1  0.98603040  0.53830796  0.19505382  1
  Mo  Mo15  1  0.15674587  0.94772244  0.96169204  1
  Mo  Mo16  1  0.65674587  0.69505382  0.20902343  1
  Mo  Mo17  1  0.34325413  0.30494618  0.79097657  1
  O  O18  1  0.37402145  0.07490317  0.36134229  1
  O  O19  1  0.99975043  0.14043380  0.98023569  1
  O  O20  1  0.49975043  0.51951474  0.85931663  1
  O  O21  1  0.28643912  0.86134229  0.98732084  1
  O  O22  1  0.55548095  0.80071442  0.15339225  1
  O  O23  1  0.58228164  0.36699393  0.66975406  1
  O  O24  1  0.69723987  0.83024594  0.91252758  1
  O  O25  1  0.44451905  0.19928558  0.84660775  1
  O  O26  1  0.91771836  0.58747242  0.78471229  1
  O  O27  1  0.41771836  0.63300607  0.33024594  1
  O  O28  1  0.94451905  0.09791129  0.24523347  1
  O  O29  1  0.14732218  0.74523347  0.30071442  1
  O  O30  1  0.85267782  0.25476653  0.69928558  1
  O  O31  1  0.83980189  0.48023569  0.98048526  1
  O  O32  1  0.71356088  0.13865771  0.01267916  1
  O  O33  1  0.87402145  0.51267916  0.29911828  1
  O  O34  1  0.33980189  0.35931663  0.35956620  1
  O  O35  1  0.05548095  0.90208871  0.75476653  1
  O  O36  1  0.12597855  0.48732084  0.70088172  1
  O  O37  1  0.16019811  0.51976431  0.01951474  1
  O  O38  1  0.30276013  0.16975406  0.08747242  1
  O  O39  1  0.62597855  0.92509683  0.63865771  1
  O  O40  1  0.08228164  0.41252758  0.21528771  1
  O  O41  1  0.78643912  0.79911828  0.42509683  1
  O  O42  1  0.21356088  0.20088172  0.57490317  1
  O  O43  1  0.00024957  0.85956620  0.01976431  1
  O  O44  1  0.50024957  0.48048526  0.14068337  1
  O  O45  1  0.80276013  0.71528771  0.13300607  1
  O  O46  1  0.35267782  0.65339225  0.59791129  1
  O  O47  1  0.64732218  0.34660775  0.40208871  1
  O  O48  1  0.66019811  0.64068337  0.64043380  1
  O  O49  1  0.19723987  0.28471229  0.86699393  1
