# generated using pymatgen
data_Li9Mn2Co5O16
_symmetry_space_group_name_H-M   'P 1'
_cell_length_a   2.89484704
_cell_length_b   15.31258282
_cell_length_c   6.65726006
_cell_angle_alpha   92.44356514
_cell_angle_beta   77.44243046
_cell_angle_gamma   90.00000054
_symmetry_Int_Tables_number   1
_chemical_formula_structural   Li9Mn2Co5O16
_chemical_formula_sum   'Li9 Mn2 Co5 O16'
_cell_volume   287.76596789
_cell_formula_units_Z   1
loop_
 _symmetry_equiv_pos_site_id
 _symmetry_equiv_pos_as_xyz
  1  'x, y, z'
loop_
 _atom_site_type_symbol
 _atom_site_label
 _atom_site_symmetry_multiplicity
 _atom_site_fract_x
 _atom_site_fract_y
 _atom_site_fract_z
 _atom_site_occupancy
  Li  Li0  1  0.30744136  0.06727191  0.38511728  1
  Li  Li1  1  0.94045001  0.18743797  0.11909998  1
  Li  Li2  1  0.56508005  0.30513020  0.86983990  1
  Li  Li3  1  0.68612123  0.94053338  0.62775754  1
  Li  Li4  1  0.06553625  0.81534630  0.86892750  1
  Li  Li5  1  0.43594090  0.69072912  0.12811819  1
  Li  Li6  1  0.18713384  0.43167351  0.62573231  1
  Li  Li7  1  0.81105045  0.56495823  0.37789911  1
  Li  Li8  1  0.62612946  0.12369643  0.74774108  1
  Mn  Mn9  1  0.00844846  0.00165430  0.98310308  1
  Mn  Mn10  1  0.49768600  0.50124509  0.00462801  1
  Co  Co11  1  0.23580028  0.24205639  0.52839944  1
  Co  Co12  1  0.87099379  0.36871500  0.25801242  1
  Co  Co13  1  0.12575397  0.62660604  0.74849205  1
  Co  Co14  1  0.74973505  0.75071736  0.50052990  1
  Co  Co15  1  0.37567999  0.87579102  0.24864001  1
  O  O16  1  0.47149805  0.08093087  0.05700390  1
  O  O17  1  0.10115505  0.22268325  0.79768990  1
  O  O18  1  0.72525957  0.34096757  0.54948086  1
  O  O19  1  0.85729541  0.95971801  0.28540917  1
  O  O20  1  0.22256114  0.83591857  0.55487772  1
  O  O21  1  0.59830681  0.71230151  0.80338639  1
  O  O22  1  0.35563843  0.46558691  0.28872315  1
  O  O23  1  0.96879321  0.58332899  0.06241359  1
  O  O24  1  0.14464933  0.02734234  0.71070134  1
  O  O25  1  0.78224371  0.16350624  0.43551258  1
  O  O26  1  0.40387698  0.28990619  0.19224604  1
  O  O27  1  0.52923255  0.91520425  0.94153490  1
  O  O28  1  0.90172246  0.79169136  0.19655509  1
  O  O29  1  0.28045098  0.66175197  0.43909805  1
  O  O30  1  0.02702058  0.41916311  0.94595883  1
  O  O31  1  0.64131465  0.53643661  0.71737071  1
