# generated using pymatgen
data_K4Cr(NO5)2
_symmetry_space_group_name_H-M   'P 1'
_cell_length_a   9.98099906
_cell_length_b   10.34172820
_cell_length_c   11.33874048
_cell_angle_alpha   90.00000000
_cell_angle_beta   90.00000000
_cell_angle_gamma   106.10306836
_symmetry_Int_Tables_number   1
_chemical_formula_structural   K4Cr(NO5)2
_chemical_formula_sum   'K16 Cr4 N8 O40'
_cell_volume   1124.47241913
_cell_formula_units_Z   4
loop_
 _symmetry_equiv_pos_site_id
 _symmetry_equiv_pos_as_xyz
  1  'x, y, z'
loop_
 _atom_site_type_symbol
 _atom_site_label
 _atom_site_symmetry_multiplicity
 _atom_site_fract_x
 _atom_site_fract_y
 _atom_site_fract_z
 _atom_site_occupancy
  K  K0  1  0.10683263  0.08181836  0.37270550  1
  K  K1  1  0.53375426  0.35938591  0.37694852  1
  K  K2  1  0.53279576  0.36110410  0.88016602  1
  K  K3  1  0.89316737  0.91818164  0.62729450  1
  K  K4  1  0.88560761  0.90224390  0.12497246  1
  K  K5  1  0.60683263  0.08181836  0.12729450  1
  K  K6  1  0.46624574  0.64061409  0.62305148  1
  K  K7  1  0.39316737  0.91818164  0.87270550  1
  K  K8  1  0.03375426  0.35938591  0.12305148  1
  K  K9  1  0.03279576  0.36110410  0.61983398  1
  K  K10  1  0.46720424  0.63889590  0.11983398  1
  K  K11  1  0.96720424  0.63889590  0.38016602  1
  K  K12  1  0.96624574  0.64061409  0.87694852  1
  K  K13  1  0.38560761  0.90224390  0.37502754  1
  K  K14  1  0.11439239  0.09775610  0.87502754  1
  K  K15  1  0.61439239  0.09775610  0.62497246  1
  Cr  Cr16  1  0.19052857  0.79513471  0.11669067  1
  Cr  Cr17  1  0.80947143  0.20486529  0.88330933  1
  Cr  Cr18  1  0.30947143  0.20486529  0.61669067  1
  Cr  Cr19  1  0.69052857  0.79513471  0.38330933  1
  N  N20  1  0.26979480  0.50545863  0.85960998  1
  N  N21  1  0.23020520  0.49454137  0.35960998  1
  N  N22  1  0.70281944  0.84771897  0.87137545  1
  N  N23  1  0.73020520  0.49454137  0.14039002  1
  N  N24  1  0.76979480  0.50545863  0.64039002  1
  N  N25  1  0.79718056  0.15228103  0.37137545  1
  N  N26  1  0.29718056  0.15228103  0.12862455  1
  N  N27  1  0.20281944  0.84771897  0.62862455  1
  O  O28  1  0.66979955  0.15234827  0.37160146  1
  O  O29  1  0.84746542  0.37133234  0.89507056  1
  O  O30  1  0.36369737  0.85833222  0.11717738  1
  O  O31  1  0.85861498  0.14685947  0.27430191  1
  O  O32  1  0.64138502  0.85314053  0.77430191  1
  O  O33  1  0.65253458  0.62866766  0.39507056  1
  O  O34  1  0.39514887  0.57731518  0.87527906  1
  O  O35  1  0.14138502  0.85314053  0.72569809  1
  O  O36  1  0.36167432  0.15580999  0.03195373  1
  O  O37  1  0.30831568  0.45412364  0.28889773  1
  O  O38  1  0.63630263  0.14166778  0.88282262  1
  O  O39  1  0.37612363  0.14292695  0.50156274  1
  O  O40  1  0.87426456  0.16104400  0.75860534  1
  O  O41  1  0.34746542  0.37133234  0.60492944  1
  O  O42  1  0.62573544  0.83895600  0.25860534  1
  O  O43  1  0.86167432  0.15580999  0.46804627  1
  O  O44  1  0.37426456  0.16104400  0.74139466  1
  O  O45  1  0.33020045  0.84765173  0.62839854  1
  O  O46  1  0.86369737  0.85833222  0.38282262  1
  O  O47  1  0.13832568  0.84419001  0.53195373  1
  O  O48  1  0.83020045  0.84765173  0.87160146  1
  O  O49  1  0.27386616  0.60521431  0.41390249  1
  O  O50  1  0.72613384  0.39478569  0.58609751  1
  O  O51  1  0.89514887  0.57731518  0.62472094  1
  O  O52  1  0.77386616  0.60521431  0.08609751  1
  O  O53  1  0.19168432  0.54587636  0.78889773  1
  O  O54  1  0.13630263  0.14166778  0.61717738  1
  O  O55  1  0.16979955  0.15234827  0.12839854  1
  O  O56  1  0.87612363  0.14292695  0.99843726  1
  O  O57  1  0.12573544  0.83895600  0.24139466  1
  O  O58  1  0.10485113  0.42268482  0.37527906  1
  O  O59  1  0.12387637  0.85707305  0.00156274  1
  O  O60  1  0.62387637  0.85707305  0.49843726  1
  O  O61  1  0.22613384  0.39478569  0.91390249  1
  O  O62  1  0.60485113  0.42268482  0.12472094  1
  O  O63  1  0.80831568  0.45412364  0.21110227  1
  O  O64  1  0.63832568  0.84419001  0.96804627  1
  O  O65  1  0.15253458  0.62866766  0.10492944  1
  O  O66  1  0.35861498  0.14685947  0.22569809  1
  O  O67  1  0.69168432  0.54587636  0.71110227  1
