# generated using pymatgen
data_Al5Mo
_symmetry_space_group_name_H-M   'P 1'
_cell_length_a   4.94101585
_cell_length_b   4.94101557
_cell_length_c   43.98126612
_cell_angle_alpha   90.00000000
_cell_angle_beta   90.00000000
_cell_angle_gamma   120.00000187
_symmetry_Int_Tables_number   1
_chemical_formula_structural   Al5Mo
_chemical_formula_sum   'Al50 Mo10'
_cell_volume   929.88837986
_cell_formula_units_Z   10
loop_
 _symmetry_equiv_pos_site_id
 _symmetry_equiv_pos_as_xyz
  1  'x, y, z'
loop_
 _atom_site_type_symbol
 _atom_site_label
 _atom_site_symmetry_multiplicity
 _atom_site_fract_x
 _atom_site_fract_y
 _atom_site_fract_z
 _atom_site_occupancy
  Al  Al0  1  0.33321964  0.32501110  0.55000869  1
  Al  Al1  1  0.98981931  0.66764642  0.94985291  1
  Al  Al2  1  0.00000000  0.00000000  0.10023800  1
  Al  Al3  1  0.99179145  0.66678036  0.55000869  1
  Al  Al4  1  0.99802820  0.34198019  0.04987871  1
  Al  Al5  1  0.33333300  0.66666700  0.90163761  1
  Al  Al6  1  0.66670837  0.67774475  0.84999513  1
  Al  Al7  1  0.01103638  0.33329163  0.84999513  1
  Al  Al8  1  0.66669457  0.99097416  0.35001273  1
  Al  Al9  1  0.00902584  0.67572041  0.35001273  1
  Al  Al10  1  0.66666700  0.33333300  0.39850316  1
  Al  Al11  1  0.66666700  0.33333300  0.89837762  1
  Al  Al12  1  0.33333300  0.66666700  0.69824878  1
  Al  Al13  1  0.00000000  0.00000000  0.29820483  1
  Al  Al14  1  0.98948415  0.32475891  0.65012224  1
  Al  Al15  1  0.00000000  0.00000000  0.19986149  1
  Al  Al16  1  0.65828350  0.99989779  0.14998264  1
  Al  Al17  1  0.65801981  0.65604801  0.04987871  1
  Al  Al18  1  0.00000000  0.00000000  0.79834941  1
  Al  Al19  1  0.33210087  0.00882415  0.44989201  1
  Al  Al20  1  0.00122107  0.34340150  0.25011042  1
  Al  Al21  1  0.32225525  0.98896362  0.84999513  1
  Al  Al22  1  0.00100498  0.65641508  0.75014528  1
  Al  Al23  1  0.67782711  0.01018069  0.94985291  1
  Al  Al24  1  0.66666700  0.33333300  0.10008577  1
  Al  Al25  1  0.34395199  0.00197180  0.04987871  1
  Al  Al26  1  0.34161429  0.34171650  0.14998264  1
  Al  Al27  1  0.67498890  0.00820855  0.55000869  1
  Al  Al28  1  0.33333300  0.66666700  0.40179927  1
  Al  Al29  1  0.66666700  0.33333300  0.59992503  1
  Al  Al30  1  0.00000000  0.00000000  0.00175827  1
  Al  Al31  1  0.34218043  0.99877893  0.25011042  1
  Al  Al32  1  0.00010221  0.65838571  0.14998264  1
  Al  Al33  1  0.34358492  0.34458990  0.75014528  1
  Al  Al34  1  0.33235358  0.32217289  0.94985291  1
  Al  Al35  1  0.33333300  0.66666700  0.19987511  1
  Al  Al36  1  0.32427959  0.33330543  0.35001273  1
  Al  Al37  1  0.65541010  0.99899502  0.75014528  1
  Al  Al38  1  0.99117585  0.32327672  0.44989201  1
  Al  Al39  1  0.66666700  0.33333300  0.30151669  1
  Al  Al40  1  0.67672328  0.66789913  0.44989201  1
  Al  Al41  1  0.33333300  0.66666700  0.59975313  1
  Al  Al42  1  0.33333300  0.66666700  0.99854742  1
  Al  Al43  1  0.65659850  0.65781957  0.25011042  1
  Al  Al44  1  0.00000000  0.00000000  0.50011012  1
  Al  Al45  1  0.00000000  0.00000000  0.70146127  1
  Al  Al46  1  0.33527477  0.01051585  0.65012224  1
  Al  Al47  1  0.66666700  0.33333300  0.80161565  1
  Al  Al48  1  0.67524109  0.66472523  0.65012224  1
  Al  Al49  1  0.33333300  0.66666700  0.50011904  1
  Mo  Mo50  1  0.33333300  0.66666700  0.09922406  1
  Mo  Mo51  1  0.33333300  0.66666700  0.80024914  1
  Mo  Mo52  1  0.66666700  0.33333300  0.70099162  1
  Mo  Mo53  1  0.00000000  0.00000000  0.39929817  1
  Mo  Mo54  1  0.66666700  0.33333300  0.49935319  1
  Mo  Mo55  1  0.00000000  0.00000000  0.89974910  1
  Mo  Mo56  1  0.00000000  0.00000000  0.60078750  1
  Mo  Mo57  1  0.66666700  0.33333300  0.20064100  1
  Mo  Mo58  1  0.66666700  0.33333300  0.99901011  1
  Mo  Mo59  1  0.33333300  0.66666700  0.30070618  1
