# generated using pymatgen
data_KNa3WO5
_symmetry_space_group_name_H-M   'P 1'
_cell_length_a   5.94450769
_cell_length_b   5.94450783
_cell_length_c   9.20817830
_cell_angle_alpha   79.14565075
_cell_angle_beta   79.14565051
_cell_angle_gamma   79.15354317
_symmetry_Int_Tables_number   1
_chemical_formula_structural   KNa3WO5
_chemical_formula_sum   'K2 Na6 W2 O10'
_cell_volume   309.89315797
_cell_formula_units_Z   2
loop_
 _symmetry_equiv_pos_site_id
 _symmetry_equiv_pos_as_xyz
  1  'x, y, z'
loop_
 _atom_site_type_symbol
 _atom_site_label
 _atom_site_symmetry_multiplicity
 _atom_site_fract_x
 _atom_site_fract_y
 _atom_site_fract_z
 _atom_site_occupancy
  K  K0  1  0.74887979  0.25112021  0.50000000  1
  K  K1  1  0.25112021  0.74887979  0.50000000  1
  Na  Na2  1  0.64809750  0.15782884  0.88716815  1
  Na  Na3  1  0.84217116  0.35190250  0.11283185  1
  Na  Na4  1  0.35190250  0.84217116  0.11283185  1
  Na  Na5  1  0.18974179  0.18974179  0.72641189  1
  Na  Na6  1  0.15782884  0.64809750  0.88716815  1
  Na  Na7  1  0.81025821  0.81025821  0.27358811  1
  W  W8  1  0.69124311  0.69124311  0.74190718  1
  W  W9  1  0.30875689  0.30875689  0.25809282  1
  O  O10  1  0.25371166  0.25371166  0.46619776  1
  O  O11  1  0.74628834  0.74628834  0.53380224  1
  O  O12  1  0.44461624  0.88316603  0.84537253  1
  O  O13  1  0.09907935  0.09907935  0.24913562  1
  O  O14  1  0.47920688  0.47920688  0.74189109  1
  O  O15  1  0.88316603  0.44461624  0.84537253  1
  O  O16  1  0.11683397  0.55538376  0.15462747  1
  O  O17  1  0.52079312  0.52079312  0.25810891  1
  O  O18  1  0.90092065  0.90092065  0.75086438  1
  O  O19  1  0.55538376  0.11683397  0.15462747  1
