# generated using pymatgen
data_Na2YMoPO8
_symmetry_space_group_name_H-M   'P 1'
_cell_length_a   6.96967345
_cell_length_b   11.51558065
_cell_length_c   11.51558074
_cell_angle_alpha   104.57552461
_cell_angle_beta   107.61199545
_cell_angle_gamma   107.61199162
_symmetry_Int_Tables_number   1
_chemical_formula_structural   Na2YMoPO8
_chemical_formula_sum   'Na8 Y4 Mo4 P4 O32'
_cell_volume   777.40252219
_cell_formula_units_Z   4
loop_
 _symmetry_equiv_pos_site_id
 _symmetry_equiv_pos_as_xyz
  1  'x, y, z'
loop_
 _atom_site_type_symbol
 _atom_site_label
 _atom_site_symmetry_multiplicity
 _atom_site_fract_x
 _atom_site_fract_y
 _atom_site_fract_z
 _atom_site_occupancy
  Na  Na0  1  0.06861244  0.40514670  0.21084631  1
  Na  Na1  1  0.04689823  0.90496600  0.71059850  1
  Na  Na2  1  0.93138756  0.59485330  0.78915369  1
  Na  Na3  1  0.43138756  0.78915369  0.59485330  1
  Na  Na4  1  0.54689823  0.71059850  0.90496600  1
  Na  Na5  1  0.95310177  0.09503400  0.28940150  1
  Na  Na6  1  0.56861244  0.21084631  0.40514670  1
  Na  Na7  1  0.45310177  0.28940150  0.09503400  1
  Y  Y8  1  0.57213043  0.82220058  0.32205322  1
  Y  Y9  1  0.42786957  0.17779942  0.67794678  1
  Y  Y10  1  0.07213043  0.32205322  0.82220058  1
  Y  Y11  1  0.92786957  0.67794678  0.17779942  1
  Mo  Mo12  1  0.25000000  0.92817271  0.07182729  1
  Mo  Mo13  1  0.75000000  0.57199470  0.42800530  1
  Mo  Mo14  1  0.75000000  0.07182729  0.92817271  1
  Mo  Mo15  1  0.25000000  0.42800530  0.57199470  1
  P  P16  1  0.81904852  0.06910739  0.56910226  1
  P  P17  1  0.31904852  0.56910226  0.06910739  1
  P  P18  1  0.18095148  0.93089261  0.43089774  1
  P  P19  1  0.68095148  0.43089774  0.93089261  1
  O  O20  1  0.75682271  0.06173640  0.42561044  1
  O  O21  1  0.48380053  0.89551398  0.15287010  1
  O  O22  1  0.73035241  0.92558158  0.56161630  1
  O  O23  1  0.82887448  0.13737261  0.10148179  1
  O  O24  1  0.76964759  0.43838370  0.07441842  1
  O  O25  1  0.09006344  0.36247324  0.39868171  1
  O  O26  1  0.23035241  0.56161630  0.92558158  1
  O  O27  1  0.72404593  0.15640521  0.63996156  1
  O  O28  1  0.98380053  0.15287010  0.89551398  1
  O  O29  1  0.22404593  0.63996156  0.15640521  1
  O  O30  1  0.24317729  0.93826360  0.57438956  1
  O  O31  1  0.67112552  0.89851821  0.86262739  1
  O  O32  1  0.06456220  0.39543215  0.65303562  1
  O  O33  1  0.27595407  0.84359479  0.36003844  1
  O  O34  1  0.42778559  0.34359092  0.86013409  1
  O  O35  1  0.25682271  0.42561044  0.06173640  1
  O  O36  1  0.92778559  0.86013409  0.34359092  1
  O  O37  1  0.93543780  0.60456785  0.34696438  1
  O  O38  1  0.74317729  0.57438956  0.93826360  1
  O  O39  1  0.90993656  0.63752676  0.60131829  1
  O  O40  1  0.59006344  0.39868171  0.36247324  1
  O  O41  1  0.26964759  0.07441842  0.43838370  1
  O  O42  1  0.51619947  0.10448602  0.84712990  1
  O  O43  1  0.57221441  0.65640908  0.13986591  1
  O  O44  1  0.43543780  0.34696438  0.60456785  1
  O  O45  1  0.01619947  0.84712990  0.10448602  1
  O  O46  1  0.56456220  0.65303562  0.39543215  1
  O  O47  1  0.32887448  0.10148179  0.13737261  1
  O  O48  1  0.40993656  0.60131829  0.63752676  1
  O  O49  1  0.07221441  0.13986591  0.65640908  1
  O  O50  1  0.17112552  0.86262739  0.89851821  1
  O  O51  1  0.77595407  0.36003844  0.84359479  1
