# generated using pymatgen
data_TlV5Se8
_symmetry_space_group_name_H-M   'P 1'
_cell_length_a   3.48443533
_cell_length_b   9.24011903
_cell_length_c   9.31846756
_cell_angle_alpha   103.01152618
_cell_angle_beta   100.77089079
_cell_angle_gamma   89.98452392
_symmetry_Int_Tables_number   1
_chemical_formula_structural   TlV5Se8
_chemical_formula_sum   'Tl1 V5 Se8'
_cell_volume   286.89575409
_cell_formula_units_Z   1
loop_
 _symmetry_equiv_pos_site_id
 _symmetry_equiv_pos_as_xyz
  1  'x, y, z'
loop_
 _atom_site_type_symbol
 _atom_site_label
 _atom_site_symmetry_multiplicity
 _atom_site_fract_x
 _atom_site_fract_y
 _atom_site_fract_z
 _atom_site_occupancy
  Tl  Tl0  1  0.00000000  0.00000000  0.00000000  1
  V  V1  1  0.14523793  0.49700634  0.29039976  1
  V  V2  1  0.79283177  0.16605812  0.58579644  1
  V  V3  1  0.20716823  0.83394188  0.41420356  1
  V  V4  1  0.50000000  0.50000000  0.00000000  1
  V  V5  1  0.85476207  0.50299366  0.70960024  1
  Se  Se6  1  0.66433256  0.99589715  0.32856569  1
  Se  Se7  1  0.25952512  0.35044184  0.51918827  1
  Se  Se8  1  0.06914710  0.68028762  0.13921568  1
  Se  Se9  1  0.74047488  0.64955816  0.48081173  1
  Se  Se10  1  0.93085290  0.31971238  0.86078432  1
  Se  Se11  1  0.58695578  0.32003305  0.17343498  1
  Se  Se12  1  0.33566744  0.00410285  0.67143431  1
  Se  Se13  1  0.41304422  0.67996695  0.82656502  1
