# generated using pymatgen
data_Pr5C2Cl9
_symmetry_space_group_name_H-M   'P 1'
_cell_length_a   8.61080476
_cell_length_b   8.68526887
_cell_length_c   12.16669239
_cell_angle_alpha   84.19949818
_cell_angle_beta   85.01359720
_cell_angle_gamma   61.33451785
_symmetry_Int_Tables_number   1
_chemical_formula_structural   Pr5C2Cl9
_chemical_formula_sum   'Pr10 C4 Cl18'
_cell_volume   793.53085816
_cell_formula_units_Z   2
loop_
 _symmetry_equiv_pos_site_id
 _symmetry_equiv_pos_as_xyz
  1  'x, y, z'
loop_
 _atom_site_type_symbol
 _atom_site_label
 _atom_site_symmetry_multiplicity
 _atom_site_fract_x
 _atom_site_fract_y
 _atom_site_fract_z
 _atom_site_occupancy
  Pr  Pr0  1  0.13136372  0.27078660  0.26775246  1
  Pr  Pr1  1  0.77300897  0.07259638  0.25750598  1
  Pr  Pr2  1  0.79688151  0.31411847  0.50219260  1
  Pr  Pr3  1  0.20311849  0.68588153  0.49780740  1
  Pr  Pr4  1  0.60714626  0.59669619  0.22096289  1
  Pr  Pr5  1  0.39285374  0.40330381  0.77903711  1
  Pr  Pr6  1  0.22699103  0.92740362  0.74249402  1
  Pr  Pr7  1  0.89711598  0.29762854  0.99902414  1
  Pr  Pr8  1  0.10288402  0.70237146  0.00097586  1
  Pr  Pr9  1  0.86863628  0.72921340  0.73224754  1
  C  C10  1  0.85791828  0.30236980  0.19061791  1
  C  C11  1  0.82987912  0.31078378  0.30938688  1
  C  C12  1  0.17012088  0.68921622  0.69061312  1
  C  C13  1  0.14208172  0.69763020  0.80938209  1
  Cl  Cl14  1  0.15830260  0.87087524  0.26077319  1
  Cl  Cl15  1  0.40004640  0.40826836  0.27671878  1
  Cl  Cl16  1  0.78568457  0.66932408  0.96677972  1
  Cl  Cl17  1  0.91949905  0.65776856  0.22807901  1
  Cl  Cl18  1  0.59995360  0.59173164  0.72328122  1
  Cl  Cl19  1  0.21431543  0.33067592  0.03322028  1
  Cl  Cl20  1  0.21656406  0.96090709  0.97536876  1
  Cl  Cl21  1  0.51154626  0.01489065  0.76836632  1
  Cl  Cl22  1  0.48845374  0.98510935  0.23163368  1
  Cl  Cl23  1  0.84169740  0.12912476  0.73922681  1
  Cl  Cl24  1  0.17580356  0.05086388  0.50682488  1
  Cl  Cl25  1  0.78343594  0.03909291  0.02463124  1
  Cl  Cl26  1  0.54204546  0.67164241  0.44740541  1
  Cl  Cl27  1  0.08050095  0.34223144  0.77192099  1
  Cl  Cl28  1  0.50000000  0.50000000  0.00000000  1
  Cl  Cl29  1  0.82419644  0.94913612  0.49317512  1
  Cl  Cl30  1  0.00000000  0.50000000  0.50000000  1
  Cl  Cl31  1  0.45795454  0.32835759  0.55259459  1
