# generated using pymatgen
data_RbGeI3
_symmetry_space_group_name_H-M   'P 1'
_cell_length_a   4.59912902
_cell_length_b   10.41364552
_cell_length_c   17.19098014
_cell_angle_alpha   90.00000000
_cell_angle_beta   90.00000000
_cell_angle_gamma   90.00000000
_symmetry_Int_Tables_number   1
_chemical_formula_structural   RbGeI3
_chemical_formula_sum   'Rb4 Ge4 I12'
_cell_volume   823.33963376
_cell_formula_units_Z   4
loop_
 _symmetry_equiv_pos_site_id
 _symmetry_equiv_pos_as_xyz
  1  'x, y, z'
loop_
 _atom_site_type_symbol
 _atom_site_label
 _atom_site_symmetry_multiplicity
 _atom_site_fract_x
 _atom_site_fract_y
 _atom_site_fract_z
 _atom_site_occupancy
  Rb  Rb0  1  0.24471272  0.92011057  0.41999096  1
  Rb  Rb1  1  0.25528728  0.42011057  0.58000904  1
  Rb  Rb2  1  0.75528728  0.57988943  0.91999096  1
  Rb  Rb3  1  0.74471272  0.07988943  0.08000904  1
  Ge  Ge4  1  0.28401082  0.65881929  0.18734884  1
  Ge  Ge5  1  0.71598918  0.84118071  0.68734884  1
  Ge  Ge6  1  0.78401082  0.34118071  0.31265116  1
  Ge  Ge7  1  0.21598918  0.15881929  0.81265116  1
  I  I8  1  0.26176735  0.02165248  0.63916270  1
  I  I9  1  0.23286215  0.17014113  0.25011743  1
  I  I10  1  0.26713785  0.67014113  0.74988257  1
  I  I11  1  0.76176735  0.97834752  0.86083730  1
  I  I12  1  0.76713785  0.32985887  0.75011743  1
  I  I13  1  0.24200680  0.29016671  0.95852608  1
  I  I14  1  0.73823265  0.47834752  0.13916270  1
  I  I15  1  0.25799320  0.79016671  0.04147392  1
  I  I16  1  0.23823265  0.52165248  0.36083730  1
  I  I17  1  0.73286215  0.82985887  0.24988257  1
  I  I18  1  0.75799320  0.20983329  0.45852608  1
  I  I19  1  0.74200680  0.70983329  0.54147392  1
