# generated using pymatgen
data_TbMoO4F
_symmetry_space_group_name_H-M   'P 1'
_cell_length_a   5.28715509
_cell_length_b   6.76100233
_cell_length_c   12.48579957
_cell_angle_alpha   90.00000000
_cell_angle_beta   90.00000000
_cell_angle_gamma   113.03233917
_symmetry_Int_Tables_number   1
_chemical_formula_structural   TbMoO4F
_chemical_formula_sum   'Tb4 Mo4 O16 F4'
_cell_volume   410.74420586
_cell_formula_units_Z   4
loop_
 _symmetry_equiv_pos_site_id
 _symmetry_equiv_pos_as_xyz
  1  'x, y, z'
loop_
 _atom_site_type_symbol
 _atom_site_label
 _atom_site_symmetry_multiplicity
 _atom_site_fract_x
 _atom_site_fract_y
 _atom_site_fract_z
 _atom_site_occupancy
  Tb  Tb0  1  0.36121125  0.69987844  0.55154766  1
  Tb  Tb1  1  0.63878875  0.30012156  0.44845234  1
  Tb  Tb2  1  0.36121125  0.19987844  0.94845234  1
  Tb  Tb3  1  0.63878875  0.80012156  0.05154766  1
  Mo  Mo4  1  0.92186183  0.36999612  0.14325444  1
  Mo  Mo5  1  0.92186183  0.86999612  0.35674556  1
  Mo  Mo6  1  0.07813817  0.63000388  0.85674556  1
  Mo  Mo7  1  0.07813817  0.13000388  0.64325444  1
  O  O8  1  0.99533126  0.66297660  0.43097956  1
  O  O9  1  0.23775228  0.09174053  0.34709698  1
  O  O10  1  0.69219187  0.46141938  0.06543164  1
  O  O11  1  0.19270778  0.20511403  0.77666809  1
  O  O12  1  0.80729222  0.79488597  0.22333191  1
  O  O13  1  0.19270778  0.70511403  0.72333191  1
  O  O14  1  0.23775228  0.59174053  0.15290302  1
  O  O15  1  0.99533126  0.16297660  0.06902044  1
  O  O16  1  0.30780813  0.03858062  0.56543164  1
  O  O17  1  0.76224772  0.40825947  0.84709698  1
  O  O18  1  0.00466874  0.33702340  0.56902044  1
  O  O19  1  0.00466874  0.83702340  0.93097956  1
  O  O20  1  0.30780813  0.53858062  0.93456836  1
  O  O21  1  0.80729222  0.29488597  0.27666809  1
  O  O22  1  0.76224772  0.90825947  0.65290302  1
  O  O23  1  0.69219187  0.96141938  0.43456836  1
  F  F24  1  0.45300086  0.53547729  0.40236942  1
  F  F25  1  0.45300086  0.03547729  0.09763058  1
  F  F26  1  0.54699914  0.96452271  0.90236942  1
  F  F27  1  0.54699914  0.46452271  0.59763058  1
