# generated using pymatgen
data_Li9Mn2Co5O16
_symmetry_space_group_name_H-M   'P 1'
_cell_length_a   2.89930230
_cell_length_b   10.63389099
_cell_length_c   10.24144092
_cell_angle_alpha   112.88286756
_cell_angle_beta   89.99999963
_cell_angle_gamma   82.16483452
_symmetry_Int_Tables_number   1
_chemical_formula_structural   Li9Mn2Co5O16
_chemical_formula_sum   'Li9 Mn2 Co5 O16'
_cell_volume   287.70105963
_cell_formula_units_Z   1
loop_
 _symmetry_equiv_pos_site_id
 _symmetry_equiv_pos_as_xyz
  1  'x, y, z'
loop_
 _atom_site_type_symbol
 _atom_site_label
 _atom_site_symmetry_multiplicity
 _atom_site_fract_x
 _atom_site_fract_y
 _atom_site_fract_z
 _atom_site_occupancy
  Li  Li0  1  0.37708196  0.24583609  0.18526390  1
  Li  Li1  1  0.11728706  0.76542587  0.57075283  1
  Li  Li2  1  0.88469958  0.23060084  0.91953386  1
  Li  Li3  1  0.87711038  0.24577923  0.43184638  1
  Li  Li4  1  0.61843752  0.76312497  0.81140616  1
  Li  Li5  1  0.38014440  0.23971121  0.68221879  1
  Li  Li6  1  0.12347678  0.75304644  0.06721841  1
  Li  Li7  1  0.62033590  0.75932820  0.32499308  1
  Li  Li8  1  0.50209626  0.99580747  0.74861577  1
  Mn  Mn9  1  0.00181557  0.99636886  0.99174382  1
  Mn  Mn10  1  0.74952731  0.50094538  0.87615786  1
  Co  Co11  1  0.75096511  0.49806978  0.37211995  1
  Co  Co12  1  0.25217422  0.49565156  0.12897633  1
  Co  Co13  1  0.99555164  0.00889673  0.52211760  1
  Co  Co14  1  0.50085489  0.99829022  0.25465339  1
  Co  Co15  1  0.24791710  0.50416580  0.62415939  1
  O  O16  1  0.44448324  0.11103353  0.97355705  1
  O  O17  1  0.19223488  0.61553023  0.34147049  1
  O  O18  1  0.93764699  0.12470603  0.70845402  1
  O  O19  1  0.94645767  0.10708465  0.20738289  1
  O  O20  1  0.69367250  0.61265501  0.59425286  1
  O  O21  1  0.44222762  0.11554476  0.46401656  1
  O  O22  1  0.19348606  0.61302787  0.85339555  1
  O  O23  1  0.69656294  0.60687412  0.07952528  1
  O  O24  1  0.30779130  0.38441740  0.40744581  1
  O  O25  1  0.05821919  0.88356161  0.80009174  1
  O  O26  1  0.81032422  0.37935156  0.15510053  1
  O  O27  1  0.79881852  0.40236296  0.66760480  1
  O  O28  1  0.55604714  0.88790572  0.03041114  1
  O  O29  1  0.30666945  0.38666110  0.89736618  1
  O  O30  1  0.05852856  0.88294289  0.27865516  1
  O  O31  1  0.55735406  0.88529189  0.52949243  1
