# generated using pymatgen
data_Li9Mn2Co5O16
_symmetry_space_group_name_H-M   'P 1'
_cell_length_a   2.89153279
_cell_length_b   10.29721064
_cell_length_c   10.33112082
_cell_angle_alpha   69.94259730
_cell_angle_beta   90.00000000
_cell_angle_gamma   90.00000000
_symmetry_Int_Tables_number   1
_chemical_formula_structural   Li9Mn2Co5O16
_chemical_formula_sum   'Li9 Mn2 Co5 O16'
_cell_volume   288.94977676
_cell_formula_units_Z   1
loop_
 _symmetry_equiv_pos_site_id
 _symmetry_equiv_pos_as_xyz
  1  'x, y, z'
loop_
 _atom_site_type_symbol
 _atom_site_label
 _atom_site_symmetry_multiplicity
 _atom_site_fract_x
 _atom_site_fract_y
 _atom_site_fract_z
 _atom_site_occupancy
  Li  Li0  1  0.50000000  0.99706754  0.27186589  1
  Li  Li1  1  0.50000000  0.00293246  0.72813411  1
  Li  Li2  1  0.00000000  0.24664810  0.25172293  1
  Li  Li3  1  -0.00000000  0.25012021  0.73877623  1
  Li  Li4  1  0.50000000  0.49570447  0.26115119  1
  Li  Li5  1  0.50000000  0.50429553  0.73884881  1
  Li  Li6  1  -0.00000000  0.74987979  0.26122377  1
  Li  Li7  1  0.00000000  0.75335190  0.74827707  1
  Li  Li8  1  0.00000000  0.00000000  0.50000000  1
  Mn  Mn9  1  0.00000000  0.00000000  0.00000000  1
  Mn  Mn10  1  0.00000000  0.50000000  0.00000000  1
  Co  Co11  1  0.50000000  0.25028806  0.99414942  1
  Co  Co12  1  0.50000000  0.23511121  0.49198350  1
  Co  Co13  1  -0.00000000  0.50000000  0.50000000  1
  Co  Co14  1  0.50000000  0.74971194  0.00585058  1
  Co  Co15  1  0.50000000  0.76488879  0.50801650  1
  O  O16  1  0.50000000  0.89528241  0.11365848  1
  O  O17  1  0.50000000  0.86089426  0.62539493  1
  O  O18  1  0.00000000  0.13099081  0.10087886  1
  O  O19  1  0.00000000  0.13578570  0.61847538  1
  O  O20  1  0.50000000  0.38617132  0.11330135  1
  O  O21  1  0.50000000  0.39163409  0.60661136  1
  O  O22  1  0.00000000  0.64191935  0.11796647  1
  O  O23  1  0.00000000  0.61928692  0.60521620  1
  O  O24  1  0.50000000  0.13910574  0.37460507  1
  O  O25  1  0.50000000  0.10471759  0.88634152  1
  O  O26  1  0.00000000  0.38071308  0.39478380  1
  O  O27  1  0.00000000  0.35808065  0.88203353  1
  O  O28  1  0.50000000  0.60836591  0.39338864  1
  O  O29  1  0.50000000  0.61382868  0.88669865  1
  O  O30  1  0.00000000  0.86421430  0.38152462  1
  O  O31  1  0.00000000  0.86900919  0.89912114  1
