# generated using pymatgen
data_Te2Ir
_symmetry_space_group_name_H-M   'P 1'
_cell_length_a   4.07482699
_cell_length_b   6.46899806
_cell_length_c   22.91682355
_cell_angle_alpha   90.00000000
_cell_angle_beta   90.00000000
_cell_angle_gamma   90.00000000
_symmetry_Int_Tables_number   1
_chemical_formula_structural   Te2Ir
_chemical_formula_sum   'Te16 Ir8'
_cell_volume   604.08856634
_cell_formula_units_Z   8
loop_
 _symmetry_equiv_pos_site_id
 _symmetry_equiv_pos_as_xyz
  1  'x, y, z'
loop_
 _atom_site_type_symbol
 _atom_site_label
 _atom_site_symmetry_multiplicity
 _atom_site_fract_x
 _atom_site_fract_y
 _atom_site_fract_z
 _atom_site_occupancy
  Te  Te0  1  0.75000000  0.68911864  0.24071870  1
  Te  Te1  1  0.25000000  0.22102587  0.49096715  1
  Te  Te2  1  0.75000000  0.42289561  0.13649170  1
  Te  Te3  1  0.25000000  0.31088136  0.75928130  1
  Te  Te4  1  0.75000000  0.07710439  0.63649170  1
  Te  Te5  1  0.25000000  0.18911864  0.25928130  1
  Te  Te6  1  0.25000000  0.92289561  0.36350830  1
  Te  Te7  1  0.25000000  0.94890304  0.12186774  1
  Te  Te8  1  0.25000000  0.55109696  0.62186774  1
  Te  Te9  1  0.75000000  0.81088136  0.74071870  1
  Te  Te10  1  0.75000000  0.72102587  0.00903285  1
  Te  Te11  1  0.25000000  0.27897413  0.99096715  1
  Te  Te12  1  0.75000000  0.77897413  0.50903285  1
  Te  Te13  1  0.25000000  0.57710439  0.86350830  1
  Te  Te14  1  0.75000000  0.05109696  0.87813226  1
  Te  Te15  1  0.75000000  0.44890304  0.37813226  1
  Ir  Ir16  1  0.25000000  0.93230897  0.57593928  1
  Ir  Ir17  1  0.25000000  0.56769103  0.07593928  1
  Ir  Ir18  1  0.25000000  0.56059912  0.30558478  1
  Ir  Ir19  1  0.75000000  0.43940088  0.69441522  1
  Ir  Ir20  1  0.25000000  0.93940088  0.80558478  1
  Ir  Ir21  1  0.75000000  0.43230897  0.92406072  1
  Ir  Ir22  1  0.75000000  0.06769103  0.42406072  1
  Ir  Ir23  1  0.75000000  0.06059912  0.19441522  1
