# generated using pymatgen
data_MnSbSe2I
_symmetry_space_group_name_H-M   'P 1'
_cell_length_a   4.06282142
_cell_length_b   7.03278538
_cell_length_c   10.19848297
_cell_angle_alpha   91.57700443
_cell_angle_beta   90.00000000
_cell_angle_gamma   106.78904018
_symmetry_Int_Tables_number   1
_chemical_formula_structural   MnSbSe2I
_chemical_formula_sum   'Mn2 Sb2 Se4 I2'
_cell_volume   278.86444334
_cell_formula_units_Z   2
loop_
 _symmetry_equiv_pos_site_id
 _symmetry_equiv_pos_as_xyz
  1  'x, y, z'
loop_
 _atom_site_type_symbol
 _atom_site_label
 _atom_site_symmetry_multiplicity
 _atom_site_fract_x
 _atom_site_fract_y
 _atom_site_fract_z
 _atom_site_occupancy
  Mn  Mn0  1  0.00000000  0.00000000  0.00000000  1
  Mn  Mn1  1  0.00000000  0.00000000  0.50000000  1
  Sb  Sb2  1  0.70743856  0.41487711  0.31687275  1
  Sb  Sb3  1  0.29256144  0.58512289  0.68312725  1
  Se  Se4  1  0.07314773  0.14629545  0.25947040  1
  Se  Se5  1  0.36343811  0.72687622  0.44415462  1
  Se  Se6  1  0.92685227  0.85370455  0.74052960  1
  Se  Se7  1  0.63656189  0.27312378  0.55584538  1
  I  I8  1  0.63343289  0.26686578  0.92520024  1
  I  I9  1  0.36656711  0.73313422  0.07479976  1
