# generated using pymatgen
data_Te3Pt2
_symmetry_space_group_name_H-M   'P 1'
_cell_length_a   4.05771266
_cell_length_b   4.05948342
_cell_length_c   17.72989341
_cell_angle_alpha   96.35163550
_cell_angle_beta   90.00000000
_cell_angle_gamma   119.98557157
_symmetry_Int_Tables_number   1
_chemical_formula_structural   Te3Pt2
_chemical_formula_sum   'Te6 Pt4'
_cell_volume   250.88818106
_cell_formula_units_Z   2
loop_
 _symmetry_equiv_pos_site_id
 _symmetry_equiv_pos_as_xyz
  1  'x, y, z'
loop_
 _atom_site_type_symbol
 _atom_site_label
 _atom_site_symmetry_multiplicity
 _atom_site_fract_x
 _atom_site_fract_y
 _atom_site_fract_z
 _atom_site_occupancy
  Te  Te0  1  0.23451564  0.46903129  0.72925593  1
  Te  Te1  1  0.96383790  0.92767581  0.88880825  1
  Te  Te2  1  0.85119562  0.70239124  0.57291268  1
  Te  Te3  1  0.76548436  0.53096871  0.27074407  1
  Te  Te4  1  0.03616210  0.07232419  0.11119175  1
  Te  Te5  1  0.14880438  0.29760876  0.42708732  1
  Pt  Pt6  1  0.54231675  0.08463349  0.65011952  1
  Pt  Pt7  1  0.45768325  0.91536651  0.34988048  1
  Pt  Pt8  1  0.34704150  0.69408301  0.04206481  1
  Pt  Pt9  1  0.65295850  0.30591699  0.95793519  1
