# generated using pymatgen
data_FeTe2ClO5
_symmetry_space_group_name_H-M   'P 1'
_cell_length_a   6.69946090
_cell_length_b   13.35427087
_cell_length_c   14.41736415
_cell_angle_alpha   108.28936884
_cell_angle_beta   90.00000000
_cell_angle_gamma   90.00000000
_symmetry_Int_Tables_number   1
_chemical_formula_structural   FeTe2ClO5
_chemical_formula_sum   'Fe8 Te16 Cl8 O40'
_cell_volume   1224.71046663
_cell_formula_units_Z   8
loop_
 _symmetry_equiv_pos_site_id
 _symmetry_equiv_pos_as_xyz
  1  'x, y, z'
loop_
 _atom_site_type_symbol
 _atom_site_label
 _atom_site_symmetry_multiplicity
 _atom_site_fract_x
 _atom_site_fract_y
 _atom_site_fract_z
 _atom_site_occupancy
  Fe  Fe0  1  0.99567997  0.88064287  0.02138998  1
  Fe  Fe1  1  0.49567997  0.11935713  0.47861002  1
  Fe  Fe2  1  0.00432003  0.11935713  0.97861002  1
  Fe  Fe3  1  0.79028204  0.06475416  0.64454037  1
  Fe  Fe4  1  0.70971796  0.06475416  0.14454037  1
  Fe  Fe5  1  0.29028204  0.93524584  0.85545963  1
  Fe  Fe6  1  0.50432003  0.88064287  0.52138998  1
  Fe  Fe7  1  0.20971796  0.93524584  0.35545963  1
  Te  Te8  1  0.80677965  0.88885246  0.78499188  1
  Te  Te9  1  0.02276968  0.62921040  0.85844827  1
  Te  Te10  1  0.69322035  0.88885246  0.28499188  1
  Te  Te11  1  0.01461020  0.20012402  0.52148914  1
  Te  Te12  1  0.97723032  0.37078960  0.14155173  1
  Te  Te13  1  0.30677965  0.11114754  0.71500812  1
  Te  Te14  1  0.79584211  0.28573916  0.86124354  1
  Te  Te15  1  0.20415789  0.71426084  0.13875646  1
  Te  Te16  1  0.98538980  0.79987598  0.47851086  1
  Te  Te17  1  0.51461020  0.79987598  0.97851086  1
  Te  Te18  1  0.70415789  0.28573916  0.36124354  1
  Te  Te19  1  0.29584211  0.71426084  0.63875646  1
  Te  Te20  1  0.52276968  0.37078960  0.64155173  1
  Te  Te21  1  0.19322035  0.11114754  0.21500812  1
  Te  Te22  1  0.47723032  0.62921040  0.35844827  1
  Te  Te23  1  0.48538980  0.20012402  0.02148914  1
  Cl  Cl24  1  0.12814159  0.38875302  0.78176323  1
  Cl  Cl25  1  0.87185841  0.61124698  0.21823677  1
  Cl  Cl26  1  0.37185841  0.38875302  0.28176323  1
  Cl  Cl27  1  0.62814159  0.61124698  0.71823677  1
  Cl  Cl28  1  0.21592878  0.43669301  0.05040134  1
  Cl  Cl29  1  0.71592878  0.56330699  0.44959866  1
  Cl  Cl30  1  0.28407122  0.43669301  0.55040134  1
  Cl  Cl31  1  0.78407122  0.56330699  0.94959866  1
  O  O32  1  0.22875869  0.78481751  0.77278250  1
  O  O33  1  0.01180469  0.81094527  0.12100336  1
  O  O34  1  0.24829682  0.98721784  0.24525093  1
  O  O35  1  0.25170318  0.98721784  0.74525093  1
  O  O36  1  0.28265185  0.88602061  0.97977395  1
  O  O37  1  0.48819531  0.81094527  0.62100336  1
  O  O38  1  0.55352367  0.21666476  0.89428518  1
  O  O39  1  0.75170318  0.01278216  0.75474907  1
  O  O40  1  0.07379514  0.10123612  0.63700845  1
  O  O41  1  0.98568565  0.96158861  0.89694703  1
  O  O42  1  0.98819531  0.18905473  0.87899664  1
  O  O43  1  0.51180469  0.18905473  0.37899664  1
  O  O44  1  0.27124131  0.78481751  0.27278250  1
  O  O45  1  0.42620486  0.10123612  0.13700845  1
  O  O46  1  0.22771967  0.65728454  0.95085631  1
  O  O47  1  0.92620486  0.89876388  0.36299155  1
  O  O48  1  0.57379514  0.89876388  0.86299155  1
  O  O49  1  0.90088949  0.76635283  0.90604676  1
  O  O50  1  0.72771967  0.34271546  0.54914369  1
  O  O51  1  0.30130592  0.09052314  0.94817751  1
  O  O52  1  0.21734815  0.88602061  0.47977395  1
  O  O53  1  0.48568565  0.03841139  0.60305297  1
  O  O54  1  0.71734815  0.11397939  0.02022605  1
  O  O55  1  0.69869408  0.90947686  0.05182249  1
  O  O56  1  0.44647633  0.78333524  0.10571482  1
  O  O57  1  0.74829682  0.01278216  0.25474907  1
  O  O58  1  0.19869408  0.09052314  0.44817751  1
  O  O59  1  0.51431435  0.96158861  0.39694703  1
  O  O60  1  0.05352367  0.78333524  0.60571482  1
  O  O61  1  0.59911051  0.76635283  0.40604676  1
  O  O62  1  0.77124131  0.21518249  0.22721750  1
  O  O63  1  0.78265185  0.11397939  0.52022605  1
  O  O64  1  0.72875869  0.21518249  0.72721750  1
  O  O65  1  0.80130592  0.90947686  0.55182249  1
  O  O66  1  0.09911051  0.23364717  0.09395324  1
  O  O67  1  0.27228033  0.65728454  0.45085631  1
  O  O68  1  0.94647633  0.21666476  0.39428518  1
  O  O69  1  0.77228033  0.34271546  0.04914369  1
  O  O70  1  0.01431435  0.03841139  0.10305297  1
  O  O71  1  0.40088949  0.23364717  0.59395324  1
