# generated using pymatgen
data_Al17Mo4
_symmetry_space_group_name_H-M   'P 1'
_cell_length_a   4.93790893
_cell_length_b   5.21592678
_cell_length_c   28.91617312
_cell_angle_alpha   85.51735999
_cell_angle_beta   85.10193765
_cell_angle_gamma   61.74807324
_symmetry_Int_Tables_number   1
_chemical_formula_structural   Al17Mo4
_chemical_formula_sum   'Al34 Mo8'
_cell_volume   653.03851467
_cell_formula_units_Z   2
loop_
 _symmetry_equiv_pos_site_id
 _symmetry_equiv_pos_as_xyz
  1  'x, y, z'
loop_
 _atom_site_type_symbol
 _atom_site_label
 _atom_site_symmetry_multiplicity
 _atom_site_fract_x
 _atom_site_fract_y
 _atom_site_fract_z
 _atom_site_occupancy
  Al  Al0  1  0.61130569  0.50290450  0.24288925  1
  Al  Al1  1  0.65295289  0.50000000  0.50000000  1
  Al  Al2  1  0.25597447  0.16009081  0.64450336  1
  Al  Al3  1  0.55169553  0.88552825  0.04935319  1
  Al  Al4  1  0.13718990  0.61213901  0.45054814  1
  Al  Al5  1  0.19987805  0.38786099  0.54945186  1
  Al  Al6  1  0.36868318  0.59734167  0.66429671  1
  Al  Al7  1  0.06056764  0.83990919  0.35549664  1
  Al  Al8  1  0.50105407  0.24649557  0.11966023  1
  Al  Al9  1  0.48657698  0.11447175  0.95064681  1
  Al  Al10  1  0.08256776  0.99734924  0.25623504  1
  Al  Al11  1  0.07915424  0.78374394  0.09396540  1
  Al  Al12  1  0.22411744  0.07123064  0.47719055  1
  Al  Al13  1  0.46459968  0.42748462  0.02283363  1
  Al  Al14  1  0.95686358  0.21625606  0.90603460  1
  Al  Al15  1  0.32320606  0.90355568  0.83655569  1
  Al  Al16  1  0.77253864  0.92876936  0.52280945  1
  Al  Al17  1  0.63085320  0.65704680  0.14425989  1
  Al  Al18  1  0.33615204  0.00265076  0.74376496  1
  Al  Al19  1  0.73033754  0.28408580  0.59410799  1
  Al  Al20  1  0.03625387  1.00000000  1.00000000  1
  Al  Al21  1  0.06331742  0.09644432  0.16344431  1
  Al  Al22  1  0.91491792  0.57251538  0.97716637  1
  Al  Al23  1  0.13502724  0.55087449  0.19592315  1
  Al  Al24  1  0.86720987  0.75350443  0.88033977  1
  Al  Al25  1  0.88182488  0.44912551  0.80407685  1
  Al  Al26  1  0.60853132  0.71591420  0.40589201  1
  Al  Al27  1  0.43215989  0.34295320  0.85574011  1
  Al  Al28  1  0.63032156  0.40265833  0.33570329  1
  Al  Al29  1  0.35709943  0.49709550  0.75711075  1
  Al  Al30  1  0.81077754  0.05109477  0.69689956  1
  Al  Al31  1  0.82210497  0.74743839  0.62037288  1
  Al  Al32  1  0.18991623  0.25256161  0.37962712  1
  Al  Al33  1  0.55877087  0.94890523  0.30310044  1
  Mo  Mo34  1  0.81794909  0.98565003  0.79114969  1
  Mo  Mo35  1  0.98806939  0.33702562  0.07026810  1
  Mo  Mo36  1  0.29374485  0.83806789  0.57049131  1
  Mo  Mo37  1  0.70230505  0.16193211  0.42950869  1
  Mo  Mo38  1  0.87483530  0.51450277  0.70974377  1
  Mo  Mo39  1  0.39536310  0.66297438  0.92973190  1
  Mo  Mo40  1  0.59474880  0.01434997  0.20885031  1
  Mo  Mo41  1  0.09908185  0.48549723  0.29025623  1
