# generated using pymatgen
data_Rb3As7
_symmetry_space_group_name_H-M   'P 1'
_cell_length_a   7.79721983
_cell_length_b   13.39777007
_cell_length_c   27.57310606
_cell_angle_alpha   90.00000000
_cell_angle_beta   91.82430840
_cell_angle_gamma   90.00000000
_symmetry_Int_Tables_number   1
_chemical_formula_structural   Rb3As7
_chemical_formula_sum   'Rb24 As56'
_cell_volume   2878.97444258
_cell_formula_units_Z   8
loop_
 _symmetry_equiv_pos_site_id
 _symmetry_equiv_pos_as_xyz
  1  'x, y, z'
loop_
 _atom_site_type_symbol
 _atom_site_label
 _atom_site_symmetry_multiplicity
 _atom_site_fract_x
 _atom_site_fract_y
 _atom_site_fract_z
 _atom_site_occupancy
  Rb  Rb0  1  0.89507442  0.04938870  0.09954090  1
  Rb  Rb1  1  0.81460786  0.89496270  0.26418826  1
  Rb  Rb2  1  0.81288873  0.44811470  0.95175858  1
  Rb  Rb3  1  0.81288873  0.05188530  0.45175858  1
  Rb  Rb4  1  0.70965427  0.02139594  0.62673865  1
  Rb  Rb5  1  0.41330831  0.37856196  0.70483363  1
  Rb  Rb6  1  0.18539214  0.10503730  0.73581174  1
  Rb  Rb7  1  0.60960346  0.15869137  0.93416909  1
  Rb  Rb8  1  0.10492558  0.54938870  0.40045910  1
  Rb  Rb9  1  0.18539214  0.39496270  0.23581174  1
  Rb  Rb10  1  0.18711127  0.94811470  0.54824142  1
  Rb  Rb11  1  0.89507442  0.45061130  0.59954090  1
  Rb  Rb12  1  0.10492558  0.95061130  0.90045910  1
  Rb  Rb13  1  0.39039654  0.84130863  0.06583091  1
  Rb  Rb14  1  0.29034573  0.97860406  0.37326135  1
  Rb  Rb15  1  0.58669169  0.87856196  0.79516637  1
  Rb  Rb16  1  0.39039654  0.65869137  0.56583091  1
  Rb  Rb17  1  0.18711127  0.55188530  0.04824142  1
  Rb  Rb18  1  0.41330831  0.12143804  0.20483363  1
  Rb  Rb19  1  0.70965427  0.47860406  0.12673865  1
  Rb  Rb20  1  0.81460786  0.60503730  0.76418826  1
  Rb  Rb21  1  0.58669169  0.62143804  0.29516637  1
  Rb  Rb22  1  0.60960346  0.34130863  0.43416909  1
  Rb  Rb23  1  0.29034573  0.52139594  0.87326135  1
  As  As24  1  0.18941540  0.60707455  0.68827748  1
  As  As25  1  0.01698437  0.19759801  0.57898604  1
  As  As26  1  0.27863769  0.15884904  0.46783677  1
  As  As27  1  0.73945239  0.31243525  0.22941645  1
  As  As28  1  0.81058460  0.10707455  0.81172252  1
  As  As29  1  0.69377846  0.80373489  0.39067408  1
  As  As30  1  0.30622154  0.19626511  0.60932592  1
  As  As31  1  0.45584113  0.71666521  0.69822578  1
  As  As32  1  0.26054761  0.81243525  0.27058355  1
  As  As33  1  0.54758851  0.84173544  0.93256768  1
  As  As34  1  0.72136231  0.65884904  0.03216323  1
  As  As35  1  0.94007434  0.13193214  0.31375307  1
  As  As36  1  0.08002587  0.66827867  0.27348097  1
  As  As37  1  0.02251226  0.20898346  0.85058955  1
  As  As38  1  0.36512230  0.87522210  0.66777145  1
  As  As39  1  0.23464027  0.41710596  0.51714667  1
  As  As40  1  0.54415887  0.28333479  0.30177422  1
  As  As41  1  0.18941540  0.89292545  0.18827748  1
  As  As42  1  0.98301563  0.69759801  0.92101396  1
  As  As43  1  0.69377846  0.69626511  0.89067408  1
  As  As44  1  0.23464027  0.08289404  0.01714667  1
  As  As45  1  0.05678710  0.22966661  0.99852250  1
  As  As46  1  0.02251226  0.29101654  0.35058955  1
  As  As47  1  0.97748774  0.79101654  0.14941045  1
  As  As48  1  0.30622154  0.30373489  0.10932592  1
  As  As49  1  0.05992566  0.86806786  0.68624693  1
  As  As50  1  0.94007434  0.36806786  0.81375307  1
  As  As51  1  0.45241149  0.15826456  0.06743232  1
  As  As52  1  0.97748774  0.70898346  0.64941045  1
  As  As53  1  0.81058460  0.39292545  0.31172252  1
  As  As54  1  0.91997413  0.16827867  0.22651903  1
  As  As55  1  0.63487770  0.12477790  0.33222855  1
  As  As56  1  0.73945239  0.18756475  0.72941645  1
  As  As57  1  0.91997413  0.33172133  0.72651903  1
  As  As58  1  0.54758851  0.65826456  0.43256768  1
  As  As59  1  0.63487770  0.37522210  0.83222855  1
  As  As60  1  0.76535973  0.58289404  0.48285333  1
  As  As61  1  0.45241149  0.34173544  0.56743232  1
  As  As62  1  0.36512230  0.62477790  0.16777145  1
  As  As63  1  0.76535973  0.91710596  0.98285333  1
  As  As64  1  0.94321290  0.77033339  0.00147750  1
  As  As65  1  0.51601199  0.66504213  0.96676862  1
  As  As66  1  0.98301563  0.80240199  0.42101396  1
  As  As67  1  0.45584113  0.78333479  0.19822578  1
  As  As68  1  0.08002587  0.83172133  0.77348097  1
  As  As69  1  0.26054761  0.68756475  0.77058355  1
  As  As70  1  0.48398801  0.33495787  0.03323138  1
  As  As71  1  0.27863769  0.34115096  0.96783677  1
  As  As72  1  0.94321290  0.72966661  0.50147750  1
  As  As73  1  0.72136231  0.84115096  0.53216323  1
  As  As74  1  0.05678710  0.27033339  0.49852250  1
  As  As75  1  0.01698437  0.30240199  0.07898604  1
  As  As76  1  0.05992566  0.63193214  0.18624693  1
  As  As77  1  0.51601199  0.83495787  0.46676862  1
  As  As78  1  0.48398801  0.16504213  0.53323138  1
  As  As79  1  0.54415887  0.21666521  0.80177422  1
