# generated using pymatgen
data_Bi2(PSe3)3
_symmetry_space_group_name_H-M   'P 1'
_cell_length_a   6.97134932
_cell_length_b   12.46791377
_cell_length_c   18.25460193
_cell_angle_alpha   94.29139988
_cell_angle_beta   90.38878118
_cell_angle_gamma   91.58834984
_symmetry_Int_Tables_number   1
_chemical_formula_structural   Bi2(PSe3)3
_chemical_formula_sum   'Bi8 P12 Se36'
_cell_volume   1581.53802853
_cell_formula_units_Z   4
loop_
 _symmetry_equiv_pos_site_id
 _symmetry_equiv_pos_as_xyz
  1  'x, y, z'
loop_
 _atom_site_type_symbol
 _atom_site_label
 _atom_site_symmetry_multiplicity
 _atom_site_fract_x
 _atom_site_fract_y
 _atom_site_fract_z
 _atom_site_occupancy
  Bi  Bi0  1  0.52265359  0.39685589  0.38227231  1
  Bi  Bi1  1  0.06408320  0.46737154  0.81033093  1
  Bi  Bi2  1  0.43528288  0.97557320  0.31217904  1
  Bi  Bi3  1  0.98370159  0.90412978  0.88628116  1
  Bi  Bi4  1  0.01629841  0.09587022  0.11371884  1
  Bi  Bi5  1  0.56471712  0.02442680  0.68782096  1
  Bi  Bi6  1  0.93591680  0.53262846  0.18966907  1
  Bi  Bi7  1  0.47734641  0.60314411  0.61772769  1
  P  P8  1  0.56495387  0.92066821  0.51253937  1
  P  P9  1  0.54718699  0.25240177  0.18054822  1
  P  P10  1  0.05917711  0.48846301  0.44229835  1
  P  P11  1  0.04885458  0.16377584  0.77176525  1
  P  P12  1  0.43147546  0.41275127  0.15266009  1
  P  P13  1  0.92952058  0.17520983  0.88687639  1
  P  P14  1  0.95114542  0.83622416  0.22823475  1
  P  P15  1  0.45281301  0.74759823  0.81945178  1
  P  P16  1  0.43504613  0.07933179  0.48746063  1
  P  P17  1  0.56852454  0.58724873  0.84733991  1
  P  P18  1  0.94082289  0.51153699  0.55770165  1
  P  P19  1  0.07047942  0.82479017  0.11312361  1
  Se  Se20  1  0.16225455  0.38252526  0.08796552  1
  Se  Se21  1  0.30315509  0.18763018  0.24265924  1
  Se  Se22  1  0.67954901  0.06084434  0.88612340  1
  Se  Se23  1  0.30439628  0.27103373  0.77664177  1
  Se  Se24  1  0.17582070  0.78181900  0.29950377  1
  Se  Se25  1  0.69560372  0.72896627  0.22335823  1
  Se  Se26  1  0.64721155  0.14855127  0.41293401  1
  Se  Se27  1  0.33073019  0.59156776  0.44564733  1
  Se  Se28  1  0.13511623  0.65449789  0.08425467  1
  Se  Se29  1  0.37391313  0.16728466  0.59386082  1
  Se  Se30  1  0.64784535  0.48779989  0.08250353  1
  Se  Se31  1  0.12278462  0.31879866  0.41734187  1
  Se  Se32  1  0.20456681  0.69960530  0.74630692  1
  Se  Se33  1  0.35215465  0.51220011  0.91749647  1
  Se  Se34  1  0.79543319  0.30039470  0.25369308  1
  Se  Se35  1  0.86488377  0.34550211  0.91574533  1
  Se  Se36  1  0.88478940  0.01142036  0.25036618  1
  Se  Se37  1  0.84028787  0.56083588  0.37362305  1
  Se  Se38  1  0.69684491  0.81236982  0.75734076  1
  Se  Se39  1  0.66926981  0.40843224  0.55435267  1
  Se  Se40  1  0.11521060  0.98857964  0.74963382  1
  Se  Se41  1  0.35278845  0.85144873  0.58706599  1
  Se  Se42  1  0.32045099  0.93915566  0.11387660  1
  Se  Se43  1  0.38668217  0.83503965  0.92473173  1
  Se  Se44  1  0.87721538  0.68120134  0.58265813  1
  Se  Se45  1  0.83566767  0.89604551  0.04808295  1
  Se  Se46  1  0.17245553  0.03174691  0.42211273  1
  Se  Se47  1  0.37898060  0.51054119  0.25869940  1
  Se  Se48  1  0.62101940  0.48945881  0.74130060  1
  Se  Se49  1  0.83774545  0.61747474  0.91203448  1
  Se  Se50  1  0.15971213  0.43916412  0.62637695  1
  Se  Se51  1  0.82754447  0.96825309  0.57788727  1
  Se  Se52  1  0.62608687  0.83271534  0.40613918  1
  Se  Se53  1  0.61331783  0.16496035  0.07526827  1
  Se  Se54  1  0.16433233  0.10395449  0.95191705  1
  Se  Se55  1  0.82417930  0.21818100  0.70049623  1
