# generated using pymatgen
data_Li9Mn2Co5O16
_symmetry_space_group_name_H-M   'P 1'
_cell_length_a   2.87573377
_cell_length_b   10.35502216
_cell_length_c   9.80021024
_cell_angle_alpha   98.52582140
_cell_angle_beta   90.00000000
_cell_angle_gamma   90.00000000
_symmetry_Int_Tables_number   1
_chemical_formula_structural   Li9Mn2Co5O16
_chemical_formula_sum   'Li9 Mn2 Co5 O16'
_cell_volume   288.60846464
_cell_formula_units_Z   1
loop_
 _symmetry_equiv_pos_site_id
 _symmetry_equiv_pos_as_xyz
  1  'x, y, z'
loop_
 _atom_site_type_symbol
 _atom_site_label
 _atom_site_symmetry_multiplicity
 _atom_site_fract_x
 _atom_site_fract_y
 _atom_site_fract_z
 _atom_site_occupancy
  Li  Li0  1  0.50000000  0.12814437  0.26592489  1
  Li  Li1  1  0.50000000  0.37716491  0.74408765  1
  Li  Li2  1  0.50000000  0.62283509  0.25591235  1
  Li  Li3  1  0.00000000  0.39163423  0.27054163  1
  Li  Li4  1  -0.00000000  0.60836577  0.72945837  1
  Li  Li5  1  -0.00000000  0.87500485  0.26513155  1
  Li  Li6  1  0.50000000  0.87185563  0.73407511  1
  Li  Li7  1  -0.00000000  0.12499515  0.73486845  1
  Li  Li8  1  0.50000000  0.50000000  0.50000000  1
  Mn  Mn9  1  0.00000000  0.00000000  0.00000000  1
  Mn  Mn10  1  -0.00000000  0.50000000  0.00000000  1
  Co  Co11  1  -0.00000000  0.26731750  0.50580921  1
  Co  Co12  1  0.00000000  0.73268250  0.49419079  1
  Co  Co13  1  0.50000000  0.75331025  0.00326555  1
  Co  Co14  1  0.50000000  0.00000000  0.50000000  1
  Co  Co15  1  0.50000000  0.24668975  0.99673445  1
  O  O16  1  0.50000000  0.95273744  0.11572620  1
  O  O17  1  0.50000000  0.17247373  0.60365879  1
  O  O18  1  0.50000000  0.44018020  0.11317785  1
  O  O19  1  -0.00000000  0.17818003  0.09994460  1
  O  O20  1  -0.00000000  0.42115491  0.62107925  1
  O  O21  1  -0.00000000  0.70194028  0.11567159  1
  O  O22  1  0.50000000  0.69619148  0.62178868  1
  O  O23  1  0.00000000  0.94551553  0.60863377  1
  O  O24  1  0.50000000  0.30380852  0.37821132  1
  O  O25  1  0.50000000  0.55981980  0.88682215  1
  O  O26  1  0.50000000  0.82752627  0.39634121  1
  O  O27  1  0.00000000  0.57884509  0.37892075  1
  O  O28  1  0.00000000  0.82181997  0.90005540  1
  O  O29  1  0.00000000  0.05448447  0.39136623  1
  O  O30  1  0.50000000  0.04726256  0.88427380  1
  O  O31  1  0.00000000  0.29805972  0.88432841  1
