# generated using pymatgen
data_Mn2V2O7
_symmetry_space_group_name_H-M   'P 1'
_cell_length_a   7.00732112
_cell_length_b   8.11020885
_cell_length_c   11.05142370
_cell_angle_alpha   86.94325369
_cell_angle_beta   71.52455519
_cell_angle_gamma   83.68363850
_symmetry_Int_Tables_number   1
_chemical_formula_structural   Mn2V2O7
_chemical_formula_sum   'Mn8 V8 O28'
_cell_volume   591.96146049
_cell_formula_units_Z   4
loop_
 _symmetry_equiv_pos_site_id
 _symmetry_equiv_pos_as_xyz
  1  'x, y, z'
loop_
 _atom_site_type_symbol
 _atom_site_label
 _atom_site_symmetry_multiplicity
 _atom_site_fract_x
 _atom_site_fract_y
 _atom_site_fract_z
 _atom_site_occupancy
  Mn  Mn0  1  0.08154022  0.13947561  0.07841174  1
  Mn  Mn1  1  0.58394964  0.59521418  0.09622843  1
  Mn  Mn2  1  0.40411346  0.40590320  0.40586163  1
  Mn  Mn3  1  0.91845978  0.86052439  0.92158826  1
  Mn  Mn4  1  0.59588654  0.59409680  0.59413837  1
  Mn  Mn5  1  0.89869454  0.88473675  0.41538257  1
  Mn  Mn6  1  0.10130546  0.11526325  0.58461743  1
  Mn  Mn7  1  0.41605036  0.40478582  0.90377157  1
  V  V8  1  0.07533808  0.71758106  0.63560819  1
  V  V9  1  0.05348283  0.59609181  0.15016881  1
  V  V10  1  0.56801953  0.17164173  0.63110418  1
  V  V11  1  0.92466192  0.28241894  0.36439181  1
  V  V12  1  0.94651717  0.40390819  0.84983119  1
  V  V13  1  0.43198047  0.82835827  0.36889582  1
  V  V14  1  0.56490281  0.14890431  0.12935600  1
  V  V15  1  0.43509719  0.85109569  0.87064400  1
  O  O16  1  0.60416184  0.81908194  0.95725848  1
  O  O17  1  0.87780569  0.69398602  0.57743857  1
  O  O18  1  0.51182583  0.01664773  0.75284642  1
  O  O19  1  0.60019986  0.81700711  0.45520872  1
  O  O20  1  0.12060362  0.33085784  0.92916970  1
  O  O21  1  0.12219431  0.30601398  0.42256143  1
  O  O22  1  0.18047515  0.88924160  0.46702643  1
  O  O23  1  0.44772904  0.67621998  0.78628396  1
  O  O24  1  0.18813256  0.91432806  0.96360219  1
  O  O25  1  0.30239931  0.59434048  0.55956778  1
  O  O26  1  0.69760069  0.40565952  0.44043222  1
  O  O27  1  0.81952485  0.11075840  0.53297357  1
  O  O28  1  0.54590523  0.35660676  0.70734888  1
  O  O29  1  0.00152319  0.38795861  0.20617076  1
  O  O30  1  0.30703336  0.57903641  0.05431253  1
  O  O31  1  0.05432480  0.90671947  0.71513770  1
  O  O32  1  0.02659027  0.71448082  0.27567301  1
  O  O33  1  0.81186744  0.08567194  0.03639781  1
  O  O34  1  0.39583816  0.18091806  0.04274152  1
  O  O35  1  0.55227096  0.32378002  0.21371604  1
  O  O36  1  0.94567520  0.09328053  0.28486230  1
  O  O37  1  0.45409477  0.64339324  0.29265112  1
  O  O38  1  0.39980014  0.18299289  0.54479128  1
  O  O39  1  0.48817417  0.98335227  0.24715358  1
  O  O40  1  0.97340973  0.28551918  0.72432699  1
  O  O41  1  0.99847681  0.61204139  0.79382924  1
  O  O42  1  0.69296664  0.42096359  0.94568747  1
  O  O43  1  0.87939638  0.66914216  0.07083030  1
