# generated using pymatgen
data_LiMo2(PO4)3
_symmetry_space_group_name_H-M   'P 1'
_cell_length_a   8.80750118
_cell_length_b   8.90512114
_cell_length_c   8.87257464
_cell_angle_alpha   119.87919043
_cell_angle_beta   59.75519101
_cell_angle_gamma   120.32813910
_symmetry_Int_Tables_number   1
_chemical_formula_structural   LiMo2(PO4)3
_chemical_formula_sum   'Li2 Mo4 P6 O24'
_cell_volume   490.37019229
_cell_formula_units_Z   2
loop_
 _symmetry_equiv_pos_site_id
 _symmetry_equiv_pos_as_xyz
  1  'x, y, z'
loop_
 _atom_site_type_symbol
 _atom_site_label
 _atom_site_symmetry_multiplicity
 _atom_site_fract_x
 _atom_site_fract_y
 _atom_site_fract_z
 _atom_site_occupancy
  Li  Li0  1  0.50546836  0.48755330  0.41422587  1
  Li  Li1  1  0.99452874  0.01244678  0.93214258  1
  Mo  Mo2  1  0.14283413  0.42506174  0.14275134  1
  Mo  Mo3  1  0.35716677  0.07493855  0.36052332  1
  Mo  Mo4  1  0.64096224  0.92374949  0.64119834  1
  Mo  Mo5  1  0.85903797  0.57625060  0.85841098  1
  P  P6  1  0.04238061  0.25451732  0.45992895  1
  P  P7  1  0.54315644  0.74839067  0.24595980  1
  P  P8  1  0.24999955  0.74999982  0.96197250  1
  P  P9  1  0.75000027  0.24999979  0.04005931  1
  P  P10  1  0.45762003  0.24548286  0.74779249  1
  P  P11  1  0.95684405  0.75160954  0.54072487  1
  O  O12  1  0.29493091  0.92515838  0.12403282  1
  O  O13  1  0.11381178  0.93197491  0.50715234  1
  O  O14  1  0.05983097  0.25357176  0.27647192  1
  O  O15  1  0.00253095  0.42832474  0.61962439  1
  O  O16  1  0.08633293  0.74760141  0.93816785  1
  O  O17  1  0.50501905  0.92032218  0.30049348  1
  O  O18  1  0.38618967  0.56802534  0.18898850  1
  O  O19  1  0.23285342  0.26627312  0.43952281  1
  O  O20  1  0.72843103  0.75365235  0.07875757  1
  O  O21  1  0.56081701  0.73462966  0.40356831  1
  O  O22  1  0.20506700  0.57484105  0.99380602  1
  O  O23  1  0.41366721  0.75239777  0.77689944  1
  O  O24  1  0.58561770  0.25649463  0.22859151  1
  O  O25  1  0.80211658  0.42637802  0.00952866  1
  O  O26  1  0.26714743  0.23372755  0.90610427  1
  O  O27  1  0.44016869  0.24642822  0.58273182  1
  O  O28  1  0.77157000  0.74634913  0.55353657  1
  O  O29  1  0.61725135  0.42272065  0.79837104  1
  O  O30  1  0.49746941  0.07167570  0.69383118  1
  O  O31  1  0.91438058  0.24350439  0.05771607  1
  O  O32  1  0.99498053  0.57967815  0.38518819  1
  O  O33  1  0.93918365  0.76536949  0.72975429  1
  O  O34  1  0.88274936  0.07727971  0.49290176  1
  O  O35  1  0.69788358  0.07362124  0.88526683  1
