# generated using pymatgen
data_PbI2
_symmetry_space_group_name_H-M   'P 1'
_cell_length_a   29.88464462
_cell_length_b   29.88464456
_cell_length_c   29.88464374
_cell_angle_alpha   8.96159756
_cell_angle_beta   8.96159812
_cell_angle_gamma   8.96159714
_symmetry_Int_Tables_number   1
_chemical_formula_structural   PbI2
_chemical_formula_sum   'Pb4 I8'
_cell_volume   562.00552122
_cell_formula_units_Z   4
loop_
 _symmetry_equiv_pos_site_id
 _symmetry_equiv_pos_as_xyz
  1  'x, y, z'
loop_
 _atom_site_type_symbol
 _atom_site_label
 _atom_site_symmetry_multiplicity
 _atom_site_fract_x
 _atom_site_fract_y
 _atom_site_fract_z
 _atom_site_occupancy
  Pb  Pb0  1  0.08331442  0.08331442  0.08331442  1
  Pb  Pb1  1  0.00000000  0.00000000  0.00000000  1
  Pb  Pb2  1  0.91668558  0.91668558  0.91668558  1
  Pb  Pb3  1  0.50000000  0.50000000  0.50000000  1
  I  I4  1  0.35425876  0.35425876  0.35425876  1
  I  I5  1  0.18760313  0.18760313  0.18760313  1
  I  I6  1  0.81239687  0.81239687  0.81239687  1
  I  I7  1  0.27093899  0.27093899  0.27093899  1
  I  I8  1  0.64574124  0.64574124  0.64574124  1
  I  I9  1  0.72906101  0.72906101  0.72906101  1
  I  I10  1  0.56241986  0.56241986  0.56241986  1
  I  I11  1  0.43758014  0.43758014  0.43758014  1
