# generated using pymatgen
data_Re(TeCl6)2
_symmetry_space_group_name_H-M   'P 1'
_cell_length_a   14.16643235
_cell_length_b   14.16643231
_cell_length_c   14.16643176
_cell_angle_alpha   47.92995685
_cell_angle_beta   47.92995708
_cell_angle_gamma   47.92995721
_symmetry_Int_Tables_number   1
_chemical_formula_structural   Re(TeCl6)2
_chemical_formula_sum   'Re3 Te6 Cl36'
_cell_volume   1435.02577942
_cell_formula_units_Z   3
loop_
 _symmetry_equiv_pos_site_id
 _symmetry_equiv_pos_as_xyz
  1  'x, y, z'
loop_
 _atom_site_type_symbol
 _atom_site_label
 _atom_site_symmetry_multiplicity
 _atom_site_fract_x
 _atom_site_fract_y
 _atom_site_fract_z
 _atom_site_occupancy
  Re  Re0  1  0.74713673  0.74713673  0.74713673  1
  Re  Re1  1  0.25286327  0.25286327  0.25286327  1
  Re  Re2  1  0.50000000  0.50000000  0.50000000  1
  Te  Te3  1  0.25032259  0.60898260  0.89413432  1
  Te  Te4  1  0.89413432  0.25032259  0.60898260  1
  Te  Te5  1  0.74967741  0.39101740  0.10586568  1
  Te  Te6  1  0.10586568  0.74967741  0.39101740  1
  Te  Te7  1  0.39101740  0.10586568  0.74967741  1
  Te  Te8  1  0.60898260  0.89413432  0.25032259  1
  Cl  Cl9  1  0.61562288  0.61102160  0.90590849  1
  Cl  Cl10  1  0.89655457  0.25333917  0.21907517  1
  Cl  Cl11  1  0.21907517  0.89655457  0.25333917  1
  Cl  Cl12  1  0.10344543  0.74666083  0.78092483  1
  Cl  Cl13  1  0.11983503  0.41047562  0.11763609  1
  Cl  Cl14  1  0.43517681  0.73178010  0.44156734  1
  Cl  Cl15  1  0.90590849  0.61562288  0.61102160  1
  Cl  Cl16  1  0.56482319  0.26821990  0.55843266  1
  Cl  Cl17  1  0.44156734  0.43517681  0.73178010  1
  Cl  Cl18  1  0.38897840  0.09409151  0.38437712  1
  Cl  Cl19  1  0.88236391  0.88016497  0.58952438  1
  Cl  Cl20  1  0.61102160  0.90590849  0.61562288  1
  Cl  Cl21  1  0.55843266  0.56482319  0.26821990  1
  Cl  Cl22  1  0.60928774  0.26514260  0.26191260  1
  Cl  Cl23  1  0.90216850  0.27047765  0.96193347  1
  Cl  Cl24  1  0.26191260  0.60928774  0.26514260  1
  Cl  Cl25  1  0.78092483  0.10344543  0.74666083  1
  Cl  Cl26  1  0.39071226  0.73485740  0.73808740  1
  Cl  Cl27  1  0.74666083  0.78092483  0.10344543  1
  Cl  Cl28  1  0.73178010  0.44156734  0.43517681  1
  Cl  Cl29  1  0.26514260  0.26191260  0.60928774  1
  Cl  Cl30  1  0.09409151  0.38437712  0.38897840  1
  Cl  Cl31  1  0.26821990  0.55843266  0.56482319  1
  Cl  Cl32  1  0.41047562  0.11763609  0.11983503  1
  Cl  Cl33  1  0.25333917  0.21907517  0.89655457  1
  Cl  Cl34  1  0.09783150  0.72952235  0.03806653  1
  Cl  Cl35  1  0.58952438  0.88236391  0.88016497  1
  Cl  Cl36  1  0.03806653  0.09783150  0.72952235  1
  Cl  Cl37  1  0.38437712  0.38897840  0.09409151  1
  Cl  Cl38  1  0.73485740  0.73808740  0.39071226  1
  Cl  Cl39  1  0.11763609  0.11983503  0.41047562  1
  Cl  Cl40  1  0.27047765  0.96193347  0.90216850  1
  Cl  Cl41  1  0.88016497  0.58952438  0.88236391  1
  Cl  Cl42  1  0.96193347  0.90216850  0.27047765  1
  Cl  Cl43  1  0.72952235  0.03806653  0.09783150  1
  Cl  Cl44  1  0.73808740  0.39071226  0.73485740  1
