# generated using pymatgen
data_V2P2PbO10
_symmetry_space_group_name_H-M   'P 1'
_cell_length_a   5.28343928
_cell_length_b   8.78720094
_cell_length_c   17.05588911
_cell_angle_alpha   90.00000000
_cell_angle_beta   91.05660711
_cell_angle_gamma   90.00000000
_symmetry_Int_Tables_number   1
_chemical_formula_structural   V2P2PbO10
_chemical_formula_sum   'V8 P8 Pb4 O40'
_cell_volume   791.71302582
_cell_formula_units_Z   4
loop_
 _symmetry_equiv_pos_site_id
 _symmetry_equiv_pos_as_xyz
  1  'x, y, z'
loop_
 _atom_site_type_symbol
 _atom_site_label
 _atom_site_symmetry_multiplicity
 _atom_site_fract_x
 _atom_site_fract_y
 _atom_site_fract_z
 _atom_site_occupancy
  V  V0  1  0.14547639  0.66540566  0.56855393  1
  V  V1  1  0.46280059  0.46313610  0.84873295  1
  V  V2  1  0.46280059  0.03686390  0.34873295  1
  V  V3  1  0.53719941  0.53686390  0.15126705  1
  V  V4  1  0.85452361  0.33459434  0.43144607  1
  V  V5  1  0.14547639  0.83459434  0.06855393  1
  V  V6  1  0.85452361  0.16540566  0.93144607  1
  V  V7  1  0.53719941  0.96313610  0.65126705  1
  P  P8  1  0.36716907  0.41142619  0.32241237  1
  P  P9  1  0.64252398  0.71776684  0.98159878  1
  P  P10  1  0.63283093  0.58857381  0.67758763  1
  P  P11  1  0.35747602  0.28223316  0.01840122  1
  P  P12  1  0.64252398  0.78223316  0.48159878  1
  P  P13  1  0.63283093  0.91142619  0.17758763  1
  P  P14  1  0.35747602  0.21776684  0.51840122  1
  P  P15  1  0.36716907  0.08857381  0.82241237  1
  Pb  Pb16  1  0.95171513  0.70301789  0.32027016  1
  Pb  Pb17  1  0.95171513  0.79698211  0.82027016  1
  Pb  Pb18  1  0.04828487  0.20301789  0.17972984  1
  Pb  Pb19  1  0.04828487  0.29698211  0.67972984  1
  O  O20  1  0.67957651  0.00904660  0.25198207  1
  O  O21  1  0.37881272  0.54110257  0.63735071  1
  O  O22  1  0.40203682  0.68389006  0.48729274  1
  O  O23  1  0.78669805  0.06146801  0.68519675  1
  O  O24  1  0.19114380  0.67020403  0.11344381  1
  O  O25  1  0.80885620  0.32979597  0.88655619  1
  O  O26  1  0.63108841  0.74079900  0.20163084  1
  O  O27  1  0.36891159  0.24079900  0.29836916  1
  O  O28  1  0.11145588  0.18106123  0.02077648  1
  O  O29  1  0.62118728  0.45889743  0.36264929  1
  O  O30  1  0.35404439  0.35954924  0.10139606  1
  O  O31  1  0.32042349  0.99095340  0.74801793  1
  O  O32  1  0.64595561  0.85954924  0.39860394  1
  O  O33  1  0.88854412  0.81893877  0.97922352  1
  O  O34  1  0.19114380  0.82979597  0.61344381  1
  O  O35  1  0.13647054  0.05613000  0.87519621  1
  O  O36  1  0.66305211  0.89813889  0.54802364  1
  O  O37  1  0.33694789  0.39813889  0.95197636  1
  O  O38  1  0.88854412  0.68106123  0.47922352  1
  O  O39  1  0.86352946  0.94387000  0.12480379  1
  O  O40  1  0.11145588  0.31893877  0.52077648  1
  O  O41  1  0.63108841  0.75920100  0.70163084  1
  O  O42  1  0.21330195  0.93853199  0.31480325  1
  O  O43  1  0.62118728  0.04110257  0.86264929  1
  O  O44  1  0.40203682  0.81610994  0.98729274  1
  O  O45  1  0.59796318  0.31610994  0.51270726  1
  O  O46  1  0.80885620  0.17020403  0.38655619  1
  O  O47  1  0.37881272  0.95889743  0.13735071  1
  O  O48  1  0.86352946  0.55613000  0.62480379  1
  O  O49  1  0.67957651  0.49095340  0.75198207  1
  O  O50  1  0.32042349  0.50904660  0.24801793  1
  O  O51  1  0.21330195  0.56146801  0.81480325  1
  O  O52  1  0.64595561  0.64045076  0.89860394  1
  O  O53  1  0.36891159  0.25920100  0.79836916  1
  O  O54  1  0.33694789  0.10186111  0.45197636  1
  O  O55  1  0.66305211  0.60186111  0.04802364  1
  O  O56  1  0.78669805  0.43853199  0.18519675  1
  O  O57  1  0.59796318  0.18389006  0.01270726  1
  O  O58  1  0.13647054  0.44387000  0.37519621  1
  O  O59  1  0.35404439  0.14045076  0.60139606  1
