# generated using pymatgen
data_Ga2Au7
_symmetry_space_group_name_H-M   'P 1'
_cell_length_a   7.84077934
_cell_length_b   7.84077914
_cell_length_c   9.02118445
_cell_angle_alpha   90.00000000
_cell_angle_beta   90.00000000
_cell_angle_gamma   120.00000085
_symmetry_Int_Tables_number   1
_chemical_formula_structural   Ga2Au7
_chemical_formula_sum   'Ga6 Au21'
_cell_volume   480.30006240
_cell_formula_units_Z   3
loop_
 _symmetry_equiv_pos_site_id
 _symmetry_equiv_pos_as_xyz
  1  'x, y, z'
loop_
 _atom_site_type_symbol
 _atom_site_label
 _atom_site_symmetry_multiplicity
 _atom_site_fract_x
 _atom_site_fract_y
 _atom_site_fract_z
 _atom_site_occupancy
  Ga  Ga0  1  0.33333300  0.66666700  0.17734402  1
  Ga  Ga1  1  0.00000000  0.00000000  0.68958039  1
  Ga  Ga2  1  0.33333300  0.66666700  0.82265598  1
  Ga  Ga3  1  0.66666700  0.33333300  0.82265598  1
  Ga  Ga4  1  0.66666700  0.33333300  0.17734402  1
  Ga  Ga5  1  0.00000000  0.00000000  0.31041961  1
  Au  Au6  1  0.00000000  0.36081908  0.33127624  1
  Au  Au7  1  0.68612373  0.00000000  0.83125772  1
  Au  Au8  1  1.00000000  0.72263933  0.50000000  1
  Au  Au9  1  0.00000000  0.68612373  0.83125772  1
  Au  Au10  1  0.31387627  0.31387627  0.16874228  1
  Au  Au11  1  0.27736067  0.27736067  0.50000000  1
  Au  Au12  1  0.00000000  0.68612373  0.16874228  1
  Au  Au13  1  0.72263933  0.00000000  0.50000000  1
  Au  Au14  1  0.36081908  0.00000000  0.33127624  1
  Au  Au15  1  0.63918092  0.63918092  0.66872376  1
  Au  Au16  1  0.36829151  0.00000000  0.00000000  1
  Au  Au17  1  0.66666700  0.33333300  0.50000000  1
  Au  Au18  1  0.36081908  0.00000000  0.66872376  1
  Au  Au19  1  0.00000000  0.00000000  0.00000000  1
  Au  Au20  1  0.31387627  0.31387627  0.83125772  1
  Au  Au21  1  0.63170849  0.63170849  0.00000000  1
  Au  Au22  1  0.68612373  0.00000000  0.16874228  1
  Au  Au23  1  0.63918092  0.63918092  0.33127624  1
  Au  Au24  1  0.00000000  0.36829151  0.00000000  1
  Au  Au25  1  0.33333300  0.66666700  0.50000000  1
  Au  Au26  1  0.00000000  0.36081908  0.66872376  1
