# generated using pymatgen
data_Nd5Ti4FeO17
_symmetry_space_group_name_H-M   'P 1'
_cell_length_a   5.50361250
_cell_length_b   7.74454316
_cell_length_c   32.16366403
_cell_angle_alpha   96.96938473
_cell_angle_beta   90.00000000
_cell_angle_gamma   90.00000000
_symmetry_Int_Tables_number   1
_chemical_formula_structural   Nd5Ti4FeO17
_chemical_formula_sum   'Nd20 Ti16 Fe4 O68'
_cell_volume   1360.78122880
_cell_formula_units_Z   4
loop_
 _symmetry_equiv_pos_site_id
 _symmetry_equiv_pos_as_xyz
  1  'x, y, z'
loop_
 _atom_site_type_symbol
 _atom_site_label
 _atom_site_symmetry_multiplicity
 _atom_site_fract_x
 _atom_site_fract_y
 _atom_site_fract_z
 _atom_site_occupancy
  Nd  Nd0  1  0.04200254  0.64459612  0.29924477  1
  Nd  Nd1  1  1.00126856  0.29952634  0.09658449  1
  Nd  Nd2  1  0.50126856  0.70047366  0.40341551  1
  Nd  Nd3  1  0.47904341  0.78807809  0.57898357  1
  Nd  Nd4  1  0.52095659  0.21192191  0.42101643  1
  Nd  Nd5  1  0.54200254  0.35540388  0.20075523  1
  Nd  Nd6  1  0.38653845  0.14261950  0.77844641  1
  Nd  Nd7  1  0.49873144  0.29952634  0.59658449  1
  Nd  Nd8  1  0.97904341  0.21192191  0.92101643  1
  Nd  Nd9  1  0.88653845  0.85738050  0.72155359  1
  Nd  Nd10  1  0.45799746  0.64459612  0.79924477  1
  Nd  Nd11  1  0.99006515  0.25541717  0.50861138  1
  Nd  Nd12  1  0.49006515  0.74458283  0.99138862  1
  Nd  Nd13  1  0.95799746  0.35540388  0.70075523  1
  Nd  Nd14  1  0.00993485  0.74458283  0.49138862  1
  Nd  Nd15  1  0.50993485  0.25541717  0.00861138  1
  Nd  Nd16  1  0.02095659  0.78807809  0.07898357  1
  Nd  Nd17  1  0.11346155  0.14261950  0.27844641  1
  Nd  Nd18  1  0.61346155  0.85738050  0.22155359  1
  Nd  Nd19  1  -0.00126856  0.70047366  0.90341551  1
  Ti  Ti20  1  0.04163966  0.07607881  0.17616514  1
  Ti  Ti21  1  0.01428838  0.45311928  0.40545773  1
  Ti  Ti22  1  0.54163966  0.92392119  0.32383486  1
  Ti  Ti23  1  0.01689921  0.95495653  0.40657203  1
  Ti  Ti24  1  0.48310079  0.95495653  0.90657203  1
  Ti  Ti25  1  0.98571162  0.54688072  0.59454227  1
  Ti  Ti26  1  0.55249889  0.40739950  0.32110571  1
  Ti  Ti27  1  0.98310079  0.04504347  0.59342797  1
  Ti  Ti28  1  0.51689921  0.04504347  0.09342797  1
  Ti  Ti29  1  0.95836034  0.92392119  0.82383486  1
  Ti  Ti30  1  0.45836034  0.07607881  0.67616514  1
  Ti  Ti31  1  0.51428838  0.54688072  0.09454227  1
  Ti  Ti32  1  0.05249889  0.59260050  0.17889429  1
  Ti  Ti33  1  0.44750111  0.59260050  0.67889429  1
  Ti  Ti34  1  0.94750111  0.40739950  0.82110571  1
  Ti  Ti35  1  0.48571162  0.45311928  0.90545773  1
  Fe  Fe36  1  0.50000000  0.50000000  0.50000000  1
  Fe  Fe37  1  0.00000000  0.00000000  0.00000000  1
  Fe  Fe38  1  0.00000000  0.50000000  0.00000000  1
  Fe  Fe39  1  0.50000000  0.00000000  0.50000000  1
  O  O40  1  0.30044173  0.03380885  0.61948116  1
  O  O41  1  0.83946223  0.36792214  0.29643821  1
  O  O42  1  0.20644685  0.97043527  0.53654459  1
  O  O43  1  0.29329020  0.56512308  0.03618560  1
  O  O44  1  0.78521094  0.48519054  0.05303868  1
  O  O45  1  0.69648176  0.41542081  0.38119186  1
  O  O46  1  0.71274624  0.13012353  0.13804836  1
  O  O47  1  0.11310434  0.33692975  0.17061168  1
  O  O48  1  0.42586232  0.29105092  0.08242619  1
  O  O49  1  0.80351824  0.41542081  0.88119186  1
  O  O50  1  0.28725376  0.86987647  0.86195164  1
  O  O51  1  0.79355315  0.02956473  0.46345541  1
  O  O52  1  0.71507866  0.06806176  0.55260543  1
  O  O53  1  0.18790526  0.08099069  0.71116003  1
  O  O54  1  0.19955827  0.03380885  0.11948116  1
  O  O55  1  0.58806878  0.75200265  0.50369209  1
  O  O56  1  0.79329020  0.43487692  0.46381440  1
  O  O57  1  0.78492134  0.06806176  0.05260543  1
  O  O58  1  0.07413768  0.29105092  0.58242619  1
  O  O59  1  0.66053777  0.36792214  0.79643821  1
  O  O60  1  0.91682021  0.79574048  0.59174210  1
  O  O61  1  0.68790526  0.91900931  0.78883997  1
  O  O62  1  0.28492134  0.93193824  0.44739457  1
  O  O63  1  0.31209474  0.08099069  0.21116003  1
  O  O64  1  0.81209474  0.91900931  0.28883997  1
  O  O65  1  0.08317979  0.20425952  0.40825790  1
  O  O66  1  0.20823596  0.49366645  0.36088341  1
  O  O67  1  0.17455704  0.86581455  0.77948361  1
  O  O68  1  0.29355315  0.97043527  0.03654459  1
  O  O69  1  0.30351824  0.58457919  0.61880814  1
  O  O70  1  0.70644685  0.02956473  0.96345541  1
  O  O71  1  0.79176404  0.50633355  0.63911659  1
  O  O72  1  0.80044173  0.96619115  0.88051884  1
  O  O73  1  0.57413768  0.70894908  0.91757381  1
  O  O74  1  0.41193122  0.24799735  0.49630791  1
  O  O75  1  0.08806878  0.24799735  0.99630791  1
  O  O76  1  0.32544296  0.86581455  0.27948361  1
  O  O77  1  0.21274624  0.86987647  0.36195164  1
  O  O78  1  0.04917276  0.16488085  0.82853501  1
  O  O79  1  0.58317979  0.79574048  0.09174210  1
  O  O80  1  0.95082724  0.83511915  0.17146499  1
  O  O81  1  0.65525884  0.59248485  0.72609939  1
  O  O82  1  0.45082724  0.16488085  0.32853501  1
  O  O83  1  0.21478906  0.51480946  0.94696132  1
  O  O84  1  0.21507866  0.93193824  0.94739457  1
  O  O85  1  0.92586232  0.70894908  0.41757381  1
  O  O86  1  0.28521094  0.51480946  0.44696132  1
  O  O87  1  0.38689566  0.33692975  0.67061168  1
  O  O88  1  0.33946223  0.63207786  0.20356179  1
  O  O89  1  0.78725376  0.13012353  0.63804836  1
  O  O90  1  0.20670980  0.56512308  0.53618560  1
  O  O91  1  0.29176404  0.49366645  0.86088341  1
  O  O92  1  0.41682021  0.20425952  0.90825790  1
  O  O93  1  0.70670980  0.43487692  0.96381440  1
  O  O94  1  0.15525884  0.40751515  0.77390061  1
  O  O95  1  0.54917276  0.83511915  0.67146499  1
  O  O96  1  0.61310434  0.66307025  0.32938832  1
  O  O97  1  0.69955827  0.96619115  0.38051884  1
  O  O98  1  0.34474116  0.40751515  0.27390061  1
  O  O99  1  0.71478906  0.48519054  0.55303868  1
  O  O100  1  0.16053777  0.63207786  0.70356179  1
  O  O101  1  0.91193122  0.75200265  0.00369209  1
  O  O102  1  0.70823596  0.50633355  0.13911659  1
  O  O103  1  0.82544296  0.13418545  0.22051639  1
  O  O104  1  0.67455704  0.13418545  0.72051639  1
  O  O105  1  0.88689566  0.66307025  0.82938832  1
  O  O106  1  0.19648176  0.58457919  0.11880814  1
  O  O107  1  0.84474116  0.59248485  0.22609939  1
