# generated using pymatgen
data_Mn13Si2SbO24
_symmetry_space_group_name_H-M   'P 1'
_cell_length_a   11.82448274
_cell_length_b   11.82448255
_cell_length_c   11.16012657
_cell_angle_alpha   90.00000000
_cell_angle_beta   90.00000000
_cell_angle_gamma   119.99999766
_symmetry_Int_Tables_number   1
_chemical_formula_structural   Mn13Si2SbO24
_chemical_formula_sum   'Mn39 Si6 Sb3 O72'
_cell_volume   1351.33821516
_cell_formula_units_Z   3
loop_
 _symmetry_equiv_pos_site_id
 _symmetry_equiv_pos_as_xyz
  1  'x, y, z'
loop_
 _atom_site_type_symbol
 _atom_site_label
 _atom_site_symmetry_multiplicity
 _atom_site_fract_x
 _atom_site_fract_y
 _atom_site_fract_z
 _atom_site_occupancy
  Mn  Mn0  1  0.00000000  0.52257669  0.25723947  1
  Mn  Mn1  1  0.00000000  0.16192578  0.72965310  1
  Mn  Mn2  1  0.33610642  0.82894556  0.72200034  1
  Mn  Mn3  1  0.66176303  0.66176303  0.49032372  1
  Mn  Mn4  1  0.83157241  0.50437393  0.48907602  1
  Mn  Mn5  1  0.33823697  1.00000000  0.49032372  1
  Mn  Mn6  1  0.83401836  1.00000000  0.50108748  1
  Mn  Mn7  1  0.83083523  0.50115378  0.99052565  1
  Mn  Mn8  1  0.00000000  0.83281404  0.99108941  1
  Mn  Mn9  1  0.67031855  0.16916477  0.99052565  1
  Mn  Mn10  1  0.82894556  0.33610642  0.72200034  1
  Mn  Mn11  1  0.15837954  0.33021122  0.25890517  1
  Mn  Mn12  1  0.49884622  0.32968145  0.99052565  1
  Mn  Mn13  1  0.16718596  0.16718596  0.99108941  1
  Mn  Mn14  1  0.16916477  0.67031855  0.99052565  1
  Mn  Mn15  1  0.32968145  0.49884622  0.99052565  1
  Mn  Mn16  1  0.83281404  0.00000000  0.99108941  1
  Mn  Mn17  1  0.16842759  0.67280153  0.48907602  1
  Mn  Mn18  1  0.50437393  0.83157241  0.48907602  1
  Mn  Mn19  1  0.32719847  0.49562607  0.48907602  1
  Mn  Mn20  1  1.00000000  0.83401836  0.50108748  1
  Mn  Mn21  1  0.83807422  0.83807422  0.72965310  1
  Mn  Mn22  1  0.49283914  0.66389358  0.72200034  1
  Mn  Mn23  1  1.00000000  0.33823697  0.49032372  1
  Mn  Mn24  1  0.16598164  0.16598164  0.50108748  1
  Mn  Mn25  1  0.67280153  0.16842759  0.48907602  1
  Mn  Mn26  1  0.17183168  0.84162046  0.25890517  1
  Mn  Mn27  1  0.52257669  0.00000000  0.25723947  1
  Mn  Mn28  1  0.16192578  0.00000000  0.72965310  1
  Mn  Mn29  1  0.84162046  0.17183168  0.25890517  1
  Mn  Mn30  1  0.17105444  0.50716086  0.72200034  1
  Mn  Mn31  1  0.66978878  0.82816832  0.25890517  1
  Mn  Mn32  1  0.82816832  0.66978878  0.25890517  1
  Mn  Mn33  1  0.49562607  0.32719847  0.48907602  1
  Mn  Mn34  1  0.50115378  0.83083523  0.99052565  1
  Mn  Mn35  1  0.33021122  0.15837954  0.25890517  1
  Mn  Mn36  1  0.66389358  0.49283914  0.72200034  1
  Mn  Mn37  1  0.47742331  0.47742331  0.25723947  1
  Mn  Mn38  1  0.50716086  0.17105444  0.72200034  1
  Si  Si39  1  0.33333300  0.66666700  0.23330086  1
  Si  Si40  1  0.00000000  0.00000000  0.22585475  1
  Si  Si41  1  0.66748986  0.00000000  0.74852709  1
  Si  Si42  1  0.33251014  0.33251014  0.74852709  1
  Si  Si43  1  0.66666700  0.33333300  0.23330086  1
  Si  Si44  1  0.00000000  0.66748986  0.74852709  1
  Sb  Sb45  1  0.65944472  0.65944472  0.99165961  1
  Sb  Sb46  1  1.00000000  0.34055528  0.99165961  1
  Sb  Sb47  1  0.34055528  1.00000000  0.99165961  1
  O  O48  1  0.66107847  0.51306453  0.89772077  1
  O  O49  1  0.47310793  0.66258697  0.54378377  1
  O  O50  1  0.45973539  0.33060258  0.69539875  1
  O  O51  1  0.53334726  0.32554764  0.28454339  1
  O  O52  1  0.85168337  0.19372173  0.08299739  1
  O  O53  1  0.81052196  0.33741303  0.54378377  1
  O  O54  1  0.66258697  0.47310793  0.54378377  1
  O  O55  1  0.00000000  0.33536578  0.69248523  1
  O  O56  1  0.81640636  0.14300163  0.43554623  1
  O  O57  1  0.20379139  0.20379139  0.69711271  1
  O  O58  1  0.33054122  0.33054122  0.89792683  1
  O  O59  1  0.66939742  0.12913281  0.69539875  1
  O  O60  1  0.14831663  0.34203836  0.08299739  1
  O  O61  1  0.13919242  0.00000000  0.55546985  1
  O  O62  1  0.00000000  0.00000000  0.77390987  1
  O  O63  1  0.35483510  0.00000000  0.29042531  1
  O  O64  1  0.51306453  0.66107847  0.89772077  1
  O  O65  1  0.13008723  1.00000000  0.27384643  1
  O  O66  1  0.46160786  0.46160786  0.43435166  1
  O  O67  1  1.00000000  0.69238160  0.22455146  1
  O  O68  1  0.50716607  0.50716607  0.08205104  1
  O  O69  1  0.18947804  0.52689207  0.54378377  1
  O  O70  1  0.32659527  0.18359364  0.43554623  1
  O  O71  1  0.66666700  0.33333300  0.08372108  1
  O  O72  1  0.64516490  0.64516490  0.29042531  1
  O  O73  1  0.65796164  0.80627827  0.08299739  1
  O  O74  1  1.00000000  0.53839214  0.43435166  1
  O  O75  1  0.66666700  0.33333300  0.75863206  1
  O  O76  1  0.52689207  0.18947804  0.54378377  1
  O  O77  1  0.80627827  0.65796164  0.08299739  1
  O  O78  1  1.00000000  0.13008723  0.27384643  1
  O  O79  1  0.33892153  0.85198606  0.89772077  1
  O  O80  1  0.66945878  1.00000000  0.89792683  1
  O  O81  1  0.33060258  0.45973539  0.69539875  1
  O  O82  1  0.00000000  0.19005508  0.90183619  1
  O  O83  1  0.69238160  1.00000000  0.22455146  1
  O  O84  1  0.33741303  0.81052196  0.54378377  1
  O  O85  1  0.00000000  0.35483510  0.29042531  1
  O  O86  1  0.32554764  0.53334726  0.28454339  1
  O  O87  1  0.30761840  0.30761840  0.22455146  1
  O  O88  1  0.33333300  0.66666700  0.08372108  1
  O  O89  1  0.00000000  0.00000000  0.07503287  1
  O  O90  1  0.19372173  0.85168337  0.08299739  1
  O  O91  1  0.19005508  0.00000000  0.90183619  1
  O  O92  1  0.33536578  0.00000000  0.69248523  1
  O  O93  1  0.12913281  0.66939742  0.69539875  1
  O  O94  1  0.20779962  0.67445236  0.28454339  1
  O  O95  1  0.46665274  0.79220038  0.28454339  1
  O  O96  1  0.79220038  0.46665274  0.28454339  1
  O  O97  1  0.67445236  0.20779962  0.28454339  1
  O  O98  1  0.49283393  1.00000000  0.08205104  1
  O  O99  1  0.80994492  0.80994492  0.90183619  1
  O  O100  1  1.00000000  0.79620861  0.69711271  1
  O  O101  1  1.00000000  0.66945878  0.89792683  1
  O  O102  1  0.14300163  0.81640636  0.43554623  1
  O  O103  1  1.00000000  0.49283393  0.08205104  1
  O  O104  1  0.48693547  0.14801394  0.89772077  1
  O  O105  1  0.85198606  0.33892153  0.89772077  1
  O  O106  1  0.67340473  0.85699837  0.43554623  1
  O  O107  1  0.66463422  0.66463422  0.69248523  1
  O  O108  1  0.79620861  1.00000000  0.69711271  1
  O  O109  1  0.86080758  0.86080758  0.55546985  1
  O  O110  1  0.14801394  0.48693547  0.89772077  1
  O  O111  1  0.86991277  0.86991277  0.27384643  1
  O  O112  1  0.34203836  0.14831663  0.08299739  1
  O  O113  1  0.53839214  1.00000000  0.43435166  1
  O  O114  1  0.85699837  0.67340473  0.43554623  1
  O  O115  1  0.00000000  0.13919242  0.55546985  1
  O  O116  1  0.33333300  0.66666700  0.75863206  1
  O  O117  1  0.18359364  0.32659527  0.43554623  1
  O  O118  1  0.54026461  0.87086719  0.69539875  1
  O  O119  1  0.87086719  0.54026461  0.69539875  1
