# generated using pymatgen
data_K2U2WO10
_symmetry_space_group_name_H-M   'P 1'
_cell_length_a   8.37314128
_cell_length_b   9.25706551
_cell_length_c   29.13646811
_cell_angle_alpha   90.00000000
_cell_angle_beta   90.00000000
_cell_angle_gamma   103.48222067
_symmetry_Int_Tables_number   1
_chemical_formula_structural   K2U2WO10
_chemical_formula_sum   'K16 U16 W8 O80'
_cell_volume   2196.15258261
_cell_formula_units_Z   8
loop_
 _symmetry_equiv_pos_site_id
 _symmetry_equiv_pos_as_xyz
  1  'x, y, z'
loop_
 _atom_site_type_symbol
 _atom_site_label
 _atom_site_symmetry_multiplicity
 _atom_site_fract_x
 _atom_site_fract_y
 _atom_site_fract_z
 _atom_site_occupancy
  K  K0  1  0.51668903  0.50049840  0.60473306  1
  K  K1  1  0.41124106  0.39511683  0.87780821  1
  K  K2  1  0.07324412  0.03290390  0.74939331  1
  K  K3  1  0.22171161  0.17269418  0.51826131  1
  K  K4  1  0.91124106  0.89511683  0.62219179  1
  K  K5  1  0.92675588  0.96709610  0.25060669  1
  K  K6  1  0.98331097  0.99950160  0.10473306  1
  K  K7  1  0.42675588  0.46709610  0.24939331  1
  K  K8  1  0.48331097  0.49950160  0.39526694  1
  K  K9  1  0.72171161  0.67269418  0.98173869  1
  K  K10  1  0.57324412  0.53290390  0.75060669  1
  K  K11  1  0.77828839  0.82730582  0.48173869  1
  K  K12  1  0.58875894  0.60488317  0.12219179  1
  K  K13  1  0.27828839  0.32730582  0.01826131  1
  K  K14  1  0.08875894  0.10488317  0.37780821  1
  K  K15  1  0.01668903  0.00049840  0.89526694  1
  U  U16  1  0.33089371  0.78747154  0.83156309  1
  U  U17  1  0.90645313  0.42383514  0.90230517  1
  U  U18  1  0.03163550  0.53183873  0.56751407  1
  U  U19  1  0.53163550  0.03183873  0.93248593  1
  U  U20  1  0.83089371  0.28747154  0.66843691  1
  U  U21  1  0.40645313  0.92383514  0.59769483  1
  U  U22  1  0.17911916  0.64633517  0.68575189  1
  U  U23  1  0.59354687  0.07616486  0.40230517  1
  U  U24  1  0.67911916  0.14633517  0.81424811  1
  U  U25  1  0.16910629  0.71252846  0.33156309  1
  U  U26  1  0.46836450  0.96816127  0.06751407  1
  U  U27  1  0.82088084  0.35366483  0.31424811  1
  U  U28  1  0.66910629  0.21252846  0.16843691  1
  U  U29  1  0.09354687  0.57616486  0.09769483  1
  U  U30  1  0.32088084  0.85366483  0.18575189  1
  U  U31  1  0.96836450  0.46816127  0.43248593  1
  W  W32  1  0.41265949  0.04334298  0.28981940  1
  W  W33  1  0.08734051  0.45665702  0.78981940  1
  W  W34  1  0.91265949  0.54334298  0.21018060  1
  W  W35  1  0.23405974  0.81318441  0.46699841  1
  W  W36  1  0.58734051  0.95665702  0.71018060  1
  W  W37  1  0.76594026  0.18681559  0.53300159  1
  W  W38  1  0.73405974  0.31318441  0.03300159  1
  W  W39  1  0.26594026  0.68681559  0.96699841  1
  O  O40  1  0.44301112  0.19147400  0.41266757  1
  O  O41  1  0.51346953  0.32400984  0.16603876  1
  O  O42  1  0.38636510  0.85899180  0.68042191  1
  O  O43  1  0.82318326  0.30797952  0.58883385  1
  O  O44  1  0.11363490  0.64100820  0.18042191  1
  O  O45  1  0.69855183  0.12430872  0.47285944  1
  O  O46  1  0.80145890  0.56978079  0.43636695  1
  O  O47  1  0.70354533  0.21551133  0.89061056  1
  O  O48  1  0.66456764  0.46496349  0.32055677  1
  O  O49  1  0.32318326  0.80797952  0.91116615  1
  O  O50  1  0.36559628  0.13520055  0.93250683  1
  O  O51  1  0.19855183  0.62430872  0.02714056  1
  O  O52  1  0.70732154  0.82251349  0.70921354  1
  O  O53  1  0.00211114  0.48971241  0.64289799  1
  O  O54  1  0.26678067  0.86305251  0.26534496  1
  O  O55  1  0.12880647  0.56445795  0.84745378  1
  O  O56  1  0.39349731  0.86981720  0.99412659  1
  O  O57  1  0.61363490  0.14100820  0.31957809  1
  O  O58  1  0.60650269  0.13018280  0.00587341  1
  O  O59  1  0.73321933  0.13694749  0.73465504  1
  O  O60  1  0.89349731  0.36981720  0.50587341  1
  O  O61  1  0.23321933  0.63694749  0.76534496  1
  O  O62  1  0.88636510  0.35899180  0.81957809  1
  O  O63  1  0.19854110  0.43021921  0.56363305  1
  O  O64  1  0.94707312  0.37493147  0.05595292  1
  O  O65  1  0.48653047  0.67599016  0.83396124  1
  O  O66  1  0.29645467  0.78448867  0.10938944  1
  O  O67  1  0.69854110  0.93021921  0.93636695  1
  O  O68  1  0.10650269  0.63018280  0.49412659  1
  O  O69  1  0.62880647  0.06445795  0.65254622  1
  O  O70  1  0.53877679  0.26991060  0.80336959  1
  O  O71  1  0.29267846  0.17748651  0.29078646  1
  O  O72  1  0.33322472  0.61034569  0.32489550  1
  O  O73  1  0.37119353  0.93554205  0.34745378  1
  O  O74  1  0.66677528  0.38965431  0.67510450  1
  O  O75  1  0.33543236  0.53503651  0.67944323  1
  O  O76  1  0.98653047  0.17599016  0.66603876  1
  O  O77  1  0.05292688  0.62506853  0.94404708  1
  O  O78  1  0.55698888  0.80852600  0.58733243  1
  O  O79  1  0.38792593  0.55529118  0.95579526  1
  O  O80  1  0.17681674  0.69202048  0.41116615  1
  O  O81  1  0.86559628  0.63520055  0.56749317  1
  O  O82  1  0.13440372  0.36479945  0.43250683  1
  O  O83  1  0.76678067  0.36305251  0.23465504  1
  O  O84  1  0.48324739  0.93911441  0.76836679  1
  O  O85  1  0.01346953  0.82400984  0.33396124  1
  O  O86  1  0.55292688  0.12506853  0.55595292  1
  O  O87  1  0.49788886  0.01028759  0.14289799  1
  O  O88  1  0.11207407  0.94470882  0.45579526  1
  O  O89  1  0.79267846  0.67748651  0.20921354  1
  O  O90  1  0.75926169  0.54002443  0.89193597  1
  O  O91  1  0.87119353  0.43554205  0.15254622  1
  O  O92  1  0.25926169  0.04002443  0.60806403  1
  O  O93  1  0.24073831  0.45997557  0.10806403  1
  O  O94  1  0.03877679  0.76991060  0.69663041  1
  O  O95  1  0.50211114  0.98971241  0.85710201  1
  O  O96  1  0.88792593  0.05529118  0.54420474  1
  O  O97  1  0.79645467  0.28448867  0.39061056  1
  O  O98  1  0.61207407  0.44470882  0.04420474  1
  O  O99  1  0.16456764  0.96496349  0.17944323  1
  O  O100  1  0.16677528  0.88965431  0.82489550  1
  O  O101  1  0.96122321  0.23008940  0.30336959  1
  O  O102  1  0.74073831  0.95997557  0.39193597  1
  O  O103  1  0.44707312  0.87493147  0.44404708  1
  O  O104  1  0.80144817  0.37569128  0.97285944  1
  O  O105  1  0.51675261  0.06088559  0.23163321  1
  O  O106  1  0.99788886  0.51028759  0.35710201  1
  O  O107  1  0.01675261  0.56088559  0.26836679  1
  O  O108  1  0.46122321  0.73008940  0.19663041  1
  O  O109  1  0.20732154  0.32251349  0.79078646  1
  O  O110  1  0.67681674  0.19202048  0.08883385  1
  O  O111  1  0.20354533  0.71551133  0.60938944  1
  O  O112  1  0.30144817  0.87569128  0.52714056  1
  O  O113  1  0.30145890  0.06978079  0.06363305  1
  O  O114  1  0.83543236  0.03503651  0.82055677  1
  O  O115  1  0.94301112  0.69147400  0.08733243  1
  O  O116  1  0.83322472  0.11034569  0.17510450  1
  O  O117  1  0.05698888  0.30852600  0.91266757  1
  O  O118  1  0.98324739  0.43911441  0.73163321  1
  O  O119  1  0.63440372  0.86479945  0.06749317  1
