# generated using pymatgen
data_VHO2
_symmetry_space_group_name_H-M   'P 1'
_cell_length_a   4.64864318
_cell_length_b   10.07522045
_cell_length_c   3.15276651
_cell_angle_alpha   90.00000000
_cell_angle_beta   90.00000000
_cell_angle_gamma   90.00000000
_symmetry_Int_Tables_number   1
_chemical_formula_structural   VHO2
_chemical_formula_sum   'V4 H4 O8'
_cell_volume   147.66330277
_cell_formula_units_Z   4
loop_
 _symmetry_equiv_pos_site_id
 _symmetry_equiv_pos_as_xyz
  1  'x, y, z'
loop_
 _atom_site_type_symbol
 _atom_site_label
 _atom_site_symmetry_multiplicity
 _atom_site_fract_x
 _atom_site_fract_y
 _atom_site_fract_z
 _atom_site_occupancy
  V  V0  1  0.54288632  0.65368270  0.25000000  1
  V  V1  1  0.95711368  0.15368270  0.25000000  1
  V  V2  1  0.45715400  0.36239343  0.75000000  1
  V  V3  1  0.04284600  0.86239343  0.75000000  1
  H  H4  1  0.90171665  0.43236374  0.25000000  1
  H  H5  1  0.59828335  0.93236374  0.25000000  1
  H  H6  1  0.09990722  0.59443020  0.75000000  1
  H  H7  1  0.40009278  0.09443020  0.75000000  1
  O  O8  1  0.21564978  0.30567350  0.25000000  1
  O  O9  1  0.28435022  0.80567350  0.25000000  1
  O  O10  1  0.79022573  0.70777395  0.75000000  1
  O  O11  1  0.70977427  0.20777395  0.75000000  1
  O  O12  1  0.69536915  0.45504211  0.25000000  1
  O  O13  1  0.80463085  0.95504211  0.25000000  1
  O  O14  1  0.30091566  0.56204137  0.75000000  1
  O  O15  1  0.19908434  0.06204137  0.75000000  1
