# generated using pymatgen
data_Al2NiCl8
_symmetry_space_group_name_H-M   'P 1'
_cell_length_a   7.89680627
_cell_length_b   9.50493462
_cell_length_c   9.77879135
_cell_angle_alpha   73.33687171
_cell_angle_beta   66.18579322
_cell_angle_gamma   65.45513691
_symmetry_Int_Tables_number   1
_chemical_formula_structural   Al2NiCl8
_chemical_formula_sum   'Al4 Ni2 Cl16'
_cell_volume   604.53387670
_cell_formula_units_Z   2
loop_
 _symmetry_equiv_pos_site_id
 _symmetry_equiv_pos_as_xyz
  1  'x, y, z'
loop_
 _atom_site_type_symbol
 _atom_site_label
 _atom_site_symmetry_multiplicity
 _atom_site_fract_x
 _atom_site_fract_y
 _atom_site_fract_z
 _atom_site_occupancy
  Al  Al0  1  0.32974074  0.86187595  0.96827683  1
  Al  Al1  1  0.84010648  0.36187595  0.46827683  1
  Al  Al2  1  0.15989352  0.63812405  0.53172317  1
  Al  Al3  1  0.67025926  0.13812405  0.03172317  1
  Ni  Ni4  1  0.00343599  0.75000000  0.25000000  1
  Ni  Ni5  1  0.99656401  0.25000000  0.75000000  1
  Cl  Cl6  1  0.31555777  0.76005552  0.55410070  1
  Cl  Cl7  1  0.69191904  0.94610153  0.21881765  1
  Cl  Cl8  1  0.15018034  0.94688992  0.18709631  1
  Cl  Cl9  1  0.13140576  0.21299035  0.48785703  1
  Cl  Cl10  1  0.84981966  0.05311008  0.81290369  1
  Cl  Cl11  1  0.83225314  0.28700965  0.01214297  1
  Cl  Cl12  1  0.86859424  0.78700965  0.51214297  1
  Cl  Cl13  1  0.71583343  0.44688992  0.68709631  1
  Cl  Cl14  1  0.16774686  0.71299035  0.98785703  1
  Cl  Cl15  1  0.62971399  0.73994448  0.94589930  1
  Cl  Cl16  1  0.14316178  0.44610153  0.71881765  1
  Cl  Cl17  1  0.85683822  0.55389847  0.28118235  1
  Cl  Cl18  1  0.37028601  0.26005552  0.05410070  1
  Cl  Cl19  1  0.28416657  0.55311008  0.31290369  1
  Cl  Cl20  1  0.68444223  0.23994448  0.44589930  1
  Cl  Cl21  1  0.30808096  0.05389847  0.78118235  1
