# generated using pymatgen
data_LaCr2Si2C
_symmetry_space_group_name_H-M   'P 1'
_cell_length_a   4.02089723
_cell_length_b   4.02084730
_cell_length_c   5.45645225
_cell_angle_alpha   89.99941325
_cell_angle_beta   90.00028817
_cell_angle_gamma   89.99990752
_symmetry_Int_Tables_number   1
_chemical_formula_structural   LaCr2Si2C
_chemical_formula_sum   'La1 Cr2 Si2 C1'
_cell_volume   88.21672124
_cell_formula_units_Z   1
loop_
 _symmetry_equiv_pos_site_id
 _symmetry_equiv_pos_as_xyz
  1  'x, y, z'
loop_
 _atom_site_type_symbol
 _atom_site_label
 _atom_site_symmetry_multiplicity
 _atom_site_fract_x
 _atom_site_fract_y
 _atom_site_fract_z
 _atom_site_occupancy
  La  La0  1  0.00000328  0.00000324  0.00000682  1
  Cr  Cr1  1  -0.00000318  0.50000077  0.49999917  1
  Cr  Cr2  1  0.50000043  -0.00000247  0.50000001  1
  Si  Si3  1  0.49999917  0.50000083  0.76256865  1
  Si  Si4  1  0.50000045  0.49999910  0.23742770  1
  C  C5  1  -0.00000015  -0.00000147  0.49999765  1
