# generated using pymatgen
data_Ba2CaFe2CuF14
_symmetry_space_group_name_H-M   'P 1'
_cell_length_a   5.44779642
_cell_length_b   7.54493039
_cell_length_c   15.06441452
_cell_angle_alpha   91.47317575
_cell_angle_beta   89.94494753
_cell_angle_gamma   111.17339367
_symmetry_Int_Tables_number   1
_chemical_formula_structural   Ba2CaFe2CuF14
_chemical_formula_sum   'Ba4 Ca2 Fe4 Cu2 F28'
_cell_volume   577.18151728
_cell_formula_units_Z   2
loop_
 _symmetry_equiv_pos_site_id
 _symmetry_equiv_pos_as_xyz
  1  'x, y, z'
loop_
 _atom_site_type_symbol
 _atom_site_label
 _atom_site_symmetry_multiplicity
 _atom_site_fract_x
 _atom_site_fract_y
 _atom_site_fract_z
 _atom_site_occupancy
  Ba  Ba0  1  0.12091985  0.37774313  0.62283436  1
  Ba  Ba1  1  0.26212529  0.37736026  0.12282596  1
  Ba  Ba2  1  0.88300690  0.62403706  0.37770681  1
  Ba  Ba3  1  0.74057500  0.62616948  0.87643358  1
  Ca  Ca4  1  0.42164847  0.00175452  0.75027684  1
  Ca  Ca5  1  0.57988949  0.00046380  0.25042399  1
  Fe  Fe6  1  0.09674804  0.24434459  0.87543634  1
  Fe  Fe7  1  0.90605036  0.75859919  0.12506580  1
  Fe  Fe8  1  0.14780086  0.24255927  0.37540620  1
  Fe  Fe9  1  0.85472732  0.75965285  0.62451504  1
  Cu  Cu10  1  0.50143229  0.00152940  0.00056199  1
  Cu  Cu11  1  0.49849538  0.99990318  0.50086268  1
  F  F12  1  0.91717986  0.98585018  0.34413129  1
  F  F13  1  0.88083834  0.28012986  0.45483818  1
  F  F14  1  0.12438962  0.72421981  0.54549016  1
  F  F15  1  0.65652163  0.49602866  0.59708297  1
  F  F16  1  0.61630944  0.10575872  0.61579059  1
  F  F17  1  0.50929854  0.89684249  0.88525153  1
  F  F18  1  0.40250117  0.28296367  0.95453461  1
  F  F19  1  0.93149022  0.01601824  0.15463840  1
  F  F20  1  0.36098827  0.32292083  0.77796659  1
  F  F21  1  0.35294637  0.50446825  0.40399189  1
  F  F22  1  0.82539962  0.24092538  0.79012405  1
  F  F23  1  0.15494902  0.50709582  0.90154108  1
  F  F24  1  0.41542169  0.24156797  0.28921167  1
  F  F25  1  0.17389887  0.76248299  0.21195171  1
  F  F26  1  0.49108827  0.10581328  0.11578685  1
  F  F27  1  0.63915358  0.68177401  0.22165587  1
  F  F28  1  0.13206601  0.83437015  0.01970373  1
  F  F29  1  0.08382302  0.01684997  0.65561593  1
  F  F30  1  0.87287161  0.16649643  0.98126650  1
  F  F31  1  0.70355008  0.83177750  0.51769100  1
  F  F32  1  0.60298220  0.71742032  0.04442569  1
  F  F33  1  0.58308651  0.76005708  0.70920376  1
  F  F34  1  0.96389501  0.32307886  0.27844103  1
  F  F35  1  0.29342746  0.16703666  0.48285423  1
  F  F36  1  0.38386640  0.89666508  0.38531274  1
  F  F37  1  0.06929635  0.98711948  0.84446714  1
  F  F38  1  0.03932719  0.68210084  0.72220137  1
  F  F39  1  0.85080338  0.49596970  0.09899787  1
