# generated using pymatgen
data_PrIn2Pd
_symmetry_space_group_name_H-M   'P 1'
_cell_length_a   9.56708239
_cell_length_b   11.23421004
_cell_length_c   11.23421040
_cell_angle_alpha   79.55412025
_cell_angle_beta   64.79860811
_cell_angle_gamma   64.79860797
_symmetry_Int_Tables_number   1
_chemical_formula_structural   PrIn2Pd
_chemical_formula_sum   'Pr10 In20 Pd10'
_cell_volume   988.52084185
_cell_formula_units_Z   10
loop_
 _symmetry_equiv_pos_site_id
 _symmetry_equiv_pos_as_xyz
  1  'x, y, z'
loop_
 _atom_site_type_symbol
 _atom_site_label
 _atom_site_symmetry_multiplicity
 _atom_site_fract_x
 _atom_site_fract_y
 _atom_site_fract_z
 _atom_site_occupancy
  Pr  Pr0  1  0.01274864  0.00000000  0.00000000  1
  Pr  Pr1  1  0.61773348  0.28058400  0.71941600  1
  Pr  Pr2  1  0.33407651  1.00000000  0.59319509  1
  Pr  Pr3  1  0.54219291  1.00000000  1.00000000  1
  Pr  Pr4  1  0.61773348  0.71941600  0.28058400  1
  Pr  Pr5  1  0.92727160  0.40680491  1.00000000  1
  Pr  Pr6  1  0.89831748  0.71941600  0.71941600  1
  Pr  Pr7  1  0.33407651  0.59319509  1.00000000  1
  Pr  Pr8  1  0.92727160  1.00000000  0.40680491  1
  Pr  Pr9  1  0.33714949  0.28058400  0.28058400  1
  In  In10  1  0.73962727  0.49400117  0.78704866  1
  In  In11  1  0.28644381  0.16748549  0.83251451  1
  In  In12  1  0.52667593  0.49400117  0.21295134  1
  In  In13  1  0.65322608  0.00000000  0.26692372  1
  In  In14  1  0.92014980  0.73307628  1.00000000  1
  In  In15  1  0.14023375  0.61673347  0.38326653  1
  In  In16  1  0.75696722  0.38326653  0.38326653  1
  In  In17  1  0.23362844  0.50599883  0.78704866  1
  In  In18  1  0.14023375  0.38326653  0.61673347  1
  In  In19  1  0.92014980  0.00000000  0.73307628  1
  In  In20  1  0.11895832  0.16748549  0.16748549  1
  In  In21  1  0.52350028  0.61673347  0.61673347  1
  In  In22  1  0.02067710  0.50599883  0.21295134  1
  In  In23  1  0.45392931  0.83251451  0.83251451  1
  In  In24  1  0.28644381  0.83251451  0.16748549  1
  In  In25  1  0.52667593  0.21295134  0.49400117  1
  In  In26  1  0.73962727  0.78704866  0.49400117  1
  In  In27  1  0.65322608  0.26692372  0.00000000  1
  In  In28  1  0.23362844  0.78704866  0.50599883  1
  In  In29  1  0.02067710  0.21295134  0.50599883  1
  Pd  Pd30  1  0.97649294  0.78191800  0.21808200  1
  Pd  Pd31  1  0.75841094  0.21808200  0.21808200  1
  Pd  Pd32  1  0.38763082  0.50000000  0.50000000  1
  Pd  Pd33  1  0.97649294  0.21808200  0.78191800  1
  Pd  Pd34  1  0.88763082  0.50000000  0.50000000  1
  Pd  Pd35  1  0.30884197  1.00000000  0.32015377  1
  Pd  Pd36  1  0.62899574  1.00000000  0.67984623  1
  Pd  Pd37  1  0.19457494  0.78191800  0.78191800  1
  Pd  Pd38  1  0.30884197  0.32015377  1.00000000  1
  Pd  Pd39  1  0.62899574  0.67984623  0.00000000  1
