# generated using pymatgen
data_C
_symmetry_space_group_name_H-M   'P 1'
_cell_length_a   2.46724427
_cell_length_b   2.46724445
_cell_length_c   31.98297128
_cell_angle_alpha   90.00000000
_cell_angle_beta   90.00000000
_cell_angle_gamma   119.98475971
_symmetry_Int_Tables_number   1
_chemical_formula_structural   C
_chemical_formula_sum   C12
_cell_volume   168.63217622
_cell_formula_units_Z   12
loop_
 _symmetry_equiv_pos_site_id
 _symmetry_equiv_pos_as_xyz
  1  'x, y, z'
loop_
 _atom_site_type_symbol
 _atom_site_label
 _atom_site_symmetry_multiplicity
 _atom_site_fract_x
 _atom_site_fract_y
 _atom_site_fract_z
 _atom_site_occupancy
  C  C0  1  0.16657388  0.83342612  0.99854053  1
  C  C1  1  0.16657311  0.83342689  0.49853779  1
  C  C2  1  0.16656366  0.83343634  0.73234225  1
  C  C3  1  0.16654860  0.83345140  0.23234108  1
  C  C4  1  0.50014580  0.49985420  0.61611889  1
  C  C5  1  0.83343634  0.16656366  0.23234225  1
  C  C6  1  0.49985420  0.50014580  0.11611889  1
  C  C7  1  0.16662602  0.83337398  0.61611946  1
  C  C8  1  0.83345140  0.16654860  0.73234108  1
  C  C9  1  0.83337398  0.16662602  0.11611946  1
  C  C10  1  0.83342612  0.16657388  0.49854053  1
  C  C11  1  0.83342689  0.16657311  0.99853779  1
