# generated using pymatgen
data_PbCN2
_symmetry_space_group_name_H-M   'P 1'
_cell_length_a   3.90475188
_cell_length_b   5.60095423
_cell_length_c   12.10643894
_cell_angle_alpha   90.00000000
_cell_angle_beta   90.00000000
_cell_angle_gamma   90.00000000
_symmetry_Int_Tables_number   1
_chemical_formula_structural   PbCN2
_chemical_formula_sum   'Pb4 C4 N8'
_cell_volume   264.77189415
_cell_formula_units_Z   4
loop_
 _symmetry_equiv_pos_site_id
 _symmetry_equiv_pos_as_xyz
  1  'x, y, z'
loop_
 _atom_site_type_symbol
 _atom_site_label
 _atom_site_symmetry_multiplicity
 _atom_site_fract_x
 _atom_site_fract_y
 _atom_site_fract_z
 _atom_site_occupancy
  Pb  Pb0  1  0.49439080  0.38685663  0.63412879  1
  Pb  Pb1  1  0.99439080  0.11314337  0.13412879  1
  Pb  Pb2  1  0.99439080  0.61314337  0.36587121  1
  Pb  Pb3  1  0.49439080  0.88685663  0.86587121  1
  C  C4  1  0.96247684  0.37942581  0.89882140  1
  C  C5  1  0.46247684  0.62057419  0.10117860  1
  C  C6  1  0.96247684  0.87942581  0.60117860  1
  C  C7  1  0.46247684  0.12057419  0.39882140  1
  N  N8  1  0.45894577  0.82638023  0.06084171  1
  N  N9  1  0.95894577  0.67361977  0.56084171  1
  N  N10  1  0.46918659  0.92382044  0.35473808  1
  N  N11  1  0.96918659  0.57617956  0.85473808  1
  N  N12  1  0.46918659  0.42382044  0.14526192  1
  N  N13  1  0.45894577  0.32638023  0.43915829  1
  N  N14  1  0.95894577  0.17361977  0.93915829  1
  N  N15  1  0.96918659  0.07617956  0.64526192  1
