# generated using pymatgen
data_Li9Mn2Co5O16
_symmetry_space_group_name_H-M   'P 1'
_cell_length_a   2.90804037
_cell_length_b   9.80382848
_cell_length_c   10.35329209
_cell_angle_alpha   99.60453954
_cell_angle_beta   90.00000000
_cell_angle_gamma   90.00000000
_symmetry_Int_Tables_number   1
_chemical_formula_structural   Li9Mn2Co5O16
_chemical_formula_sum   'Li9 Mn2 Co5 O16'
_cell_volume   291.03414893
_cell_formula_units_Z   1
loop_
 _symmetry_equiv_pos_site_id
 _symmetry_equiv_pos_as_xyz
  1  'x, y, z'
loop_
 _atom_site_type_symbol
 _atom_site_label
 _atom_site_symmetry_multiplicity
 _atom_site_fract_x
 _atom_site_fract_y
 _atom_site_fract_z
 _atom_site_occupancy
  Li  Li0  1  0.50000000  0.00025054  0.25903135  1
  Li  Li1  1  0.50000000  0.99965653  0.74384890  1
  Li  Li2  1  0.00000000  0.25103527  0.39793741  1
  Li  Li3  1  0.00000000  0.24896473  0.85206259  1
  Li  Li4  1  0.50000000  0.50034347  0.50615110  1
  Li  Li5  1  0.50000000  0.49974946  0.99096865  1
  Li  Li6  1  -0.00000000  0.75000000  0.12500000  1
  Li  Li7  1  -0.00000000  0.75000000  0.62500000  1
  Li  Li8  1  0.50000000  0.25000000  0.62500000  1
  Mn  Mn9  1  0.00000000  0.99946204  0.99868657  1
  Mn  Mn10  1  -0.00000000  0.50053796  0.25131343  1
  Co  Co11  1  0.00000000  0.01816753  0.51717300  1
  Co  Co12  1  0.50000000  0.25000000  0.12500000  1
  Co  Co13  1  -0.00000000  0.48183247  0.73282700  1
  Co  Co14  1  0.50000000  0.76029696  0.37772724  1
  Co  Co15  1  0.50000000  0.73970304  0.87227276  1
  O  O16  1  0.50000000  0.88972413  0.05610141  1
  O  O17  1  0.50000000  0.87790227  0.55223566  1
  O  O18  1  0.00000000  0.12214062  0.16661050  1
  O  O19  1  0.00000000  0.11579004  0.68016676  1
  O  O20  1  0.50000000  0.39277689  0.30966897  1
  O  O21  1  0.50000000  0.38521934  0.81097426  1
  O  O22  1  -0.00000000  0.63682343  0.93672740  1
  O  O23  1  0.00000000  0.62772546  0.41940491  1
  O  O24  1  0.50000000  0.11478066  0.43902574  1
  O  O25  1  0.50000000  0.10722311  0.94033103  1
  O  O26  1  -0.00000000  0.38420996  0.56983324  1
  O  O27  1  -0.00000000  0.37785938  0.08338950  1
  O  O28  1  0.50000000  0.62209773  0.69776434  1
  O  O29  1  0.50000000  0.61027587  0.19389859  1
  O  O30  1  0.00000000  0.86317657  0.31327260  1
  O  O31  1  -0.00000000  0.87227454  0.83059509  1
