# generated using pymatgen
data_K2Mo4O13
_symmetry_space_group_name_H-M   'P 1'
_cell_length_a   7.72176528
_cell_length_b   15.71045215
_cell_length_c   18.97184418
_cell_angle_alpha   90.00000000
_cell_angle_beta   90.00000000
_cell_angle_gamma   90.00000000
_symmetry_Int_Tables_number   1
_chemical_formula_structural   K2Mo4O13
_chemical_formula_sum   'K16 Mo32 O104'
_cell_volume   2301.52040418
_cell_formula_units_Z   8
loop_
 _symmetry_equiv_pos_site_id
 _symmetry_equiv_pos_as_xyz
  1  'x, y, z'
loop_
 _atom_site_type_symbol
 _atom_site_label
 _atom_site_symmetry_multiplicity
 _atom_site_fract_x
 _atom_site_fract_y
 _atom_site_fract_z
 _atom_site_occupancy
  K  K0  1  0.10706510  0.52972066  0.08435167  1
  K  K1  1  0.22945479  0.28407105  0.06712565  1
  K  K2  1  0.72945479  0.21592895  0.93287435  1
  K  K3  1  0.39293490  0.47027934  0.58435167  1
  K  K4  1  0.72945479  0.28407105  0.43287435  1
  K  K5  1  0.27054521  0.78407105  0.06712565  1
  K  K6  1  0.10706510  0.97027934  0.58435167  1
  K  K7  1  0.89293490  0.47027934  0.91564833  1
  K  K8  1  0.27054521  0.71592895  0.56712565  1
  K  K9  1  0.77054521  0.71592895  0.93287435  1
  K  K10  1  0.89293490  0.02972066  0.41564833  1
  K  K11  1  0.39293490  0.02972066  0.08435167  1
  K  K12  1  0.60706510  0.97027934  0.91564833  1
  K  K13  1  0.22945479  0.21592895  0.56712565  1
  K  K14  1  0.60706510  0.52972066  0.41564833  1
  K  K15  1  0.77054521  0.78407105  0.43287435  1
  Mo  Mo16  1  0.17199167  0.56846323  0.74392641  1
  Mo  Mo17  1  0.67199167  0.56846323  0.75607359  1
  Mo  Mo18  1  0.39424251  0.43210721  0.89262839  1
  Mo  Mo19  1  0.10575749  0.93210721  0.89262839  1
  Mo  Mo20  1  0.79392983  0.63839242  0.59773634  1
  Mo  Mo21  1  0.39424251  0.06789279  0.39262839  1
  Mo  Mo22  1  0.60575749  0.93210721  0.60737161  1
  Mo  Mo23  1  0.57900681  0.77744682  0.75097863  1
  Mo  Mo24  1  0.82800833  0.06846323  0.75607359  1
  Mo  Mo25  1  0.82800833  0.43153677  0.25607359  1
  Mo  Mo26  1  0.92099319  0.27744682  0.75097863  1
  Mo  Mo27  1  0.20607017  0.36160758  0.40226366  1
  Mo  Mo28  1  0.20607017  0.13839242  0.90226366  1
  Mo  Mo29  1  0.10575749  0.56789279  0.39262839  1
  Mo  Mo30  1  0.29392983  0.86160758  0.40226366  1
  Mo  Mo31  1  0.89424251  0.06789279  0.10737161  1
  Mo  Mo32  1  0.57900681  0.72255318  0.25097863  1
  Mo  Mo33  1  0.89424251  0.43210721  0.60737161  1
  Mo  Mo34  1  0.79392983  0.86160758  0.09773634  1
  Mo  Mo35  1  0.42099319  0.27744682  0.74902137  1
  Mo  Mo36  1  0.17199167  0.93153677  0.24392641  1
  Mo  Mo37  1  0.92099319  0.22255318  0.25097863  1
  Mo  Mo38  1  0.42099319  0.22255318  0.24902137  1
  Mo  Mo39  1  0.07900681  0.77744682  0.74902137  1
  Mo  Mo40  1  0.32800833  0.43153677  0.24392641  1
  Mo  Mo41  1  0.60575749  0.56789279  0.10737161  1
  Mo  Mo42  1  0.32800833  0.06846323  0.74392641  1
  Mo  Mo43  1  0.67199167  0.93153677  0.25607359  1
  Mo  Mo44  1  0.70607017  0.36160758  0.09773634  1
  Mo  Mo45  1  0.29392983  0.63839242  0.90226366  1
  Mo  Mo46  1  0.70607017  0.13839242  0.59773634  1
  Mo  Mo47  1  0.07900681  0.72255318  0.24902137  1
  O  O48  1  0.19271047  0.67775665  0.81605777  1
  O  O49  1  0.16910291  0.85307024  0.81964591  1
  O  O50  1  0.73579772  0.08644836  0.04305232  1
  O  O51  1  0.42698741  0.33315941  0.19503798  1
  O  O52  1  0.10044801  0.22721520  0.93679067  1
  O  O53  1  0.73579772  0.41355164  0.54305232  1
  O  O54  1  0.83089709  0.14692976  0.18035409  1
  O  O55  1  0.92330803  0.51564015  0.30479757  1
  O  O56  1  0.23579772  0.08644836  0.45694768  1
  O  O57  1  0.07301259  0.66684059  0.69503798  1
  O  O58  1  0.22211559  0.52079940  0.83275675  1
  O  O59  1  0.61380764  0.62267989  0.54278120  1
  O  O60  1  0.86539039  0.77011159  0.78412410  1
  O  O61  1  0.42330803  0.51564015  0.19520243  1
  O  O62  1  0.72211559  0.52079940  0.66724325  1
  O  O63  1  0.10044801  0.27278480  0.43679067  1
  O  O64  1  0.77788441  0.47920060  0.16724325  1
  O  O65  1  0.94501105  0.34232724  0.82384828  1
  O  O66  1  0.88619236  0.37732011  0.04278120  1
  O  O67  1  0.63460961  0.22988841  0.28412410  1
  O  O68  1  0.13460961  0.27011159  0.71587590  1
  O  O69  1  0.80728953  0.17775665  0.68394223  1
  O  O70  1  0.42229106  0.62050701  0.07588852  1
  O  O71  1  0.44501105  0.15767276  0.17615172  1
  O  O72  1  0.76420228  0.58644836  0.04305232  1
  O  O73  1  0.63460961  0.27011159  0.78412410  1
  O  O74  1  0.69271047  0.82224335  0.18394223  1
  O  O75  1  0.61724323  0.07244471  0.79369331  1
  O  O76  1  0.88275677  0.57244471  0.79369331  1
  O  O77  1  0.66910291  0.85307024  0.68035409  1
  O  O78  1  0.76420228  0.91355164  0.54305232  1
  O  O79  1  0.61724323  0.42755529  0.29369331  1
  O  O80  1  0.69271047  0.67775665  0.68394223  1
  O  O81  1  0.54571140  0.44991442  0.07574284  1
  O  O82  1  0.44501105  0.34232724  0.67615172  1
  O  O83  1  0.07301259  0.83315941  0.19503798  1
  O  O84  1  0.38275677  0.57244471  0.70630669  1
  O  O85  1  0.13460961  0.22988841  0.21587590  1
  O  O86  1  0.57301259  0.66684059  0.80496202  1
  O  O87  1  0.92229106  0.87949299  0.92411148  1
  O  O88  1  0.38275677  0.92755529  0.20630669  1
  O  O89  1  0.55498895  0.65767276  0.32384828  1
  O  O90  1  0.39955199  0.77278480  0.43679067  1
  O  O91  1  0.42330803  0.98435985  0.69520243  1
  O  O92  1  0.11724323  0.07244471  0.70630669  1
  O  O93  1  0.92698741  0.16684059  0.80496202  1
  O  O94  1  0.45428860  0.94991442  0.42425716  1
  O  O95  1  0.19271047  0.82224335  0.31605777  1
  O  O96  1  0.11380764  0.87732011  0.45721880  1
  O  O97  1  0.38619236  0.12267989  0.95721880  1
  O  O98  1  0.92229106  0.62050701  0.42411148  1
  O  O99  1  0.07669197  0.01564015  0.19520243  1
  O  O100  1  0.07770894  0.12050701  0.07588852  1
  O  O101  1  0.72211559  0.97920060  0.16724325  1
  O  O102  1  0.07770894  0.37949299  0.57588852  1
  O  O103  1  0.80728953  0.32224335  0.18394223  1
  O  O104  1  0.88275677  0.92755529  0.29369331  1
  O  O105  1  0.57770894  0.37949299  0.92411148  1
  O  O106  1  0.26420228  0.91355164  0.95694768  1
  O  O107  1  0.92698741  0.33315941  0.30496202  1
  O  O108  1  0.38619236  0.37732011  0.45721880  1
  O  O109  1  0.92330803  0.98435985  0.80479757  1
  O  O110  1  0.60044801  0.22721520  0.56320933  1
  O  O111  1  0.57301259  0.83315941  0.30496202  1
  O  O112  1  0.30728953  0.17775665  0.81605777  1
  O  O113  1  0.36539039  0.77011159  0.71587590  1
  O  O114  1  0.89955199  0.72721520  0.56320933  1
  O  O115  1  0.27788441  0.02079940  0.83275675  1
  O  O116  1  0.94501105  0.15767276  0.32384828  1
  O  O117  1  0.60044801  0.27278480  0.06320933  1
  O  O118  1  0.45428860  0.55008558  0.92425716  1
  O  O119  1  0.83089709  0.35307024  0.68035409  1
  O  O120  1  0.54571140  0.05008558  0.57574284  1
  O  O121  1  0.22211559  0.97920060  0.33275675  1
  O  O122  1  0.57669197  0.48435985  0.80479757  1
  O  O123  1  0.95428860  0.55008558  0.57574284  1
  O  O124  1  0.05498895  0.65767276  0.17615172  1
  O  O125  1  0.66910291  0.64692976  0.18035409  1
  O  O126  1  0.04571140  0.05008558  0.92425716  1
  O  O127  1  0.77788441  0.02079940  0.66724325  1
  O  O128  1  0.57770894  0.12050701  0.42411148  1
  O  O129  1  0.33089709  0.35307024  0.81964591  1
  O  O130  1  0.42698741  0.16684059  0.69503798  1
  O  O131  1  0.61380764  0.87732011  0.04278120  1
  O  O132  1  0.11380764  0.62267989  0.95721880  1
  O  O133  1  0.16910291  0.64692976  0.31964591  1
  O  O134  1  0.04571140  0.44991442  0.42425716  1
  O  O135  1  0.23579772  0.41355164  0.95694768  1
  O  O136  1  0.26420228  0.58644836  0.45694768  1
  O  O137  1  0.95428860  0.94991442  0.07574284  1
  O  O138  1  0.55498895  0.84232724  0.82384828  1
  O  O139  1  0.88619236  0.12267989  0.54278120  1
  O  O140  1  0.39955199  0.72721520  0.93679067  1
  O  O141  1  0.33089709  0.14692976  0.31964591  1
  O  O142  1  0.11724323  0.42755529  0.20630669  1
  O  O143  1  0.27788441  0.47920060  0.33275675  1
  O  O144  1  0.42229106  0.87949299  0.57588852  1
  O  O145  1  0.30728953  0.32224335  0.31605777  1
  O  O146  1  0.07669197  0.48435985  0.69520243  1
  O  O147  1  0.89955199  0.77278480  0.06320933  1
  O  O148  1  0.05498895  0.84232724  0.67615172  1
  O  O149  1  0.86539039  0.72988841  0.28412410  1
  O  O150  1  0.57669197  0.01564015  0.30479757  1
  O  O151  1  0.36539039  0.72988841  0.21587590  1
