# generated using pymatgen
data_Li9Mn2Co5O16
_symmetry_space_group_name_H-M   'P 1'
_cell_length_a   2.89879618
_cell_length_b   13.06037276
_cell_length_c   7.79787275
_cell_angle_alpha   87.24606444
_cell_angle_beta   79.28808570
_cell_angle_gamma   89.99999850
_symmetry_Int_Tables_number   1
_chemical_formula_structural   Li9Mn2Co5O16
_chemical_formula_sum   'Li9 Mn2 Co5 O16'
_cell_volume   289.73095478
_cell_formula_units_Z   1
loop_
 _symmetry_equiv_pos_site_id
 _symmetry_equiv_pos_as_xyz
  1  'x, y, z'
loop_
 _atom_site_type_symbol
 _atom_site_label
 _atom_site_symmetry_multiplicity
 _atom_site_fract_x
 _atom_site_fract_y
 _atom_site_fract_z
 _atom_site_occupancy
  Li  Li0  1  0.56204801  0.20129312  0.87590398  1
  Li  Li1  1  0.68795199  0.54870688  0.62409602  1
  Li  Li2  1  0.80967556  0.93832500  0.38064887  1
  Li  Li3  1  0.93734609  0.31485742  0.12530782  1
  Li  Li4  1  0.05967024  0.67690515  0.88065951  1
  Li  Li5  1  0.19032976  0.07309485  0.61934049  1
  Li  Li6  1  0.31265391  0.43514258  0.37469218  1
  Li  Li7  1  0.44032444  0.81167500  0.11935113  1
  Li  Li8  1  0.12500000  0.37500000  0.75000000  1
  Mn  Mn9  1  0.00045433  0.00207029  -0.00090866  1
  Mn  Mn10  1  0.24954567  0.74792971  0.50090866  1
  Co  Co11  1  0.36953627  0.12776386  0.26092746  1
  Co  Co12  1  0.50764428  0.48372082  0.98471144  1
  Co  Co13  1  0.62500000  0.87500000  0.75000000  1
  Co  Co14  1  0.74235572  0.26627918  0.51528856  1
  Co  Co15  1  0.88046373  0.62223614  0.23907254  1
  O  O16  1  0.58246890  0.03214315  0.83506219  1
  O  O17  1  0.72312355  0.40065464  0.55375291  1
  O  O18  1  0.83272751  0.77724216  0.33454498  1
  O  O19  1  0.96224462  0.14374755  0.07551076  1
  O  O20  1  0.08609703  0.52929487  0.82780595  1
  O  O21  1  0.21853849  0.89035181  0.56292303  1
  O  O22  1  0.33605903  0.27233716  0.32788194  1
  O  O23  1  0.46216000  0.65888246  0.07568000  1
  O  O24  1  0.52687645  0.34934536  0.94624709  1
  O  O25  1  0.66753110  0.71785685  0.66493781  1
  O  O26  1  0.78784000  0.09111754  0.42432000  1
  O  O27  1  0.91394097  0.47766284  0.17211806  1
  O  O28  1  0.03146151  0.85964819  0.93707697  1
  O  O29  1  0.16390297  0.22070513  0.67219405  1
  O  O30  1  0.28775538  0.60625245  0.42448924  1
  O  O31  1  0.41727249  0.97275784  0.16545502  1
