# generated using pymatgen
data_CuBi5PbS9
_symmetry_space_group_name_H-M   'P 1'
_cell_length_a   4.03917761
_cell_length_b   11.68887754
_cell_length_c   33.57033501
_cell_angle_alpha   89.99949403
_cell_angle_beta   90.00031088
_cell_angle_gamma   90.00034402
_symmetry_Int_Tables_number   1
_chemical_formula_structural   CuBi5PbS9
_chemical_formula_sum   'Cu4 Bi20 Pb4 S36'
_cell_volume   1584.97141552
_cell_formula_units_Z   4
loop_
 _symmetry_equiv_pos_site_id
 _symmetry_equiv_pos_as_xyz
  1  'x, y, z'
loop_
 _atom_site_type_symbol
 _atom_site_label
 _atom_site_symmetry_multiplicity
 _atom_site_fract_x
 _atom_site_fract_y
 _atom_site_fract_z
 _atom_site_occupancy
  Cu  Cu0  1  0.75001860  0.77882233  0.73798671  1
  Cu  Cu1  1  0.74998896  0.27884550  0.76203938  1
  Cu  Cu2  1  0.24999624  0.22114444  0.26201418  1
  Cu  Cu3  1  0.25001738  0.72113428  0.23798453  1
  Bi  Bi4  1  0.74990782  0.14956437  0.34533417  1
  Bi  Bi5  1  0.24994433  0.84245289  0.98724734  1
  Bi  Bi6  1  0.75007269  0.64958328  0.15466377  1
  Bi  Bi7  1  0.24982322  0.34245034  0.51275713  1
  Bi  Bi8  1  0.25000515  0.50474170  0.39212215  1
  Bi  Bi9  1  0.25001315  0.51979193  0.05628578  1
  Bi  Bi10  1  0.25006127  0.00472598  0.10788562  1
  Bi  Bi11  1  0.75003363  0.98020288  0.55629610  1
  Bi  Bi12  1  0.24998992  0.35046291  0.84533348  1
  Bi  Bi13  1  0.25001580  0.52334075  0.72906637  1
  Bi  Bi14  1  0.75007237  0.48017923  0.94370742  1
  Bi  Bi15  1  0.74991972  0.97666285  0.22906822  1
  Bi  Bi16  1  0.25004762  0.01979042  0.44370662  1
  Bi  Bi17  1  0.24996094  0.02332731  0.77093371  1
  Bi  Bi18  1  0.74999084  0.47664475  0.27093024  1
  Bi  Bi19  1  0.75004047  0.65754309  0.48723979  1
  Bi  Bi20  1  0.75002225  0.49527321  0.60787421  1
  Bi  Bi21  1  0.75005918  0.15754434  0.01276216  1
  Bi  Bi22  1  0.25000923  0.85045864  0.65466731  1
  Bi  Bi23  1  0.74998630  0.99523947  0.89212958  1
  Pb  Pb24  1  0.75002011  0.68320827  0.83460573  1
  Pb  Pb25  1  0.74982269  0.18317403  0.66541722  1
  Pb  Pb26  1  0.25015593  0.31688592  0.16539749  1
  Pb  Pb27  1  0.25000894  0.81682910  0.33458748  1
  S  S28  1  0.25000415  0.55040242  0.88203330  1
  S  S29  1  0.75001493  0.46020557  0.79121858  1
  S  S30  1  0.24997785  0.21274892  0.39704376  1
  S  S31  1  0.74999904  0.27374693  0.23168301  1
  S  S32  1  0.75000408  0.62704626  0.01687377  1
  S  S33  1  0.24993332  0.55177876  0.54235757  1
  S  S34  1  0.75000237  0.94821872  0.04236038  1
  S  S35  1  0.75003811  0.44963449  0.11796655  1
  S  S36  1  0.25004389  0.37294318  0.98312485  1
  S  S37  1  0.74994872  0.44822028  0.45763822  1
  S  S38  1  0.75003870  0.78725656  0.60296237  1
  S  S39  1  0.24997872  0.87090267  0.18734750  1
  S  S40  1  0.75004669  0.12704417  0.48312041  1
  S  S41  1  0.74997382  0.79341976  0.93368493  1
  S  S42  1  0.24998120  0.89384026  0.85115601  1
  S  S43  1  0.25002218  0.72625135  0.76830743  1
  S  S44  1  0.75003593  0.10615123  0.14884097  1
  S  S45  1  0.25001397  0.71275685  0.10295590  1
  S  S46  1  0.75005612  0.96020945  0.70878220  1
  S  S47  1  0.74999488  0.60613645  0.35115558  1
  S  S48  1  0.25002841  0.03979981  0.29121037  1
  S  S49  1  0.75000093  0.77372995  0.26829784  1
  S  S50  1  0.25003259  0.20656854  0.06631707  1
  S  S51  1  0.24992645  0.53979997  0.20878252  1
  S  S52  1  0.24999231  0.05040962  0.61797094  1
  S  S53  1  0.25004653  0.87294931  0.51687858  1
  S  S54  1  0.24999706  0.39387065  0.64884340  1
  S  S55  1  0.24999916  0.22625557  0.73169565  1
  S  S56  1  0.75000730  0.94959796  0.38202926  1
  S  S57  1  0.74990152  0.29343472  0.56631838  1
  S  S58  1  0.74999137  0.12907482  0.81265052  1
  S  S59  1  0.25000279  0.70657249  0.43367989  1
  S  S60  1  0.24994995  0.37089350  0.31264872  1
  S  S61  1  0.75001037  0.62909473  0.68735076  1
  S  S62  1  0.75000599  0.28724392  0.89703577  1
  S  S63  1  0.24999384  0.05176596  0.95763316  1
