# generated using pymatgen
data_SnSO4
_symmetry_space_group_name_H-M   'P 1'
_cell_length_a   5.41907930
_cell_length_b   7.34315083
_cell_length_c   9.13753576
_cell_angle_alpha   90.00000000
_cell_angle_beta   86.82374191
_cell_angle_gamma   90.00000000
_symmetry_Int_Tables_number   1
_chemical_formula_structural   SnSO4
_chemical_formula_sum   'Sn4 S4 O16'
_cell_volume   363.05245067
_cell_formula_units_Z   4
loop_
 _symmetry_equiv_pos_site_id
 _symmetry_equiv_pos_as_xyz
  1  'x, y, z'
loop_
 _atom_site_type_symbol
 _atom_site_label
 _atom_site_symmetry_multiplicity
 _atom_site_fract_x
 _atom_site_fract_y
 _atom_site_fract_z
 _atom_site_occupancy
  Sn  Sn0  1  0.27807585  0.22312313  0.21048756  1
  Sn  Sn1  1  0.72192415  0.77687687  0.78951244  1
  Sn  Sn2  1  0.27807585  0.27687687  0.71048756  1
  Sn  Sn3  1  0.72192415  0.72312313  0.28951244  1
  S  S4  1  0.76317132  0.17698421  0.41845665  1
  S  S5  1  0.76317132  0.32301579  0.91845665  1
  S  S6  1  0.23682868  0.82301579  0.58154335  1
  S  S7  1  0.23682868  0.67698421  0.08154335  1
  O  O8  1  0.56384030  0.30482871  0.37227921  1
  O  O9  1  0.56384030  0.19517129  0.87227921  1
  O  O10  1  0.00503230  0.22209334  0.91197070  1
  O  O11  1  0.99496770  0.77790666  0.08802930  1
  O  O12  1  0.43615970  0.69517129  0.62772079  1
  O  O13  1  0.79007766  0.02719601  0.30559612  1
  O  O14  1  0.29740038  0.88887505  0.43298319  1
  O  O15  1  0.79007766  0.47280399  0.80559612  1
  O  O16  1  0.00503230  0.27790666  0.41197070  1
  O  O17  1  0.20992234  0.52719601  0.19440388  1
  O  O18  1  0.29740038  0.61112495  0.93298319  1
  O  O19  1  0.70259962  0.38887505  0.06701681  1
  O  O20  1  0.70259962  0.11112495  0.56701681  1
  O  O21  1  0.99496770  0.72209334  0.58802930  1
  O  O22  1  0.20992234  0.97280399  0.69440388  1
  O  O23  1  0.43615970  0.80482871  0.12772079  1
