# generated using pymatgen
data_Ni3Mo2SeO11
_symmetry_space_group_name_H-M   'P 1'
_cell_length_a   6.54992821
_cell_length_b   6.55277372
_cell_length_c   10.16688015
_cell_angle_alpha   74.07341216
_cell_angle_beta   86.37085064
_cell_angle_gamma   84.81289160
_symmetry_Int_Tables_number   1
_chemical_formula_structural   Ni3Mo2SeO11
_chemical_formula_sum   'Ni6 Mo4 Se2 O22'
_cell_volume   417.55818192
_cell_formula_units_Z   2
loop_
 _symmetry_equiv_pos_site_id
 _symmetry_equiv_pos_as_xyz
  1  'x, y, z'
loop_
 _atom_site_type_symbol
 _atom_site_label
 _atom_site_symmetry_multiplicity
 _atom_site_fract_x
 _atom_site_fract_y
 _atom_site_fract_z
 _atom_site_occupancy
  Ni  Ni0  1  0.27145497  0.81368433  0.38615407  1
  Ni  Ni1  1  0.53664068  0.80476882  0.12655275  1
  Ni  Ni2  1  0.16792042  0.17797670  0.12963005  1
  Ni  Ni3  1  0.46335932  0.19523118  0.87344725  1
  Ni  Ni4  1  0.72854503  0.18631567  0.61384593  1
  Ni  Ni5  1  0.83207958  0.82202330  0.87036995  1
  Mo  Mo6  1  0.28760520  0.21335603  0.50062411  1
  Mo  Mo7  1  0.61031527  0.20833288  0.23361173  1
  Mo  Mo8  1  0.71239480  0.78664397  0.49937589  1
  Mo  Mo9  1  0.38968473  0.79166712  0.76638827  1
  Se  Se10  1  0.96859268  0.35543576  0.81970385  1
  Se  Se11  1  0.03140732  0.64456424  0.18029615  1
  O  O12  1  0.29707642  0.49137984  0.44312995  1
  O  O13  1  0.48843179  0.13743423  0.08660290  1
  O  O14  1  0.87307754  0.16997956  0.19507001  1
  O  O15  1  0.28222499  0.14790056  0.32543449  1
  O  O16  1  0.02982883  0.18115864  0.55646092  1
  O  O17  1  0.85313708  0.80817264  0.07061016  1
  O  O18  1  0.97017117  0.81884136  0.44353908  1
  O  O19  1  0.41491313  0.15603424  0.67620914  1
  O  O20  1  0.62506013  0.14994497  0.43573355  1
  O  O21  1  0.12692246  0.83002044  0.80492999  1
  O  O22  1  0.14686292  0.19182736  0.92938984  1
  O  O23  1  0.70292358  0.50862016  0.55687005  1
  O  O24  1  0.43443034  0.51387673  0.80900114  1
  O  O25  1  0.71777501  0.85209944  0.67456551  1
  O  O26  1  0.58508687  0.84396576  0.32379086  1
  O  O27  1  0.21727405  0.83392971  0.18478537  1
  O  O28  1  0.78272595  0.16607029  0.81521463  1
  O  O29  1  0.37493987  0.85005503  0.56426645  1
  O  O30  1  0.51156821  0.86256577  0.91339710  1
  O  O31  1  0.83184056  0.49535146  0.91519429  1
  O  O32  1  0.16815944  0.50464854  0.08480571  1
  O  O33  1  0.56556966  0.48612327  0.19099886  1
