# generated using pymatgen
data_NbZn16
_symmetry_space_group_name_H-M   'P 1'
_cell_length_a   6.91100045
_cell_length_b   6.91100004
_cell_length_c   11.71980107
_cell_angle_alpha   90.00000000
_cell_angle_beta   90.00000000
_cell_angle_gamma   112.08479927
_symmetry_Int_Tables_number   1
_chemical_formula_structural   NbZn16
_chemical_formula_sum   'Nb2 Zn32'
_cell_volume   518.68975375
_cell_formula_units_Z   2
loop_
 _symmetry_equiv_pos_site_id
 _symmetry_equiv_pos_as_xyz
  1  'x, y, z'
loop_
 _atom_site_type_symbol
 _atom_site_label
 _atom_site_symmetry_multiplicity
 _atom_site_fract_x
 _atom_site_fract_y
 _atom_site_fract_z
 _atom_site_occupancy
  Nb  Nb0  1  0.04820955  0.95179045  0.75000000  1
  Nb  Nb1  1  0.95179045  0.04820955  0.25000000  1
  Zn  Zn2  1  0.75571316  0.65121134  0.36619464  1
  Zn  Zn3  1  0.35502639  0.98132792  0.93071182  1
  Zn  Zn4  1  0.62011537  0.37988463  0.96808748  1
  Zn  Zn5  1  0.01867208  0.64497361  0.56928818  1
  Zn  Zn6  1  0.19282314  0.48075358  0.25000000  1
  Zn  Zn7  1  0.65121134  0.75571316  0.86619464  1
  Zn  Zn8  1  0.37988463  0.62011537  0.46808748  1
  Zn  Zn9  1  0.34878866  0.24428684  0.13380536  1
  Zn  Zn10  1  0.17588110  0.82411890  0.35969156  1
  Zn  Zn11  1  0.98132792  0.35502639  0.06928818  1
  Zn  Zn12  1  0.24428684  0.34878866  0.86619464  1
  Zn  Zn13  1  0.64497361  0.01867208  0.43071182  1
  Zn  Zn14  1  0.80717686  0.51924642  0.75000000  1
  Zn  Zn15  1  0.24428684  0.34878866  0.63380536  1
  Zn  Zn16  1  0.37988463  0.62011537  0.03191252  1
  Zn  Zn17  1  0.34878866  0.24428684  0.36619464  1
  Zn  Zn18  1  0.75571316  0.65121134  0.13380536  1
  Zn  Zn19  1  0.51924642  0.80717686  0.25000000  1
  Zn  Zn20  1  0.00000000  0.00000000  0.00000000  1
  Zn  Zn21  1  0.62011537  0.37988463  0.53191252  1
  Zn  Zn22  1  0.29003675  0.70996325  0.75000000  1
  Zn  Zn23  1  0.48075358  0.19282314  0.75000000  1
  Zn  Zn24  1  0.64497361  0.01867208  0.06928818  1
  Zn  Zn25  1  0.65121134  0.75571316  0.63380536  1
  Zn  Zn26  1  0.17588110  0.82411890  0.14030844  1
  Zn  Zn27  1  0.01867208  0.64497361  0.93071182  1
  Zn  Zn28  1  0.00000000  0.00000000  0.50000000  1
  Zn  Zn29  1  0.98132792  0.35502639  0.43071182  1
  Zn  Zn30  1  0.35502639  0.98132792  0.56928818  1
  Zn  Zn31  1  0.70996325  0.29003675  0.25000000  1
  Zn  Zn32  1  0.82411890  0.17588110  0.85969156  1
  Zn  Zn33  1  0.82411890  0.17588110  0.64030844  1
