# generated using pymatgen
data_As3Pb5ClO12
_symmetry_space_group_name_H-M   'P 1'
_cell_length_a   10.46292281
_cell_length_b   10.46292269
_cell_length_c   7.48189951
_cell_angle_alpha   90.00000000
_cell_angle_beta   90.00000000
_cell_angle_gamma   120.00000037
_symmetry_Int_Tables_number   1
_chemical_formula_structural   As3Pb5ClO12
_chemical_formula_sum   'As6 Pb10 Cl2 O24'
_cell_volume   709.33034365
_cell_formula_units_Z   2
loop_
 _symmetry_equiv_pos_site_id
 _symmetry_equiv_pos_as_xyz
  1  'x, y, z'
loop_
 _atom_site_type_symbol
 _atom_site_label
 _atom_site_symmetry_multiplicity
 _atom_site_fract_x
 _atom_site_fract_y
 _atom_site_fract_z
 _atom_site_occupancy
  As  As0  1  0.38041519  0.97492884  0.75000000  1
  As  As1  1  0.59451365  0.61958481  0.75000000  1
  As  As2  1  0.97492884  0.59451365  0.25000000  1
  As  As3  1  0.02507116  0.40548635  0.75000000  1
  As  As4  1  0.40548635  0.38041519  0.25000000  1
  As  As5  1  0.61958481  0.02507116  0.25000000  1
  Pb  Pb6  1  0.25340513  0.01037284  0.25000000  1
  Pb  Pb7  1  0.66666700  0.33333300  0.50370090  1
  Pb  Pb8  1  0.24303228  0.25340513  0.75000000  1
  Pb  Pb9  1  0.75696772  0.74659487  0.25000000  1
  Pb  Pb10  1  0.33333300  0.66666700  0.49629910  1
  Pb  Pb11  1  0.98962716  0.24303228  0.25000000  1
  Pb  Pb12  1  0.66666700  0.33333300  0.99629910  1
  Pb  Pb13  1  0.01037284  0.75696772  0.75000000  1
  Pb  Pb14  1  0.33333300  0.66666700  0.00370090  1
  Pb  Pb15  1  0.74659487  0.98962716  0.75000000  1
  Cl  Cl16  1  0.00000000  0.00000000  0.00000000  1
  Cl  Cl17  1  0.00000000  0.00000000  0.50000000  1
  O  O18  1  0.90866970  0.64379604  0.06694013  1
  O  O19  1  0.26487366  0.90866970  0.93305987  1
  O  O20  1  0.64379604  0.73512634  0.93305987  1
  O  O21  1  0.50699051  0.83552731  0.25000000  1
  O  O22  1  0.32853680  0.49300949  0.25000000  1
  O  O23  1  0.51712739  0.11513888  0.25000000  1
  O  O24  1  0.26487366  0.90866970  0.56694013  1
  O  O25  1  0.35620396  0.26487366  0.43305987  1
  O  O26  1  0.90866970  0.64379604  0.43305987  1
  O  O27  1  0.09133030  0.35620396  0.93305987  1
  O  O28  1  0.11513888  0.59801149  0.75000000  1
  O  O29  1  0.59801149  0.48287261  0.25000000  1
  O  O30  1  0.88486112  0.40198851  0.25000000  1
  O  O31  1  0.67146320  0.50699051  0.75000000  1
  O  O32  1  0.83552731  0.32853680  0.75000000  1
  O  O33  1  0.40198851  0.51712739  0.75000000  1
  O  O34  1  0.16447269  0.67146320  0.25000000  1
  O  O35  1  0.64379604  0.73512634  0.56694013  1
  O  O36  1  0.09133030  0.35620396  0.56694013  1
  O  O37  1  0.73512634  0.09133030  0.06694013  1
  O  O38  1  0.73512634  0.09133030  0.43305987  1
  O  O39  1  0.48287261  0.88486112  0.75000000  1
  O  O40  1  0.35620396  0.26487366  0.06694013  1
  O  O41  1  0.49300949  0.16447269  0.75000000  1
