# generated using pymatgen
data_CeZn11
_symmetry_space_group_name_H-M   'P 1'
_cell_length_a   6.94343371
_cell_length_b   8.27246601
_cell_length_c   8.25995538
_cell_angle_alpha   79.78477656
_cell_angle_beta   65.12879422
_cell_angle_gamma   65.07016042
_symmetry_Int_Tables_number   1
_chemical_formula_structural   CeZn11
_chemical_formula_sum   'Ce2 Zn22'
_cell_volume   390.33715473
_cell_formula_units_Z   2
loop_
 _symmetry_equiv_pos_site_id
 _symmetry_equiv_pos_as_xyz
  1  'x, y, z'
loop_
 _atom_site_type_symbol
 _atom_site_label
 _atom_site_symmetry_multiplicity
 _atom_site_fract_x
 _atom_site_fract_y
 _atom_site_fract_z
 _atom_site_occupancy
  Ce  Ce0  1  0.37656045  0.24908649  0.75048881  1
  Ce  Ce1  1  0.62731719  0.74905483  0.24870171  1
  Zn  Zn2  1  0.71992929  0.83610539  0.57676008  1
  Zn  Zn3  1  0.00380971  0.99827181  0.00149012  1
  Zn  Zn4  1  0.20350325  0.07846827  0.16512416  1
  Zn  Zn5  1  0.13414070  0.42323016  0.16499590  1
  Zn  Zn6  1  0.20364277  0.66681736  0.57562969  1
  Zn  Zn7  1  0.86913576  0.57840474  0.83466172  1
  Zn  Zn8  1  0.13565756  0.66479520  0.92296192  1
  Zn  Zn9  1  0.12801666  0.74821591  0.25149501  1
  Zn  Zn10  1  0.86710482  0.33430273  0.07428300  1
  Zn  Zn11  1  0.88016737  0.24697786  0.74716817  1
  Zn  Zn12  1  0.55958506  0.57667468  0.66152419  1
  Zn  Zn13  1  0.50072284  0.50024324  0.99610754  1
  Zn  Zn14  1  0.28106231  0.16384179  0.42404557  1
  Zn  Zn15  1  0.79956801  0.33523097  0.42003246  1
  Zn  Zn16  1  0.72013181  0.07649081  0.33219597  1
  Zn  Zn17  1  0.44594041  0.42176961  0.33431510  1
  Zn  Zn18  1  0.55988846  0.16490666  0.07304058  1
  Zn  Zn19  1  0.27833771  0.92274691  0.66639429  1
  Zn  Zn20  1  0.80357368  0.92329263  0.83212434  1
  Zn  Zn21  1  0.44848386  0.83524063  0.92352987  1
  Zn  Zn22  1  0.99929656  0.00161278  0.49845864  1
  Zn  Zn23  1  0.00123373  0.49845354  0.50093916  1
