# generated using pymatgen
data_Cs3CdI5
_symmetry_space_group_name_H-M   'P 1'
_cell_length_a   10.33017547
_cell_length_b   12.10000640
_cell_length_c   15.32671843
_cell_angle_alpha   90.00000000
_cell_angle_beta   90.00000000
_cell_angle_gamma   90.00000000
_symmetry_Int_Tables_number   1
_chemical_formula_structural   Cs3CdI5
_chemical_formula_sum   'Cs12 Cd4 I20'
_cell_volume   1915.76607151
_cell_formula_units_Z   4
loop_
 _symmetry_equiv_pos_site_id
 _symmetry_equiv_pos_as_xyz
  1  'x, y, z'
loop_
 _atom_site_type_symbol
 _atom_site_label
 _atom_site_symmetry_multiplicity
 _atom_site_fract_x
 _atom_site_fract_y
 _atom_site_fract_z
 _atom_site_occupancy
  Cs  Cs0  1  0.57882924  0.98150531  0.32919065  1
  Cs  Cs1  1  0.92117076  0.48150531  0.82919065  1
  Cs  Cs2  1  0.57903652  0.75000000  0.05024285  1
  Cs  Cs3  1  0.92117076  0.01849469  0.82919065  1
  Cs  Cs4  1  0.42117076  0.01849469  0.67080935  1
  Cs  Cs5  1  0.07882924  0.98150531  0.17080935  1
  Cs  Cs6  1  0.07903652  0.75000000  0.44975715  1
  Cs  Cs7  1  0.57882924  0.51849469  0.32919065  1
  Cs  Cs8  1  0.07882924  0.51849469  0.17080935  1
  Cs  Cs9  1  0.42096348  0.25000000  0.94975715  1
  Cs  Cs10  1  0.92096348  0.25000000  0.55024285  1
  Cs  Cs11  1  0.42117076  0.48150531  0.67080935  1
  Cd  Cd12  1  0.68927120  0.75000000  0.60907864  1
  Cd  Cd13  1  0.18927120  0.75000000  0.89092136  1
  Cd  Cd14  1  0.31072880  0.25000000  0.39092136  1
  Cd  Cd15  1  0.81072880  0.25000000  0.10907864  1
  I  I16  1  0.95669569  0.75000000  0.99125703  1
  I  I17  1  0.04330431  0.25000000  0.00874297  1
  I  I18  1  0.45669569  0.75000000  0.50874297  1
  I  I19  1  0.63001306  0.75000000  0.78855786  1
  I  I20  1  0.54330431  0.25000000  0.49125703  1
  I  I21  1  0.67539057  0.25000000  0.76430748  1
  I  I22  1  0.13001306  0.75000000  0.71144214  1
  I  I23  1  0.82460943  0.75000000  0.26430748  1
  I  I24  1  0.31339692  0.55164738  0.93774368  1
  I  I25  1  0.17539057  0.25000000  0.73569252  1
  I  I26  1  0.81339692  0.94835262  0.56225632  1
  I  I27  1  0.81339692  0.55164738  0.56225632  1
  I  I28  1  0.31339692  0.94835262  0.93774368  1
  I  I29  1  0.32460943  0.75000000  0.23569252  1
  I  I30  1  0.68660308  0.44835262  0.06225632  1
  I  I31  1  0.18660308  0.05164738  0.43774368  1
  I  I32  1  0.18660308  0.44835262  0.43774368  1
  I  I33  1  0.86998694  0.25000000  0.28855786  1
  I  I34  1  0.36998694  0.25000000  0.21144214  1
  I  I35  1  0.68660308  0.05164738  0.06225632  1
