# generated using pymatgen
data_Li9Mn2Co5O16
_symmetry_space_group_name_H-M   'P 1'
_cell_length_a   2.94083452
_cell_length_b   15.46952836
_cell_length_c   6.56499124
_cell_angle_alpha   91.51140920
_cell_angle_beta   77.05716986
_cell_angle_gamma   90.00000023
_symmetry_Int_Tables_number   1
_chemical_formula_structural   Li9Mn2Co5O16
_chemical_formula_sum   'Li9 Mn2 Co5 O16'
_cell_volume   290.96882237
_cell_formula_units_Z   1
loop_
 _symmetry_equiv_pos_site_id
 _symmetry_equiv_pos_as_xyz
  1  'x, y, z'
loop_
 _atom_site_type_symbol
 _atom_site_label
 _atom_site_symmetry_multiplicity
 _atom_site_fract_x
 _atom_site_fract_y
 _atom_site_fract_z
 _atom_site_occupancy
  Li  Li0  1  0.31026638  0.05560374  0.37946725  1
  Li  Li1  1  0.93973362  0.19439626  0.12053275  1
  Li  Li2  1  0.56370709  0.31621156  0.87258582  1
  Li  Li3  1  0.68629291  0.93378844  0.62741418  1
  Li  Li4  1  0.06410995  0.80349120  0.87178010  1
  Li  Li5  1  0.44036760  0.68562744  0.11926481  1
  Li  Li6  1  0.18589005  0.44650880  0.62821990  1
  Li  Li7  1  0.80963240  0.56437256  0.38073519  1
  Li  Li8  1  0.12500000  0.62500000  0.75000000  1
  Mn  Mn9  1  -0.00241483  0.00011652  0.00482966  1
  Mn  Mn10  1  0.25241483  0.24988348  0.49517034  1
  Co  Co11  1  0.62500000  0.12500000  0.75000000  1
  Co  Co12  1  0.88150193  0.38168605  0.23699614  1
  Co  Co13  1  0.50899457  0.50792218  0.98201087  1
  Co  Co14  1  0.74100543  0.74207782  0.51798913  1
  Co  Co15  1  0.36849807  0.86831395  0.26300386  1
  O  O16  1  0.46831543  0.08229473  0.06336913  1
  O  O17  1  0.10587011  0.21753716  0.78825977  1
  O  O18  1  0.72675189  0.33149676  0.54649622  1
  O  O19  1  0.85318290  0.96619932  0.29363420  1
  O  O20  1  0.22608492  0.84328450  0.54783016  1
  O  O21  1  0.60323957  0.72269869  0.79352086  1
  O  O22  1  0.34432293  0.46295674  0.31135414  1
  O  O23  1  0.96857440  0.58462763  0.06285121  1
  O  O24  1  0.14412989  0.03246284  0.71174023  1
  O  O25  1  0.78168457  0.16770527  0.43663087  1
  O  O26  1  0.39681710  0.28380068  0.20636580  1
  O  O27  1  0.52324811  0.91850324  0.95350378  1
  O  O28  1  0.90567707  0.78704326  0.18864586  1
  O  O29  1  0.28142560  0.66537237  0.43714879  1
  O  O30  1  0.02391508  0.40671550  0.95216984  1
  O  O31  1  0.64676043  0.52730131  0.70647914  1
