# generated using pymatgen
data_LiFe6Ge5
_symmetry_space_group_name_H-M   'P 1'
_cell_length_a   14.74552587
_cell_length_b   14.74552573
_cell_length_c   14.74552593
_cell_angle_alpha   19.64053482
_cell_angle_beta   19.64053631
_cell_angle_gamma   19.64053450
_symmetry_Int_Tables_number   1
_chemical_formula_structural   LiFe6Ge5
_chemical_formula_sum   'Li2 Fe12 Ge10'
_cell_volume   316.75669682
_cell_formula_units_Z   2
loop_
 _symmetry_equiv_pos_site_id
 _symmetry_equiv_pos_as_xyz
  1  'x, y, z'
loop_
 _atom_site_type_symbol
 _atom_site_label
 _atom_site_symmetry_multiplicity
 _atom_site_fract_x
 _atom_site_fract_y
 _atom_site_fract_z
 _atom_site_occupancy
  Li  Li0  1  0.91224453  0.91224453  0.91224453  1
  Li  Li1  1  0.08775547  0.08775547  0.08775547  1
  Fe  Fe2  1  0.54639166  0.54639166  0.04571616  1
  Fe  Fe3  1  0.63552340  0.14632200  0.63552340  1
  Fe  Fe4  1  0.63552340  0.63552340  0.14632200  1
  Fe  Fe5  1  0.14632200  0.63552340  0.63552340  1
  Fe  Fe6  1  0.54639166  0.04571616  0.54639166  1
  Fe  Fe7  1  0.36447660  0.85367800  0.36447660  1
  Fe  Fe8  1  0.45360834  0.95428384  0.45360834  1
  Fe  Fe9  1  0.45360834  0.45360834  0.95428384  1
  Fe  Fe10  1  0.36447660  0.36447660  0.85367800  1
  Fe  Fe11  1  0.95428384  0.45360834  0.45360834  1
  Fe  Fe12  1  0.85367800  0.36447660  0.36447660  1
  Fe  Fe13  1  0.04571616  0.54639166  0.54639166  1
  Ge  Ge14  1  0.42538702  0.42538702  0.42538702  1
  Ge  Ge15  1  0.33338893  0.33338893  0.33338893  1
  Ge  Ge16  1  0.66661107  0.66661107  0.66661107  1
  Ge  Ge17  1  0.97054134  0.97054134  0.97054134  1
  Ge  Ge18  1  0.02945866  0.02945866  0.02945866  1
  Ge  Ge19  1  0.14749501  0.14749501  0.14749501  1
  Ge  Ge20  1  0.57461298  0.57461298  0.57461298  1
  Ge  Ge21  1  0.24087794  0.24087794  0.24087794  1
  Ge  Ge22  1  0.75912206  0.75912206  0.75912206  1
  Ge  Ge23  1  0.85250499  0.85250499  0.85250499  1
