# generated using pymatgen
data_Mg5V2(MoO8)2
_symmetry_space_group_name_H-M   'P 1'
_cell_length_a   10.23045014
_cell_length_b   10.47882508
_cell_length_c   17.68322341
_cell_angle_alpha   90.00000000
_cell_angle_beta   89.88284082
_cell_angle_gamma   90.00000000
_symmetry_Int_Tables_number   1
_chemical_formula_structural   Mg5V2(MoO8)2
_chemical_formula_sum   'Mg30 V12 Mo12 O96'
_cell_volume   1895.69236161
_cell_formula_units_Z   6
loop_
 _symmetry_equiv_pos_site_id
 _symmetry_equiv_pos_as_xyz
  1  'x, y, z'
loop_
 _atom_site_type_symbol
 _atom_site_label
 _atom_site_symmetry_multiplicity
 _atom_site_fract_x
 _atom_site_fract_y
 _atom_site_fract_z
 _atom_site_occupancy
  Mg  Mg0  1  0.08493880  0.92079300  0.96850898  1
  Mg  Mg1  1  0.08814080  0.24490000  0.29490465  1
  Mg  Mg2  1  0.08181148  0.74490000  0.79733227  1
  Mg  Mg3  1  0.33394213  0.74490000  0.68954810  1
  Mg  Mg4  1  0.33402776  0.41675859  0.02221267  1
  Mg  Mg5  1  0.85537650  0.92003144  0.52148620  1
  Mg  Mg6  1  0.85758852  0.24490000  0.19266773  1
  Mg  Mg7  1  0.85446120  0.06900700  0.02149102  1
  Mg  Mg8  1  0.85537650  0.56976856  0.52148620  1
  Mg  Mg9  1  0.02449248  0.24490000  0.74596607  1
  Mg  Mg10  1  0.75690564  0.24490000  0.74564737  1
  Mg  Mg11  1  0.08402350  0.42003144  0.46851380  1
  Mg  Mg12  1  0.33426009  0.24490000  0.19171663  1
  Mg  Mg13  1  0.60576069  0.07265584  0.46771147  1
  Mg  Mg14  1  0.33363931  0.57265584  0.52228853  1
  Mg  Mg15  1  0.60576069  0.41714416  0.46771147  1
  Mg  Mg16  1  0.33402776  0.07304141  0.02221267  1
  Mg  Mg17  1  0.60537224  0.91675859  0.96778733  1
  Mg  Mg18  1  0.85446120  0.42079300  0.02149102  1
  Mg  Mg19  1  0.33363931  0.91714416  0.52228853  1
  Mg  Mg20  1  0.08493880  0.56900700  0.96850898  1
  Mg  Mg21  1  0.60537224  0.57304141  0.96778733  1
  Mg  Mg22  1  0.18249436  0.74490000  0.24435263  1
  Mg  Mg23  1  0.91490752  0.74490000  0.24403393  1
  Mg  Mg24  1  0.60545787  0.24490000  0.30045190  1
  Mg  Mg25  1  0.29308351  0.24490000  0.74227619  1
  Mg  Mg26  1  0.85125920  0.74490000  0.69509535  1
  Mg  Mg27  1  0.08402350  0.06976856  0.46851380  1
  Mg  Mg28  1  0.64631649  0.74490000  0.24772381  1
  Mg  Mg29  1  0.60513991  0.74490000  0.79828337  1
  V  V30  1  0.85562240  0.96990383  0.83718558  1
  V  V31  1  0.85765144  0.24490000  0.55646701  1
  V  V32  1  0.08377760  0.46990383  0.15281442  1
  V  V33  1  0.10893946  0.52157087  0.65285864  1
  V  V34  1  0.10893946  0.96822913  0.65285864  1
  V  V35  1  0.08174856  0.74490000  0.43353299  1
  V  V36  1  0.83046054  0.46822913  0.33714136  1
  V  V37  1  0.83046054  0.02157087  0.33714136  1
  V  V38  1  0.85562240  0.51989617  0.83718558  1
  V  V39  1  0.08377760  0.01989617  0.15281442  1
  V  V40  1  0.82809757  0.74490000  0.05429339  1
  V  V41  1  0.11130243  0.24490000  0.93570661  1
  Mo  Mo42  1  0.57823816  0.46301880  0.15120646  1
  Mo  Mo43  1  0.33162364  0.02351196  0.33885432  1
  Mo  Mo44  1  0.57823816  0.02678120  0.15120646  1
  Mo  Mo45  1  0.36116184  0.96301880  0.83879354  1
  Mo  Mo46  1  0.57716394  0.74490000  0.44270338  1
  Mo  Mo47  1  0.32813007  0.74490000  0.05000213  1
  Mo  Mo48  1  0.60777636  0.52351196  0.65114568  1
  Mo  Mo49  1  0.60777636  0.96628804  0.65114568  1
  Mo  Mo50  1  0.36223606  0.24490000  0.54729662  1
  Mo  Mo51  1  0.36116184  0.52678120  0.83879354  1
  Mo  Mo52  1  0.61126993  0.24490000  0.93999787  1
  Mo  Mo53  1  0.33162364  0.46628804  0.33885432  1
  O  O54  1  0.01203371  0.62173234  0.70838326  1
  O  O55  1  0.64465676  0.10688589  0.69911756  1
  O  O56  1  0.01756577  0.11122003  0.95816002  1
  O  O57  1  0.75036181  0.24490000  0.00679008  1
  O  O58  1  0.76205772  0.48172897  0.91805460  1
  O  O59  1  0.43562858  0.12314240  0.27958920  1
  O  O60  1  0.26162829  0.38105872  0.52670922  1
  O  O61  1  0.17733274  0.60895339  0.45334713  1
  O  O62  1  0.50368415  0.24490000  0.48117808  1
  O  O63  1  0.18166623  0.37092044  0.21076456  1
  O  O64  1  0.50702240  0.87426749  0.86899339  1
  O  O65  1  0.67777171  0.60874128  0.46329078  1
  O  O66  1  0.04868226  0.61046162  0.20009559  1
  O  O67  1  0.92736629  0.36806766  0.28161674  1
  O  O68  1  0.78702405  0.88013641  0.29072352  1
  O  O69  1  0.26181732  0.99698352  0.92071747  1
  O  O70  1  0.92736629  0.12173234  0.28161674  1
  O  O71  1  0.67758268  0.49698352  0.06928253  1
  O  O72  1  0.78702405  0.60966359  0.29072352  1
  O  O73  1  0.92183423  0.87857997  0.03183998  1
  O  O74  1  0.40243307  0.38494121  0.79207181  1
  O  O75  1  0.76206726  0.10895339  0.53665287  1
  O  O76  1  0.68912216  0.10716447  0.36623389  1
  O  O77  1  0.92183423  0.61122003  0.03183998  1
  O  O78  1  0.15237595  0.38013641  0.69927648  1
  O  O79  1  0.76205772  0.00807103  0.91805460  1
  O  O80  1  0.53578337  0.74490000  0.34662138  1
  O  O81  1  0.50702240  0.61553251  0.86899339  1
  O  O82  1  0.43562858  0.36665760  0.27958920  1
  O  O83  1  0.75773377  0.61887956  0.77923544  1
  O  O84  1  0.26162829  0.10874128  0.52670922  1
  O  O85  1  0.17734228  0.50807103  0.07194540  1
  O  O86  1  0.01203371  0.86806766  0.70838326  1
  O  O87  1  0.01756577  0.37857997  0.95816002  1
  O  O88  1  0.89071774  0.37933838  0.78990441  1
  O  O89  1  0.89221857  0.24490000  0.65235462  1
  O  O90  1  0.43237760  0.11553251  0.12100661  1
  O  O91  1  0.04868226  0.87933838  0.20009559  1
  O  O92  1  0.15237595  0.10966359  0.69927648  1
  O  O93  1  0.43571585  0.74490000  0.50882192  1
  O  O94  1  0.65386117  0.24490000  0.84465113  1
  O  O95  1  0.18166623  0.11887956  0.21076456  1
  O  O96  1  0.99554767  0.24490000  0.49449160  1
  O  O97  1  0.68981201  0.74490000  0.99199696  1
  O  O98  1  0.15416987  0.24490000  0.83995077  1
  O  O99  1  0.25736191  0.86379848  0.78151110  1
  O  O100  1  0.25736191  0.62600152  0.78151110  1
  O  O101  1  0.18785278  0.11481833  0.36872630  1
  O  O102  1  0.76206726  0.38084661  0.53665287  1
  O  O103  1  0.94385233  0.74490000  0.49550840  1
  O  O104  1  0.50879989  0.38288957  0.95858875  1
  O  O105  1  0.04718143  0.74490000  0.33764538  1
  O  O106  1  0.17734228  0.98172897  0.07194540  1
  O  O107  1  0.67777171  0.88105872  0.46329078  1
  O  O108  1  0.75154722  0.61481833  0.62127370  1
  O  O109  1  0.68203809  0.36379848  0.20848890  1
  O  O110  1  0.89071774  0.11046162  0.78990441  1
  O  O111  1  0.68203809  0.12600152  0.20848890  1
  O  O112  1  0.01714430  0.49013932  0.57193875  1
  O  O113  1  0.53696693  0.88494121  0.19792819  1
  O  O114  1  0.99493341  0.60688606  0.86613759  1
  O  O115  1  0.92225570  0.99013932  0.41806125  1
  O  O116  1  0.75773377  0.87092044  0.77923544  1
  O  O117  1  0.94446659  0.38291394  0.12386241  1
  O  O118  1  0.17733274  0.88084661  0.45334713  1
  O  O119  1  0.50377142  0.86665760  0.71041080  1
  O  O120  1  0.94446659  0.10688606  0.12386241  1
  O  O121  1  0.78523013  0.74490000  0.15004923  1
  O  O122  1  0.50750584  0.48420617  0.56931666  1
  O  O123  1  0.43189416  0.98420617  0.42068334  1
  O  O124  1  0.43237760  0.37426749  0.12100661  1
  O  O125  1  0.26181732  0.49281648  0.92071747  1
  O  O126  1  0.18785278  0.37498167  0.36872630  1
  O  O127  1  0.67758268  0.99281648  0.06928253  1
  O  O128  1  0.29474324  0.88291411  0.29088244  1
  O  O129  1  0.01714430  0.99966068  0.57193875  1
  O  O130  1  0.50377142  0.62314240  0.71041080  1
  O  O131  1  0.50750584  0.00559383  0.56931666  1
  O  O132  1  0.29474324  0.60688589  0.29088244  1
  O  O133  1  0.18903819  0.74490000  0.98320992  1
  O  O134  1  0.75154722  0.87498167  0.62127370  1
  O  O135  1  0.68912216  0.38263553  0.36623389  1
  O  O136  1  0.50879989  0.10691043  0.95858875  1
  O  O137  1  0.92225570  0.49966068  0.41806125  1
  O  O138  1  0.43060011  0.60691043  0.03141125  1
  O  O139  1  0.64465676  0.38291411  0.69911756  1
  O  O140  1  0.40361663  0.24490000  0.64337862  1
  O  O141  1  0.40243307  0.10485879  0.79207181  1
  O  O142  1  0.53696693  0.60485879  0.19792819  1
  O  O143  1  0.25027784  0.60716447  0.62376611  1
  O  O144  1  0.28553883  0.74490000  0.14534887  1
  O  O145  1  0.43189416  0.50559383  0.42068334  1
  O  O146  1  0.24958799  0.24490000  0.99800304  1
  O  O147  1  0.25027784  0.88263553  0.62376611  1
  O  O148  1  0.99493341  0.88291394  0.86613759  1
  O  O149  1  0.43060011  0.88288957  0.03141125  1
