# generated using pymatgen
data_K3Nb7O19
_symmetry_space_group_name_H-M   'P 1'
_cell_length_a   6.58883291
_cell_length_b   14.45592929
_cell_length_c   19.46504334
_cell_angle_alpha   99.84502164
_cell_angle_beta   91.99801002
_cell_angle_gamma   84.93790477
_symmetry_Int_Tables_number   1
_chemical_formula_structural   K3Nb7O19
_chemical_formula_sum   'K12 Nb28 O76'
_cell_volume   1819.20410198
_cell_formula_units_Z   4
loop_
 _symmetry_equiv_pos_site_id
 _symmetry_equiv_pos_as_xyz
  1  'x, y, z'
loop_
 _atom_site_type_symbol
 _atom_site_label
 _atom_site_symmetry_multiplicity
 _atom_site_fract_x
 _atom_site_fract_y
 _atom_site_fract_z
 _atom_site_occupancy
  K  K0  1  0.59606576  0.86504191  0.73846939  1
  K  K1  1  0.79114631  0.27150933  0.96144626  1
  K  K2  1  0.78878033  0.58588907  0.34155018  1
  K  K3  1  0.77811773  0.74262817  0.53377291  1
  K  K4  1  0.40393424  0.13495809  0.26153061  1
  K  K5  1  0.29709402  0.59018374  0.84169101  1
  K  K6  1  0.09596752  0.86059766  0.23754534  1
  K  K7  1  0.22188227  0.25737183  0.46622709  1
  K  K8  1  0.70290598  0.40981626  0.15830899  1
  K  K9  1  0.21121967  0.41411093  0.65844982  1
  K  K10  1  0.20885369  0.72849067  0.03855374  1
  K  K11  1  0.90403248  0.13940234  0.76245466  1
  Nb  Nb12  1  0.74049692  0.39388751  0.79692378  1
  Nb  Nb13  1  0.66888071  0.68772782  0.17374242  1
  Nb  Nb14  1  0.33111929  0.31227218  0.82625758  1
  Nb  Nb15  1  0.74027471  0.08054609  0.40891779  1
  Nb  Nb16  1  0.75836726  0.91828791  0.09115672  1
  Nb  Nb17  1  0.21159123  0.53482605  0.48556080  1
  Nb  Nb18  1  0.71043331  0.53761459  0.98757739  1
  Nb  Nb19  1  0.69339601  0.00741371  0.56099826  1
  Nb  Nb20  1  0.20094371  0.84848085  0.85932085  1
  Nb  Nb21  1  0.77092728  0.75869439  0.89622889  1
  Nb  Nb22  1  0.25950308  0.60611249  0.20307622  1
  Nb  Nb23  1  0.78840877  0.46517395  0.51443920  1
  Nb  Nb24  1  0.24163274  0.08171209  0.90884328  1
  Nb  Nb25  1  0.79905629  0.15151915  0.14067915  1
  Nb  Nb26  1  0.25972529  0.91945391  0.59108221  1
  Nb  Nb27  1  0.27349840  0.75649195  0.39604116  1
  Nb  Nb28  1  0.76168054  0.61244046  0.70310833  1
  Nb  Nb29  1  0.29741606  0.15304448  0.64033590  1
  Nb  Nb30  1  0.19378568  0.00546060  0.06067691  1
  Nb  Nb31  1  0.22907272  0.24130561  0.10377111  1
  Nb  Nb32  1  0.82541980  0.31180734  0.32755782  1
  Nb  Nb33  1  0.28956669  0.46238541  0.01242261  1
  Nb  Nb34  1  0.30660399  0.99258629  0.43900174  1
  Nb  Nb35  1  0.72650160  0.24350805  0.60395884  1
  Nb  Nb36  1  0.80621432  0.99453940  0.93932309  1
  Nb  Nb37  1  0.23831946  0.38755954  0.29689167  1
  Nb  Nb38  1  0.17458020  0.68819266  0.67244218  1
  Nb  Nb39  1  0.70258394  0.84695552  0.35966410  1
  O  O40  1  0.21798332  0.46738056  0.38842530  1
  O  O41  1  0.85259095  0.04598349  0.04130896  1
  O  O42  1  0.19876263  0.78244526  0.76897738  1
  O  O43  1  0.71763503  0.46959923  0.88856401  1
  O  O44  1  0.92712297  0.24472370  0.09319043  1
  O  O45  1  0.06759521  0.90660115  0.09585245  1
  O  O46  1  0.72936789  0.30653164  0.69541393  1
  O  O47  1  0.26458285  0.18494739  0.86668055  1
  O  O48  1  0.23346494  0.30415648  0.19596389  1
  O  O49  1  0.07287703  0.75527630  0.90680957  1
  O  O50  1  0.01336342  0.34599908  0.80565688  1
  O  O51  1  0.74287137  0.97157398  0.33321142  1
  O  O52  1  0.87692846  0.72248569  0.66795717  1
  O  O53  1  0.70617040  0.62236090  0.07976258  1
  O  O54  1  0.47375592  0.81402979  0.88513044  1
  O  O55  1  0.24922859  0.49810385  0.25027879  1
  O  O56  1  0.10988744  0.43520848  0.52428349  1
  O  O57  1  0.24092066  0.97366793  0.83290480  1
  O  O58  1  0.29382960  0.37763910  0.92023742  1
  O  O59  1  0.95898773  0.95982425  0.57507982  1
  O  O60  1  0.22536639  0.66174398  0.44582818  1
  O  O61  1  0.54004907  0.04115517  0.92460454  1
  O  O62  1  0.59570962  0.58805067  0.21638830  1
  O  O63  1  0.35235354  0.04710358  0.54085151  1
  O  O64  1  0.42506525  0.24569781  0.59223102  1
  O  O65  1  0.28236497  0.53040077  0.11143599  1
  O  O66  1  0.57493475  0.75430219  0.40776898  1
  O  O67  1  0.23298307  0.12579043  0.01283269  1
  O  O68  1  0.98663658  0.65400092  0.19434312  1
  O  O69  1  0.20187671  0.62265039  0.57950522  1
  O  O70  1  0.77191137  0.18308656  0.36707619  1
  O  O71  1  0.14740905  0.95401651  0.95869104  1
  O  O72  1  0.79812329  0.37734961  0.42049478  1
  O  O73  1  0.00000000  0.50000000  -0.00000000  1
  O  O74  1  0.93240479  0.09339885  0.90414755  1
  O  O75  1  0.36436963  0.89213432  0.35920556  1
  O  O76  1  0.02550021  0.18782770  0.61404855  1
  O  O77  1  0.90494945  0.40906073  0.28330301  1
  O  O78  1  0.61005281  0.43498750  0.02369274  1
  O  O79  1  0.97449979  0.81217230  0.38595145  1
  O  O80  1  0.76653506  0.69584352  0.80403611  1
  O  O81  1  0.72822522  0.66286200  0.94571293  1
  O  O82  1  0.22808863  0.81691344  0.63292381  1
  O  O83  1  0.86310184  0.89409701  0.85936203  1
  O  O84  1  0.76701693  0.87420957  0.98716731  1
  O  O85  1  0.27177478  0.33713800  0.05428707  1
  O  O86  1  0.89011256  0.56479152  0.47571651  1
  O  O87  1  0.75907934  0.02633207  0.16709520  1
  O  O88  1  0.29996026  0.21995727  0.73077126  1
  O  O89  1  0.45995093  0.95884483  0.07539546  1
  O  O90  1  0.52624408  0.18597021  0.11486956  1
  O  O91  1  0.12307154  0.27751431  0.33204283  1
  O  O92  1  0.04101227  0.04017575  0.42492018  1
  O  O93  1  0.75077141  0.50189615  0.74972121  1
  O  O94  1  0.70003974  0.78004273  0.26922874  1
  O  O95  1  0.48563179  0.65782877  0.69353514  1
  O  O96  1  0.43301381  0.09184661  0.40338190  1
  O  O97  1  0.78201668  0.53261944  0.61157470  1
  O  O98  1  0.38994719  0.56501250  0.97630726  1
  O  O99  1  0.62291986  0.27965384  0.83213236  1
  O  O100  1  0.63563037  0.10786568  0.64079444  1
  O  O101  1  0.37708014  0.72034616  0.16786764  1
  O  O102  1  0.25712863  0.02842602  0.66678858  1
  O  O103  1  0.56698619  0.90815339  0.59661810  1
  O  O104  1  0.64764646  0.95289642  0.45914849  1
  O  O105  1  0.73541715  0.81505261  0.13331945  1
  O  O106  1  0.73354747  0.12578797  0.51251738  1
  O  O107  1  0.50000000  0.50000000  0.50000000  1
  O  O108  1  0.26645253  0.87421303  0.48748262  1
  O  O109  1  0.51436821  0.34217123  0.30646486  1
  O  O110  1  0.09505055  0.59093927  0.71669699  1
  O  O111  1  0.77463361  0.33825602  0.55417182  1
  O  O112  1  0.27063211  0.69346836  0.30458607  1
  O  O113  1  0.80123737  0.21755474  0.23102262  1
  O  O114  1  0.13689816  0.10590299  0.14063797  1
  O  O115  1  0.40429038  0.41194933  0.78361170  1
