# generated using pymatgen
data_Yb(PO3)3
_symmetry_space_group_name_H-M   'P 1'
_cell_length_a   10.31891991
_cell_length_b   11.59716862
_cell_length_c   20.52292742
_cell_angle_alpha   90.00000000
_cell_angle_beta   90.00000000
_cell_angle_gamma   97.45061593
_symmetry_Int_Tables_number   1
_chemical_formula_structural   Yb(PO3)3
_chemical_formula_sum   'Yb12 P36 O108'
_cell_volume   2435.24805760
_cell_formula_units_Z   12
loop_
 _symmetry_equiv_pos_site_id
 _symmetry_equiv_pos_as_xyz
  1  'x, y, z'
loop_
 _atom_site_type_symbol
 _atom_site_label
 _atom_site_symmetry_multiplicity
 _atom_site_fract_x
 _atom_site_fract_y
 _atom_site_fract_z
 _atom_site_occupancy
  Yb  Yb0  1  0.98196145  0.50087647  0.34236344  1
  Yb  Yb1  1  0.01966578  0.00051170  0.67561131  1
  Yb  Yb2  1  0.98033422  0.99948830  0.32438869  1
  Yb  Yb3  1  0.48033422  0.99948830  0.17561131  1
  Yb  Yb4  1  0.00000000  0.00000000  0.00000000  1
  Yb  Yb5  1  0.48196145  0.50087647  0.15763656  1
  Yb  Yb6  1  0.51803855  0.49912353  0.84236344  1
  Yb  Yb7  1  0.01803855  0.49912353  0.65763656  1
  Yb  Yb8  1  0.00000000  0.50000000  0.00000000  1
  Yb  Yb9  1  0.50000000  0.00000000  0.50000000  1
  Yb  Yb10  1  0.50000000  0.50000000  0.50000000  1
  Yb  Yb11  1  0.51966578  0.00051170  0.82438869  1
  P  P12  1  0.82210203  0.64404461  0.77885236  1
  P  P13  1  0.53116054  0.76198150  0.94786110  1
  P  P14  1  0.96883946  0.23801850  0.44786110  1
  P  P15  1  0.81079116  0.13923029  0.56124942  1
  P  P16  1  0.31079116  0.13923029  0.93875058  1
  P  P17  1  0.18920884  0.86076971  0.43875058  1
  P  P18  1  0.67789797  0.35595539  0.27885236  1
  P  P19  1  0.18136116  0.32027280  0.54307180  1
  P  P20  1  0.32412862  0.14748211  0.62424867  1
  P  P21  1  0.48088534  0.74592908  0.61048856  1
  P  P22  1  0.19119774  0.83294452  0.79159097  1
  P  P23  1  0.67587138  0.85251789  0.37575133  1
  P  P24  1  0.03116054  0.76198150  0.55213890  1
  P  P25  1  0.82412862  0.14748211  0.87575133  1
  P  P26  1  0.50450392  0.26237511  0.72338984  1
  P  P27  1  0.17789797  0.35595539  0.22114764  1
  P  P28  1  0.30880226  0.16705548  0.29159097  1
  P  P29  1  0.51911466  0.25407092  0.38951144  1
  P  P30  1  0.32210203  0.64404461  0.72114764  1
  P  P31  1  0.98088534  0.74592908  0.88951144  1
  P  P32  1  0.68136116  0.32027280  0.95692820  1
  P  P33  1  0.17587138  0.85251789  0.12424867  1
  P  P34  1  0.01911466  0.25407092  0.11048856  1
  P  P35  1  0.00450392  0.26237511  0.77661016  1
  P  P36  1  0.46883946  0.23801850  0.05213890  1
  P  P37  1  0.68920884  0.86076971  0.06124942  1
  P  P38  1  0.19276875  0.34660994  0.88615060  1
  P  P39  1  0.80723125  0.65339006  0.11384940  1
  P  P40  1  0.69276875  0.34660994  0.61384940  1
  P  P41  1  0.81863884  0.67972720  0.45692820  1
  P  P42  1  0.30723125  0.65339006  0.38615060  1
  P  P43  1  0.99549608  0.73762489  0.22338984  1
  P  P44  1  0.80880226  0.16705548  0.20840903  1
  P  P45  1  0.31863884  0.67972720  0.04307180  1
  P  P46  1  0.49549608  0.73762489  0.27661016  1
  P  P47  1  0.69119774  0.83294452  0.70840903  1
  O  O48  1  0.45822929  0.34865256  0.08816998  1
  O  O49  1  0.29684264  0.39965158  0.51884482  1
  O  O50  1  0.76568548  0.78214985  0.10860333  1
  O  O51  1  0.95822929  0.34865256  0.41183002  1
  O  O52  1  0.57031752  0.39371889  0.23782579  1
  O  O53  1  0.21313787  0.04347703  0.96453339  1
  O  O54  1  0.76368857  0.44967866  0.31452324  1
  O  O55  1  0.96241345  0.85519168  0.24187558  1
  O  O56  1  0.68977580  0.56391017  0.12004084  1
  O  O57  1  0.48948695  0.62452139  0.58716653  1
  O  O58  1  0.60857249  0.24826125  0.01647269  1
  O  O59  1  0.23631143  0.55032134  0.68547676  1
  O  O60  1  0.54177071  0.65134744  0.91183002  1
  O  O61  1  0.77232695  0.29107756  0.23310053  1
  O  O62  1  0.11904695  0.25429818  0.17156086  1
  O  O63  1  0.63803380  0.76774415  0.00547264  1
  O  O64  1  0.37882579  0.66266807  0.31657234  1
  O  O65  1  0.42610697  0.10476044  0.90250121  1
  O  O66  1  0.09893427  0.36602296  0.93969261  1
  O  O67  1  0.26056816  0.94270107  0.16218410  1
  O  O68  1  0.31022420  0.43608983  0.87995916  1
  O  O69  1  0.81364457  0.91241664  0.69482729  1
  O  O70  1  0.61904695  0.25429818  0.32843914  1
  O  O71  1  0.68635543  0.08758336  0.19482729  1
  O  O72  1  0.88095305  0.74570182  0.82843914  1
  O  O73  1  0.52964858  0.66076622  0.22273460  1
  O  O74  1  0.18977580  0.56391017  0.37995916  1
  O  O75  1  0.42968248  0.60628111  0.76217421  1
  O  O76  1  0.12169429  0.79751894  0.85989151  1
  O  O77  1  0.58353215  0.37267043  0.91620806  1
  O  O78  1  0.59893427  0.36602296  0.56030739  1
  O  O79  1  0.77131513  0.78722149  0.41910736  1
  O  O80  1  0.57153901  0.89321767  0.41721005  1
  O  O81  1  0.94393237  0.83317176  0.93792778  1
  O  O82  1  0.41646785  0.62732957  0.08379194  1
  O  O83  1  0.62117421  0.33733193  0.68342766  1
  O  O84  1  0.73431452  0.21785015  0.60860333  1
  O  O85  1  0.27232695  0.29107756  0.26689947  1
  O  O86  1  0.78686213  0.95652297  0.03546661  1
  O  O87  1  0.10857249  0.24826125  0.48352731  1
  O  O88  1  0.71313787  0.04347703  0.53546661  1
  O  O89  1  0.47035142  0.33923378  0.77726540  1
  O  O90  1  0.12117421  0.33733193  0.81657234  1
  O  O91  1  0.98948695  0.62452139  0.91283347  1
  O  O92  1  0.45503844  0.12684970  0.09024763  1
  O  O93  1  0.26568548  0.78214985  0.39139667  1
  O  O94  1  0.38095305  0.74570182  0.67156086  1
  O  O95  1  0.59329914  0.87323043  0.75433700  1
  O  O96  1  0.87830571  0.20248106  0.14010849  1
  O  O97  1  0.73631143  0.55032134  0.81452324  1
  O  O98  1  0.73943184  0.05729893  0.83781590  1
  O  O99  1  0.09329914  0.87323043  0.74566300  1
  O  O100  1  0.18635543  0.08758336  0.30517271  1
  O  O101  1  0.51051305  0.37547861  0.41283347  1
  O  O102  1  0.55606763  0.16682824  0.43792778  1
  O  O103  1  0.07153901  0.89321767  0.08278995  1
  O  O104  1  0.76056816  0.94270107  0.33781590  1
  O  O105  1  0.57389303  0.89523956  0.09749879  1
  O  O106  1  0.31364457  0.91241664  0.80517271  1
  O  O107  1  0.95503844  0.12684970  0.40975237  1
  O  O108  1  0.92610697  0.10476044  0.59749879  1
  O  O109  1  0.44393237  0.83317176  0.56207222  1
  O  O110  1  0.87882579  0.66266807  0.18342766  1
  O  O111  1  0.61359238  0.74774414  0.32921574  1
  O  O112  1  0.40670086  0.12676957  0.24566300  1
  O  O113  1  0.53758655  0.14480832  0.74187558  1
  O  O114  1  0.88640762  0.25225586  0.82921574  1
  O  O115  1  0.13803380  0.76774415  0.49452736  1
  O  O116  1  0.04177071  0.65134744  0.58816998  1
  O  O117  1  0.92846099  0.10678233  0.91721005  1
  O  O118  1  0.91646785  0.62732957  0.41620806  1
  O  O119  1  0.46241345  0.85519168  0.25812442  1
  O  O120  1  0.26368857  0.44967866  0.18547676  1
  O  O121  1  0.38640762  0.25225586  0.67078426  1
  O  O122  1  0.90670086  0.12676957  0.25433700  1
  O  O123  1  0.92968248  0.60628111  0.73782579  1
  O  O124  1  0.02964858  0.66076622  0.27726540  1
  O  O125  1  0.42846099  0.10678233  0.58278995  1
  O  O126  1  0.54496156  0.87315030  0.90975237  1
  O  O127  1  0.07031752  0.39371889  0.26217421  1
  O  O128  1  0.72767305  0.70892244  0.73310053  1
  O  O129  1  0.11359238  0.74774414  0.17078426  1
  O  O130  1  0.72868487  0.21277851  0.91910736  1
  O  O131  1  0.05606763  0.16682824  0.06207222  1
  O  O132  1  0.03758655  0.14480832  0.75812442  1
  O  O133  1  0.97035142  0.33923378  0.72273460  1
  O  O134  1  0.04496156  0.87315030  0.59024763  1
  O  O135  1  0.23431452  0.21785015  0.89139667  1
  O  O136  1  0.08353215  0.37267043  0.58379194  1
  O  O137  1  0.37830571  0.20248106  0.35989151  1
  O  O138  1  0.20315736  0.60034842  0.01884482  1
  O  O139  1  0.81022420  0.43608983  0.62004084  1
  O  O140  1  0.70315736  0.60034842  0.48115518  1
  O  O141  1  0.79684264  0.39965158  0.98115518  1
  O  O142  1  0.22767305  0.70892244  0.76689947  1
  O  O143  1  0.39142751  0.75173875  0.98352731  1
  O  O144  1  0.36196620  0.23225585  0.99452736  1
  O  O145  1  0.01051305  0.37547861  0.08716653  1
  O  O146  1  0.28686213  0.95652297  0.46453339  1
  O  O147  1  0.23943184  0.05729893  0.66218410  1
  O  O148  1  0.27131513  0.78722149  0.08089264  1
  O  O149  1  0.89142751  0.75173875  0.51647269  1
  O  O150  1  0.90106573  0.63397704  0.06030739  1
  O  O151  1  0.86196620  0.23225585  0.50547264  1
  O  O152  1  0.07389303  0.89523956  0.40250121  1
  O  O153  1  0.62169429  0.79751894  0.64010849  1
  O  O154  1  0.40106573  0.63397704  0.43969261  1
  O  O155  1  0.22868487  0.21277851  0.58089264  1
