# generated using pymatgen
data_Ba2Er(CuO2)4
_symmetry_space_group_name_H-M   'P 1'
_cell_length_a   3.87346388
_cell_length_b   3.89120436
_cell_length_c   13.86912799
_cell_angle_alpha   98.06421966
_cell_angle_beta   90.00000000
_cell_angle_gamma   90.00000000
_symmetry_Int_Tables_number   1
_chemical_formula_structural   Ba2Er(CuO2)4
_chemical_formula_sum   'Ba2 Er1 Cu4 O8'
_cell_volume   206.97447596
_cell_formula_units_Z   1
loop_
 _symmetry_equiv_pos_site_id
 _symmetry_equiv_pos_as_xyz
  1  'x, y, z'
loop_
 _atom_site_type_symbol
 _atom_site_label
 _atom_site_symmetry_multiplicity
 _atom_site_fract_x
 _atom_site_fract_y
 _atom_site_fract_z
 _atom_site_occupancy
  O  O0  1  0.00000000  0.28153836  0.56307673  1
  O  O1  1  0.00000000  0.71846164  0.43692327  1
  O  O2  1  0.00000000  0.44888794  0.89777588  1
  O  O3  1  0.00000000  0.55111206  0.10222412  1
  O  O4  1  0.50000000  0.94879285  0.89758569  1
  O  O5  1  0.50000000  0.05120715  0.10241431  1
  O  O6  1  0.00000000  0.85482110  0.70964220  1
  O  O7  1  0.00000000  0.14517890  0.29035780  1
  Cu  Cu8  1  0.00000000  0.93942474  0.87884949  1
  Cu  Cu9  1  0.00000000  0.06057526  0.12115051  1
  Cu  Cu10  1  0.00000000  0.78743797  0.57487593  1
  Cu  Cu11  1  0.00000000  0.21256203  0.42512407  1
  Ba  Ba12  1  0.50000000  0.36459450  0.72918901  1
  Ba  Ba13  1  0.50000000  0.63540550  0.27081099  1
  Er  Er14  1  0.50000000  0.50000000  0.00000000  1
