# generated using pymatgen
data_RbLiBi2(MoO4)4
_symmetry_space_group_name_H-M   'P 1'
_cell_length_a   5.37715504
_cell_length_b   7.10633107
_cell_length_c   19.86770685
_cell_angle_alpha   89.00712730
_cell_angle_beta   87.37490634
_cell_angle_gamma   67.76937572
_symmetry_Int_Tables_number   1
_chemical_formula_structural   RbLiBi2(MoO4)4
_chemical_formula_sum   'Rb2 Li2 Bi4 Mo8 O32'
_cell_volume   702.01313491
_cell_formula_units_Z   2
loop_
 _symmetry_equiv_pos_site_id
 _symmetry_equiv_pos_as_xyz
  1  'x, y, z'
loop_
 _atom_site_type_symbol
 _atom_site_label
 _atom_site_symmetry_multiplicity
 _atom_site_fract_x
 _atom_site_fract_y
 _atom_site_fract_z
 _atom_site_occupancy
  Rb  Rb0  1  0.03092696  0.93814607  0.75000000  1
  Rb  Rb1  1  0.96907304  0.06185393  0.25000000  1
  Li  Li2  1  0.31443994  0.37112012  0.75000000  1
  Li  Li3  1  0.68556006  0.62887988  0.25000000  1
  Bi  Bi4  1  0.15213102  0.70331487  0.96407026  1
  Bi  Bi5  1  0.14455410  0.70331487  0.53592974  1
  Bi  Bi6  1  0.84786898  0.29668513  0.03592974  1
  Bi  Bi7  1  0.85544590  0.29668513  0.46407026  1
  Mo  Mo8  1  0.24898127  0.48505648  0.14942405  1
  Mo  Mo9  1  0.45601226  0.12484561  0.90737941  1
  Mo  Mo10  1  0.75101873  0.51494352  0.85057595  1
  Mo  Mo11  1  0.58085787  0.87515439  0.40737941  1
  Mo  Mo12  1  0.41914213  0.12484561  0.59262059  1
  Mo  Mo13  1  0.54398774  0.87515439  0.09262059  1
  Mo  Mo14  1  0.26596224  0.48505648  0.35057595  1
  Mo  Mo15  1  0.73403776  0.51494352  0.64942405  1
  O  O16  1  0.82576876  0.66021388  0.45552030  1
  O  O17  1  0.93588748  0.58630618  0.78635573  1
  O  O18  1  0.47780634  0.58630618  0.71364427  1
  O  O19  1  0.40446965  0.69723635  0.86548418  1
  O  O20  1  0.76662957  0.96265288  0.03924177  1
  O  O21  1  0.93217920  0.48316435  0.93077296  1
  O  O22  1  0.89829400  0.69723635  0.63451582  1
  O  O23  1  0.17423124  0.33978612  0.54447970  1
  O  O24  1  0.98607358  0.28502590  0.67351269  1
  O  O25  1  0.22665030  0.08385466  0.10368661  1
  O  O26  1  0.59553035  0.30276365  0.13451582  1
  O  O27  1  0.23337043  0.03734712  0.96075823  1
  O  O28  1  0.72928245  0.03734712  0.53924177  1
  O  O29  1  0.51401736  0.66021388  0.04447970  1
  O  O30  1  0.41534356  0.51683565  0.43077296  1
  O  O31  1  0.27071755  0.96265288  0.46075823  1
  O  O32  1  0.58465644  0.48316435  0.56922704  1
  O  O33  1  0.51360192  0.18389574  0.67081748  1
  O  O34  1  0.48639808  0.81610426  0.32918252  1
  O  O35  1  0.30250234  0.18389574  0.82918252  1
  O  O36  1  0.69749766  0.81610426  0.17081748  1
  O  O37  1  0.27109947  0.71497410  0.17351269  1
  O  O38  1  0.31050497  0.91614534  0.60368661  1
  O  O39  1  0.68949503  0.08385466  0.39631339  1
  O  O40  1  0.48598264  0.33978612  0.95552030  1
  O  O41  1  0.06782080  0.51683565  0.06922704  1
  O  O42  1  0.10170600  0.30276365  0.36548418  1
  O  O43  1  0.01392642  0.71497410  0.32648731  1
  O  O44  1  0.52219366  0.41369382  0.28635573  1
  O  O45  1  0.72890053  0.28502590  0.82648731  1
  O  O46  1  0.06411252  0.41369382  0.21364427  1
  O  O47  1  0.77334970  0.91614534  0.89631339  1
