# generated using pymatgen
data_Gd2S3
_symmetry_space_group_name_H-M   'P 1'
_cell_length_a   3.93229584
_cell_length_b   7.43110814
_cell_length_c   15.24843060
_cell_angle_alpha   90.00000000
_cell_angle_beta   90.00000000
_cell_angle_gamma   90.00000000
_symmetry_Int_Tables_number   1
_chemical_formula_structural   Gd2S3
_chemical_formula_sum   'Gd8 S12'
_cell_volume   445.57920336
_cell_formula_units_Z   4
loop_
 _symmetry_equiv_pos_site_id
 _symmetry_equiv_pos_as_xyz
  1  'x, y, z'
loop_
 _atom_site_type_symbol
 _atom_site_label
 _atom_site_symmetry_multiplicity
 _atom_site_fract_x
 _atom_site_fract_y
 _atom_site_fract_z
 _atom_site_occupancy
  Gd  Gd0  1  0.25000000  0.62741276  0.70797409  1
  Gd  Gd1  1  0.75000000  0.37258724  0.29202591  1
  Gd  Gd2  1  0.75000000  0.87258724  0.20797409  1
  Gd  Gd3  1  0.25000000  0.12741276  0.79202591  1
  Gd  Gd4  1  0.25000000  0.76694941  0.45935826  1
  Gd  Gd5  1  0.25000000  0.26694941  0.04064174  1
  Gd  Gd6  1  0.75000000  0.23305059  0.54064174  1
  Gd  Gd7  1  0.75000000  0.73305059  0.95935826  1
  S  S8  1  0.75000000  0.62072612  0.56960697  1
  S  S9  1  0.25000000  0.16001844  0.21885850  1
  S  S10  1  0.25000000  0.66001844  0.28114150  1
  S  S11  1  0.25000000  0.51042929  0.89326753  1
  S  S12  1  0.25000000  0.37927388  0.43039303  1
  S  S13  1  0.75000000  0.12072612  0.93039303  1
  S  S14  1  0.75000000  0.98957071  0.39326753  1
  S  S15  1  0.75000000  0.83998156  0.78114150  1
  S  S16  1  0.75000000  0.33998156  0.71885850  1
  S  S17  1  0.75000000  0.48957071  0.10673247  1
  S  S18  1  0.25000000  0.01042929  0.60673247  1
  S  S19  1  0.25000000  0.87927388  0.06960697  1
