# generated using pymatgen
data_Na2U2O7
_symmetry_space_group_name_H-M   'P 1'
_cell_length_a   6.54127956
_cell_length_b   26.13839478
_cell_length_c   12.45804361
_cell_angle_alpha   17.59121025
_cell_angle_beta   31.22346132
_cell_angle_gamma   35.39655453
_symmetry_Int_Tables_number   1
_chemical_formula_structural   Na2U2O7
_chemical_formula_sum   'Na4 U4 O14'
_cell_volume   333.70739839
_cell_formula_units_Z   2
loop_
 _symmetry_equiv_pos_site_id
 _symmetry_equiv_pos_as_xyz
  1  'x, y, z'
loop_
 _atom_site_type_symbol
 _atom_site_label
 _atom_site_symmetry_multiplicity
 _atom_site_fract_x
 _atom_site_fract_y
 _atom_site_fract_z
 _atom_site_occupancy
  Na  Na0  1  0.50000000  0.25000000  0.50000000  1
  Na  Na1  1  0.52629006  0.50000000  0.49366414  1
  Na  Na2  1  0.50000000  0.75000000  0.50000000  1
  Na  Na3  1  0.47370994  1.00000000  0.50633586  1
  U  U4  1  0.93909873  0.00000000  0.03416171  1
  U  U5  1  0.00000000  0.25000000  0.00000000  1
  U  U6  1  0.06090127  0.50000000  0.96583829  1
  U  U7  1  0.00000000  0.75000000  0.00000000  1
  O  O8  1  0.12757724  0.27604760  0.03752953  1
  O  O9  1  0.38180598  0.20492153  0.41574165  1
  O  O10  1  0.12710525  0.50000000  0.08673623  1
  O  O11  1  0.87289475  0.00000000  0.91326377  1
  O  O12  1  0.61819402  0.29507847  0.58425835  1
  O  O13  1  0.12757724  0.72395240  0.14171994  1
  O  O14  1  0.87242276  0.22395240  0.96247047  1
  O  O15  1  0.72111484  0.50000000  0.61819963  1
  O  O16  1  0.38180598  0.79507847  0.23542777  1
  O  O17  1  0.04238033  0.00000000  0.13475225  1
  O  O18  1  0.95761967  0.50000000  0.86524775  1
  O  O19  1  0.61819402  0.70492153  0.76457223  1
  O  O20  1  0.27888516  1.00000000  0.38180037  1
  O  O21  1  0.87242276  0.77604760  0.85828006  1
