# generated using pymatgen
data_PuPaO4
_symmetry_space_group_name_H-M   'P 1'
_cell_length_a   7.70873028
_cell_length_b   10.18473794
_cell_length_c   6.65718713
_cell_angle_alpha   29.22743478
_cell_angle_beta   54.62228523
_cell_angle_gamma   40.81349021
_symmetry_Int_Tables_number   1
_chemical_formula_structural   PuPaO4
_chemical_formula_sum   'Pu2 Pa2 O8'
_cell_volume   161.26816432
_cell_formula_units_Z   2
loop_
 _symmetry_equiv_pos_site_id
 _symmetry_equiv_pos_as_xyz
  1  'x, y, z'
loop_
 _atom_site_type_symbol
 _atom_site_label
 _atom_site_symmetry_multiplicity
 _atom_site_fract_x
 _atom_site_fract_y
 _atom_site_fract_z
 _atom_site_occupancy
  Pu  Pu0  1  0.99999390  -0.00000480  0.00002158  1
  Pu  Pu1  1  0.74998674  0.50002101  0.99998273  1
  Pa  Pa2  1  0.49998325  0.00000947  0.99999739  1
  Pa  Pa3  1  0.25000981  0.49998431  0.00001526  1
  O  O4  1  0.37498317  0.48778938  0.26221455  1
  O  O5  1  0.13724006  0.48778591  0.76219587  1
  O  O6  1  0.13722889  0.98775893  0.26222957  1
  O  O7  1  0.87501214  0.51221519  0.23778998  1
  O  O8  1  0.61278065  0.51220550  0.73778615  1
  O  O9  1  0.61278024  0.01223266  0.23776280  1
  O  O10  1  0.37498775  0.01224041  0.73776005  1
  O  O11  1  0.87501339  0.98776204  0.76224406  1
