# generated using pymatgen
data_Er4Zr3O12
_symmetry_space_group_name_H-M   'P 1'
_cell_length_a   6.41994096
_cell_length_b   6.39215608
_cell_length_c   12.83467886
_cell_angle_alpha   99.45898044
_cell_angle_beta   99.11522956
_cell_angle_gamma   99.33111164
_symmetry_Int_Tables_number   1
_chemical_formula_structural   Er4Zr3O12
_chemical_formula_sum   'Er8 Zr6 O24'
_cell_volume   503.31230233
_cell_formula_units_Z   2
loop_
 _symmetry_equiv_pos_site_id
 _symmetry_equiv_pos_as_xyz
  1  'x, y, z'
loop_
 _atom_site_type_symbol
 _atom_site_label
 _atom_site_symmetry_multiplicity
 _atom_site_fract_x
 _atom_site_fract_y
 _atom_site_fract_z
 _atom_site_occupancy
  Er  Er0  1  0.13739818  0.60979886  0.65322504  1
  Er  Er1  1  0.39005887  0.69062084  0.93072603  1
  Er  Er2  1  0.38889059  0.69691238  0.43074646  1
  Er  Er3  1  0.30857687  0.13973122  0.30405921  1
  Er  Er4  1  0.60994113  0.30937916  0.56927397  1
  Er  Er5  1  0.69142313  0.86026878  0.19594079  1
  Er  Er6  1  0.86260182  0.39020114  0.84677496  1
  Er  Er7  1  0.61110941  0.30308762  0.06925354  1
  Zr  Zr8  1  0.14361623  0.61044849  0.15655975  1
  Zr  Zr9  1  0.99459264  0.99500875  0.99756328  1
  Zr  Zr10  1  0.31847948  0.14398986  0.80495039  1
  Zr  Zr11  1  0.68152052  0.85601014  0.69504961  1
  Zr  Zr12  1  0.00540736  0.00499125  0.50243672  1
  Zr  Zr13  1  0.85638377  0.38955151  0.34344025  1
  O  O14  1  0.05566429  0.68208701  0.96195521  1
  O  O15  1  0.09436641  0.95880585  0.66158801  1
  O  O16  1  0.04082811  0.67834206  0.45514668  1
  O  O17  1  0.18100991  0.41377403  0.78757288  1
  O  O18  1  0.07943851  0.92715058  0.15676566  1
  O  O19  1  0.31130988  0.07805402  0.96118637  1
  O  O20  1  0.17033318  0.43033507  0.28661155  1
  O  O21  1  0.42542687  0.82764451  0.78444786  1
  O  O22  1  0.31782437  0.07397360  0.47186138  1
  O  O23  1  0.43495108  0.59188444  0.59184261  1
  O  O24  1  0.40835796  0.81523445  0.28144163  1
  O  O25  1  0.56504892  0.40811556  0.90815739  1
  O  O26  1  0.41770980  0.57673543  0.09109266  1
  O  O27  1  0.57457313  0.17235549  0.71555214  1
  O  O28  1  0.58229020  0.42326457  0.40890734  1
  O  O29  1  0.68869012  0.92194598  0.53881363  1
  O  O30  1  0.59164204  0.18476555  0.21855837  1
  O  O31  1  0.81899009  0.58622597  0.71242712  1
  O  O32  1  0.68217563  0.92602640  0.02813862  1
  O  O33  1  0.90563359  0.04119415  0.83841199  1
  O  O34  1  0.82966682  0.56966493  0.21338845  1
  O  O35  1  0.94433571  0.31791299  0.53804479  1
  O  O36  1  0.92056149  0.07284942  0.34323434  1
  O  O37  1  0.95917189  0.32165794  0.04485332  1
