# generated using pymatgen
data_CsRe6S8Br3
_symmetry_space_group_name_H-M   'P 1'
_cell_length_a   6.43187585
_cell_length_b   15.33820638
_cell_length_c   18.85394905
_cell_angle_alpha   90.00000000
_cell_angle_beta   90.00000000
_cell_angle_gamma   97.34792707
_symmetry_Int_Tables_number   1
_chemical_formula_structural   CsRe6S8Br3
_chemical_formula_sum   'Cs4 Re24 S32 Br12'
_cell_volume   1844.73218285
_cell_formula_units_Z   4
loop_
 _symmetry_equiv_pos_site_id
 _symmetry_equiv_pos_as_xyz
  1  'x, y, z'
loop_
 _atom_site_type_symbol
 _atom_site_label
 _atom_site_symmetry_multiplicity
 _atom_site_fract_x
 _atom_site_fract_y
 _atom_site_fract_z
 _atom_site_occupancy
  Cs  Cs0  1  0.71374398  0.24814681  0.52028259  1
  Cs  Cs1  1  0.78625602  0.25185319  0.02028259  1
  Cs  Cs2  1  0.21374398  0.74814681  0.97971741  1
  Cs  Cs3  1  0.28625602  0.75185319  0.47971741  1
  Re  Re4  1  0.95063216  0.95314040  0.33908104  1
  Re  Re5  1  0.37335663  0.44982918  0.66350348  1
  Re  Re6  1  0.29300842  0.95906576  0.26183767  1
  Re  Re7  1  0.12664337  0.05017082  0.16350348  1
  Re  Re8  1  0.43104977  0.39825086  0.29489421  1
  Re  Re9  1  0.87335663  0.94982918  0.83649652  1
  Re  Re10  1  0.64613137  0.60518384  0.20265829  1
  Re  Re11  1  0.54936784  0.54685960  0.83908104  1
  Re  Re12  1  0.04936784  0.04685960  0.66091896  1
  Re  Re13  1  0.71562176  0.45573149  0.74078336  1
  Re  Re14  1  0.21562176  0.95573149  0.75921664  1
  Re  Re15  1  0.45063216  0.45314040  0.16091896  1
  Re  Re16  1  0.20699158  0.54093424  0.76183767  1
  Re  Re17  1  0.28437824  0.54426851  0.25921664  1
  Re  Re18  1  0.78437824  0.04426851  0.24078336  1
  Re  Re19  1  0.79300842  0.45906576  0.23816233  1
  Re  Re20  1  0.62664337  0.55017082  0.33649652  1
  Re  Re21  1  0.56895023  0.60174914  0.70510579  1
  Re  Re22  1  0.70699158  0.04093424  0.73816233  1
  Re  Re23  1  0.85386863  0.89481616  0.70265829  1
  Re  Re24  1  0.06895023  0.10174914  0.79489421  1
  Re  Re25  1  0.93104977  0.89825086  0.20510579  1
  Re  Re26  1  0.35386863  0.39481616  0.79734171  1
  Re  Re27  1  0.14613137  0.10518384  0.29734171  1
  S  S28  1  0.87290243  0.60580296  0.78050179  1
  S  S29  1  0.37290243  0.10580296  0.71949821  1
  S  S30  1  0.45032371  0.10901365  0.22208407  1
  S  S31  1  0.25446206  0.91137082  0.13945191  1
  S  S32  1  0.98285701  0.18003468  0.20356914  1
  S  S33  1  0.32317468  0.59200651  0.13692889  1
  S  S34  1  0.70851618  0.98810998  0.61752564  1
  S  S35  1  0.04967629  0.39098635  0.72208407  1
  S  S36  1  0.62709757  0.89419704  0.28050179  1
  S  S37  1  0.67682532  0.40799349  0.86307111  1
  S  S38  1  0.78583075  0.99169186  0.12018108  1
  S  S39  1  0.59397958  0.32316796  0.20115193  1
  S  S40  1  0.75446206  0.41137082  0.36054809  1
  S  S41  1  0.24553794  0.58862918  0.63945191  1
  S  S42  1  0.71416925  0.50830814  0.62018108  1
  S  S43  1  0.28583075  0.49169186  0.37981892  1
  S  S44  1  0.09397958  0.82316796  0.29884807  1
  S  S45  1  0.20851618  0.48810998  0.88247436  1
  S  S46  1  0.51714299  0.31996532  0.70356914  1
  S  S47  1  0.48285701  0.68003468  0.29643086  1
  S  S48  1  0.21416925  0.00830814  0.87981892  1
  S  S49  1  0.90602042  0.17683204  0.70115193  1
  S  S50  1  0.01714299  0.81996532  0.79643086  1
  S  S51  1  0.29148382  0.01189002  0.38247436  1
  S  S52  1  0.95032371  0.60901365  0.27791593  1
  S  S53  1  0.12709757  0.39419704  0.21949821  1
  S  S54  1  0.74553794  0.08862918  0.86054809  1
  S  S55  1  0.79148382  0.51189002  0.11752564  1
  S  S56  1  0.40602042  0.67683204  0.79884807  1
  S  S57  1  0.17682532  0.90799349  0.63692889  1
  S  S58  1  0.82317468  0.09200651  0.36307111  1
  S  S59  1  0.54967629  0.89098635  0.77791593  1
  Br  Br60  1  0.21467015  0.24718072  0.86743761  1
  Br  Br61  1  0.83170630  0.88436501  0.45887097  1
  Br  Br62  1  0.78532985  0.75281928  0.13256239  1
  Br  Br63  1  0.16829370  0.11563499  0.54112903  1
  Br  Br64  1  0.71467015  0.74718072  0.63256239  1
  Br  Br65  1  0.74452812  0.61849071  0.45642705  1
  Br  Br66  1  0.28532985  0.25281928  0.36743761  1
  Br  Br67  1  0.25547188  0.38150929  0.54357295  1
  Br  Br68  1  0.66829370  0.61563499  0.95887097  1
  Br  Br69  1  0.33170630  0.38436501  0.04112903  1
  Br  Br70  1  0.75547188  0.88150929  0.95642705  1
  Br  Br71  1  0.24452812  0.11849071  0.04357295  1
