# generated using pymatgen
data_Ba5Si8O21
_symmetry_space_group_name_H-M   'P 1'
_cell_length_a   4.77596553
_cell_length_b   14.08354558
_cell_length_c   16.84964836
_cell_angle_alpha   98.10764856
_cell_angle_beta   98.18091798
_cell_angle_gamma   89.94997161
_symmetry_Int_Tables_number   1
_chemical_formula_structural   Ba5Si8O21
_chemical_formula_sum   'Ba10 Si16 O42'
_cell_volume   1110.39077392
_cell_formula_units_Z   2
loop_
 _symmetry_equiv_pos_site_id
 _symmetry_equiv_pos_as_xyz
  1  'x, y, z'
loop_
 _atom_site_type_symbol
 _atom_site_label
 _atom_site_symmetry_multiplicity
 _atom_site_fract_x
 _atom_site_fract_y
 _atom_site_fract_z
 _atom_site_occupancy
  Ba  Ba0  1  0.80444156  0.61653270  0.56440912  1
  Ba  Ba1  1  0.41490289  0.55434756  0.77649615  1
  Ba  Ba2  1  0.19211608  0.38509359  0.43620283  1
  Ba  Ba3  1  0.58651515  0.44662045  0.22421677  1
  Ba  Ba4  1  0.36003450  0.05396295  0.77631182  1
  Ba  Ba5  1  0.99734647  -0.00004070  0.00062103  1
  Ba  Ba6  1  0.75701515  0.11665672  0.56411518  1
  Ba  Ba7  1  0.99899245  0.50047989  0.99978269  1
  Ba  Ba8  1  0.24300444  0.88469411  0.43586907  1
  Ba  Ba9  1  0.63414259  0.94625082  0.22332109  1
  Si  Si10  1  0.75764215  0.39890093  0.61402499  1
  Si  Si11  1  0.85586487  0.89869769  0.61410246  1
  Si  Si12  1  0.71618673  0.71024229  0.32891114  1
  Si  Si13  1  0.50125920  0.16244076  0.14230645  1
  Si  Si14  1  0.61009623  0.21098474  0.32975822  1
  Si  Si15  1  0.64128525  0.66210990  0.14151814  1
  Si  Si16  1  0.12401274  0.77759151  0.09831737  1
  Si  Si17  1  0.28223931  0.29035447  0.67060699  1
  Si  Si18  1  0.50118881  0.83774586  0.85844710  1
  Si  Si19  1  0.14238281  0.10256633  0.38606811  1
  Si  Si20  1  0.97418491  0.27783100  0.09819247  1
  Si  Si21  1  0.35595842  0.33806175  0.85797174  1
  Si  Si22  1  0.02808378  0.72196066  0.90177436  1
  Si  Si23  1  0.87350369  0.22207729  0.90152211  1
  Si  Si24  1  0.38930213  0.79006967  0.67090536  1
  Si  Si25  1  0.23953509  0.60246169  0.38611862  1
  O  O26  1  0.97096438  0.69112857  0.13478612  1
  O  O27  1  0.65941513  0.26055902  0.12520091  1
  O  O28  1  0.60067424  0.14865491  0.23829137  1
  O  O29  1  0.94703165  0.24956020  -0.00002356  1
  O  O30  1  0.18132612  0.85408920  0.61238278  1
  O  O31  1  0.16498211  0.19194323  0.13521101  1
  O  O32  1  0.46635749  0.76076259  0.12527030  1
  O  O33  1  0.69319554  0.80223517  0.63651451  1
  O  O34  1  0.43074710  0.35360186  0.61139440  1
  O  O35  1  0.16560954  0.50743193  0.32032973  1
  O  O36  1  0.07150780  0.38695106  0.12845178  1
  O  O37  1  0.36228211  0.35226709  0.76215156  1
  O  O38  1  0.30492749  0.19875634  0.36329615  1
  O  O39  1  0.24833599  0.08155440  0.47749413  1
  O  O40  1  0.05443234  0.88632971  0.12825626  1
  O  O41  1  0.93088411  0.61296792  0.87096040  1
  O  O42  1  0.83734545  0.80799563  0.86520877  1
  O  O43  1  0.05437704  0.69902480  0.36374792  1
  O  O44  1  0.45518310  0.93646753  0.91410219  1
  O  O45  1  0.05428423  0.74920313  -0.00002025  1
  O  O46  1  0.84998334  0.99366880  0.67992264  1
  O  O47  1  0.56705950  0.64625644  0.38732359  1
  O  O48  1  0.34402822  0.73945848  0.87578219  1
  O  O49  1  0.77048240  0.41996419  0.52259458  1
  O  O50  1  0.53875786  0.56400176  0.08544857  1
  O  O51  1  0.34662047  0.17861685  0.66613164  1
  O  O52  1  0.53162700  0.23990214  0.87532643  1
  O  O53  1  0.63943247  0.64778204  0.23734020  1
  O  O54  1  0.54649037  0.06367383  0.08675025  1
  O  O55  1  0.75199145  0.91926190  0.52239628  1
  O  O56  1  0.40179599  0.85167408  0.76262311  1
  O  O57  1  0.82717514  0.49397376  0.67986945  1
  O  O58  1  0.45615398  0.43664417  0.91382598  1
  O  O59  1  0.64868328  0.82182019  0.33306913  1
  O  O60  1  0.67829828  0.32277904  0.33439194  1
  O  O61  1  0.94351228  0.30271501  0.63673058  1
  O  O62  1  0.93955184  0.11281597  0.87124140  1
  O  O63  1  0.14584872  0.00758700  0.32005955  1
  O  O64  1  0.32063099  0.67823757  0.66607065  1
  O  O65  1  0.02664406  0.30791071  0.86432681  1
  O  O66  1  0.81798454  0.14790329  0.38922943  1
  O  O67  1  0.22926845  0.58219188  0.47788473  1
