# generated using pymatgen
data_TlBiF4
_symmetry_space_group_name_H-M   'P 1'
_cell_length_a   3.77829062
_cell_length_b   8.55248382
_cell_length_c   6.37330490
_cell_angle_alpha   97.06490601
_cell_angle_beta   90.00000000
_cell_angle_gamma   90.00000000
_symmetry_Int_Tables_number   1
_chemical_formula_structural   TlBiF4
_chemical_formula_sum   'Tl2 Bi2 F8'
_cell_volume   204.38185493
_cell_formula_units_Z   2
loop_
 _symmetry_equiv_pos_site_id
 _symmetry_equiv_pos_as_xyz
  1  'x, y, z'
loop_
 _atom_site_type_symbol
 _atom_site_label
 _atom_site_symmetry_multiplicity
 _atom_site_fract_x
 _atom_site_fract_y
 _atom_site_fract_z
 _atom_site_occupancy
  Tl  Tl0  1  0.25000000  0.10140343  0.74732220  1
  Tl  Tl1  1  0.75000000  0.89859657  0.25267780  1
  Bi  Bi2  1  0.25000000  0.60984396  0.76173248  1
  Bi  Bi3  1  0.75000000  0.39015604  0.23826752  1
  F  F4  1  0.25000000  0.25009287  0.34380081  1
  F  F5  1  0.25000000  0.84822007  0.97488688  1
  F  F6  1  0.25000000  0.38933034  0.97707002  1
  F  F7  1  0.25000000  0.56978818  0.38050500  1
  F  F8  1  0.75000000  0.74990713  0.65619919  1
  F  F9  1  0.75000000  0.43021182  0.61949500  1
  F  F10  1  0.75000000  0.61066966  0.02292998  1
  F  F11  1  0.75000000  0.15177993  0.02511312  1
