# generated using pymatgen
data_Li7(Mo3Se4)4
_symmetry_space_group_name_H-M   'P 1'
_cell_length_a   7.02241162
_cell_length_b   7.01665867
_cell_length_c   14.04877015
_cell_angle_alpha   94.66764082
_cell_angle_beta   95.24390906
_cell_angle_gamma   95.18087664
_symmetry_Int_Tables_number   1
_chemical_formula_structural   Li7(Mo3Se4)4
_chemical_formula_sum   'Li7 Mo12 Se16'
_cell_volume   683.71435670
_cell_formula_units_Z   1
loop_
 _symmetry_equiv_pos_site_id
 _symmetry_equiv_pos_as_xyz
  1  'x, y, z'
loop_
 _atom_site_type_symbol
 _atom_site_label
 _atom_site_symmetry_multiplicity
 _atom_site_fract_x
 _atom_site_fract_y
 _atom_site_fract_z
 _atom_site_occupancy
  Li  Li0  1  0.01898900  0.98485508  0.28976543  1
  Li  Li1  1  0.41445448  0.97612528  0.01064189  1
  Li  Li2  1  0.57767267  0.02064706  0.49055997  1
  Li  Li3  1  0.90182790  0.12186822  0.98297101  1
  Li  Li4  1  0.98528957  0.57509565  0.51022529  1
  Li  Li5  1  0.98073355  0.02184739  0.71044477  1
  Li  Li6  1  0.97962662  0.59012696  0.01131019  1
  Mo  Mo7  1  0.24520018  0.41428602  0.77096387  1
  Mo  Mo8  1  0.24087225  0.41549915  0.27176447  1
  Mo  Mo9  1  0.45705948  0.75854560  0.79303148  1
  Mo  Mo10  1  0.41469334  0.54240654  0.62242125  1
  Mo  Mo11  1  0.45707062  0.75631545  0.29234684  1
  Mo  Mo12  1  0.41300591  0.54539615  0.12218743  1
  Mo  Mo13  1  0.58420668  0.45746236  0.87899472  1
  Mo  Mo14  1  0.54268211  0.24287448  0.70879825  1
  Mo  Mo15  1  0.58386594  0.45703348  0.37824925  1
  Mo  Mo16  1  0.54098182  0.24648661  0.20851186  1
  Mo  Mo17  1  0.75588365  0.58687747  0.73032819  1
  Mo  Mo18  1  0.75580303  0.58667251  0.22870001  1
  Se  Se19  1  0.12767590  0.70890892  0.68679549  1
  Se  Se20  1  0.12397093  0.71017394  0.18633798  1
  Se  Se21  1  0.29187563  0.62534300  0.93622721  1
  Se  Se22  1  0.21546171  0.21090765  0.60496236  1
  Se  Se23  1  0.29354332  0.62661722  0.43557369  1
  Se  Se24  1  0.20505435  0.21520492  0.10625889  1
  Se  Se25  1  0.37146322  0.12666232  0.85398515  1
  Se  Se26  1  0.36954846  0.12560047  0.35426653  1
  Se  Se27  1  0.62492577  0.87464959  0.64671358  1
  Se  Se28  1  0.63251452  0.87749316  0.14693572  1
  Se  Se29  1  0.78918216  0.79175233  0.89426157  1
  Se  Se30  1  0.70782332  0.37267399  0.56480171  1
  Se  Se31  1  0.79143331  0.79079619  0.39572905  1
  Se  Se32  1  0.70518414  0.37404306  0.06372875  1
  Se  Se33  1  0.87540183  0.29194574  0.81713163  1
  Se  Se34  1  0.87102263  0.29680603  0.31557451  1
