# generated using pymatgen
data_Li9Mn2Co5O16
_symmetry_space_group_name_H-M   'P 1'
_cell_length_a   2.91473030
_cell_length_b   9.86324610
_cell_length_c   10.67351201
_cell_angle_alpha   72.60812887
_cell_angle_beta   82.15228982
_cell_angle_gamma   89.99999487
_symmetry_Int_Tables_number   1
_chemical_formula_structural   Li9Mn2Co5O16
_chemical_formula_sum   'Li9 Mn2 Co5 O16'
_cell_volume   289.80841959
_cell_formula_units_Z   1
loop_
 _symmetry_equiv_pos_site_id
 _symmetry_equiv_pos_as_xyz
  1  'x, y, z'
loop_
 _atom_site_type_symbol
 _atom_site_label
 _atom_site_symmetry_multiplicity
 _atom_site_fract_x
 _atom_site_fract_y
 _atom_site_fract_z
 _atom_site_occupancy
  Li  Li0  1  0.43281864  0.19972245  0.13436271  1
  Li  Li1  1  0.31718136  0.55027755  0.36563729  1
  Li  Li2  1  0.18750562  0.94065241  0.62498876  1
  Li  Li3  1  0.81107737  0.07205045  0.37784527  1
  Li  Li4  1  0.68860554  0.42860216  0.62278892  1
  Li  Li5  1  0.56249438  0.80934759  0.87501124  1
  Li  Li6  1  0.06139446  0.32139784  0.87721108  1
  Li  Li7  1  0.93892263  0.67794955  0.12215473  1
  Li  Li8  1  0.87500000  0.37500000  0.25000000  1
  Mn  Mn9  1  0.00102142  0.00179475  0.99795716  1
  Mn  Mn10  1  0.74897858  0.74820525  0.50204284  1
  Co  Co11  1  0.63041655  0.13233709  0.73916689  1
  Co  Co12  1  0.48922836  0.49600555  0.02154329  1
  Co  Co13  1  0.37500000  0.87500000  0.25000000  1
  Co  Co14  1  0.26077164  0.25399445  0.47845671  1
  Co  Co15  1  0.11958345  0.61766291  0.76083311  1
  O  O16  1  0.52819894  0.13850509  0.94360212  1
  O  O17  1  0.41176560  0.53695588  0.17646880  1
  O  O18  1  0.27476463  0.88581969  0.45047075  1
  O  O19  1  0.91176143  0.01807488  0.17647713  1
  O  O20  1  0.77838442  0.39532341  0.44323116  1
  O  O21  1  0.65880728  0.76684516  0.68238544  1
  O  O22  1  0.15455579  0.27001619  0.69088841  1
  O  O23  1  0.03258589  0.64862321  0.93482823  1
  O  O24  1  0.33823440  0.21304412  0.32353120  1
  O  O25  1  0.22180106  0.61149491  0.55639788  1
  O  O26  1  0.09119272  0.98315484  0.81761456  1
  O  O27  1  0.71741411  0.10137679  0.56517177  1
  O  O28  1  0.59544421  0.47998381  0.80911159  1
  O  O29  1  0.47523537  0.86418031  0.04952925  1
  O  O30  1  0.97161558  0.35467659  0.05676884  1
  O  O31  1  0.83823857  0.73192512  0.32352287  1
