# generated using pymatgen
data_K6Ba3Ta12(Si2O13)4
_symmetry_space_group_name_H-M   'P 1'
_cell_length_a   9.16424945
_cell_length_b   18.32413418
_cell_length_c   7.90392215
_cell_angle_alpha   90.00000000
_cell_angle_beta   90.00000000
_cell_angle_gamma   120.00787974
_symmetry_Int_Tables_number   1
_chemical_formula_structural   K6Ba3Ta12(Si2O13)4
_chemical_formula_sum   'K6 Ba3 Ta12 Si8 O52'
_cell_volume   1149.36816006
_cell_formula_units_Z   1
loop_
 _symmetry_equiv_pos_site_id
 _symmetry_equiv_pos_as_xyz
  1  'x, y, z'
loop_
 _atom_site_type_symbol
 _atom_site_label
 _atom_site_symmetry_multiplicity
 _atom_site_fract_x
 _atom_site_fract_y
 _atom_site_fract_z
 _atom_site_occupancy
  K  K0  1  0.59190961  0.50000000  0.50000000  1
  K  K1  1  0.61237386  0.50000000  0.00000000  1
  K  K2  1  0.39016565  0.19508509  0.00000000  1
  K  K3  1  -0.00000454  0.80491491  0.00000000  1
  K  K4  1  0.40913731  0.20487291  0.50000000  1
  K  K5  1  0.99939149  0.79512709  0.50000000  1
  Ba  Ba6  1  0.40225059  0.70071302  0.50000000  1
  Ba  Ba7  1  0.00082456  0.29928698  0.50000000  1
  Ba  Ba8  1  0.59568345  0.00000000  0.50000000  1
  Ta  Ta9  1  0.23975092  0.00000000  0.74953095  1
  Ta  Ta10  1  0.23629515  0.50000000  0.24720191  1
  Ta  Ta11  1  0.23629515  0.50000000  0.75279809  1
  Ta  Ta12  1  0.76359475  0.88147756  0.24847445  1
  Ta  Ta13  1  0.76359475  0.88147756  0.75152555  1
  Ta  Ta14  1  0.00063963  0.11852244  0.24847445  1
  Ta  Ta15  1  0.23975092  0.00000000  0.25046905  1
  Ta  Ta16  1  0.76026735  0.38042382  0.24952285  1
  Ta  Ta17  1  0.99941972  0.61957618  0.75047715  1
  Ta  Ta18  1  0.76026735  0.38042382  0.75047715  1
  Ta  Ta19  1  0.99941972  0.61957618  0.24952285  1
  Ta  Ta20  1  0.00063963  0.11852244  0.75152555  1
  Si  Si21  1  0.33624537  0.83361638  0.79631602  1
  Si  Si22  1  0.33624537  0.83361638  0.20368398  1
  Si  Si23  1  0.66441956  0.66698770  0.79430269  1
  Si  Si24  1  0.33044416  0.33301230  0.79430269  1
  Si  Si25  1  0.66441956  0.66698770  0.20569731  1
  Si  Si26  1  0.33044416  0.33301230  0.20569731  1
  Si  Si27  1  0.66901261  0.16638362  0.79631602  1
  Si  Si28  1  0.66901261  0.16638362  0.20368398  1
  O  O29  1  0.00055878  0.91139404  0.75543976  1
  O  O30  1  0.31213868  0.91134684  0.27141098  1
  O  O31  1  0.31213868  0.91134684  0.72858902  1
  O  O32  1  0.17981676  0.74450566  0.72874428  1
  O  O33  1  0.17981676  0.74450566  0.27125572  1
  O  O34  1  0.33160148  0.83368641  0.00000000  1
  O  O35  1  0.17684574  0.58871639  0.24651811  1
  O  O36  1  0.17684574  0.58871639  0.75348189  1
  O  O37  1  0.99941296  0.41128361  0.75348189  1
  O  O38  1  0.51222009  0.84550095  0.27775364  1
  O  O39  1  0.51222009  0.84550095  0.72224636  1
  O  O40  1  0.23746553  0.50000000  0.50000000  1
  O  O41  1  0.26228975  0.50000000  0.00000000  1
  O  O42  1  0.82233184  0.00000000  0.75261329  1
  O  O43  1  0.74660323  0.87031325  0.00000000  1
  O  O44  1  0.00597673  0.12968675  0.00000000  1
  O  O45  1  0.75806699  0.88090474  0.50000000  1
  O  O46  1  0.99625750  0.11909526  0.50000000  1
  O  O47  1  0.48758856  0.58908639  0.27348282  1
  O  O48  1  0.30941577  0.41091361  0.27348282  1
  O  O49  1  0.48758856  0.58908639  0.72651718  1
  O  O50  1  0.30941577  0.41091361  0.72651718  1
  O  O51  1  0.68747086  0.75592213  0.27337822  1
  O  O52  1  0.68747086  0.75592213  0.72662178  1
  O  O53  1  0.17562659  0.24407787  0.72662178  1
  O  O54  1  0.17562659  0.24407787  0.27337822  1
  O  O55  1  0.66832919  0.66698173  0.00000000  1
  O  O56  1  0.33436572  0.33301827  0.00000000  1
  O  O57  1  0.00055878  0.91139404  0.24456024  1
  O  O58  1  0.17777071  0.08860596  0.24456024  1
  O  O59  1  0.17777071  0.08860596  0.75543976  1
  O  O60  1  0.82305129  0.65639130  0.26675634  1
  O  O61  1  0.82305129  0.65639130  0.73324366  1
  O  O62  1  0.51026868  0.34360870  0.26675634  1
  O  O63  1  0.51026868  0.34360870  0.73324366  1
  O  O64  1  0.24191549  0.00000000  0.50000000  1
  O  O65  1  0.25496125  0.00000000  0.00000000  1
  O  O66  1  0.82294863  0.50000000  0.24366579  1
  O  O67  1  0.82294863  0.50000000  0.75633421  1
  O  O68  1  0.99434793  0.62877192  0.00000000  1
  O  O69  1  0.73680409  0.37122808  0.00000000  1
  O  O70  1  0.00401180  0.62050835  0.50000000  1
  O  O71  1  0.76299510  0.37949165  0.50000000  1
  O  O72  1  0.48944501  0.08865316  0.27141098  1
  O  O73  1  0.48944501  0.08865316  0.72858902  1
  O  O74  1  0.69080545  0.25549434  0.27125572  1
  O  O75  1  0.69080545  0.25549434  0.72874428  1
  O  O76  1  0.66422867  0.16631359  0.00000000  1
  O  O77  1  0.99941296  0.41128361  0.24651811  1
  O  O78  1  0.82121818  0.15449905  0.27775364  1
  O  O79  1  0.82121818  0.15449905  0.72224636  1
  O  O80  1  0.82233184  0.00000000  0.24738671  1
