# generated using pymatgen
data_PbI2
_symmetry_space_group_name_H-M   'P 1'
_cell_length_a   4.65039985
_cell_length_b   4.65040007
_cell_length_c   110.03646477
_cell_angle_alpha   90.00000000
_cell_angle_beta   90.00000000
_cell_angle_gamma   119.99999839
_symmetry_Int_Tables_number   1
_chemical_formula_structural   PbI2
_chemical_formula_sum   'Pb15 I30'
_cell_volume   2060.85710461
_cell_formula_units_Z   15
loop_
 _symmetry_equiv_pos_site_id
 _symmetry_equiv_pos_as_xyz
  1  'x, y, z'
loop_
 _atom_site_type_symbol
 _atom_site_label
 _atom_site_symmetry_multiplicity
 _atom_site_fract_x
 _atom_site_fract_y
 _atom_site_fract_z
 _atom_site_occupancy
  Pb  Pb0  1  0.66666700  0.33333300  0.01664611  1
  Pb  Pb1  1  0.00000000  0.00000000  0.94998872  1
  Pb  Pb2  1  0.00000000  0.00000000  0.61668120  1
  Pb  Pb3  1  0.00000000  0.00000000  0.41664284  1
  Pb  Pb4  1  0.00000000  0.00000000  0.48330905  1
  Pb  Pb5  1  0.00000000  0.00000000  0.81668812  1
  Pb  Pb6  1  0.66666700  0.33333300  0.35004824  1
  Pb  Pb7  1  0.00000000  0.00000000  0.68334046  1
  Pb  Pb8  1  0.00000000  0.00000000  0.21663173  1
  Pb  Pb9  1  0.66666700  0.33333300  0.55001724  1
  Pb  Pb10  1  0.00000000  0.00000000  0.08335299  1
  Pb  Pb11  1  0.00000000  0.00000000  0.28329551  1
  Pb  Pb12  1  0.66666700  0.33333300  0.15001185  1
  Pb  Pb13  1  0.00000000  0.00000000  0.88333758  1
  Pb  Pb14  1  0.66666700  0.33333300  0.75000326  1
  I  I15  1  0.00000000  0.00000000  0.73294191  1
  I  I16  1  0.33333300  0.66666700  0.56709864  1
  I  I17  1  0.33333300  0.66666700  0.16706860  1
  I  I18  1  0.33333300  0.66666700  0.36708783  1
  I  I19  1  0.33333300  0.66666700  0.90042076  1
  I  I20  1  0.33333300  0.66666700  0.96707918  1
  I  I21  1  0.33333300  0.66666700  0.63377383  1
  I  I22  1  0.66666700  0.33333300  0.26624428  1
  I  I23  1  0.33333300  0.66666700  0.23372127  1
  I  I24  1  0.00000000  0.00000000  0.53292194  1
  I  I25  1  0.66666700  0.33333300  0.39958976  1
  I  I26  1  0.33333300  0.66666700  0.70038742  1
  I  I27  1  0.66666700  0.33333300  0.86624548  1
  I  I28  1  0.33333300  0.66666700  0.76710036  1
  I  I29  1  0.66666700  0.33333300  0.46625968  1
  I  I30  1  0.33333300  0.66666700  0.43373668  1
  I  I31  1  0.66666700  0.33333300  0.19957057  1
  I  I32  1  0.33333300  0.66666700  0.10045260  1
  I  I33  1  0.66666700  0.33333300  0.59958701  1
  I  I34  1  0.00000000  0.00000000  0.99956935  1
  I  I35  1  0.00000000  0.00000000  0.13290497  1
  I  I36  1  0.66666700  0.33333300  0.06624520  1
  I  I37  1  0.33333300  0.66666700  0.03371762  1
  I  I38  1  0.33333300  0.66666700  0.30040349  1
  I  I39  1  0.00000000  0.00000000  0.33293295  1
  I  I40  1  0.66666700  0.33333300  0.93291165  1
  I  I41  1  0.33333300  0.66666700  0.83378032  1
  I  I42  1  0.66666700  0.33333300  0.66625203  1
  I  I43  1  0.66666700  0.33333300  0.79960961  1
  I  I44  1  0.33333300  0.66666700  0.50039011  1
