# generated using pymatgen
data_K4BaTa6(Si2O13)2
_symmetry_space_group_name_H-M   'P 1'
_cell_length_a   9.16295168
_cell_length_b   9.20389628
_cell_length_c   7.91699458
_cell_angle_alpha   90.00000000
_cell_angle_beta   90.00000000
_cell_angle_gamma   120.14792590
_symmetry_Int_Tables_number   1
_chemical_formula_structural   K4BaTa6(Si2O13)2
_chemical_formula_sum   'K4 Ba1 Ta6 Si4 O26'
_cell_volume   577.36280288
_cell_formula_units_Z   1
loop_
 _symmetry_equiv_pos_site_id
 _symmetry_equiv_pos_as_xyz
  1  'x, y, z'
loop_
 _atom_site_type_symbol
 _atom_site_label
 _atom_site_symmetry_multiplicity
 _atom_site_fract_x
 _atom_site_fract_y
 _atom_site_fract_z
 _atom_site_occupancy
  K  K0  1  0.38886032  0.38870822  0.00000000  1
  K  K1  1  0.40767163  0.40834762  0.50000000  1
  K  K2  1  0.59232837  0.00067598  0.50000000  1
  K  K3  1  0.61113968  0.99984790  0.00000000  1
  Ba  Ba4  1  0.00000000  0.59635478  0.50000000  1
  Ta  Ta5  1  0.23902387  0.00018385  0.24948368  1
  Ta  Ta6  1  0.23902387  0.00018385  0.75051632  1
  Ta  Ta7  1  0.76097613  0.76115998  0.75051632  1
  Ta  Ta8  1  0.76097613  0.76115998  0.24948368  1
  Ta  Ta9  1  1.00000000  0.23626317  0.74949866  1
  Ta  Ta10  1  1.00000000  0.23626317  0.25050134  1
  Si  Si11  1  0.33037640  0.66567867  0.20524471  1
  Si  Si12  1  0.33037640  0.66567867  0.79475529  1
  Si  Si13  1  0.66962360  0.33530126  0.20524471  1
  Si  Si14  1  0.66962360  0.33530126  0.79475529  1
  O  O15  1  1.00000000  0.82362462  0.75417739  1
  O  O16  1  1.00000000  0.23996644  0.50000000  1
  O  O17  1  0.30890209  0.82106731  0.27199451  1
  O  O18  1  0.30890209  0.82106731  0.72800549  1
  O  O19  1  0.17639372  0.48808670  0.27297070  1
  O  O20  1  0.17639372  0.48808670  0.72702930  1
  O  O21  1  0.33463111  0.66679134  0.00000000  1
  O  O22  1  0.17780304  0.17731308  0.24334924  1
  O  O23  1  0.17780304  0.17731308  0.75665076  1
  O  O24  1  0.51078594  0.68871098  0.73317575  1
  O  O25  1  0.51078594  0.68871098  0.26682425  1
  O  O26  1  0.23636364  0.99640252  0.50000000  1
  O  O27  1  0.26315239  0.00571390  0.00000000  1
  O  O28  1  0.82219696  0.99951003  0.75665076  1
  O  O29  1  0.73684761  0.74256151  0.00000000  1
  O  O30  1  0.76363636  0.76003888  0.50000000  1
  O  O31  1  0.48921406  0.17792504  0.73317575  1
  O  O32  1  0.48921406  0.17792504  0.26682425  1
  O  O33  1  0.69109791  0.51216523  0.27199451  1
  O  O34  1  0.69109791  0.51216523  0.72800549  1
  O  O35  1  0.66536889  0.33215923  0.00000000  1
  O  O36  1  1.00000000  0.82362462  0.24582261  1
  O  O37  1  0.82360628  0.31169299  0.27297070  1
  O  O38  1  0.82360628  0.31169299  0.72702930  1
  O  O39  1  0.82219696  0.99951003  0.24334924  1
  O  O40  1  0.00000000  0.25506583  0.00000000  1
