# generated using pymatgen
data_KNa4SnSb3
_symmetry_space_group_name_H-M   'P 1'
_cell_length_a   8.39165893
_cell_length_b   9.26227736
_cell_length_c   14.84431056
_cell_angle_alpha   89.51945522
_cell_angle_beta   90.00000000
_cell_angle_gamma   90.00000000
_symmetry_Int_Tables_number   1
_chemical_formula_structural   KNa4SnSb3
_chemical_formula_sum   'K4 Na16 Sn4 Sb12'
_cell_volume   1153.74640943
_cell_formula_units_Z   4
loop_
 _symmetry_equiv_pos_site_id
 _symmetry_equiv_pos_as_xyz
  1  'x, y, z'
loop_
 _atom_site_type_symbol
 _atom_site_label
 _atom_site_symmetry_multiplicity
 _atom_site_fract_x
 _atom_site_fract_y
 _atom_site_fract_z
 _atom_site_occupancy
  Na  Na0  1  0.99691467  0.16941933  0.25853510  1
  Na  Na1  1  0.49691467  0.33058067  0.24146490  1
  Na  Na2  1  0.50308533  0.66941933  0.75853510  1
  Na  Na3  1  0.00308533  0.83058067  0.74146490  1
  Na  Na4  1  0.12605283  0.56963324  0.25864751  1
  Na  Na5  1  0.62605283  0.93036676  0.24135249  1
  Na  Na6  1  0.87394717  0.43036676  0.74135249  1
  Na  Na7  1  0.37394717  0.06963324  0.75864751  1
  Na  Na8  1  0.16085819  0.57947753  0.58292692  1
  Na  Na9  1  0.94845426  0.82110559  0.40522506  1
  Na  Na10  1  0.83914181  0.42052247  0.41707308  1
  Na  Na11  1  0.33914181  0.07947753  0.08292692  1
  Na  Na12  1  0.55154574  0.32110559  0.90522506  1
  Na  Na13  1  0.05154574  0.17889441  0.59477494  1
  Na  Na14  1  0.44845426  0.67889441  0.09477494  1
  Na  Na15  1  0.66085819  0.92052247  0.91707308  1
  K  K16  1  0.02450795  0.17473572  0.91293108  1
  K  K17  1  0.97549205  0.82526428  0.08706892  1
  K  K18  1  0.52450795  0.32526428  0.58706892  1
  K  K19  1  0.47549205  0.67473572  0.41293108  1
  Sn  Sn20  1  0.84834205  0.43125608  0.09007639  1
  Sn  Sn21  1  0.65165795  0.93125608  0.59007639  1
  Sn  Sn22  1  0.15165795  0.56874392  0.90992361  1
  Sn  Sn23  1  0.34834205  0.06874392  0.40992361  1
  Sb  Sb24  1  0.19960350  0.40739144  0.07751342  1
  Sb  Sb25  1  0.78870527  0.64821416  0.58486654  1
  Sb  Sb26  1  0.24039340  0.90320972  0.26094300  1
  Sb  Sb27  1  0.21129473  0.35178584  0.41513346  1
  Sb  Sb28  1  0.28870527  0.85178584  0.91513346  1
  Sb  Sb29  1  0.69960350  0.09260856  0.42248658  1
  Sb  Sb30  1  0.80039650  0.59260856  0.92248658  1
  Sb  Sb31  1  0.30039650  0.90739144  0.57751342  1
  Sb  Sb32  1  0.74039340  0.59679028  0.23905700  1
  Sb  Sb33  1  0.75960660  0.09679028  0.73905700  1
  Sb  Sb34  1  0.25960660  0.40320972  0.76094300  1
  Sb  Sb35  1  0.71129473  0.14821416  0.08486654  1
