# generated using pymatgen
data_Ba11(Nb3S14)2
_symmetry_space_group_name_H-M   'P 1'
_cell_length_a   14.62810648
_cell_length_b   14.65749774
_cell_length_c   29.20257029
_cell_angle_alpha   27.61932210
_cell_angle_beta   27.50707729
_cell_angle_gamma   27.73942626
_symmetry_Int_Tables_number   1
_chemical_formula_structural   Ba11(Nb3S14)2
_chemical_formula_sum   'Ba11 Nb6 S28'
_cell_volume   1188.11777939
_cell_formula_units_Z   1
loop_
 _symmetry_equiv_pos_site_id
 _symmetry_equiv_pos_as_xyz
  1  'x, y, z'
loop_
 _atom_site_type_symbol
 _atom_site_label
 _atom_site_symmetry_multiplicity
 _atom_site_fract_x
 _atom_site_fract_y
 _atom_site_fract_z
 _atom_site_occupancy
  Ba  Ba0  1  0.07947847  0.06907628  0.03342007  1
  Ba  Ba1  1  0.19498252  0.19955260  0.10548947  1
  Ba  Ba2  1  0.06817337  0.07561131  0.53375087  1
  Ba  Ba3  1  0.20764942  0.20791632  0.59398255  1
  Ba  Ba4  1  0.37219921  0.30760307  0.65798416  1
  Ba  Ba5  1  0.73239520  0.70725006  0.28085028  1
  Ba  Ba6  1  0.80014457  0.79789549  0.39968945  1
  Ba  Ba7  1  0.93345592  0.93257826  0.46095414  1
  Ba  Ba8  1  0.65472636  0.64308321  0.85466876  1
  Ba  Ba9  1  0.79881481  0.79769684  0.89981892  1
  Ba  Ba10  1  0.93088876  0.92374748  0.96534228  1
  Nb  Nb11  1  0.42496291  0.40899564  0.21640482  1
  Nb  Nb12  1  0.49645445  0.51679375  0.24344391  1
  Nb  Nb13  1  0.57829480  0.57276004  0.29210344  1
  Nb  Nb14  1  0.42706755  0.43426157  0.70141870  1
  Nb  Nb15  1  0.49016103  0.49809678  0.75571098  1
  Nb  Nb16  1  0.59043823  0.56688244  0.78755868  1
  S  S17  1  0.05348516  0.57808072  0.28385509  1
  S  S18  1  0.57568865  0.57285478  0.02816415  1
  S  S19  1  0.55915944  0.05919333  0.28328402  1
  S  S20  1  0.29814932  0.79968317  0.15129565  1
  S  S21  1  0.30580757  0.30115124  0.39503769  1
  S  S22  1  0.79088816  0.29731597  0.15513898  1
  S  S23  1  0.20848256  0.69187684  0.35313392  1
  S  S24  1  0.70372647  0.69783995  0.10077161  1
  S  S25  1  0.68958656  0.21565806  0.35204486  1
  S  S26  1  0.43853776  0.94182725  0.21328685  1
  S  S27  1  0.43620996  0.45304159  0.46819173  1
  S  S28  1  0.94443318  0.43366657  0.21509951  1
  S  S29  1  0.93635966  0.16777250  0.44804991  1
  S  S30  1  0.06415217  0.54790279  0.78625055  1
  S  S31  1  0.57138867  0.06072985  0.77878667  1
  S  S32  1  0.54561000  0.57636181  0.52573936  1
  S  S33  1  0.30618916  0.78698257  0.64849404  1
  S  S34  1  0.30179343  0.30012596  0.89694956  1
  S  S35  1  0.78746965  0.30990600  0.64655350  1
  S  S36  1  0.20559052  0.70157166  0.84675306  1
  S  S37  1  0.70178806  0.69244161  0.60430859  1
  S  S38  1  0.70324809  0.20770174  0.84550438  1
  S  S39  1  0.43867098  0.93486559  0.71786876  1
  S  S40  1  0.43028986  0.42998890  0.97123279  1
  S  S41  1  0.94460396  0.42799672  0.72278562  1
  S  S42  1  0.14455456  0.83828390  0.00844155  1
  S  S43  1  0.94973803  0.86017382  0.59406362  1
  S  S44  1  0.84776084  0.13625397  0.00814748  1
