# generated using pymatgen
data_Cu9Se4(Cl3O7)2
_symmetry_space_group_name_H-M   'P 1'
_cell_length_a   6.35966790
_cell_length_b   13.09122033
_cell_length_c   14.29102671
_cell_angle_alpha   112.75710503
_cell_angle_beta   90.00000000
_cell_angle_gamma   90.00000000
_symmetry_Int_Tables_number   1
_chemical_formula_structural   Cu9Se4(Cl3O7)2
_chemical_formula_sum   'Cu18 Se8 Cl12 O28'
_cell_volume   1097.18784829
_cell_formula_units_Z   2
loop_
 _symmetry_equiv_pos_site_id
 _symmetry_equiv_pos_as_xyz
  1  'x, y, z'
loop_
 _atom_site_type_symbol
 _atom_site_label
 _atom_site_symmetry_multiplicity
 _atom_site_fract_x
 _atom_site_fract_y
 _atom_site_fract_z
 _atom_site_occupancy
  Cu  Cu0  1  0.52673370  0.02785733  0.61963591  1
  Cu  Cu1  1  0.98309433  0.94537195  0.71538497  1
  Cu  Cu2  1  0.97326630  0.52785733  0.11963591  1
  Cu  Cu3  1  0.98878477  0.66953200  0.38377648  1
  Cu  Cu4  1  0.01690567  0.05462805  0.28461503  1
  Cu  Cu5  1  0.02673370  0.47214267  0.88036409  1
  Cu  Cu6  1  0.51121523  0.16953200  0.88377648  1
  Cu  Cu7  1  0.47326630  0.97214267  0.38036409  1
  Cu  Cu8  1  0.24298987  0.75015583  0.25043029  1
  Cu  Cu9  1  0.00000000  0.50000000  0.50000000  1
  Cu  Cu10  1  0.75701013  0.24984417  0.74956971  1
  Cu  Cu11  1  0.74298987  0.74984417  0.24956971  1
  Cu  Cu12  1  0.48309433  0.55462805  0.78461503  1
  Cu  Cu13  1  0.51690567  0.44537195  0.21538497  1
  Cu  Cu14  1  0.48878477  0.83046800  0.11622352  1
  Cu  Cu15  1  0.50000000  0.00000000  0.00000000  1
  Cu  Cu16  1  0.01121523  0.33046800  0.61622352  1
  Cu  Cu17  1  0.25701013  0.25015583  0.75043029  1
  Se  Se18  1  0.99596137  0.73871610  0.03942240  1
  Se  Se19  1  0.01719512  0.38742341  0.25441503  1
  Se  Se20  1  0.48280488  0.88742341  0.75441503  1
  Se  Se21  1  0.49596137  0.76128390  0.46057760  1
  Se  Se22  1  0.50403863  0.23871610  0.53942240  1
  Se  Se23  1  0.98280488  0.61257659  0.74558497  1
  Se  Se24  1  0.00403863  0.26128390  0.96057760  1
  Se  Se25  1  0.51719512  0.11257659  0.24558497  1
  Cl  Cl26  1  0.97263859  0.69211705  0.55139052  1
  Cl  Cl27  1  0.00539510  0.93817756  0.36654437  1
  Cl  Cl28  1  0.53720128  0.40083407  0.34947282  1
  Cl  Cl29  1  0.02736141  0.30788295  0.44860948  1
  Cl  Cl30  1  0.46279872  0.59916593  0.65052718  1
  Cl  Cl31  1  0.47263859  0.80788295  0.94860948  1
  Cl  Cl32  1  0.52736141  0.19211705  0.05139052  1
  Cl  Cl33  1  0.49460490  0.43817756  0.86654437  1
  Cl  Cl34  1  0.03720128  0.09916593  0.15052718  1
  Cl  Cl35  1  0.50539510  0.56182244  0.13345563  1
  Cl  Cl36  1  0.96279872  0.90083407  0.84947282  1
  Cl  Cl37  1  0.99460490  0.06182244  0.63345563  1
  O  O38  1  0.32526275  0.06328740  0.31010595  1
  O  O39  1  0.30579763  0.28998097  0.63004855  1
  O  O40  1  0.50610015  0.16188915  0.74151906  1
  O  O41  1  0.53645211  0.99707321  0.13163411  1
  O  O42  1  0.98621680  0.40208017  0.98306827  1
  O  O43  1  0.21559593  0.41791815  0.18558499  1
  O  O44  1  0.03645211  0.50292679  0.36836589  1
  O  O45  1  0.99389985  0.66188915  0.24151906  1
  O  O46  1  0.69420237  0.71001903  0.36995145  1
  O  O47  1  0.82526275  0.43671260  0.18989405  1
  O  O48  1  0.78508677  0.77887938  0.12281046  1
  O  O49  1  0.28440407  0.91791815  0.68558499  1
  O  O50  1  0.28508677  0.72112062  0.37718954  1
  O  O51  1  0.19420237  0.78998097  0.13004855  1
  O  O52  1  0.00610015  0.33811085  0.75848094  1
  O  O53  1  0.78440407  0.58208185  0.81441501  1
  O  O54  1  0.48621680  0.09791983  0.51693173  1
  O  O55  1  0.67473725  0.93671260  0.68989405  1
  O  O56  1  0.80579763  0.21001903  0.86995145  1
  O  O57  1  0.01378320  0.59791983  0.01693173  1
  O  O58  1  0.71559593  0.08208185  0.31441501  1
  O  O59  1  0.96354789  0.49707321  0.63163411  1
  O  O60  1  0.17473725  0.56328740  0.81010595  1
  O  O61  1  0.71491323  0.27887938  0.62281046  1
  O  O62  1  0.21491323  0.22112062  0.87718954  1
  O  O63  1  0.51378320  0.90208017  0.48306827  1
  O  O64  1  0.46354789  0.00292679  0.86836589  1
  O  O65  1  0.49389985  0.83811085  0.25848094  1
