# generated using pymatgen
data_CuW3Br7
_symmetry_space_group_name_H-M   'P 1'
_cell_length_a   10.14067869
_cell_length_b   15.41713014
_cell_length_c   16.29092766
_cell_angle_alpha   90.00000000
_cell_angle_beta   90.00000000
_cell_angle_gamma   90.00000000
_symmetry_Int_Tables_number   1
_chemical_formula_structural   CuW3Br7
_chemical_formula_sum   'Cu8 W24 Br56'
_cell_volume   2546.92628695
_cell_formula_units_Z   8
loop_
 _symmetry_equiv_pos_site_id
 _symmetry_equiv_pos_as_xyz
  1  'x, y, z'
loop_
 _atom_site_type_symbol
 _atom_site_label
 _atom_site_symmetry_multiplicity
 _atom_site_fract_x
 _atom_site_fract_y
 _atom_site_fract_z
 _atom_site_occupancy
  Cu  Cu0  1  0.62860018  0.21722360  0.70895304  1
  Cu  Cu1  1  0.12860018  0.28277640  0.70895304  1
  Cu  Cu2  1  0.37139982  0.78277640  0.29104696  1
  Cu  Cu3  1  0.87139982  0.21722360  0.20895304  1
  Cu  Cu4  1  0.87139982  0.71722360  0.29104696  1
  Cu  Cu5  1  0.37139982  0.28277640  0.20895304  1
  Cu  Cu6  1  0.12860018  0.78277640  0.79104696  1
  Cu  Cu7  1  0.62860018  0.71722360  0.79104696  1
  W  W8  1  0.99838349  0.59597775  0.07095486  1
  W  W9  1  0.49838349  0.90402225  0.07095486  1
  W  W10  1  0.34517237  0.95940470  0.94923516  1
  W  W11  1  0.60199225  0.93713653  0.92476816  1
  W  W12  1  0.00161651  0.90402225  0.57095486  1
  W  W13  1  0.89800775  0.93713653  0.42476816  1
  W  W14  1  0.99838349  0.09597775  0.42904514  1
  W  W15  1  0.49838349  0.40402225  0.42904514  1
  W  W16  1  0.39800775  0.06286347  0.07523184  1
  W  W17  1  0.10199225  0.06286347  0.57523184  1
  W  W18  1  0.15482763  0.45940470  0.05076484  1
  W  W19  1  0.65482763  0.54059530  0.44923516  1
  W  W20  1  0.60199225  0.43713653  0.57523184  1
  W  W21  1  0.00161651  0.40402225  0.92904514  1
  W  W22  1  0.15482763  0.95940470  0.44923516  1
  W  W23  1  0.34517237  0.45940470  0.55076484  1
  W  W24  1  0.10199225  0.56286347  0.92476816  1
  W  W25  1  0.50161651  0.59597775  0.57095486  1
  W  W26  1  0.84517237  0.04059530  0.55076484  1
  W  W27  1  0.65482763  0.04059530  0.05076484  1
  W  W28  1  0.39800775  0.56286347  0.42476816  1
  W  W29  1  0.50161651  0.09597775  0.92904514  1
  W  W30  1  0.84517237  0.54059530  0.94923516  1
  W  W31  1  0.89800775  0.43713653  0.07523184  1
  Br  Br32  1  0.55071086  0.50805440  0.30376827  1
  Br  Br33  1  0.49696876  0.26446054  0.33303949  1
  Br  Br34  1  0.44495754  0.30147954  0.55556435  1
  Br  Br35  1  0.44928914  0.49194560  0.69623173  1
  Br  Br36  1  0.12162737  0.90692193  0.87722476  1
  Br  Br37  1  0.05071086  0.49194560  0.19623173  1
  Br  Br38  1  0.55504246  0.19852046  0.05556435  1
  Br  Br39  1  0.62162737  0.09307807  0.62277524  1
  Br  Br40  1  0.99696876  0.23553946  0.33303949  1
  Br  Br41  1  0.24120750  0.42630338  0.40432827  1
  Br  Br42  1  0.55071086  0.00805440  0.19623173  1
  Br  Br43  1  0.24482332  0.61785377  0.54621804  1
  Br  Br44  1  0.24660919  0.15001187  0.68228256  1
  Br  Br45  1  0.99696876  0.73553946  0.16696051  1
  Br  Br46  1  0.94928914  0.00805440  0.69623173  1
  Br  Br47  1  0.75517668  0.88214623  0.04621804  1
  Br  Br48  1  0.49696876  0.76446054  0.16696051  1
  Br  Br49  1  0.87837263  0.59307807  0.37722476  1
  Br  Br50  1  0.37837263  0.40692193  0.12277524  1
  Br  Br51  1  0.75339081  0.84998813  0.31771744  1
  Br  Br52  1  0.24660919  0.65001187  0.81771744  1
  Br  Br53  1  0.44495754  0.80147954  0.94443565  1
  Br  Br54  1  0.25339081  0.65001187  0.31771744  1
  Br  Br55  1  0.00303124  0.26446054  0.83303949  1
  Br  Br56  1  0.62162737  0.59307807  0.87722476  1
  Br  Br57  1  0.87837263  0.09307807  0.12277524  1
  Br  Br58  1  0.74482332  0.88214623  0.54621804  1
  Br  Br59  1  0.94495754  0.69852046  0.94443565  1
  Br  Br60  1  0.25339081  0.15001187  0.18228256  1
  Br  Br61  1  0.75339081  0.34998813  0.18228256  1
  Br  Br62  1  0.37837263  0.90692193  0.37722476  1
  Br  Br63  1  0.50303124  0.23553946  0.83303949  1
  Br  Br64  1  0.00303124  0.76446054  0.66696051  1
  Br  Br65  1  0.94495754  0.19852046  0.55556435  1
  Br  Br66  1  0.50303124  0.73553946  0.66696051  1
  Br  Br67  1  0.74482332  0.38214623  0.95378196  1
  Br  Br68  1  0.05504246  0.80147954  0.44443565  1
  Br  Br69  1  0.74120750  0.57369662  0.09567173  1
  Br  Br70  1  0.25517668  0.11785377  0.45378196  1
  Br  Br71  1  0.55504246  0.69852046  0.44443565  1
  Br  Br72  1  0.24120750  0.92630338  0.09567173  1
  Br  Br73  1  0.74660919  0.84998813  0.81771744  1
  Br  Br74  1  0.74120750  0.07369662  0.40432827  1
  Br  Br75  1  0.75517668  0.38214623  0.45378196  1
  Br  Br76  1  0.12162737  0.40692193  0.62277524  1
  Br  Br77  1  0.75879250  0.57369662  0.59567173  1
  Br  Br78  1  0.05071086  0.99194560  0.30376827  1
  Br  Br79  1  0.25879250  0.42630338  0.90432827  1
  Br  Br80  1  0.94928914  0.50805440  0.80376827  1
  Br  Br81  1  0.44928914  0.99194560  0.80376827  1
  Br  Br82  1  0.05504246  0.30147954  0.05556435  1
  Br  Br83  1  0.75879250  0.07369662  0.90432827  1
  Br  Br84  1  0.74660919  0.34998813  0.68228256  1
  Br  Br85  1  0.24482332  0.11785377  0.95378196  1
  Br  Br86  1  0.25517668  0.61785377  0.04621804  1
  Br  Br87  1  0.25879250  0.92630338  0.59567173  1
