# generated using pymatgen
data_CsSbTe6(OF5)6
_symmetry_space_group_name_H-M   'P 1'
_cell_length_a   14.63561166
_cell_length_b   14.63561166
_cell_length_c   14.92393731
_cell_angle_alpha   90.00000000
_cell_angle_beta   90.00000000
_cell_angle_gamma   90.00000000
_symmetry_Int_Tables_number   1
_chemical_formula_structural   CsSbTe6(OF5)6
_chemical_formula_sum   'Cs4 Sb4 Te24 O24 F120'
_cell_volume   3196.72421589
_cell_formula_units_Z   4
loop_
 _symmetry_equiv_pos_site_id
 _symmetry_equiv_pos_as_xyz
  1  'x, y, z'
loop_
 _atom_site_type_symbol
 _atom_site_label
 _atom_site_symmetry_multiplicity
 _atom_site_fract_x
 _atom_site_fract_y
 _atom_site_fract_z
 _atom_site_occupancy
  Cs  Cs0  1  0.75000000  0.25000000  0.22845932  1
  Cs  Cs1  1  0.75000000  0.25000000  0.72845932  1
  Cs  Cs2  1  0.25000000  0.75000000  0.27154068  1
  Cs  Cs3  1  0.25000000  0.75000000  0.77154068  1
  Sb  Sb4  1  0.50000000  0.50000000  0.50000000  1
  Sb  Sb5  1  0.50000000  0.00000000  0.00000000  1
  Sb  Sb6  1  0.00000000  0.50000000  0.00000000  1
  Sb  Sb7  1  0.00000000  0.00000000  0.50000000  1
  Te  Te8  1  0.95336620  0.55184487  0.23629051  1
  Te  Te9  1  0.04663380  0.44815513  0.76370949  1
  Te  Te10  1  0.46026794  0.74675324  0.52917158  1
  Te  Te11  1  0.24675324  0.53973206  0.02917158  1
  Te  Te12  1  0.75324676  0.46026794  0.97082842  1
  Te  Te13  1  0.45967636  0.24061808  0.05418627  1
  Te  Te14  1  0.25938192  0.45967636  0.44581373  1
  Te  Te15  1  0.75938192  0.95967636  0.55418627  1
  Te  Te16  1  0.53973206  0.25324676  0.47082842  1
  Te  Te17  1  0.05184487  0.04663380  0.73629051  1
  Te  Te18  1  0.04032364  0.25938192  0.05418627  1
  Te  Te19  1  0.24061808  0.04032364  0.44581373  1
  Te  Te20  1  0.55184487  0.54663380  0.26370949  1
  Te  Te21  1  0.95967636  0.74061808  0.94581373  1
  Te  Te22  1  0.44815513  0.45336620  0.73629051  1
  Te  Te23  1  0.74061808  0.54032364  0.55418627  1
  Te  Te24  1  0.45336620  0.05184487  0.76370949  1
  Te  Te25  1  0.25324676  0.96026794  0.02917158  1
  Te  Te26  1  0.54663380  0.94815513  0.23629051  1
  Te  Te27  1  0.03973206  0.75324676  0.52917158  1
  Te  Te28  1  0.96026794  0.24675324  0.47082842  1
  Te  Te29  1  0.54032364  0.75938192  0.94581373  1
  Te  Te30  1  0.94815513  0.95336620  0.26370949  1
  Te  Te31  1  0.74675324  0.03973206  0.97082842  1
  O  O32  1  0.55282297  0.38034235  0.46207738  1
  O  O33  1  0.44615277  0.44492326  0.60982691  1
  O  O34  1  0.53040321  0.88715795  0.93220517  1
  O  O35  1  0.94717703  0.11965765  0.46207738  1
  O  O36  1  0.11284205  0.03040321  0.43220517  1
  O  O37  1  0.05384723  0.05507674  0.60982691  1
  O  O38  1  0.88715795  0.96959679  0.56779483  1
  O  O39  1  0.05507674  0.44615277  0.89017309  1
  O  O40  1  0.55384723  0.55507674  0.39017309  1
  O  O41  1  0.38034235  0.94717703  0.03792262  1
  O  O42  1  0.94492326  0.55384723  0.10982691  1
  O  O43  1  0.96959679  0.61284205  0.93220517  1
  O  O44  1  0.88034235  0.44717703  0.96207738  1
  O  O45  1  0.38715795  0.46959679  0.43220517  1
  O  O46  1  0.44492326  0.05384723  0.89017309  1
  O  O47  1  0.03040321  0.38715795  0.06779483  1
  O  O48  1  0.05282297  0.88034235  0.53792262  1
  O  O49  1  0.55507674  0.94615277  0.10982691  1
  O  O50  1  0.61965765  0.05282297  0.96207738  1
  O  O51  1  0.46959679  0.11284205  0.06779483  1
  O  O52  1  0.11965765  0.55282297  0.03792262  1
  O  O53  1  0.61284205  0.53040321  0.56779483  1
  O  O54  1  0.44717703  0.61965765  0.53792262  1
  O  O55  1  0.94615277  0.94492326  0.39017309  1
  F  F56  1  0.75003545  0.93490082  0.04230953  1
  F  F57  1  0.45254054  0.05744822  0.63859303  1
  F  F58  1  0.14803291  0.37038390  0.76315214  1
  F  F59  1  0.23538676  0.14480507  0.51815084  1
  F  F60  1  0.24476305  0.56605479  0.37480110  1
  F  F61  1  0.75019148  0.11157005  0.07640168  1
  F  F62  1  0.35269326  0.75402476  0.59881525  1
  F  F63  1  0.62961610  0.64803291  0.26315214  1
  F  F64  1  0.15356638  0.96703366  0.73627513  1
  F  F65  1  0.03296634  0.65356638  0.23627513  1
  F  F66  1  0.74980852  0.38842995  0.07640168  1
  F  F67  1  0.11227680  0.25871500  0.15775528  1
  F  F68  1  0.44458671  0.02544509  0.24431580  1
  F  F69  1  0.88772320  0.74128500  0.84224472  1
  F  F70  1  0.64480507  0.76461324  0.01815084  1
  F  F71  1  0.75402476  0.14730674  0.90118475  1
  F  F72  1  0.25230245  0.53436391  0.54830354  1
  F  F73  1  0.95044440  0.86815638  0.94721025  1
  F  F74  1  0.03204343  0.25379573  0.36694620  1
  F  F75  1  0.12961610  0.14803291  0.73684786  1
  F  F76  1  0.84643362  0.03296634  0.26372487  1
  F  F77  1  0.95552745  0.37426660  0.47233170  1
  F  F78  1  0.95254054  0.55744822  0.36140697  1
  F  F79  1  0.25871500  0.38772320  0.34224472  1
  F  F80  1  0.37426660  0.54447255  0.02766830  1
  F  F81  1  0.04447255  0.62573340  0.52766830  1
  F  F82  1  0.93394521  0.24476305  0.12519890  1
  F  F83  1  0.44255178  0.45254054  0.86140697  1
  F  F84  1  0.35519493  0.23538676  0.98184916  1
  F  F85  1  0.06509918  0.25003545  0.54230953  1
  F  F86  1  0.05160096  0.87652622  0.25385035  1
  F  F87  1  0.62347378  0.05160096  0.24614965  1
  F  F88  1  0.54955560  0.63184362  0.94721025  1
  F  F89  1  0.94458671  0.52544509  0.75568420  1
  F  F90  1  0.74476305  0.06605479  0.62519890  1
  F  F91  1  0.53436391  0.24769755  0.95169646  1
  F  F92  1  0.05541329  0.47455491  0.24431580  1
  F  F93  1  0.88842995  0.25019148  0.57640168  1
  F  F94  1  0.75523695  0.43394521  0.62519890  1
  F  F95  1  0.62573340  0.45552745  0.97233170  1
  F  F96  1  0.43394521  0.74476305  0.87480110  1
  F  F97  1  0.06605479  0.75523695  0.87480110  1
  F  F98  1  0.61157005  0.24980852  0.57640168  1
  F  F99  1  0.74769755  0.46563609  0.45169646  1
  F  F100  1  0.26461324  0.35519493  0.51815084  1
  F  F101  1  0.46703366  0.84643362  0.23627513  1
  F  F102  1  0.85196709  0.62961610  0.23684786  1
  F  F103  1  0.96563609  0.25230245  0.95169646  1
  F  F104  1  0.37652622  0.94839904  0.75385035  1
  F  F105  1  0.87652622  0.44839904  0.24614965  1
  F  F106  1  0.24980852  0.88842995  0.92359832  1
  F  F107  1  0.45044440  0.36815638  0.05278975  1
  F  F108  1  0.24996455  0.06509918  0.95769047  1
  F  F109  1  0.74620427  0.53204343  0.86694620  1
  F  F110  1  0.56509918  0.75003545  0.45769047  1
  F  F111  1  0.25402476  0.64730674  0.09881525  1
  F  F112  1  0.53204343  0.75379573  0.63305380  1
  F  F113  1  0.97455491  0.94458671  0.74431580  1
  F  F114  1  0.36815638  0.04955560  0.44721025  1
  F  F115  1  0.74128500  0.61227680  0.65775528  1
  F  F116  1  0.47455491  0.44458671  0.25568420  1
  F  F117  1  0.96795657  0.74620427  0.63305380  1
  F  F118  1  0.24769755  0.96563609  0.54830354  1
  F  F119  1  0.87426660  0.04447255  0.97233170  1
  F  F120  1  0.35196709  0.12961610  0.76315214  1
  F  F121  1  0.14730674  0.74597524  0.59881525  1
  F  F122  1  0.54447255  0.12573340  0.47233170  1
  F  F123  1  0.12573340  0.95552745  0.02766830  1
  F  F124  1  0.93490082  0.74996455  0.45769047  1
  F  F125  1  0.55160096  0.37652622  0.74614965  1
  F  F126  1  0.65356638  0.46703366  0.26372487  1
  F  F127  1  0.53296634  0.15356638  0.76372487  1
  F  F128  1  0.24128500  0.11227680  0.34224472  1
  F  F129  1  0.55744822  0.54745946  0.13859303  1
  F  F130  1  0.11157005  0.74980852  0.42359832  1
  F  F131  1  0.45552745  0.87426660  0.52766830  1
  F  F132  1  0.02544509  0.05541329  0.25568420  1
  F  F133  1  0.13184362  0.45044440  0.44721025  1
  F  F134  1  0.75230245  0.03436391  0.45169646  1
  F  F135  1  0.64803291  0.87038390  0.23684786  1
  F  F136  1  0.24620427  0.03204343  0.13305380  1
  F  F137  1  0.64730674  0.24597524  0.40118475  1
  F  F138  1  0.74597524  0.35269326  0.90118475  1
  F  F139  1  0.54745946  0.94255178  0.36140697  1
  F  F140  1  0.76461324  0.85519493  0.48184916  1
  F  F141  1  0.46795657  0.24620427  0.36694620  1
  F  F142  1  0.46563609  0.75230245  0.04830354  1
  F  F143  1  0.85269326  0.25402476  0.40118475  1
  F  F144  1  0.25523695  0.93394521  0.37480110  1
  F  F145  1  0.44839904  0.62347378  0.25385035  1
  F  F146  1  0.12347378  0.55160096  0.75385035  1
  F  F147  1  0.85519493  0.73538676  0.01815084  1
  F  F148  1  0.75871500  0.88772320  0.65775528  1
  F  F149  1  0.94839904  0.12347378  0.74614965  1
  F  F150  1  0.63184362  0.95044440  0.55278975  1
  F  F151  1  0.34643362  0.53296634  0.73627513  1
  F  F152  1  0.86815638  0.54955560  0.55278975  1
  F  F153  1  0.38772320  0.24128500  0.15775528  1
  F  F154  1  0.04955560  0.13184362  0.05278975  1
  F  F155  1  0.75379573  0.96795657  0.86694620  1
  F  F156  1  0.25003545  0.43490082  0.95769047  1
  F  F157  1  0.74996455  0.56509918  0.04230953  1
  F  F158  1  0.43490082  0.24996455  0.54230953  1
  F  F159  1  0.25379573  0.46795657  0.13305380  1
  F  F160  1  0.52544509  0.55541329  0.74431580  1
  F  F161  1  0.55541329  0.97455491  0.75568420  1
  F  F162  1  0.37038390  0.35196709  0.73684786  1
  F  F163  1  0.05744822  0.04745946  0.86140697  1
  F  F164  1  0.38842995  0.75019148  0.42359832  1
  F  F165  1  0.87038390  0.85196709  0.26315214  1
  F  F166  1  0.14480507  0.26461324  0.98184916  1
  F  F167  1  0.61227680  0.75871500  0.84224472  1
  F  F168  1  0.96703366  0.34643362  0.76372487  1
  F  F169  1  0.56605479  0.25523695  0.12519890  1
  F  F170  1  0.94255178  0.95254054  0.13859303  1
  F  F171  1  0.73538676  0.64480507  0.48184916  1
  F  F172  1  0.04745946  0.44255178  0.63859303  1
  F  F173  1  0.25019148  0.61157005  0.92359832  1
  F  F174  1  0.03436391  0.74769755  0.04830354  1
  F  F175  1  0.24597524  0.85269326  0.09881525  1
