# generated using pymatgen
data_Na5Ti7Al(PO4)12
_symmetry_space_group_name_H-M   'P 1'
_cell_length_a   8.85330234
_cell_length_b   8.86220368
_cell_length_c   17.71498846
_cell_angle_alpha   58.18938197
_cell_angle_beta   58.03569990
_cell_angle_gamma   58.15201853
_symmetry_Int_Tables_number   1
_chemical_formula_structural   Na5Ti7Al(PO4)12
_chemical_formula_sum   'Na5 Ti7 Al1 P12 O48'
_cell_volume   940.58685440
_cell_formula_units_Z   1
loop_
 _symmetry_equiv_pos_site_id
 _symmetry_equiv_pos_as_xyz
  1  'x, y, z'
loop_
 _atom_site_type_symbol
 _atom_site_label
 _atom_site_symmetry_multiplicity
 _atom_site_fract_x
 _atom_site_fract_y
 _atom_site_fract_z
 _atom_site_occupancy
  Na  Na0  1  0.00417254  0.99533026  0.99967373  1
  Na  Na1  1  0.50066871  0.49980865  0.24985414  1
  Na  Na2  1  0.00018769  0.99963310  0.50021698  1
  Na  Na3  1  0.49845846  0.50411626  0.74761878  1
  Na  Na4  1  0.60212652  0.24898870  0.94880793  1
  Ti  Ti5  1  0.14286507  0.14509786  0.07230622  1
  Ti  Ti6  1  0.35580664  0.35634928  0.17689598  1
  Ti  Ti7  1  0.14422392  0.14406506  0.57309853  1
  Ti  Ti8  1  0.35294980  0.35569477  0.67859957  1
  Ti  Ti9  1  0.64490803  0.64362030  0.32345735  1
  Ti  Ti10  1  0.85523307  0.85498169  0.42760148  1
  Ti  Ti11  1  0.64728318  0.65385404  0.81989456  1
  Al  Al12  1  0.85794858  0.84779150  0.92699205  1
  P  P13  1  0.03692649  0.74993299  0.23153665  1
  P  P14  1  0.46276148  0.03723753  0.37495255  1
  P  P15  1  0.75106816  0.46845809  0.01756155  1
  P  P16  1  0.24965014  0.53660238  0.48173499  1
  P  P17  1  0.54039726  0.95638257  0.12532548  1
  P  P18  1  0.03773239  0.75201141  0.73363911  1
  P  P19  1  0.96294967  0.24983417  0.26863905  1
  P  P20  1  0.46763847  0.03759150  0.87575940  1
  P  P21  1  0.75025842  0.46235981  0.51887822  1
  P  P22  1  0.23951735  0.54659019  0.98092692  1
  P  P23  1  0.53665544  0.96395124  0.62479589  1
  P  P24  1  0.96206290  0.24471937  0.77058271  1
  O  O25  1  0.13470230  0.28247963  0.25208785  1
  O  O26  1  0.28073657  0.50649575  0.06604368  1
  O  O27  1  0.06152858  0.92312455  0.14038204  1
  O  O28  1  0.50762761  0.13350993  0.13830917  1
  O  O29  1  0.21927810  0.57646728  0.21921933  1
  O  O30  1  0.00499647  0.78228304  0.31703013  1
  O  O31  1  0.28045119  0.06147710  0.46182510  1
  O  O32  1  0.43871068  0.21872499  0.28791193  1
  O  O33  1  0.57685675  0.43820367  0.10918887  1
  O  O34  1  0.21756569  0.36565122  0.49760054  1
  O  O35  1  0.07649000  0.71900319  0.46923224  1
  O  O36  1  0.36649347  0.99516778  0.10857112  1
  O  O37  1  0.63429368  0.00477591  0.39103710  1
  O  O38  1  0.13261935  0.28062369  0.75310154  1
  O  O39  1  0.92325640  0.28246166  0.03086080  1
  O  O40  1  0.78220297  0.63721950  0.00128208  1
  O  O41  1  0.42360113  0.56146782  0.39045371  1
  O  O42  1  0.28247360  0.50443302  0.56718141  1
  O  O43  1  0.56181205  0.77804935  0.21253655  1
  O  O44  1  0.06129105  0.92320930  0.64094193  1
  O  O45  1  0.72001618  0.93781065  0.03621099  1
  O  O46  1  0.50471357  0.13399262  0.64138528  1
  O  O47  1  0.21794453  0.57707512  0.71939343  1
  O  O48  1  0.00333624  0.78304602  0.81857167  1
  O  O49  1  0.99529324  0.21765042  0.18285862  1
  O  O50  1  0.78102909  0.42328594  0.28090822  1
  O  O51  1  0.49558411  0.86586590  0.35867757  1
  O  O52  1  0.28160403  0.06147114  0.96182672  1
  O  O53  1  0.93849364  0.07646883  0.35955983  1
  O  O54  1  0.43917276  0.21794796  0.78867863  1
  O  O55  1  0.71785074  0.49514166  0.43310952  1
  O  O56  1  0.57605405  0.43865585  0.60981763  1
  O  O57  1  0.22125111  0.36554269  0.99710528  1
  O  O58  1  0.06856769  0.72450850  0.96857168  1
  O  O59  1  0.86580523  0.71753358  0.24760265  1
  O  O60  1  0.36594090  0.99481824  0.60890264  1
  O  O61  1  0.63569889  0.00785992  0.89242593  1
  O  O62  1  0.92378991  0.28071149  0.53054651  1
  O  O63  1  0.78239911  0.63407254  0.50227100  1
  O  O64  1  0.42152665  0.56143248  0.89107933  1
  O  O65  1  0.56140605  0.78067493  0.71167459  1
  O  O66  1  0.71943864  0.93816077  0.53828390  1
  O  O67  1  0.99554671  0.21708607  0.68325262  1
  O  O68  1  0.77750503  0.41924290  0.78390023  1
  O  O69  1  0.49707620  0.86645617  0.85905143  1
  O  O70  1  0.93049328  0.07500221  0.86251810  1
  O  O71  1  0.71637857  0.49085757  0.93383201  1
  O  O72  1  0.86664585  0.71779678  0.74783704  1
