# generated using pymatgen
data_ZnCuAs
_symmetry_space_group_name_H-M   'P 1'
_cell_length_a   4.17996892
_cell_length_b   16.47976229
_cell_length_c   6.97519181
_cell_angle_alpha   32.16525047
_cell_angle_beta   53.19620513
_cell_angle_gamma   59.52728270
_symmetry_Int_Tables_number   1
_chemical_formula_structural   ZnCuAs
_chemical_formula_sum   'Zn4 Cu4 As4'
_cell_volume   204.81101526
_cell_formula_units_Z   4
loop_
 _symmetry_equiv_pos_site_id
 _symmetry_equiv_pos_as_xyz
  1  'x, y, z'
loop_
 _atom_site_type_symbol
 _atom_site_label
 _atom_site_symmetry_multiplicity
 _atom_site_fract_x
 _atom_site_fract_y
 _atom_site_fract_z
 _atom_site_occupancy
  Zn  Zn0  1  0.94945496  0.02698283  0.91545977  1
  Zn  Zn1  1  0.94945496  0.22301717  0.02339009  1
  Zn  Zn2  1  0.00061958  0.52805174  0.91299431  1
  Zn  Zn3  1  0.00061958  0.72194826  0.02520026  1
  Cu  Cu4  1  0.44034126  0.22480650  0.52861804  1
  Cu  Cu5  1  0.49455005  0.52358443  0.42928110  1
  Cu  Cu6  1  0.49455005  0.72641557  0.52361980  1
  Cu  Cu7  1  0.44034126  0.02519350  0.42784304  1
  As  As8  1  0.20173465  0.97354756  0.27432135  1
  As  As9  1  0.20173465  0.27645244  0.16851260  1
  As  As10  1  0.24659950  0.47411640  0.27044751  1
  As  As11  1  0.24659950  0.77588360  0.16691312  1
