# generated using pymatgen
data_CaZnSiH2O5
_symmetry_space_group_name_H-M   'P 1'
_cell_length_a   8.45597042
_cell_length_b   8.45597042
_cell_length_c   5.45954197
_cell_angle_alpha   85.88420292
_cell_angle_beta   94.11579708
_cell_angle_gamma   35.72596705
_symmetry_Int_Tables_number   1
_chemical_formula_structural   CaZnSiH2O5
_chemical_formula_sum   'Ca2 Zn2 Si2 H4 O10'
_cell_volume   221.61655307
_cell_formula_units_Z   2
loop_
 _symmetry_equiv_pos_site_id
 _symmetry_equiv_pos_as_xyz
  1  'x, y, z'
loop_
 _atom_site_type_symbol
 _atom_site_label
 _atom_site_symmetry_multiplicity
 _atom_site_fract_x
 _atom_site_fract_y
 _atom_site_fract_z
 _atom_site_occupancy
  Ca  Ca0  1  0.77808558  0.07827862  0.14396505  1
  Ca  Ca1  1  0.92172138  0.22191442  0.64396505  1
  Zn  Zn2  1  0.75991260  0.74323180  0.49991615  1
  Zn  Zn3  1  0.25676820  0.24008740  -0.00008385  1
  Si  Si4  1  0.65459719  0.62103110  0.02197299  1
  Si  Si5  1  0.37896890  0.34540281  0.52197299  1
  H  H6  1  0.23869634  0.92716270  0.22897652  1
  H  H7  1  0.07283730  0.76130366  0.72897652  1
  H  H8  1  0.33556995  0.68837903  0.40479099  1
  H  H9  1  0.31162097  0.66443005  0.90479099  1
  O  O10  1  0.18968294  0.89541569  0.36548491  1
  O  O11  1  0.10458431  0.81031706  0.86548491  1
  O  O12  1  0.04671704  0.66823712  0.45371671  1
  O  O13  1  0.33176288  0.95328296  0.95371671  1
  O  O14  1  0.84934383  0.56438803  0.84960264  1
  O  O15  1  0.43561197  0.15065617  0.34960264  1
  O  O16  1  0.78957632  0.52789496  0.32168943  1
  O  O17  1  0.47210504  0.21042368  0.82168943  1
  O  O18  1  0.56305085  0.34601358  0.44988461  1
  O  O19  1  0.65398642  0.43694915  0.94988461  1
