# generated using pymatgen
data_V18Ag2O45
_symmetry_space_group_name_H-M   'P 1'
_cell_length_a   16.63503279
_cell_length_b   13.89879153
_cell_length_c   15.03070225
_cell_angle_alpha   49.09158662
_cell_angle_beta   37.74097444
_cell_angle_gamma   36.98501804
_symmetry_Int_Tables_number   1
_chemical_formula_structural   V18Ag2O45
_chemical_formula_sum   'V18 Ag2 O45'
_cell_volume   1277.16643647
_cell_formula_units_Z   1
loop_
 _symmetry_equiv_pos_site_id
 _symmetry_equiv_pos_as_xyz
  1  'x, y, z'
loop_
 _atom_site_type_symbol
 _atom_site_label
 _atom_site_symmetry_multiplicity
 _atom_site_fract_x
 _atom_site_fract_y
 _atom_site_fract_z
 _atom_site_occupancy
  V  V0  1  0.21436699  0.11874471  0.10142513  1
  V  V1  1  0.49541717  0.21598483  0.07952410  1
  V  V2  1  0.08172557  0.62355497  0.42952801  1
  V  V3  1  0.26477482  0.72820230  0.07771746  1
  V  V4  1  0.07034112  0.25409437  0.92940494  1
  V  V5  1  0.20208106  0.37404727  0.59021334  1
  V  V6  1  0.82268086  0.17400364  0.10282690  1
  V  V7  1  0.43790684  0.62635959  0.43268951  1
  V  V8  1  0.58042170  0.74757382  0.08519050  1
  V  V9  1  0.42662677  0.24643835  0.91541867  1
  V  V10  1  0.59714009  0.41291744  0.56286585  1
  V  V11  1  0.10741321  0.80930246  0.95764861  1
  V  V12  1  0.73535623  0.59453133  0.46094754  1
  V  V13  1  0.93730847  0.71415702  0.08472469  1
  V  V14  1  0.74132321  0.29040368  0.89326711  1
  V  V15  1  0.97353982  0.40357706  0.56021640  1
  V  V16  1  0.52123464  0.78912860  0.89997024  1
  V  V17  1  0.79054268  0.87421101  0.90705244  1
  Ag  Ag18  1  0.63801794  0.00371869  0.51616541  1
  Ag  Ag19  1  0.00552590  0.00165389  0.50597039  1
  O  O20  1  0.99105578  0.00261520  0.01024338  1
  O  O21  1  0.34586308  0.95671908  0.99535271  1
  O  O22  1  0.07729294  0.12984196  0.28033076  1
  O  O23  1  0.10756894  0.22219817  0.52015913  1
  O  O24  1  0.35478685  0.28882682  0.06485021  1
  O  O25  1  0.13665549  0.61830249  0.01390458  1
  O  O26  1  0.65914354  0.01834412  0.03174334  1
  O  O27  1  0.40087029  0.22912074  0.24499053  1
  O  O28  1  0.07513156  0.44765195  0.54220098  1
  O  O29  1  0.21238136  0.60024721  0.24537269  1
  O  O30  1  0.11689381  0.90743994  0.13235428  1
  O  O31  1  0.23337142  0.08657287  0.84940162  1
  O  O32  1  0.39093494  0.20992244  0.53228829  1
  O  O33  1  0.69395944  0.28747043  0.05127664  1
  O  O34  1  0.08798529  0.40354360  0.76571330  1
  O  O35  1  0.19382068  0.55063730  0.47921472  1
  O  O36  1  0.46100719  0.66957481  0.98049689  1
  O  O37  1  0.72408651  0.13783238  0.28219648  1
  O  O38  1  0.27434765  0.25965385  0.97959498  1
  O  O39  1  0.46445600  0.45169673  0.55091250  1
  O  O40  1  0.53967431  0.61848742  0.24422145  1
  O  O41  1  0.94076189  0.71644187  0.96746339  1
  O  O42  1  0.24496582  0.79138494  0.50035004  1
  O  O43  1  0.40899119  0.93962737  0.12027476  1
  O  O44  1  0.59960366  0.05578470  0.88199749  1
  O  O45  1  0.76127882  0.23538706  0.49936088  1
  O  O46  1  0.07453991  0.25782876  0.03731077  1
  O  O47  1  0.47482117  0.37810579  0.76078591  1
  O  O48  1  0.55180995  0.61057443  0.43478786  1
  O  O49  1  0.73670510  0.73049588  0.01612232  1
  O  O50  1  0.20341427  0.82760454  0.78544585  1
  O  O51  1  0.57139983  0.33598481  0.94915374  1
  O  O52  1  0.70180937  0.45762896  0.53670139  1
  O  O53  1  0.82632423  0.64535137  0.26834164  1
  O  O54  1  0.25986078  0.71182013  0.97700558  1
  O  O55  1  0.56157640  0.75693159  0.54651827  1
  O  O56  1  0.88119323  0.89387880  0.06788191  1
  O  O57  1  0.90051058  0.11603995  0.82905721  1
  O  O58  1  0.80647059  0.41869442  0.74667763  1
  O  O59  1  0.88264384  0.52752827  0.47079943  1
  O  O60  1  0.61041247  0.83232155  0.72147761  1
  O  O61  1  0.88628755  0.28554988  0.02834072  1
  O  O62  1  0.64926284  0.69259793  0.94393901  1
  O  O63  1  0.90350766  0.80104457  0.47932617  1
  O  O64  1  0.92701670  0.86648789  0.72769370  1
