# generated using pymatgen
data_K2YTi(PO4)3
_symmetry_space_group_name_H-M   'P 1'
_cell_length_a   10.35428259
_cell_length_b   10.29939176
_cell_length_c   20.60098900
_cell_angle_alpha   90.05537209
_cell_angle_beta   89.98903663
_cell_angle_gamma   89.94116013
_symmetry_Int_Tables_number   1
_chemical_formula_structural   K2YTi(PO4)3
_chemical_formula_sum   'K16 Y8 Ti8 P24 O96'
_cell_volume   2196.94518721
_cell_formula_units_Z   8
loop_
 _symmetry_equiv_pos_site_id
 _symmetry_equiv_pos_as_xyz
  1  'x, y, z'
loop_
 _atom_site_type_symbol
 _atom_site_label
 _atom_site_symmetry_multiplicity
 _atom_site_fract_x
 _atom_site_fract_y
 _atom_site_fract_z
 _atom_site_occupancy
  K  K0  1  0.07622448  0.07087493  0.03090528  1
  K  K1  1  0.06956898  0.07263043  0.53433306  1
  K  K2  1  0.20084467  0.70378372  0.39805204  1
  K  K3  1  0.20000777  0.70423030  0.89741858  1
  K  K4  1  0.30055055  0.30073920  0.14705453  1
  K  K5  1  0.29543800  0.29652147  0.64628688  1
  K  K6  1  0.42531874  0.92841647  0.28127856  1
  K  K7  1  0.42481883  0.93202882  0.78095479  1
  K  K8  1  0.56015845  0.42777608  0.46431828  1
  K  K9  1  0.56550098  0.43425303  0.96604178  1
  K  K10  1  0.70775040  0.80079758  0.10126028  1
  K  K11  1  0.70533970  0.79702914  0.60048835  1
  K  K12  1  0.79257973  0.19952594  0.35185128  1
  K  K13  1  0.79634528  0.19948788  0.85039418  1
  K  K14  1  0.93257052  0.56086162  0.71512322  1
  K  K15  1  0.93401136  0.56485712  0.21477440  1
  Y  Y16  1  0.08130866  0.91438759  0.20642358  1
  Y  Y17  1  0.08381023  0.91532087  0.70878573  1
  Y  Y18  1  0.14481531  0.34965749  0.32589834  1
  Y  Y19  1  0.14488534  0.34765490  0.82436879  1
  Y  Y20  1  0.35655748  0.65408770  0.07484583  1
  Y  Y21  1  0.41686131  0.08331012  0.45546874  1
  Y  Y22  1  0.41790560  0.08698196  0.95659629  1
  Y  Y23  1  0.91134586  0.42093026  0.53864486  1
  Ti  Ti24  1  0.35857848  0.64668011  0.57230695  1
  Ti  Ti25  1  0.58453706  0.58682195  0.29028134  1
  Ti  Ti26  1  0.58485828  0.58435729  0.79203083  1
  Ti  Ti27  1  0.64904446  0.14539519  0.17841298  1
  Ti  Ti28  1  0.64669953  0.13927650  0.67687473  1
  Ti  Ti29  1  0.85357765  0.85084202  0.42863348  1
  Ti  Ti30  1  0.85149462  0.85567916  0.92804590  1
  Ti  Ti31  1  0.91359768  0.41403945  0.04146034  1
  P  P32  1  0.02721779  0.72622994  0.05618910  1
  P  P33  1  0.04654684  0.73744963  0.55881228  1
  P  P34  1  0.10914416  0.03311158  0.37083754  1
  P  P35  1  0.11478204  0.03092741  0.87301882  1
  P  P36  1  0.24191596  0.38567281  0.48425141  1
  P  P37  1  0.22097502  0.37910449  0.98476356  1
  P  P38  1  0.27742847  0.62394120  0.23500803  1
  P  P39  1  0.28086759  0.62460187  0.72865509  1
  P  P40  1  0.38800012  0.97053888  0.12133467  1
  P  P41  1  0.38316881  0.95922404  0.61784795  1
  P  P42  1  0.47263699  0.27366470  0.30621685  1
  P  P43  1  0.47217632  0.27173553  0.80590112  1
  P  P44  1  0.54375331  0.76564401  0.93051938  1
  P  P45  1  0.54278956  0.75499692  0.43563445  1
  P  P46  1  0.63557247  0.45704776  0.13620621  1
  P  P47  1  0.61790061  0.46057078  0.63781404  1
  P  P48  1  0.74076704  0.12861608  0.02181458  1
  P  P49  1  0.73873896  0.11590470  0.52103026  1
  P  P50  1  0.75675113  0.87309275  0.27314493  1
  P  P51  1  0.75994906  0.86996532  0.77181874  1
  P  P52  1  0.85944713  0.54738525  0.37984603  1
  P  P53  1  0.86467814  0.54444032  0.88653323  1
  P  P54  1  0.95694650  0.23571838  0.18091488  1
  P  P55  1  0.95061038  0.23030890  0.68497370  1
  O  O56  1  0.00785287  0.10062711  0.16330220  1
  O  O57  1  0.00217441  0.09571253  0.66723318  1
  O  O58  1  0.00064252  0.94085584  0.39719226  1
  O  O59  1  0.00667321  0.93722230  0.89962228  1
  O  O60  1  0.00886548  0.79473773  0.12181259  1
  O  O61  1  0.02234212  0.83257129  0.61462409  1
  O  O62  1  0.03406045  0.29899179  0.23629721  1
  O  O63  1  0.01570650  0.28491931  0.74605544  1
  O  O64  1  0.05784418  0.17335127  0.37510224  1
  O  O65  1  0.06412673  0.17122986  0.87830253  1
  O  O66  1  0.07356839  0.36476856  0.00274580  1
  O  O67  1  0.10419519  0.35282885  0.50523311  1
  O  O68  1  0.14083239  0.99411345  0.30107192  1
  O  O69  1  0.14668562  0.99451370  0.80287962  1
  O  O70  1  0.21279906  0.75716368  0.24259905  1
  O  O71  1  0.16713169  0.73575678  0.03182552  1
  O  O72  1  0.20989920  0.75114406  0.74476639  1
  O  O73  1  0.19416763  0.73486271  0.54124473  1
  O  O74  1  0.21105831  0.53065557  0.28176798  1
  O  O75  1  0.21219188  0.51102912  0.76180856  1
  O  O76  1  0.24640240  0.43499293  0.41368318  1
  O  O77  1  0.23126288  0.43227660  0.91491099  1
  O  O78  1  0.22760445  0.01257426  0.41465288  1
  O  O79  1  0.23289251  0.00652763  0.91618156  1
  O  O80  1  0.27089682  0.98389875  0.66466617  1
  O  O81  1  0.26693371  0.99199790  0.16300852  1
  O  O82  1  0.26927231  0.57242134  0.16506809  1
  O  O83  1  0.27805141  0.59752351  0.65390967  1
  O  O84  1  0.28762058  0.47022897  0.03271954  1
  O  O85  1  0.29587069  0.49593506  0.52987171  1
  O  O86  1  0.33201215  0.26465063  0.28276037  1
  O  O87  1  0.33289754  0.26985700  0.49472286  1
  O  O88  1  0.33156255  0.26197442  0.78268424  1
  O  O89  1  0.28437160  0.24494167  0.99180756  1
  O  O90  1  0.35048665  0.01092883  0.55042746  1
  O  O91  1  0.35985166  0.00606632  0.05072774  1
  O  O92  1  0.42402797  0.63963152  0.25389315  1
  O  O93  1  0.42285578  0.63873009  0.75270286  1
  O  O94  1  0.44139358  0.83093507  0.12662334  1
  O  O95  1  0.42168787  0.81239896  0.61420601  1
  O  O96  1  0.46452812  0.69434118  0.49338971  1
  O  O97  1  0.46781606  0.70148949  0.98588070  1
  O  O98  1  0.49268977  0.20130365  0.37056088  1
  O  O99  1  0.49313004  0.20198742  0.87076713  1
  O  O100  1  0.49308511  0.06604851  0.14922846  1
  O  O101  1  0.50067408  0.03603358  0.64705732  1
  O  O102  1  0.49255952  0.90047664  0.91299522  1
  O  O103  1  0.48789420  0.88865456  0.41757017  1
  O  O104  1  0.51573843  0.41754964  0.31425953  1
  O  O105  1  0.51319161  0.41648003  0.81495835  1
  O  O106  1  0.53121524  0.53536410  0.10097787  1
  O  O107  1  0.50788926  0.54101320  0.60518220  1
  O  O108  1  0.52638024  0.67375294  0.87094881  1
  O  O109  1  0.52650678  0.66086005  0.37701197  1
  O  O110  1  0.56572027  0.20746683  0.25654672  1
  O  O111  1  0.56155632  0.20416448  0.75503955  1
  O  O112  1  0.59403809  0.31109201  0.13786589  1
  O  O113  1  0.58063899  0.31366419  0.63693357  1
  O  O114  1  0.60421611  0.14867292  0.49567560  1
  O  O115  1  0.60695504  0.16375444  0.99561201  1
  O  O116  1  0.65766559  0.51167953  0.20583639  1
  O  O117  1  0.64198973  0.51022882  0.70859739  1
  O  O118  1  0.66129557  0.75645072  0.26661847  1
  O  O119  1  0.66899083  0.75000514  0.76522277  1
  O  O120  1  0.68714387  0.76390267  0.45686059  1
  O  O121  1  0.68812485  0.77383888  0.95239321  1
  O  O122  1  0.69775627  0.98491240  0.23093011  1
  O  O123  1  0.69883609  0.98120989  0.73035771  1
  O  O124  1  0.73454215  0.08372972  0.09404969  1
  O  O125  1  0.73392181  0.08312422  0.59513911  1
  O  O126  1  0.76201784  0.47129168  0.09584967  1
  O  O127  1  0.74102930  0.48687415  0.59861921  1
  O  O128  1  0.74462016  0.53606732  0.33187977  1
  O  O129  1  0.73995034  0.52900990  0.84453383  1
  O  O130  1  0.76304787  0.91675810  0.34570725  1
  O  O131  1  0.76724519  0.91622032  0.84394090  1
  O  O132  1  0.79496986  0.99409916  0.48488000  1
  O  O133  1  0.80282687  0.01858235  0.97975102  1
  O  O134  1  0.82984345  0.25010585  0.01484853  1
  O  O135  1  0.83102882  0.22874526  0.50742641  1
  O  O136  1  0.81253247  0.22736993  0.20295911  1
  O  O137  1  0.80227717  0.22286433  0.70181394  1
  O  O138  1  0.81896753  0.49572652  0.44659652  1
  O  O139  1  0.83887917  0.49006870  0.95583837  1
  O  O140  1  0.88979285  0.83537784  0.24632118  1
  O  O141  1  0.89316853  0.83289823  0.74511219  1
  O  O142  1  0.90257466  0.69260032  0.38320164  1
  O  O143  1  0.90538326  0.69094178  0.88827516  1
  O  O144  1  0.93351305  0.79380855  0.00742408  1
  O  O145  1  0.96685463  0.78818189  0.49937340  1
  O  O146  1  0.97346216  0.32704841  0.12113352  1
  O  O147  1  0.97350703  0.32466374  0.62906855  1
  O  O148  1  0.97041540  0.46804262  0.35066926  1
  O  O149  1  0.97301604  0.47002779  0.85220433  1
  O  O150  1  0.98441945  0.58212064  0.06358271  1
  O  O151  1  0.99752359  0.60257621  0.57710664  1
