# generated using pymatgen
data_TlGaSe2
_symmetry_space_group_name_H-M   'P 1'
_cell_length_a   7.75384027
_cell_length_b   7.75384059
_cell_length_c   15.89755647
_cell_angle_alpha   82.87835923
_cell_angle_beta   82.87835896
_cell_angle_gamma   89.99213800
_symmetry_Int_Tables_number   1
_chemical_formula_structural   TlGaSe2
_chemical_formula_sum   'Tl8 Ga8 Se16'
_cell_volume   940.99025938
_cell_formula_units_Z   8
loop_
 _symmetry_equiv_pos_site_id
 _symmetry_equiv_pos_as_xyz
  1  'x, y, z'
loop_
 _atom_site_type_symbol
 _atom_site_label
 _atom_site_symmetry_multiplicity
 _atom_site_fract_x
 _atom_site_fract_y
 _atom_site_fract_z
 _atom_site_occupancy
  Tl  Tl0  1  0.17936152  0.30503083  0.76056757  1
  Tl  Tl1  1  0.29634489  0.67609199  0.27051911  1
  Tl  Tl2  1  0.86932442  0.74932148  0.99375827  1
  Tl  Tl3  1  0.74708414  0.37236179  0.48654862  1
  Tl  Tl4  1  0.30503083  0.17936152  0.26056757  1
  Tl  Tl5  1  0.67609199  0.29634489  0.77051911  1
  Tl  Tl6  1  0.37236179  0.74708414  0.98654862  1
  Tl  Tl7  1  0.74932148  0.86932442  0.49375827  1
  Ga  Ga8  1  0.81659451  0.44417684  0.21350605  1
  Ga  Ga9  1  0.94415919  0.81725711  0.71391227  1
  Ga  Ga10  1  0.23658863  0.61693613  0.53888292  1
  Ga  Ga11  1  0.23719376  0.10848618  0.53770440  1
  Ga  Ga12  1  0.10848618  0.23719376  0.03770440  1
  Ga  Ga13  1  0.61693613  0.23658863  0.03888292  1
  Ga  Ga14  1  0.44417684  0.81659451  0.71350605  1
  Ga  Ga15  1  0.81725711  0.94415919  0.21391227  1
  Se  Se16  1  0.88625678  0.25955296  0.94135023  1
  Se  Se17  1  0.17066364  0.79155765  0.80798055  1
  Se  Se18  1  0.66951769  0.80076779  0.80891713  1
  Se  Se19  1  0.95340103  0.09837183  0.62455529  1
  Se  Se20  1  0.47804225  0.58026976  0.62481979  1
  Se  Se21  1  0.95267230  0.57971602  0.62595671  1
  Se  Se22  1  0.38708704  0.26555455  0.94592196  1
  Se  Se23  1  0.80076779  0.66951769  0.30891713  1
  Se  Se24  1  0.09803226  0.47742301  0.12419911  1
  Se  Se25  1  0.47742301  0.09803226  0.62419911  1
  Se  Se26  1  0.26555455  0.38708704  0.44592196  1
  Se  Se27  1  0.58026976  0.47804225  0.12481979  1
  Se  Se28  1  0.09837183  0.95340103  0.12455529  1
  Se  Se29  1  0.79155765  0.17066364  0.30798055  1
  Se  Se30  1  0.25955296  0.88625678  0.44135023  1
  Se  Se31  1  0.57971602  0.95267230  0.12595671  1
