# generated using pymatgen
data_US2
_symmetry_space_group_name_H-M   'P 1'
_cell_length_a   5.19894957
_cell_length_b   7.89448022
_cell_length_c   7.89448003
_cell_angle_alpha   83.89981669
_cell_angle_beta   70.92536509
_cell_angle_gamma   70.92537051
_symmetry_Int_Tables_number   1
_chemical_formula_structural   US2
_chemical_formula_sum   'U5 S10'
_cell_volume   289.40919994
_cell_formula_units_Z   5
loop_
 _symmetry_equiv_pos_site_id
 _symmetry_equiv_pos_as_xyz
  1  'x, y, z'
loop_
 _atom_site_type_symbol
 _atom_site_label
 _atom_site_symmetry_multiplicity
 _atom_site_fract_x
 _atom_site_fract_y
 _atom_site_fract_z
 _atom_site_occupancy
  U  U0  1  0.16369604  0.50049575  0.17496763  1
  U  U1  1  0.75000000  0.99966070  0.00033930  1
  U  U2  1  0.33630396  0.82503237  0.49950425  1
  U  U3  1  0.66443536  0.17582744  0.50032384  1
  U  U4  1  0.83556464  0.49967616  0.82417256  1
  S  S5  1  0.07509229  0.13769739  0.69948045  1
  S  S6  1  0.28980951  0.13821063  0.30017355  1
  S  S7  1  0.25000000  0.49936062  0.50063938  1
  S  S8  1  0.21019049  0.69982645  0.86178937  1
  S  S9  1  0.42490771  0.30051955  0.86230261  1
  S  S10  1  0.58341214  0.69899936  0.13778192  1
  S  S11  1  0.78868709  0.29742613  0.13615485  1
  S  S12  1  0.75000000  0.50120423  0.49879577  1
  S  S13  1  0.71131291  0.86384515  0.70257387  1
  S  S14  1  0.91658786  0.86221808  0.30100064  1
