# generated using pymatgen
data_Li19Ni23O42
_symmetry_space_group_name_H-M   'P 1'
_cell_length_a   15.15833015
_cell_length_b   39.80588344
_cell_length_c   9.70638828
_cell_angle_alpha   15.25485940
_cell_angle_beta   29.28837751
_cell_angle_gamma   29.36836185
_symmetry_Int_Tables_number   1
_chemical_formula_structural   Li19Ni23O42
_chemical_formula_sum   'Li19 Ni23 O42'
_cell_volume   733.03129310
_cell_formula_units_Z   1
loop_
 _symmetry_equiv_pos_site_id
 _symmetry_equiv_pos_as_xyz
  1  'x, y, z'
loop_
 _atom_site_type_symbol
 _atom_site_label
 _atom_site_symmetry_multiplicity
 _atom_site_fract_x
 _atom_site_fract_y
 _atom_site_fract_z
 _atom_site_occupancy
  Li  Li0  1  0.12089648  0.14008035  0.50868439  1
  Li  Li1  1  0.50087586  0.99769467  0.50843374  1
  Li  Li2  1  0.06959364  0.28834584  0.49192612  1
  Li  Li3  1  0.45662259  0.14395551  0.48967019  1
  Li  Li4  1  0.83400132  0.99909227  0.50297726  1
  Li  Li5  1  0.40707216  0.28553403  0.49816097  1
  Li  Li6  1  0.78343514  0.14280093  0.50285753  1
  Li  Li7  1  0.35645655  0.42946219  0.49708177  1
  Li  Li8  1  0.73392335  0.28442287  0.51086071  1
  Li  Li9  1  0.31431430  0.57248255  0.48920158  1
  Li  Li10  1  0.68964077  0.43078785  0.49193093  1
  Li  Li11  1  0.26314297  0.71200597  0.50772738  1
  Li  Li12  1  0.64057496  0.57191683  0.50146662  1
  Li  Li13  1  0.21430683  0.85548703  0.50667121  1
  Li  Li14  1  0.59519786  0.71438789  0.49966695  1
  Li  Li15  1  0.97609613  0.57320660  0.49296591  1
  Li  Li16  1  0.54982121  0.85680072  0.49797336  1
  Li  Li17  1  0.92732878  0.71674970  0.49150231  1
  Li  Li18  1  0.87606583  0.85625540  0.51041078  1
  Ni  Ni19  1  0.00082050  0.99915848  0.00355202  1
  Ni  Ni20  1  0.33263837  0.99953766  0.00156485  1
  Ni  Ni21  1  0.16779786  -0.00004465  0.49819648  1
  Ni  Ni22  1  0.28879506  0.14360807  0.99304128  1
  Ni  Ni23  1  0.66691556  0.99878549  0.00326769  1
  Ni  Ni24  1  0.24168524  0.28617459  0.99450599  1
  Ni  Ni25  1  0.61956313  0.14293871  0.99897378  1
  Ni  Ni26  1  0.18974618  0.42941674  0.99641265  1
  Ni  Ni27  1  0.57090586  0.28571656  0.00068921  1
  Ni  Ni28  1  0.94871136  0.14241514  0.00553253  1
  Ni  Ni29  1  0.02263642  0.42856320  0.50206978  1
  Ni  Ni30  1  0.14510088  0.57183513  0.99540722  1
  Ni  Ni31  1  0.52358315  0.42978007  0.99665126  1
  Ni  Ni32  1  0.90160634  0.28488472  0.00740229  1
  Ni  Ni33  1  0.09544795  0.71417047  0.00010753  1
  Ni  Ni34  1  0.47550940  0.57081604  0.00513801  1
  Ni  Ni35  1  0.85775595  0.42907163  0.99832125  1
  Ni  Ni36  1  0.04536536  0.85674278  0.00461201  1
  Ni  Ni37  1  0.42973584  0.71565560  0.99306771  1
  Ni  Ni38  1  0.80693090  0.57102391  0.00419159  1
  Ni  Ni39  1  0.38339654  0.85747791  0.99615141  1
  Ni  Ni40  1  0.76067742  0.71286522  0.00711793  1
  Ni  Ni41  1  0.71488672  0.85776173  0.99500492  1
  O  O42  1  0.07244010  0.00490256  0.25770511  1
  O  O43  1  0.05336567  0.13984444  0.24185269  1
  O  O44  1  0.41494053  0.00011926  0.25212997  1
  O  O45  1  0.37584501  0.15012397  0.22743259  1
  O  O46  1  0.74620971  0.99363220  0.29065404  1
  O  O47  1  0.18524579  0.13988168  0.78006687  1
  O  O48  1  0.33121392  0.27953625  0.27659795  1
  O  O49  1  0.71342616  0.14301741  0.24289455  1
  O  O50  1  0.13719887  0.28881752  0.75780202  1
  O  O51  1  0.52824562  0.15021264  0.71725191  1
  O  O52  1  0.27069622  0.43206219  0.24099235  1
  O  O53  1  0.66214988  0.27841322  0.28257920  1
  O  O54  1  0.11789225  0.42395924  0.74129425  1
  O  O55  1  0.47687677  0.28571315  0.75676487  1
  O  O56  1  0.85914048  0.14916415  0.72300256  1
  O  O57  1  0.21565291  0.57975555  0.24252956  1
  O  O58  1  0.59707903  0.42616080  0.29007841  1
  O  O59  1  0.04011654  0.56779406  0.78573765  1
  O  O60  1  0.00505390  0.28883690  0.21963939  1
  O  O61  1  0.44440074  0.43489279  0.70935805  1
  O  O62  1  0.81442321  0.27860128  0.77227400  1
  O  O63  1  0.19216326  0.71401962  0.24565386  1
  O  O64  1  0.57398630  0.57189390  0.23827703  1
  O  O65  1  0.99843303  0.71422355  0.75559851  1
  O  O66  1  0.93218431  0.42223751  0.29914675  1
  O  O67  1  0.39661242  0.58069602  0.69629518  1
  O  O68  1  0.77554077  0.42848480  0.74768512  1
  O  O69  1  0.15045525  0.86071615  0.21442824  1
  O  O70  1  0.52052190  0.70810714  0.28065322  1
  O  O71  1  0.89701978  0.56830344  0.25653683  1
  O  O72  1  0.33654269  0.70866760  0.77068069  1
  O  O73  1  0.73087748  0.57876046  0.70311695  1
  O  O74  1  0.45959024  0.84974548  0.29713243  1
  O  O75  1  0.85413125  0.71967713  0.22979359  1
  O  O76  1  0.29352458  0.86025199  0.74342363  1
  O  O77  1  0.67008901  0.72036264  0.71955944  1
  O  O78  1  0.79396264  0.84783851  0.30370162  1
  O  O79  1  0.25850347  0.00638944  0.70027992  1
  O  O80  1  0.61664786  0.85661883  0.76171768  1
  O  O81  1  0.59331371  0.00246503  0.70982238  1
  O  O82  1  0.97508885  0.84863246  0.75785313  1
  O  O83  1  0.91961920  0.99664264  0.75885674  1
