# generated using pymatgen
data_Sr6Mg7H26
_symmetry_space_group_name_H-M   'P 1'
_cell_length_a   9.69156548
_cell_length_b   9.55491883
_cell_length_c   9.69156548
_cell_angle_alpha   83.91762164
_cell_angle_beta   146.19129655
_cell_angle_gamma   106.10965947
_symmetry_Int_Tables_number   1
_chemical_formula_structural   Sr6Mg7H26
_chemical_formula_sum   'Sr6 Mg7 H26'
_cell_volume   466.54371859
_cell_formula_units_Z   1
loop_
 _symmetry_equiv_pos_site_id
 _symmetry_equiv_pos_as_xyz
  1  'x, y, z'
loop_
 _atom_site_type_symbol
 _atom_site_label
 _atom_site_symmetry_multiplicity
 _atom_site_fract_x
 _atom_site_fract_y
 _atom_site_fract_z
 _atom_site_occupancy
  Sr  Sr0  1  0.26280321  0.61833709  0.35553388  1
  Sr  Sr1  1  0.73719679  0.38166291  0.64446612  1
  Sr  Sr2  1  0.25575989  0.91367150  0.65791161  1
  Sr  Sr3  1  0.74424011  0.08632850  0.34208839  1
  Sr  Sr4  1  0.50294357  0.35272344  0.84977987  1
  Sr  Sr5  1  0.49705643  0.64727656  0.15022013  1
  Mg  Mg6  1  0.01267091  0.23393611  0.22126520  1
  Mg  Mg7  1  0.98732909  0.76606389  0.77873480  1
  Mg  Mg8  1  0.26304177  0.24992090  0.98687913  1
  Mg  Mg9  1  0.73695823  0.75007910  0.01312087  1
  Mg  Mg10  1  0.74307742  0.00000000  0.74307742  1
  Mg  Mg11  1  0.25692258  0.00000000  0.25692258  1
  Mg  Mg12  1  0.00000000  0.50000000  0.50000000  1
  H  H13  1  0.88100595  0.36975858  0.00013919  1
  H  H14  1  0.63038060  0.63024142  0.51124737  1
  H  H15  1  0.11899405  0.63024142  -0.00013919  1
  H  H16  1  0.36961940  0.36975858  0.48875263  1
  H  H17  1  0.87094319  0.85836023  0.51779498  1
  H  H18  1  0.65943475  0.14163977  0.01258296  1
  H  H19  1  0.12905681  0.14163977  0.48220502  1
  H  H20  1  0.34056525  0.85836023  0.98741704  1
  H  H21  1  0.13769980  0.35858036  0.71941740  1
  H  H22  1  0.36083703  0.64141964  0.77911944  1
  H  H23  1  0.86230020  0.64141964  0.28058260  1
  H  H24  1  0.63916297  0.35858036  0.22088056  1
  H  H25  1  0.89028204  0.15852864  0.71375220  1
  H  H26  1  0.55522356  0.84147136  0.73175340  1
  H  H27  1  0.10971796  0.84147136  0.28624780  1
  H  H28  1  0.44477644  0.15852864  0.26824660  1
  H  H29  1  0.28682660  0.40418579  0.11735918  1
  H  H30  1  0.71317340  0.59581421  0.88264082  1
  H  H31  1  0.27622030  0.12969834  0.85347804  1
  H  H32  1  0.72377970  0.87030166  0.14652196  1
  H  H33  1  0.51295740  0.10640874  0.59345134  1
  H  H34  1  0.48704260  0.89359126  0.40654866  1
  H  H35  1  0.00544210  0.09325799  0.08781589  1
  H  H36  1  0.99455790  0.90674201  0.91218411  1
  H  H37  1  0.04258336  0.41326487  0.37068151  1
  H  H38  1  0.95741664  0.58673513  0.62931849  1
