# generated using pymatgen
data_Ge3Ru2
_symmetry_space_group_name_H-M   'P 1'
_cell_length_a   5.78688506
_cell_length_b   5.78688506
_cell_length_c   9.35456531
_cell_angle_alpha   90.00000000
_cell_angle_beta   90.00000000
_cell_angle_gamma   90.00000000
_symmetry_Int_Tables_number   1
_chemical_formula_structural   Ge3Ru2
_chemical_formula_sum   'Ge12 Ru8'
_cell_volume   313.26604510
_cell_formula_units_Z   4
loop_
 _symmetry_equiv_pos_site_id
 _symmetry_equiv_pos_as_xyz
  1  'x, y, z'
loop_
 _atom_site_type_symbol
 _atom_site_label
 _atom_site_symmetry_multiplicity
 _atom_site_fract_x
 _atom_site_fract_y
 _atom_site_fract_z
 _atom_site_occupancy
  Ge  Ge0  1  0.17458685  0.17458685  0.75000000  1
  Ge  Ge1  1  0.82541315  0.82541315  0.75000000  1
  Ge  Ge2  1  0.17458685  0.82541315  0.25000000  1
  Ge  Ge3  1  0.82541315  0.17458685  0.25000000  1
  Ge  Ge4  1  0.34750194  0.21901938  0.41513929  1
  Ge  Ge5  1  0.65249806  0.78098062  0.41513929  1
  Ge  Ge6  1  0.34750194  0.78098062  0.91513929  1
  Ge  Ge7  1  0.65249806  0.21901938  0.91513929  1
  Ge  Ge8  1  0.21901938  0.65249806  0.58486071  1
  Ge  Ge9  1  0.78098062  0.34750194  0.58486071  1
  Ge  Ge10  1  0.78098062  0.65249806  0.08486071  1
  Ge  Ge11  1  0.21901938  0.34750194  0.08486071  1
  Ru  Ru12  1  0.50000000  0.50000000  0.25000000  1
  Ru  Ru13  1  0.50000000  0.50000000  0.75000000  1
  Ru  Ru14  1  0.00000000  0.00000000  0.50000000  1
  Ru  Ru15  1  0.00000000  0.00000000  -0.00000000  1
  Ru  Ru16  1  0.50000000  0.00000000  0.12360846  1
  Ru  Ru17  1  0.50000000  -0.00000000  0.62360846  1
  Ru  Ru18  1  0.00000000  0.50000000  0.87639154  1
  Ru  Ru19  1  0.00000000  0.50000000  0.37639154  1
