# generated using pymatgen
data_Mg3In
_symmetry_space_group_name_H-M   'P 1'
_cell_length_a   11.17692303
_cell_length_b   11.17692303
_cell_length_c   11.17692309
_cell_angle_alpha   32.78025478
_cell_angle_beta   32.78025478
_cell_angle_gamma   32.78025317
_symmetry_Int_Tables_number   1
_chemical_formula_structural   Mg3In
_chemical_formula_sum   'Mg12 In4'
_cell_volume   364.10513940
_cell_formula_units_Z   4
loop_
 _symmetry_equiv_pos_site_id
 _symmetry_equiv_pos_as_xyz
  1  'x, y, z'
loop_
 _atom_site_type_symbol
 _atom_site_label
 _atom_site_symmetry_multiplicity
 _atom_site_fract_x
 _atom_site_fract_y
 _atom_site_fract_z
 _atom_site_occupancy
  Mg  Mg0  1  0.99995174  0.49991215  0.49991215  1
  Mg  Mg1  1  0.49991215  0.49991215  0.99995174  1
  Mg  Mg2  1  0.49991215  0.99995174  0.49991215  1
  Mg  Mg3  1  0.41657094  0.91645896  0.91645896  1
  Mg  Mg4  1  0.91645896  0.91645896  0.41657094  1
  Mg  Mg5  1  0.91645896  0.41657094  0.91645896  1
  Mg  Mg6  1  0.83342906  0.33354104  0.33354104  1
  Mg  Mg7  1  0.33354104  0.33354104  0.83342906  1
  Mg  Mg8  1  0.33354104  0.83342906  0.33354104  1
  Mg  Mg9  1  0.25004826  0.75008785  0.75008785  1
  Mg  Mg10  1  0.75008785  0.75008785  0.25004826  1
  Mg  Mg11  1  0.75008785  0.25004826  0.75008785  1
  In  In12  1  0.99982043  0.99982043  0.99982043  1
  In  In13  1  0.25017957  0.25017957  0.25017957  1
  In  In14  1  0.41656583  0.41656583  0.41656583  1
  In  In15  1  0.83343417  0.83343417  0.83343417  1
