# generated using pymatgen
data_Na6U2Mo4O21
_symmetry_space_group_name_H-M   'P 1'
_cell_length_a   7.79274859
_cell_length_b   8.30857131
_cell_length_c   8.86754765
_cell_angle_alpha   72.07962935
_cell_angle_beta   78.62572004
_cell_angle_gamma   65.39777635
_symmetry_Int_Tables_number   1
_chemical_formula_structural   Na6U2Mo4O21
_chemical_formula_sum   'Na6 U2 Mo4 O21'
_cell_volume   495.10909142
_cell_formula_units_Z   1
loop_
 _symmetry_equiv_pos_site_id
 _symmetry_equiv_pos_as_xyz
  1  'x, y, z'
loop_
 _atom_site_type_symbol
 _atom_site_label
 _atom_site_symmetry_multiplicity
 _atom_site_fract_x
 _atom_site_fract_y
 _atom_site_fract_z
 _atom_site_occupancy
  Na  Na0  1  0.72924056  0.90428427  0.34524959  1
  Na  Na1  1  0.54694401  0.59938583  0.65116413  1
  Na  Na2  1  0.05441135  0.75487299  0.01052640  1
  Na  Na3  1  0.45305599  0.40061417  0.34883587  1
  Na  Na4  1  0.94558865  0.24512701  0.98947360  1
  Na  Na5  1  0.27075944  0.09571573  0.65475041  1
  U  U6  1  0.21359100  0.92221205  0.31488249  1
  U  U7  1  0.78640900  0.07778795  0.68511751  1
  Mo  Mo8  1  0.44424426  0.24891200  0.01627058  1
  Mo  Mo9  1  0.93924576  0.41390710  0.35499781  1
  Mo  Mo10  1  0.55575574  0.75108800  0.98372942  1
  Mo  Mo11  1  0.06075424  0.58609290  0.64500219  1
  O  O12  1  0.39450560  0.92909283  0.42069045  1
  O  O13  1  0.67373400  0.91571928  0.92528880  1
  O  O14  1  0.60549440  0.07090717  0.57930955  1
  O  O15  1  0.15306850  0.35943260  0.44225617  1
  O  O16  1  0.61822116  0.17967411  0.15095590  1
  O  O17  1  0.74655214  0.36520330  0.49841373  1
  O  O18  1  0.28002662  0.45813137  0.05136136  1
  O  O19  1  0.55144239  0.29679204  0.81033001  1
  O  O20  1  0.44855761  0.70320796  0.18966999  1
  O  O21  1  0.25344786  0.63479670  0.50158627  1
  O  O22  1  0.99510733  0.74010335  0.76899612  1
  O  O23  1  0.95757746  0.09129089  0.79646480  1
  O  O24  1  0.38177884  0.82032589  0.84904410  1
  O  O25  1  0.00000000  0.00000000  0.50000000  1
  O  O26  1  0.32626600  0.08428072  0.07471120  1
  O  O27  1  0.84693150  0.64056740  0.55774383  1
  O  O28  1  0.04242254  0.90870911  0.20353520  1
  O  O29  1  0.85714767  0.63810312  0.22845542  1
  O  O30  1  0.00489267  0.25989665  0.23100388  1
  O  O31  1  0.14285233  0.36189688  0.77154458  1
  O  O32  1  0.71997338  0.54186863  0.94863864  1
