# generated using pymatgen
data_Mo4P5O24
_symmetry_space_group_name_H-M   'P 1'
_cell_length_a   8.51088225
_cell_length_b   9.73861744
_cell_length_c   14.09961418
_cell_angle_alpha   86.77167902
_cell_angle_beta   72.43330645
_cell_angle_gamma   64.08751272
_symmetry_Int_Tables_number   1
_chemical_formula_structural   Mo4P5O24
_chemical_formula_sum   'Mo8 P10 O48'
_cell_volume   998.22543668
_cell_formula_units_Z   2
loop_
 _symmetry_equiv_pos_site_id
 _symmetry_equiv_pos_as_xyz
  1  'x, y, z'
loop_
 _atom_site_type_symbol
 _atom_site_label
 _atom_site_symmetry_multiplicity
 _atom_site_fract_x
 _atom_site_fract_y
 _atom_site_fract_z
 _atom_site_occupancy
  Mo  Mo0  1  0.65415437  0.99680160  0.81710933  1
  Mo  Mo1  1  0.91967937  0.28785782  0.98178733  1
  Mo  Mo2  1  0.81067360  0.78787293  0.48177074  1
  Mo  Mo3  1  0.46629263  0.50237180  0.68265332  1
  Mo  Mo4  1  0.53191776  0.49677717  0.31712670  1
  Mo  Mo5  1  0.19102015  0.21425455  0.51539925  1
  Mo  Mo6  1  0.07935133  0.71421431  0.01537754  1
  Mo  Mo7  1  0.34870994  0.00234952  0.18265841  1
  P  P8  1  0.84595912  0.24983013  0.74928741  1
  P  P9  1  0.80163303  0.45172098  0.46084116  1
  P  P10  1  0.28583224  0.95167775  0.96082596  1
  P  P11  1  0.71709425  0.62385360  0.10256215  1
  P  P12  1  0.44111223  0.87502306  0.39732508  1
  P  P13  1  0.28650917  0.37500838  0.89729056  1
  P  P14  1  0.55657914  0.12387948  0.60251275  1
  P  P15  1  0.71572199  0.04888814  0.03932123  1
  P  P16  1  0.19603006  0.54890028  0.53933710  1
  P  P17  1  0.15495885  0.74979624  0.24927233  1
  O  O18  1  0.71181801  0.98265786  0.94284950  1
  O  O19  1  0.82252023  0.82259101  0.76285653  1
  O  O20  1  0.98841627  0.79549754  0.34305717  1
  O  O21  1  0.87296833  0.29553407  0.84308819  1
  O  O22  1  0.87268466  0.93286759  0.07405925  1
  O  O23  1  0.68874112  0.76100865  0.59507271  1
  O  O24  1  0.87128806  0.57580873  0.42764499  1
  O  O25  1  0.46954385  0.92074587  0.87839384  1
  O  O26  1  0.94931669  0.30175009  0.47630353  1
  O  O27  1  0.61588735  0.86655506  0.41833234  1
  O  O28  1  0.90377178  0.62275771  0.08243712  1
  O  O29  1  0.79925665  0.11005758  0.76827550  1
  O  O30  1  0.67498863  0.38930131  0.73257325  1
  O  O31  1  0.27265587  0.80170630  0.97624081  1
  O  O32  1  0.63447684  0.52025161  0.55706639  1
  O  O33  1  0.73131416  0.42076727  0.37840864  1
  O  O34  1  0.95524457  0.26095529  0.09507402  1
  O  O35  1  0.40890108  0.67580749  0.73646091  1
  O  O36  1  0.45609938  0.93720734  0.29081525  1
  O  O37  1  0.68011902  0.55970962  0.20711318  1
  O  O38  1  0.27498858  0.48769296  0.97382829  1
  O  O39  1  0.44941286  0.71747726  0.39428611  1
  O  O40  1  0.56139634  0.77772465  0.10181818  1
  O  O41  1  0.73772187  0.00389355  0.52313898  1
  O  O42  1  0.73526061  0.50387587  0.02320165  1
  O  O43  1  0.55918113  0.27772808  0.60179447  1
  O  O44  1  0.43876957  0.21744475  0.89426399  1
  O  O45  1  0.26343802  0.98772147  0.47388312  1
  O  O46  1  0.55312322  0.05969523  0.70705550  1
  O  O47  1  0.31590474  0.43714013  0.79076725  1
  O  O48  1  0.04553187  0.73821437  0.90149532  1
  O  O49  1  0.59208374  0.32254965  0.26288283  1
  O  O50  1  0.26652849  0.58528076  0.61971256  1
  O  O51  1  0.73650491  0.19905854  0.01878068  1
  O  O52  1  0.36266852  0.48263063  0.44287388  1
  O  O53  1  0.20321312  0.88923659  0.23257976  1
  O  O54  1  0.32241607  0.60999281  0.26828408  1
  O  O55  1  0.39109800  0.12283003  0.58238691  1
  O  O56  1  0.09918247  0.36657191  0.91831950  1
  O  O57  1  0.04565547  0.69907716  0.51876795  1
  O  O58  1  0.52846653  0.08526212  0.11970222  1
  O  O59  1  0.12527531  0.07579811  0.92763436  1
  O  O60  1  0.12031456  0.43291107  0.57408784  1
  O  O61  1  0.31463961  0.23826363  0.40149959  1
  O  O62  1  0.12584991  0.70571980  0.15718794  1
  O  O63  1  0.01127167  0.20575224  0.65722469  1
  O  O64  1  0.17879889  0.17579050  0.23643215  1
  O  O65  1  0.28824915  0.02015143  0.05706077  1
