# generated using pymatgen
data_Al2NiO4
_symmetry_space_group_name_H-M   'P 1'
_cell_length_a   5.75435561
_cell_length_b   5.77369421
_cell_length_c   22.93786022
_cell_angle_alpha   59.77343994
_cell_angle_beta   59.54906952
_cell_angle_gamma   59.88876553
_symmetry_Int_Tables_number   1
_chemical_formula_structural   Al2NiO4
_chemical_formula_sum   'Al16 Ni8 O32'
_cell_volume   535.64822853
_cell_formula_units_Z   8
loop_
 _symmetry_equiv_pos_site_id
 _symmetry_equiv_pos_as_xyz
  1  'x, y, z'
loop_
 _atom_site_type_symbol
 _atom_site_label
 _atom_site_symmetry_multiplicity
 _atom_site_fract_x
 _atom_site_fract_y
 _atom_site_fract_z
 _atom_site_occupancy
  Al  Al0  1  0.49435063  0.00361877  0.12567273  1
  Al  Al1  1  0.49451784  0.49690241  0.00291934  1
  Al  Al2  1  0.13011917  0.11604041  0.28445000  1
  Al  Al3  1  0.49435063  0.49933968  0.12567273  1
  Al  Al4  1  0.50006327  0.00043656  0.37487447  1
  Al  Al5  1  0.13379542  0.11715358  0.53297435  1
  Al  Al6  1  0.50006327  0.50000231  0.37487447  1
  Al  Al7  1  0.86524974  0.88481845  0.21627834  1
  Al  Al8  1  0.13996473  0.11761029  0.78120367  1
  Al  Al9  1  0.50157366  0.50023022  0.62448317  1
  Al  Al10  1  0.86777706  0.88318764  0.46646192  1
  Al  Al11  1  0.50157366  0.00026344  0.62448317  1
  Al  Al12  1  0.50361398  0.00245479  0.87397469  1
  Al  Al13  1  0.50361398  0.49803248  0.87397469  1
  Al  Al14  1  0.86872570  0.88255954  0.71653881  1
  Al  Al15  1  0.86099543  0.88001190  0.96974519  1
  Ni  Ni16  1  0.12633625  0.12337867  0.03172660  1
  Ni  Ni17  1  0.99789177  0.49934846  0.12585283  1
  Ni  Ni18  1  0.99966220  0.50000982  0.37507954  1
  Ni  Ni19  1  0.49878618  0.50138440  0.24961126  1
  Ni  Ni20  1  0.00084620  0.50032868  0.62462411  1
  Ni  Ni21  1  0.50023156  0.50014623  0.49986899  1
  Ni  Ni22  1  0.00523096  0.49897073  0.87420690  1
  Ni  Ni23  1  0.50230748  0.49887014  0.74998806  1
  O  O24  1  0.28172990  0.25180606  0.06379493  1
  O  O25  1  0.26167047  0.24400715  0.18757880  1
  O  O26  1  0.28172990  0.71128432  0.06379493  1
  O  O27  1  0.70299981  0.26447899  0.06701055  1
  O  O28  1  0.25736811  0.75813428  0.18159083  1
  O  O29  1  0.26523816  0.23218767  0.31696474  1
  O  O30  1  0.72628763  0.75364335  0.06660642  1
  O  O31  1  0.26523816  0.73471520  0.31696474  1
  O  O32  1  0.73186211  0.26487473  0.18308819  1
  O  O33  1  0.26938717  0.24559086  0.43485778  1
  O  O34  1  0.73673725  0.24606503  0.31778317  1
  O  O35  1  0.73186211  0.77091040  0.18308819  1
  O  O36  1  0.26056190  0.75389261  0.43291322  1
  O  O37  1  0.26622026  0.23169648  0.56649211  1
  O  O38  1  0.73368094  0.26397975  0.43362761  1
  O  O39  1  0.72996317  0.75452567  0.31524637  1
  O  O40  1  0.26622026  0.73611482  0.56649211  1
  O  O41  1  0.27313666  0.24679732  0.68331718  1
  O  O42  1  0.74064869  0.24552522  0.56707522  1
  O  O43  1  0.73368094  0.76782885  0.43362761  1
  O  O44  1  0.26156566  0.75318571  0.68301573  1
  O  O45  1  0.26819927  0.22938293  0.81590427  1
  O  O46  1  0.73464854  0.26366806  0.68358228  1
  O  O47  1  0.73046737  0.75419575  0.56528528  1
  O  O48  1  0.26819927  0.73880072  0.81590427  1
  O  O49  1  0.29222207  0.25283082  0.92552907  1
  O  O50  1  0.75166406  0.24159972  0.81628412  1
  O  O51  1  0.73464854  0.76735429  0.68358228  1
  O  O52  1  0.26666540  0.74221399  0.93722666  1
  O  O53  1  0.73066312  0.75293093  0.81586876  1
  O  O54  1  0.72659618  0.27042900  0.93818127  1
  O  O55  1  0.72659618  0.75024974  0.93818127  1
