# generated using pymatgen
data_V17S19
_symmetry_space_group_name_H-M   'P 1'
_cell_length_a   3.18704195
_cell_length_b   61.02326064
_cell_length_c   6.04029299
_cell_angle_alpha   89.60598297
_cell_angle_beta   90.00289249
_cell_angle_gamma   119.75317499
_symmetry_Int_Tables_number   1
_chemical_formula_structural   V17S19
_chemical_formula_sum   'V34 S38'
_cell_volume   1019.84248614
_cell_formula_units_Z   2
loop_
 _symmetry_equiv_pos_site_id
 _symmetry_equiv_pos_as_xyz
  1  'x, y, z'
loop_
 _atom_site_type_symbol
 _atom_site_label
 _atom_site_symmetry_multiplicity
 _atom_site_fract_x
 _atom_site_fract_y
 _atom_site_fract_z
 _atom_site_occupancy
  V  V0  1  0.99080253  0.94640893  0.99660911  1
  V  V1  1  0.00934716  0.89572947  0.99707757  1
  V  V2  1  0.98809659  0.84082822  0.99852350  1
  V  V3  1  0.98349414  0.94563240  0.49847044  1
  V  V4  1  0.00071708  0.89480259  0.49832531  1
  V  V5  1  0.00961620  0.79050264  0.00056941  1
  V  V6  1  0.00463849  0.84260418  0.49871994  1
  V  V7  1  0.99325196  0.73613149  0.99946397  1
  V  V8  1  0.99353380  0.78878056  0.50105375  1
  V  V9  1  0.00358939  0.68459053  0.00027990  1
  V  V10  1  0.00439663  0.73731864  0.49963655  1
  V  V11  1  0.99807488  0.68400856  0.50014930  1
  V  V12  1  0.99871702  0.63144495  0.00001349  1
  V  V13  1  0.00012445  0.63158675  0.49999942  1
  V  V14  1  0.00188997  0.52651197  0.00046382  1
  V  V15  1  0.99986606  0.57893857  0.99998632  1
  V  V16  1  0.00272080  0.57923590  0.49993167  1
  V  V17  1  0.99761064  0.47343233  0.00026902  1
  V  V18  1  0.99564917  0.52586666  0.50005553  1
  V  V19  1  0.00078930  0.42112441  0.00351932  1
  V  V20  1  0.00728639  0.47444388  0.50011064  1
  V  V21  1  0.00305343  0.36874070  0.00278899  1
  V  V22  1  0.99020656  0.42002096  0.50244099  1
  V  V23  1  0.01750872  0.37026668  0.50157739  1
  V  V24  1  0.00327334  0.26350767  0.00037430  1
  V  V25  1  0.99894081  0.31568060  0.00201359  1
  V  V26  1  0.99953338  0.21047442  0.00042322  1
  V  V27  1  0.99926499  0.26308128  0.50031276  1
  V  V28  1  0.00312996  0.10559446  -0.00047274  1
  V  V29  1  0.00082311  0.15798081  0.49996299  1
  V  V30  1  0.00051631  0.15795015  0.00015750  1
  V  V31  1  0.99767775  0.05238286  -0.00015511  1
  V  V32  1  -0.00015867  -0.00001865  0.99765102  1
  V  V33  1  0.00062207  0.05269815  0.49995936  1
  S  S34  1  0.32313541  0.98137695  0.23965429  1
  S  S35  1  0.33288406  0.92978104  0.24637699  1
  S  S36  1  0.66764622  0.96501625  0.74260228  1
  S  S37  1  0.33281332  0.87713957  0.24559190  1
  S  S38  1  0.66396391  0.91199283  0.74588673  1
  S  S39  1  0.33392892  0.82461813  0.25246291  1
  S  S40  1  0.66754028  0.85974573  0.75233369  1
  S  S41  1  0.33400532  0.77199589  0.24782627  1
  S  S42  1  0.66715905  0.80706517  0.74688508  1
  S  S43  1  0.33371999  0.71934831  0.25133159  1
  S  S44  1  0.66761493  0.75449383  0.75140315  1
  S  S45  1  0.33312992  0.66664511  0.24972688  1
  S  S46  1  0.66732711  0.70182252  0.74937330  1
  S  S47  1  0.66693984  0.64914888  0.75024468  1
  S  S48  1  0.33288995  0.61398789  0.24981075  1
  S  S49  1  0.33244777  0.56131724  0.25077960  1
  S  S50  1  0.66635529  0.59646538  0.75017576  1
  S  S51  1  0.33250056  0.50868408  0.24914059  1
  S  S52  1  0.66649950  0.54384146  0.74938484  1
  S  S53  1  0.33218598  0.45601849  0.25263233  1
  S  S54  1  0.66616719  0.49116982  0.75158606  1
  S  S55  1  0.33576376  0.40375865  0.25214998  1
  S  S56  1  0.66713614  0.43864296  0.74933142  1
  S  S57  1  0.33139952  0.35067328  0.25820265  1
  S  S58  1  0.66667820  0.38596075  0.75543296  1
  S  S59  1  0.32941360  0.29784176  0.24979317  1
  S  S60  1  0.67551990  0.33426755  0.75926703  1
  S  S61  1  0.32819611  0.24507810  0.25331791  1
  S  S62  1  0.67380568  0.28145658  0.74594993  1
  S  S63  1  0.33004495  0.19263143  0.24695103  1
  S  S64  1  0.67082247  0.22851116  0.75453896  1
  S  S65  1  0.32917486  0.13990942  0.25363655  1
  S  S66  1  0.67239834  0.17603803  0.74641741  1
  S  S67  1  0.32977137  0.08734422  0.24548485  1
  S  S68  1  0.67111467  0.12327625  0.75311439  1
  S  S69  1  0.32579704  0.03429271  0.25462149  1
  S  S70  1  0.67298411  0.07083246  0.74590698  1
  S  S71  1  0.67052038  0.01794840  0.75041136  1
