# generated using pymatgen
data_AgSe5
_symmetry_space_group_name_H-M   'P 1'
_cell_length_a   6.90996091
_cell_length_b   9.63168272
_cell_length_c   11.15513774
_cell_angle_alpha   113.31335597
_cell_angle_beta   105.04651599
_cell_angle_gamma   96.66649912
_symmetry_Int_Tables_number   1
_chemical_formula_structural   AgSe5
_chemical_formula_sum   'Ag2 Se10'
_cell_volume   638.07520033
_cell_formula_units_Z   2
loop_
 _symmetry_equiv_pos_site_id
 _symmetry_equiv_pos_as_xyz
  1  'x, y, z'
loop_
 _atom_site_type_symbol
 _atom_site_label
 _atom_site_symmetry_multiplicity
 _atom_site_fract_x
 _atom_site_fract_y
 _atom_site_fract_z
 _atom_site_occupancy
  Ag  Ag0  1  0.96124696  0.66580568  0.03258165  1
  Ag  Ag1  1  0.42866531  0.63322403  0.96741835  1
  Se  Se2  1  0.69048471  0.71996425  0.86157901  1
  Se  Se3  1  0.32890570  0.85838524  0.13842099  1
  Se  Se4  1  0.63487764  0.50316419  0.64776704  1
  Se  Se5  1  0.48711060  0.85539715  0.35223296  1
  Se  Se6  1  0.43490392  0.59319661  0.30570464  1
  Se  Se7  1  0.62919928  0.28749197  0.69429536  1
  Se  Se8  1  0.59797263  0.48195920  0.13447366  1
  Se  Se9  1  0.96349897  0.34748554  0.86552634  1
  Se  Se10  1  0.21284796  0.36834387  0.76296161  1
  Se  Se11  1  0.94988634  0.60538226  0.23703839  1
