# generated using pymatgen
data_Na2H2CO4
_symmetry_space_group_name_H-M   'P 1'
_cell_length_a   6.48907669
_cell_length_b   10.77706764
_cell_length_c   5.28193666
_cell_angle_alpha   90.00000000
_cell_angle_beta   90.00000000
_cell_angle_gamma   90.00000000
_symmetry_Int_Tables_number   1
_chemical_formula_structural   Na2H2CO4
_chemical_formula_sum   'Na8 H8 C4 O16'
_cell_volume   369.38283007
_cell_formula_units_Z   4
loop_
 _symmetry_equiv_pos_site_id
 _symmetry_equiv_pos_as_xyz
  1  'x, y, z'
loop_
 _atom_site_type_symbol
 _atom_site_label
 _atom_site_symmetry_multiplicity
 _atom_site_fract_x
 _atom_site_fract_y
 _atom_site_fract_z
 _atom_site_occupancy
  Na  Na0  1  0.99979255  0.69315590  0.86046504  1
  Na  Na1  1  0.49979255  0.30684410  0.13953496  1
  Na  Na2  1  0.49979255  0.80684410  0.86046504  1
  Na  Na3  1  0.99979255  0.19315590  0.13953496  1
  Na  Na4  1  0.06437907  0.50119527  0.37809987  1
  Na  Na5  1  0.56437907  0.49880473  0.62190013  1
  Na  Na6  1  0.56437907  0.99880473  0.37809987  1
  Na  Na7  1  0.06437907  0.00119527  0.62190013  1
  H  H8  1  0.14790178  0.43365340  0.83736560  1
  H  H9  1  0.64790178  0.56634660  0.16263440  1
  H  H10  1  0.64790178  0.06634660  0.83736560  1
  H  H11  1  0.14790178  0.93365340  0.16263440  1
  H  H12  1  0.91784150  0.40943034  0.89977010  1
  H  H13  1  0.41784150  0.59056966  0.10022990  1
  H  H14  1  0.41784150  0.09056966  0.89977010  1
  H  H15  1  0.91784150  0.90943034  0.10022990  1
  C  C16  1  0.78546489  0.75491038  0.39801400  1
  C  C17  1  0.28546489  0.24508962  0.60198600  1
  C  C18  1  0.28546489  0.74508962  0.39801400  1
  C  C19  1  0.78546489  0.25491038  0.60198600  1
  O  O20  1  0.79878791  0.63751231  0.45303388  1
  O  O21  1  0.29878791  0.36248769  0.54696612  1
  O  O22  1  0.29878791  0.86248769  0.45303388  1
  O  O23  1  0.79878791  0.13751231  0.54696612  1
  O  O24  1  0.79690935  0.83749943  0.57536906  1
  O  O25  1  0.29690935  0.16250057  0.42463094  1
  O  O26  1  0.29690935  0.66250057  0.57536906  1
  O  O27  1  0.79690935  0.33749943  0.42463094  1
  O  O28  1  0.76056043  0.78875383  0.16215747  1
  O  O29  1  0.26056043  0.21124617  0.83784253  1
  O  O30  1  0.26056043  0.71124617  0.16215747  1
  O  O31  1  0.76056043  0.28875383  0.83784253  1
  O  O32  1  0.03216253  0.47093570  0.93174996  1
  O  O33  1  0.53216253  0.52906430  0.06825004  1
  O  O34  1  0.53216253  0.02906430  0.93174996  1
  O  O35  1  0.03216253  0.97093570  0.06825004  1
