# generated using pymatgen
data_VH11N3Cl5
_symmetry_space_group_name_H-M   'P 1'
_cell_length_a   13.78923132
_cell_length_b   10.70147458
_cell_length_c   6.96778704
_cell_angle_alpha   90.00000000
_cell_angle_beta   90.00000000
_cell_angle_gamma   90.00000000
_symmetry_Int_Tables_number   1
_chemical_formula_structural   VH11N3Cl5
_chemical_formula_sum   'V4 H44 N12 Cl20'
_cell_volume   1028.20225021
_cell_formula_units_Z   4
loop_
 _symmetry_equiv_pos_site_id
 _symmetry_equiv_pos_as_xyz
  1  'x, y, z'
loop_
 _atom_site_type_symbol
 _atom_site_label
 _atom_site_symmetry_multiplicity
 _atom_site_fract_x
 _atom_site_fract_y
 _atom_site_fract_z
 _atom_site_occupancy
  V  V0  1  0.61177803  0.25000000  0.31221084  1
  V  V1  1  0.11177803  0.25000000  0.18778916  1
  V  V2  1  0.38822197  0.75000000  0.68778916  1
  V  V3  1  0.88822197  0.75000000  0.81221084  1
  H  H4  1  0.42684707  0.25000000  0.44312279  1
  H  H5  1  0.92684707  0.25000000  0.05687721  1
  H  H6  1  0.57315293  0.75000000  0.55687721  1
  H  H7  1  0.07315293  0.75000000  0.94312279  1
  H  H8  1  0.49541960  0.32728725  0.59478996  1
  H  H9  1  0.99541960  0.17271275  0.90521004  1
  H  H10  1  0.50458040  0.82728725  0.40521004  1
  H  H11  1  0.00458040  0.67271275  0.09478996  1
  H  H12  1  0.50458040  0.67271275  0.40521004  1
  H  H13  1  0.00458040  0.82728725  0.09478996  1
  H  H14  1  0.49541960  0.17271275  0.59478996  1
  H  H15  1  0.99541960  0.32728725  0.90521004  1
  H  H16  1  0.59443204  0.52583666  0.75568496  1
  H  H17  1  0.09443204  0.97416334  0.74431504  1
  H  H18  1  0.40556796  0.02583666  0.24431504  1
  H  H19  1  0.90556796  0.47416334  0.25568496  1
  H  H20  1  0.40556796  0.47416334  0.24431504  1
  H  H21  1  0.90556796  0.02583666  0.25568496  1
  H  H22  1  0.59443204  0.97416334  0.75568496  1
  H  H23  1  0.09443204  0.52583666  0.74431504  1
  H  H24  1  0.62913837  0.51858123  0.98762452  1
  H  H25  1  0.12913837  0.98141877  0.51237548  1
  H  H26  1  0.37086163  0.01858123  0.01237548  1
  H  H27  1  0.87086163  0.48141877  0.48762452  1
  H  H28  1  0.37086163  0.48141877  0.01237548  1
  H  H29  1  0.87086163  0.01858123  0.48762452  1
  H  H30  1  0.62913837  0.98141877  0.98762452  1
  H  H31  1  0.12913837  0.51858123  0.51237548  1
  H  H32  1  0.66903454  0.41020922  0.82905810  1
  H  H33  1  0.16903454  0.08979078  0.67094190  1
  H  H34  1  0.33096546  0.91020922  0.17094190  1
  H  H35  1  0.83096546  0.58979078  0.32905810  1
  H  H36  1  0.33096546  0.58979078  0.17094190  1
  H  H37  1  0.83096546  0.91020922  0.32905810  1
  H  H38  1  0.66903454  0.08979078  0.82905810  1
  H  H39  1  0.16903454  0.41020922  0.67094190  1
  H  H40  1  0.71000214  0.55790934  0.81435520  1
  H  H41  1  0.21000214  0.94209066  0.68564480  1
  H  H42  1  0.28999786  0.05790934  0.18564480  1
  H  H43  1  0.78999786  0.44209066  0.31435520  1
  H  H44  1  0.28999786  0.44209066  0.18564480  1
  H  H45  1  0.78999786  0.05790934  0.31435520  1
  H  H46  1  0.71000214  0.94209066  0.81435520  1
  H  H47  1  0.21000214  0.55790934  0.68564480  1
  N  N48  1  0.49357244  0.25000000  0.50810701  1
  N  N49  1  0.99357244  0.25000000  0.99189299  1
  N  N50  1  0.50642756  0.75000000  0.49189299  1
  N  N51  1  0.00642756  0.75000000  0.00810701  1
  N  N52  1  0.65031199  0.50329934  0.84640439  1
  N  N53  1  0.15031199  0.99670066  0.65359561  1
  N  N54  1  0.34968801  0.00329934  0.15359561  1
  N  N55  1  0.84968801  0.49670066  0.34640439  1
  N  N56  1  0.34968801  0.49670066  0.15359561  1
  N  N57  1  0.84968801  0.00329934  0.34640439  1
  N  N58  1  0.65031199  0.99670066  0.84640439  1
  N  N59  1  0.15031199  0.50329934  0.65359561  1
  Cl  Cl60  1  0.60528105  0.47625438  0.31930333  1
  Cl  Cl61  1  0.10528105  0.02374562  0.18069667  1
  Cl  Cl62  1  0.39471895  0.97625438  0.68069667  1
  Cl  Cl63  1  0.89471895  0.52374562  0.81930333  1
  Cl  Cl64  1  0.39471895  0.52374562  0.68069667  1
  Cl  Cl65  1  0.89471895  0.97625438  0.81930333  1
  Cl  Cl66  1  0.60528105  0.02374562  0.31930333  1
  Cl  Cl67  1  0.10528105  0.47625438  0.18069667  1
  Cl  Cl68  1  0.50193778  0.25000000  0.05100498  1
  Cl  Cl69  1  0.00193778  0.25000000  0.44899502  1
  Cl  Cl70  1  0.49806222  0.75000000  0.94899502  1
  Cl  Cl71  1  0.99806222  0.75000000  0.55100498  1
  Cl  Cl72  1  0.75077462  0.25000000  0.10519363  1
  Cl  Cl73  1  0.25077462  0.25000000  0.39480637  1
  Cl  Cl74  1  0.24922538  0.75000000  0.89480637  1
  Cl  Cl75  1  0.74922538  0.75000000  0.60519363  1
  Cl  Cl76  1  0.71406601  0.25000000  0.58856736  1
  Cl  Cl77  1  0.21406601  0.25000000  0.91143264  1
  Cl  Cl78  1  0.28593399  0.75000000  0.41143264  1
  Cl  Cl79  1  0.78593399  0.75000000  0.08856736  1
