# generated using pymatgen
data_UH12(NO7)2
_symmetry_space_group_name_H-M   'P 1'
_cell_length_a   7.76348957
_cell_length_b   7.76348957
_cell_length_c   11.53909463
_cell_angle_alpha   90.00000000
_cell_angle_beta   90.00000000
_cell_angle_gamma   117.19765810
_symmetry_Int_Tables_number   1
_chemical_formula_structural   UH12(NO7)2
_chemical_formula_sum   'U2 H24 N4 O28'
_cell_volume   618.58577075
_cell_formula_units_Z   2
loop_
 _symmetry_equiv_pos_site_id
 _symmetry_equiv_pos_as_xyz
  1  'x, y, z'
loop_
 _atom_site_type_symbol
 _atom_site_label
 _atom_site_symmetry_multiplicity
 _atom_site_fract_x
 _atom_site_fract_y
 _atom_site_fract_z
 _atom_site_occupancy
  U  U0  1  0.87206814  0.87206814  0.74960851  1
  U  U1  1  0.12793186  0.12793186  0.24960851  1
  H  H2  1  0.05020736  0.59960276  0.68339720  1
  H  H3  1  0.59960276  0.05020736  0.68339720  1
  H  H4  1  0.94979264  0.40039724  0.18339720  1
  H  H5  1  0.40039724  0.94979264  0.18339720  1
  H  H6  1  0.15237118  0.70119107  0.80588466  1
  H  H7  1  0.70119107  0.15237118  0.80588466  1
  H  H8  1  0.84762882  0.29880893  0.30588466  1
  H  H9  1  0.29880893  0.84762882  0.30588466  1
  H  H10  1  0.29971509  0.57144560  0.91764931  1
  H  H11  1  0.57144560  0.29971509  0.91764931  1
  H  H12  1  0.70028491  0.42855440  0.41764931  1
  H  H13  1  0.42855440  0.70028491  0.41764931  1
  H  H14  1  0.78609083  0.38129309  0.96483814  1
  H  H15  1  0.38129309  0.78609083  0.96483814  1
  H  H16  1  0.21390917  0.61870691  0.46483814  1
  H  H17  1  0.61870691  0.21390917  0.46483814  1
  H  H18  1  0.10467525  0.37232552  0.58842204  1
  H  H19  1  0.37232552  0.10467525  0.58842204  1
  H  H20  1  0.89532475  0.62767448  0.08842204  1
  H  H21  1  0.62767448  0.89532475  0.08842204  1
  H  H22  1  0.92438916  0.38681114  0.52934471  1
  H  H23  1  0.38681114  0.92438916  0.52934471  1
  H  H24  1  0.07561084  0.61318886  0.02934471  1
  H  H25  1  0.61318886  0.07561084  0.02934471  1
  N  N26  1  0.52805519  0.52805519  0.65912008  1
  N  N27  1  0.47194481  0.47194481  0.15912008  1
  N  N28  1  0.20741784  0.20741784  0.85907757  1
  N  N29  1  0.79258216  0.79258216  0.35907757  1
  O  O30  1  0.38215158  0.38215158  0.62667891  1
  O  O31  1  0.61784842  0.61784842  0.12667891  1
  O  O32  1  0.34853166  0.34853166  0.90324851  1
  O  O33  1  0.65146834  0.65146834  0.40324851  1
  O  O34  1  0.69039435  0.52680847  0.67722419  1
  O  O35  1  0.52680847  0.69039435  0.67722419  1
  O  O36  1  0.30960565  0.47319153  0.17722419  1
  O  O37  1  0.47319153  0.30960565  0.17722419  1
  O  O38  1  0.05081835  0.21453286  0.83452162  1
  O  O39  1  0.21453286  0.05081835  0.83452162  1
  O  O40  1  0.94918165  0.78546714  0.33452162  1
  O  O41  1  0.78546714  0.94918165  0.33452162  1
  O  O42  1  0.95851126  0.95851126  0.60557838  1
  O  O43  1  0.04148874  0.04148874  0.10557838  1
  O  O44  1  0.78646559  0.78646559  0.89402852  1
  O  O45  1  0.21353441  0.21353441  0.39402852  1
  O  O46  1  0.06060451  0.69701092  0.74373545  1
  O  O47  1  0.69701092  0.06060451  0.74373545  1
  O  O48  1  0.93939549  0.30298908  0.24373545  1
  O  O49  1  0.30298908  0.93939549  0.24373545  1
  O  O50  1  0.26767477  0.67961429  0.92630256  1
  O  O51  1  0.67961429  0.26767477  0.92630256  1
  O  O52  1  0.73232523  0.32038571  0.42630256  1
  O  O53  1  0.32038571  0.73232523  0.42630256  1
  O  O54  1  0.04913371  0.46010151  0.57130987  1
  O  O55  1  0.46010151  0.04913371  0.57130987  1
  O  O56  1  0.95086629  0.53989849  0.07130987  1
  O  O57  1  0.53989849  0.95086629  0.07130987  1
