# generated using pymatgen
data_Na2PH5O6
_symmetry_space_group_name_H-M   'P 1'
_cell_length_a   17.08741892
_cell_length_b   10.38825747
_cell_length_c   6.58525478
_cell_angle_alpha   90.00000000
_cell_angle_beta   90.00000000
_cell_angle_gamma   90.00000000
_symmetry_Int_Tables_number   1
_chemical_formula_structural   Na2PH5O6
_chemical_formula_sum   'Na16 P8 H40 O48'
_cell_volume   1168.93874578
_cell_formula_units_Z   8
loop_
 _symmetry_equiv_pos_site_id
 _symmetry_equiv_pos_as_xyz
  1  'x, y, z'
loop_
 _atom_site_type_symbol
 _atom_site_label
 _atom_site_symmetry_multiplicity
 _atom_site_fract_x
 _atom_site_fract_y
 _atom_site_fract_z
 _atom_site_occupancy
  Na  Na0  1  0.27065516  0.23231959  0.67283595  1
  Na  Na1  1  0.77065516  0.26768041  0.32716405  1
  Na  Na2  1  0.72934484  0.73231959  0.82716405  1
  Na  Na3  1  0.22934484  0.76768041  0.17283595  1
  Na  Na4  1  0.72934484  0.76768041  0.32716405  1
  Na  Na5  1  0.22934484  0.73231959  0.67283595  1
  Na  Na6  1  0.27065516  0.26768041  0.17283595  1
  Na  Na7  1  0.77065516  0.23231959  0.82716405  1
  Na  Na8  1  0.49944402  0.15249031  0.85756422  1
  Na  Na9  1  0.99944402  0.34750969  0.14243578  1
  Na  Na10  1  0.50055598  0.65249031  0.64243578  1
  Na  Na11  1  0.00055598  0.84750969  0.35756422  1
  Na  Na12  1  0.50055598  0.84750969  0.14243578  1
  Na  Na13  1  0.00055598  0.65249031  0.85756422  1
  Na  Na14  1  0.49944402  0.34750969  0.35756422  1
  Na  Na15  1  0.99944402  0.15249031  0.64243578  1
  P  P16  1  0.16155738  0.48204711  0.87902076  1
  P  P17  1  0.66155738  0.01795289  0.12097924  1
  P  P18  1  0.83844262  0.98204711  0.62097924  1
  P  P19  1  0.33844262  0.51795289  0.37902076  1
  P  P20  1  0.83844262  0.51795289  0.12097924  1
  P  P21  1  0.33844262  0.98204711  0.87902076  1
  P  P22  1  0.16155738  0.01795289  0.37902076  1
  P  P23  1  0.66155738  0.48204711  0.62097924  1
  H  H24  1  0.08685925  0.10727843  0.02337461  1
  H  H25  1  0.58685925  0.39272157  0.97662539  1
  H  H26  1  0.91314075  0.60727843  0.47662539  1
  H  H27  1  0.41314075  0.89272157  0.52337461  1
  H  H28  1  0.91314075  0.89272157  0.97662539  1
  H  H29  1  0.41314075  0.60727843  0.02337461  1
  H  H30  1  0.08685925  0.39272157  0.52337461  1
  H  H31  1  0.58685925  0.10727843  0.47662539  1
  H  H32  1  0.11382683  0.23890494  0.92765273  1
  H  H33  1  0.61382683  0.26109506  0.07234727  1
  H  H34  1  0.88617317  0.73890494  0.57234727  1
  H  H35  1  0.38617317  0.76109506  0.42765273  1
  H  H36  1  0.88617317  0.76109506  0.07234727  1
  H  H37  1  0.38617317  0.73890494  0.92765273  1
  H  H38  1  0.11382683  0.26109506  0.42765273  1
  H  H39  1  0.61382683  0.23890494  0.57234727  1
  H  H40  1  0.40146372  0.38625206  0.70718851  1
  H  H41  1  0.90146372  0.11374794  0.29281149  1
  H  H42  1  0.59853628  0.88625206  0.79281149  1
  H  H43  1  0.09853628  0.61374794  0.20718851  1
  H  H44  1  0.59853628  0.61374794  0.29281149  1
  H  H45  1  0.09853628  0.88625206  0.70718851  1
  H  H46  1  0.40146372  0.11374794  0.20718851  1
  H  H47  1  0.90146372  0.38625206  0.79281149  1
  H  H48  1  0.38813927  0.37279500  0.94232338  1
  H  H49  1  0.88813927  0.12720500  0.05767662  1
  H  H50  1  0.61186073  0.87279500  0.55767662  1
  H  H51  1  0.11186073  0.62720500  0.44232338  1
  H  H52  1  0.61186073  0.62720500  0.05767662  1
  H  H53  1  0.11186073  0.87279500  0.94232338  1
  H  H54  1  0.38813927  0.12720500  0.44232338  1
  H  H55  1  0.88813927  0.37279500  0.55767662  1
  H  H56  1  0.27836134  0.53520999  0.02369806  1
  H  H57  1  0.77836134  0.96479001  0.97630194  1
  H  H58  1  0.72163866  0.03520999  0.47630194  1
  H  H59  1  0.22163866  0.46479001  0.52369806  1
  H  H60  1  0.72163866  0.46479001  0.97630194  1
  H  H61  1  0.22163866  0.03520999  0.02369806  1
  H  H62  1  0.27836134  0.96479001  0.52369806  1
  H  H63  1  0.77836134  0.53520999  0.47630194  1
  O  O64  1  0.14906895  0.51851741  0.65164841  1
  O  O65  1  0.64906895  0.98148259  0.34835159  1
  O  O66  1  0.85093105  0.01851741  0.84835159  1
  O  O67  1  0.35093105  0.48148259  0.15164841  1
  O  O68  1  0.85093105  0.48148259  0.34835159  1
  O  O69  1  0.35093105  0.01851741  0.65164841  1
  O  O70  1  0.14906895  0.98148259  0.15164841  1
  O  O71  1  0.64906895  0.51851741  0.84835159  1
  O  O72  1  0.19063507  0.34298394  0.90393171  1
  O  O73  1  0.69063507  0.15701606  0.09606829  1
  O  O74  1  0.80936493  0.84298394  0.59606829  1
  O  O75  1  0.30936493  0.65701606  0.40393171  1
  O  O76  1  0.80936493  0.65701606  0.09606829  1
  O  O77  1  0.30936493  0.84298394  0.90393171  1
  O  O78  1  0.19063507  0.15701606  0.40393171  1
  O  O79  1  0.69063507  0.34298394  0.59606829  1
  O  O80  1  0.08899237  0.51292392  0.00565743  1
  O  O81  1  0.58899237  0.98707608  0.99434257  1
  O  O82  1  0.91100763  0.01292392  0.49434257  1
  O  O83  1  0.41100763  0.48707608  0.50565743  1
  O  O84  1  0.91100763  0.48707608  0.99434257  1
  O  O85  1  0.41100763  0.01292392  0.00565743  1
  O  O86  1  0.08899237  0.98707608  0.50565743  1
  O  O87  1  0.58899237  0.51292392  0.49434257  1
  O  O88  1  0.23175177  0.57775520  0.95164883  1
  O  O89  1  0.73175177  0.92224480  0.04835117  1
  O  O90  1  0.76824823  0.07775520  0.54835117  1
  O  O91  1  0.26824823  0.42224480  0.45164883  1
  O  O92  1  0.76824823  0.42224480  0.04835117  1
  O  O93  1  0.26824823  0.07775520  0.95164883  1
  O  O94  1  0.23175177  0.92224480  0.45164883  1
  O  O95  1  0.73175177  0.57775520  0.54835117  1
  O  O96  1  0.06642639  0.18431192  0.95335279  1
  O  O97  1  0.56642639  0.31568808  0.04664721  1
  O  O98  1  0.93357361  0.68431192  0.54664721  1
  O  O99  1  0.43357361  0.81568808  0.45335279  1
  O  O100  1  0.93357361  0.81568808  0.04664721  1
  O  O101  1  0.43357361  0.68431192  0.95335279  1
  O  O102  1  0.06642639  0.31568808  0.45335279  1
  O  O103  1  0.56642639  0.18431192  0.54664721  1
  O  O104  1  0.39466590  0.32094290  0.81803439  1
  O  O105  1  0.89466590  0.17905710  0.18196561  1
  O  O106  1  0.60533410  0.82094290  0.68196561  1
  O  O107  1  0.10533410  0.67905710  0.31803439  1
  O  O108  1  0.60533410  0.67905710  0.18196561  1
  O  O109  1  0.10533410  0.82094290  0.81803439  1
  O  O110  1  0.39466590  0.17905710  0.31803439  1
  O  O111  1  0.89466590  0.32094290  0.68196561  1
