# generated using pymatgen
data_KH3(SeO3)2
_symmetry_space_group_name_H-M   'P 1'
_cell_length_a   16.25214093
_cell_length_b   6.40290174
_cell_length_c   6.47790401
_cell_angle_alpha   90.00000000
_cell_angle_beta   90.00000000
_cell_angle_gamma   90.00000000
_symmetry_Int_Tables_number   1
_chemical_formula_structural   KH3(SeO3)2
_chemical_formula_sum   'K4 H12 Se8 O24'
_cell_volume   674.09627160
_cell_formula_units_Z   4
loop_
 _symmetry_equiv_pos_site_id
 _symmetry_equiv_pos_as_xyz
  1  'x, y, z'
loop_
 _atom_site_type_symbol
 _atom_site_label
 _atom_site_symmetry_multiplicity
 _atom_site_fract_x
 _atom_site_fract_y
 _atom_site_fract_z
 _atom_site_occupancy
  K  K0  1  0.50000000  0.81138657  0.75000000  1
  K  K1  1  0.00000000  0.68861343  0.25000000  1
  K  K2  1  0.50000000  0.18861343  0.25000000  1
  K  K3  1  0.00000000  0.31138657  0.75000000  1
  H  H4  1  0.17199125  0.55846276  0.96902634  1
  H  H5  1  0.32800875  0.94153724  0.46902634  1
  H  H6  1  0.67199125  0.94153724  0.03097366  1
  H  H7  1  0.82800875  0.55846276  0.53097366  1
  H  H8  1  0.82800875  0.44153724  0.03097366  1
  H  H9  1  0.67199125  0.05846276  0.53097366  1
  H  H10  1  0.32800875  0.05846276  0.96902634  1
  H  H11  1  0.17199125  0.44153724  0.46902634  1
  H  H12  1  0.00000000  0.87665680  0.75000000  1
  H  H13  1  0.50000000  0.62334320  0.25000000  1
  H  H14  1  0.00000000  0.12334320  0.25000000  1
  H  H15  1  0.50000000  0.37665680  0.75000000  1
  Se  Se16  1  0.15020145  0.80798731  0.70919372  1
  Se  Se17  1  0.34979855  0.69201269  0.20919372  1
  Se  Se18  1  0.65020145  0.69201269  0.29080628  1
  Se  Se19  1  0.84979855  0.80798731  0.79080628  1
  Se  Se20  1  0.84979855  0.19201269  0.29080628  1
  Se  Se21  1  0.65020145  0.30798731  0.79080628  1
  Se  Se22  1  0.34979855  0.30798731  0.70919372  1
  Se  Se23  1  0.15020145  0.19201269  0.20919372  1
  O  O24  1  0.11117898  0.60909182  0.56721908  1
  O  O25  1  0.38882102  0.89090818  0.06721908  1
  O  O26  1  0.61117898  0.89090818  0.43278092  1
  O  O27  1  0.88882102  0.60909182  0.93278092  1
  O  O28  1  0.88882102  0.39090818  0.43278092  1
  O  O29  1  0.61117898  0.10909182  0.93278092  1
  O  O30  1  0.38882102  0.10909182  0.56721908  1
  O  O31  1  0.11117898  0.39090818  0.06721908  1
  O  O32  1  0.06344501  0.88658483  0.85088491  1
  O  O33  1  0.43655499  0.61341517  0.35088491  1
  O  O34  1  0.56344501  0.61341517  0.14911509  1
  O  O35  1  0.93655499  0.88658483  0.64911509  1
  O  O36  1  0.93655499  0.11341517  0.14911509  1
  O  O37  1  0.56344501  0.38658483  0.64911509  1
  O  O38  1  0.43655499  0.38658483  0.85088491  1
  O  O39  1  0.06344501  0.11341517  0.35088491  1
  O  O40  1  0.20686528  0.67852887  0.90859067  1
  O  O41  1  0.29313472  0.82147113  0.40859067  1
  O  O42  1  0.70686528  0.82147113  0.09140933  1
  O  O43  1  0.79313472  0.67852887  0.59140933  1
  O  O44  1  0.79313472  0.32147113  0.09140933  1
  O  O45  1  0.70686528  0.17852887  0.59140933  1
  O  O46  1  0.29313472  0.17852887  0.90859067  1
  O  O47  1  0.20686528  0.32147113  0.40859067  1
