# generated using pymatgen
data_Na3SiH3O5
_symmetry_space_group_name_H-M   'P 1'
_cell_length_a   7.98679355
_cell_length_b   6.00616454
_cell_length_c   11.26152146
_cell_angle_alpha   90.00000000
_cell_angle_beta   105.23979215
_cell_angle_gamma   90.00000000
_symmetry_Int_Tables_number   1
_chemical_formula_structural   Na3SiH3O5
_chemical_formula_sum   'Na12 Si4 H12 O20'
_cell_volume   521.21802828
_cell_formula_units_Z   4
loop_
 _symmetry_equiv_pos_site_id
 _symmetry_equiv_pos_as_xyz
  1  'x, y, z'
loop_
 _atom_site_type_symbol
 _atom_site_label
 _atom_site_symmetry_multiplicity
 _atom_site_fract_x
 _atom_site_fract_y
 _atom_site_fract_z
 _atom_site_occupancy
  Na  Na0  1  0.25122809  0.48960515  0.83493046  1
  Na  Na1  1  0.74877191  0.98960515  0.66506954  1
  Na  Na2  1  0.74877191  0.51039485  0.16506954  1
  Na  Na3  1  0.25122809  0.01039485  0.33493046  1
  Na  Na4  1  0.39842319  0.19372894  0.06804608  1
  Na  Na5  1  0.60157681  0.69372894  0.43195392  1
  Na  Na6  1  0.60157681  0.80627106  0.93195392  1
  Na  Na7  1  0.39842319  0.30627106  0.56804608  1
  Na  Na8  1  0.97809443  0.74399551  0.94055175  1
  Na  Na9  1  0.02190557  0.24399551  0.55944825  1
  Na  Na10  1  0.02190557  0.25600449  0.05944825  1
  Na  Na11  1  0.97809443  0.75600449  0.44055175  1
  Si  Si12  1  0.69256117  0.29346766  0.86411707  1
  Si  Si13  1  0.30743883  0.79346766  0.63588293  1
  Si  Si14  1  0.30743883  0.70653234  0.13588293  1
  Si  Si15  1  0.69256117  0.20653234  0.36411707  1
  H  H16  1  0.57008613  0.59897652  0.66656806  1
  H  H17  1  0.42991387  0.09897652  0.83343194  1
  H  H18  1  0.42991387  0.40102348  0.33343194  1
  H  H19  1  0.57008613  0.90102348  0.16656806  1
  H  H20  1  0.98732330  0.11460143  0.82488211  1
  H  H21  1  0.01267670  0.61460143  0.67511789  1
  H  H22  1  0.01267670  0.88539857  0.17511789  1
  H  H23  1  0.98732330  0.38539857  0.32488211  1
  H  H24  1  0.16081758  0.02726793  0.78398106  1
  H  H25  1  0.83918242  0.52726793  0.71601894  1
  H  H26  1  0.83918242  0.97273207  0.21601894  1
  H  H27  1  0.16081758  0.47273207  0.28398106  1
  O  O28  1  0.49277144  0.22933430  0.88511791  1
  O  O29  1  0.50722856  0.72933430  0.61488209  1
  O  O30  1  0.50722856  0.77066570  0.11488209  1
  O  O31  1  0.49277144  0.27066570  0.38511791  1
  O  O32  1  0.77157640  0.48819777  0.96364712  1
  O  O33  1  0.22842360  0.98819777  0.53635288  1
  O  O34  1  0.22842360  0.51180223  0.03635288  1
  O  O35  1  0.77157640  0.01180223  0.46364712  1
  O  O36  1  0.81112048  0.06563359  0.88839675  1
  O  O37  1  0.18887952  0.56563359  0.61160325  1
  O  O38  1  0.18887952  0.93436641  0.11160325  1
  O  O39  1  0.81112048  0.43436641  0.38839675  1
  O  O40  1  0.66244022  0.37021157  0.71914050  1
  O  O41  1  0.33755978  0.87021157  0.78085950  1
  O  O42  1  0.33755978  0.62978843  0.28085950  1
  O  O43  1  0.66244022  0.12978843  0.21914050  1
  O  O44  1  0.07280557  0.15137936  0.77630635  1
  O  O45  1  0.92719443  0.65137936  0.72369365  1
  O  O46  1  0.92719443  0.84862064  0.22369365  1
  O  O47  1  0.07280557  0.34862064  0.27630635  1
