# generated using pymatgen
data_NaCu2H2(SeO5)2
_symmetry_space_group_name_H-M   'P 1'
_cell_length_a   5.68401233
_cell_length_b   5.68401233
_cell_length_c   7.92609010
_cell_angle_alpha   64.76503967
_cell_angle_beta   115.23496033
_cell_angle_gamma   111.93548118
_symmetry_Int_Tables_number   1
_chemical_formula_structural   NaCu2H2(SeO5)2
_chemical_formula_sum   'Na1 Cu2 H2 Se2 O10'
_cell_volume   203.69409817
_cell_formula_units_Z   1
loop_
 _symmetry_equiv_pos_site_id
 _symmetry_equiv_pos_as_xyz
  1  'x, y, z'
loop_
 _atom_site_type_symbol
 _atom_site_label
 _atom_site_symmetry_multiplicity
 _atom_site_fract_x
 _atom_site_fract_y
 _atom_site_fract_z
 _atom_site_occupancy
  Na  Na0  1  0.50000000  0.50000000  0.50000000  1
  Cu  Cu1  1  0.00000000  0.50000000  0.00000000  1
  Cu  Cu2  1  0.50000000  0.00000000  0.00000000  1
  H  H3  1  0.28868393  0.71131607  0.79632754  1
  H  H4  1  0.71131607  0.28868393  0.20367246  1
  Se  Se5  1  0.91552467  0.08447533  0.70052872  1
  Se  Se6  1  0.08447533  0.91552467  0.29947128  1
  O  O7  1  0.81713389  0.18286611  0.82575059  1
  O  O8  1  0.18286611  0.81713389  0.17424941  1
  O  O9  1  0.77329438  0.22670562  0.46353972  1
  O  O10  1  0.22670562  0.77329438  0.53646028  1
  O  O11  1  0.25640155  0.18505435  0.75208660  1
  O  O12  1  0.81494565  0.74359845  0.75208660  1
  O  O13  1  0.74359845  0.81494565  0.24791340  1
  O  O14  1  0.18505435  0.25640155  0.24791340  1
  O  O15  1  0.32397634  0.67602366  0.93829513  1
  O  O16  1  0.67602366  0.32397634  0.06170487  1
