# generated using pymatgen
data_CaZrSi2O7
_symmetry_space_group_name_H-M   'P 1'
_cell_length_a   4.74677736
_cell_length_b   5.59458438
_cell_length_c   5.59458438
_cell_angle_alpha   103.67626496
_cell_angle_beta   97.22264248
_cell_angle_gamma   97.22264252
_symmetry_Int_Tables_number   1
_chemical_formula_structural   CaZrSi2O7
_chemical_formula_sum   'Ca1 Zr1 Si2 O7'
_cell_volume   141.33872798
_cell_formula_units_Z   1
loop_
 _symmetry_equiv_pos_site_id
 _symmetry_equiv_pos_as_xyz
  1  'x, y, z'
loop_
 _atom_site_type_symbol
 _atom_site_label
 _atom_site_symmetry_multiplicity
 _atom_site_fract_x
 _atom_site_fract_y
 _atom_site_fract_z
 _atom_site_occupancy
  O  O0  1  0.70928849  0.40819258  0.11629595  1
  O  O1  1  0.29071151  0.88370405  0.59180742  1
  O  O2  1  0.73644485  0.03656273  0.34373133  1
  O  O3  1  0.26355515  0.65626867  0.96343727  1
  O  O4  1  0.00000000  0.05850126  0.94149874  1
  O  O5  1  0.78253107  0.62487717  0.62324198  1
  O  O6  1  0.21746893  0.37675802  0.37512283  1
  Si  Si7  1  0.91670400  0.21968413  0.20502654  1
  Si  Si8  1  0.08329600  0.79497346  0.78031587  1
  Ca  Ca9  1  0.50000000  0.29540726  0.70459274  1
  Zr  Zr10  1  0.50000000  0.68447067  0.31552933  1
