# generated using pymatgen
data_V3O5
_symmetry_space_group_name_H-M   'P 1'
_cell_length_a   5.20218483
_cell_length_b   5.71290277
_cell_length_c   7.09250651
_cell_angle_alpha   109.33447991
_cell_angle_beta   89.99664707
_cell_angle_gamma   62.86592030
_symmetry_Int_Tables_number   1
_chemical_formula_structural   V3O5
_chemical_formula_sum   'V6 O10'
_cell_volume   174.12057884
_cell_formula_units_Z   2
loop_
 _symmetry_equiv_pos_site_id
 _symmetry_equiv_pos_as_xyz
  1  'x, y, z'
loop_
 _atom_site_type_symbol
 _atom_site_label
 _atom_site_symmetry_multiplicity
 _atom_site_fract_x
 _atom_site_fract_y
 _atom_site_fract_z
 _atom_site_occupancy
  V  V0  1  0.87223789  0.25833530  0.71586126  1
  V  V1  1  0.87006014  0.25842427  0.21620828  1
  V  V2  1  0.12851242  0.73740597  0.77544874  1
  V  V3  1  0.13542353  0.73663254  0.27535934  1
  V  V4  1  0.49804335  0.99245043  0.99726522  1
  V  V5  1  0.51010851  0.99322775  0.49756117  1
  O  O6  1  0.52588255  0.62461041  0.83611692  1
  O  O7  1  0.44698576  0.39313066  0.16031209  1
  O  O8  1  0.85157871  0.62393736  0.33752795  1
  O  O9  1  0.15899708  0.39442524  0.66218468  1
  O  O10  1  0.07509678  0.15326626  0.93818698  1
  O  O11  1  0.77084406  0.15455858  0.43845828  1
  O  O12  1  0.92900351  0.83597670  0.05372000  1
  O  O13  1  0.23615489  0.83584971  0.55308134  1
  O  O14  1  0.30584094  0.99374622  0.25127720  1
  O  O15  1  0.70114087  0.99458659  0.75121854  1
