# generated using pymatgen
data_Sr3CaTi3MnO10
_symmetry_space_group_name_H-M   'P 1'
_cell_length_a   11.15670376
_cell_length_b   11.41776349
_cell_length_c   17.71042857
_cell_angle_alpha   108.73224075
_cell_angle_beta   108.53248916
_cell_angle_gamma   90.09194826
_symmetry_Int_Tables_number   1
_chemical_formula_structural   Sr3CaTi3MnO10
_chemical_formula_sum   'Sr24 Ca8 Ti24 Mn8 O80'
_cell_volume   2012.19099629
_cell_formula_units_Z   8
loop_
 _symmetry_equiv_pos_site_id
 _symmetry_equiv_pos_as_xyz
  1  'x, y, z'
loop_
 _atom_site_type_symbol
 _atom_site_label
 _atom_site_symmetry_multiplicity
 _atom_site_fract_x
 _atom_site_fract_y
 _atom_site_fract_z
 _atom_site_occupancy
  Sr  Sr0  1  0.30379848  0.06052126  0.60920703  1
  Sr  Sr1  1  0.30894602  0.56203392  0.61180221  1
  Sr  Sr2  1  0.81076060  0.06292933  0.61136523  1
  Sr  Sr3  1  0.80907597  0.56151328  0.61388623  1
  Sr  Sr4  1  0.19836640  0.43594341  0.38791459  1
  Sr  Sr5  1  0.19695574  0.43978129  0.88954069  1
  Sr  Sr6  1  0.19786641  0.93449868  0.38747167  1
  Sr  Sr7  1  0.69787214  0.43501576  0.38877115  1
  Sr  Sr8  1  0.69688012  0.43929281  0.88990650  1
  Sr  Sr9  1  0.69664146  0.93490202  0.38787829  1
  Sr  Sr10  1  0.70038281  0.93637479  0.89389690  1
  Sr  Sr11  1  0.06126603  0.29691251  0.11132801  1
  Sr  Sr12  1  0.05944322  0.29877505  0.61202079  1
  Sr  Sr13  1  0.05912029  0.80251929  0.61333499  1
  Sr  Sr14  1  0.55786475  0.30008832  0.61173111  1
  Sr  Sr15  1  0.55656805  0.79389276  0.11078653  1
  Sr  Sr16  1  0.55651984  0.79401190  0.60846448  1
  Sr  Sr17  1  0.44707376  0.20063566  0.38766822  1
  Sr  Sr18  1  0.44675004  0.20193000  0.89233446  1
  Sr  Sr19  1  0.44688477  0.70231334  0.38828292  1
  Sr  Sr20  1  0.44612092  0.70110521  0.89120408  1
  Sr  Sr21  1  0.94602498  0.20340253  0.38825329  1
  Sr  Sr22  1  0.94862769  0.20212269  0.89136875  1
  Sr  Sr23  1  0.94528580  0.70247740  0.38737916  1
  Ca  Ca24  1  0.30564853  0.06397579  0.10400177  1
  Ca  Ca25  1  0.30396527  0.56641290  0.10239791  1
  Ca  Ca26  1  0.80310460  0.06489141  0.10525982  1
  Ca  Ca27  1  0.80479333  0.56808046  0.10475359  1
  Ca  Ca28  1  0.19626498  0.93432415  0.89278275  1
  Ca  Ca29  1  0.06009912  0.78767701  0.10439835  1
  Ca  Ca30  1  0.55879360  0.28755998  0.10578784  1
  Ca  Ca31  1  0.94768042  0.70631128  0.89179122  1
  Ti  Ti32  1  0.00710949  0.99785229  0.00147870  1
  Ti  Ti33  1  0.00395098  0.00038428  0.49862782  1
  Ti  Ti34  1  0.00452973  0.49966053  0.99865897  1
  Ti  Ti35  1  0.00577304  0.50414760  0.50322433  1
  Ti  Ti36  1  0.50514651  0.99937610  0.00030787  1
  Ti  Ti37  1  0.50235640  0.99755737  0.49503056  1
  Ti  Ti38  1  0.50604907  0.49780481  0.00170735  1
  Ti  Ti39  1  0.50539418  0.50094224  0.50092801  1
  Ti  Ti40  1  0.25661187  0.25126073  0.00038284  1
  Ti  Ti41  1  0.25511080  0.24875554  0.50157499  1
  Ti  Ti42  1  0.25428084  0.75337116  0.00188517  1
  Ti  Ti43  1  0.25388153  0.74875141  0.50016032  1
  Ti  Ti44  1  0.75906306  0.25425900  0.00733396  1
  Ti  Ti45  1  0.75569655  0.25045997  0.50272248  1
  Ti  Ti46  1  0.75905867  0.75227750  0.00218880  1
  Ti  Ti47  1  0.75488762  0.74942620  0.50171432  1
  Ti  Ti48  1  0.10199778  0.08728213  0.24432607  1
  Ti  Ti49  1  0.10705319  0.59712689  0.24612035  1
  Ti  Ti50  1  0.60438088  0.09800599  0.24651268  1
  Ti  Ti51  1  0.60771605  0.08859542  0.75139843  1
  Ti  Ti52  1  0.60383663  0.58780179  0.24542744  1
  Ti  Ti53  1  0.36800205  0.40686760  0.24623343  1
  Ti  Ti54  1  0.85606426  0.40348887  0.24601613  1
  Ti  Ti55  1  0.86003273  0.89944981  0.24678018  1
  Mn  Mn56  1  0.11013178  0.09495121  0.75315706  1
  Mn  Mn57  1  0.10942824  0.60091507  0.75380872  1
  Mn  Mn58  1  0.61423416  0.59615565  0.75221523  1
  Mn  Mn59  1  0.36142784  0.40713040  0.75176214  1
  Mn  Mn60  1  0.35803266  0.90018040  0.24495329  1
  Mn  Mn61  1  0.35753661  0.89780190  0.75280282  1
  Mn  Mn62  1  0.86232194  0.40976766  0.75293425  1
  Mn  Mn63  1  0.86756021  0.90213740  0.75251731  1
  O  O64  1  0.12427400  0.12064579  0.48915239  1
  O  O65  1  0.12964347  0.11958921  0.99420285  1
  O  O66  1  0.12251350  0.61965357  0.48870282  1
  O  O67  1  0.12358683  0.62572171  0.99239128  1
  O  O68  1  0.62532261  0.12178290  0.49323786  1
  O  O69  1  0.62719272  0.12390388  0.99604285  1
  O  O70  1  0.62242943  0.61935080  0.48872687  1
  O  O71  1  0.62996637  0.62309586  0.99714890  1
  O  O72  1  0.14085594  0.38466951  0.01687899  1
  O  O73  1  0.12965891  0.37574706  0.50212287  1
  O  O74  1  0.13954845  0.88304305  0.01849504  1
  O  O75  1  0.12972449  0.87553010  0.50304978  1
  O  O76  1  0.63771096  0.38042242  0.01561860  1
  O  O77  1  0.63090623  0.37468200  0.50351431  1
  O  O78  1  0.64055536  0.88336044  0.01514143  1
  O  O79  1  0.63190103  0.87672288  0.50682205  1
  O  O80  1  0.37384121  0.11877628  0.49042014  1
  O  O81  1  0.37827362  0.12154210  0.99710784  1
  O  O82  1  0.37399113  0.61934292  0.48960933  1
  O  O83  1  0.37551674  0.61796859  0.99404566  1
  O  O84  1  0.87316929  0.11896288  0.48896352  1
  O  O85  1  0.87665181  0.11932422  0.99521797  1
  O  O86  1  0.87388783  0.61875776  0.48918653  1
  O  O87  1  0.88124813  0.62396921  0.99784177  1
  O  O88  1  0.39053786  0.38180803  0.01844295  1
  O  O89  1  0.37989518  0.37658377  0.50160763  1
  O  O90  1  0.38640088  0.88812360  0.01633320  1
  O  O91  1  0.38169543  0.87850715  0.50565683  1
  O  O92  1  0.88530504  0.38608696  0.01411940  1
  O  O93  1  0.88061026  0.37765902  0.50264684  1
  O  O94  1  0.89098588  0.88471631  0.01880839  1
  O  O95  1  0.87908658  0.87602147  0.50270751  1
  O  O96  1  0.08152816  0.09476269  0.13705388  1
  O  O97  1  0.07584007  0.08194526  0.62818370  1
  O  O98  1  0.08256503  0.59868365  0.13593993  1
  O  O99  1  0.07126999  0.58429826  0.62643004  1
  O  O100  1  0.58528980  0.09690733  0.13577285  1
  O  O101  1  0.58275360  0.09427749  0.64365029  1
  O  O102  1  0.57734939  0.58710187  0.13432059  1
  O  O103  1  0.57452383  0.58341133  0.62641292  1
  O  O104  1  0.43793674  0.41185929  0.35986010  1
  O  O105  1  0.44863213  0.41255454  0.87635196  1
  O  O106  1  0.44271849  0.91415966  0.36767701  1
  O  O107  1  0.45190236  0.91571707  0.87641307  1
  O  O108  1  0.93428395  0.41580156  0.36055020  1
  O  O109  1  0.94920859  0.41396762  0.87675525  1
  O  O110  1  0.93896470  0.91805634  0.36378864  1
  O  O111  1  0.95024274  0.90562970  0.87566488  1
  O  O112  1  0.32842288  0.28548936  0.13797758  1
  O  O113  1  0.32354278  0.29222623  0.62658570  1
  O  O114  1  0.32529673  0.78003835  0.12844477  1
  O  O115  1  0.32224759  0.79382463  0.62864397  1
  O  O116  1  0.82496493  0.28706189  0.13484937  1
  O  O117  1  0.82698646  0.29637711  0.62732446  1
  O  O118  1  0.82734475  0.78764577  0.13493982  1
  O  O119  1  0.82277963  0.79065311  0.62822781  1
  O  O120  1  0.18416256  0.19499593  0.35721192  1
  O  O121  1  0.20017973  0.21295729  0.87736039  1
  O  O122  1  0.18446137  0.69887589  0.36228116  1
  O  O123  1  0.20050767  0.72051346  0.87764447  1
  O  O124  1  0.68452146  0.19761794  0.36263366  1
  O  O125  1  0.69078207  0.20315902  0.85979764  1
  O  O126  1  0.68088398  0.69249330  0.36103223  1
  O  O127  1  0.70790995  0.71052876  0.87762926  1
  O  O128  1  0.43439801  0.06742080  0.23976783  1
  O  O129  1  0.44345817  0.06667163  0.75133871  1
  O  O130  1  0.42701189  0.56508046  0.23941232  1
  O  O131  1  0.43014431  0.57537385  0.75241423  1
  O  O132  1  0.93274916  0.05514955  0.24056842  1
  O  O133  1  0.92572550  0.07213731  0.75223491  1
  O  O134  1  0.93589058  0.54834188  0.23902208  1
  O  O135  1  0.92705597  0.58473644  0.75976732  1
  O  O136  1  0.19919892  0.45504308  0.24825686  1
  O  O137  1  0.17749248  0.43232602  0.75142090  1
  O  O138  1  0.17005404  0.93710060  0.24082500  1
  O  O139  1  0.17866127  0.92828642  0.76046645  1
  O  O140  1  0.68391641  0.43468942  0.24052371  1
  O  O141  1  0.67796597  0.42754325  0.75106635  1
  O  O142  1  0.69273546  0.95326913  0.24780341  1
  O  O143  1  0.67454715  0.94099596  0.75187502  1
