# generated using pymatgen
data_CaF3
_symmetry_space_group_name_H-M   'P 1'
_cell_length_a   4.94216446
_cell_length_b   4.94216558
_cell_length_c   4.50730281
_cell_angle_alpha   90.00000000
_cell_angle_beta   90.00000000
_cell_angle_gamma   120.00000095
_symmetry_Int_Tables_number   1
_chemical_formula_structural   CaF3
_chemical_formula_sum   'Ca2 F6'
_cell_volume   95.34147112
_cell_formula_units_Z   2
loop_
 _symmetry_equiv_pos_site_id
 _symmetry_equiv_pos_as_xyz
  1  'x, y, z'
loop_
 _atom_site_type_symbol
 _atom_site_label
 _atom_site_symmetry_multiplicity
 _atom_site_fract_x
 _atom_site_fract_y
 _atom_site_fract_z
 _atom_site_occupancy
  Ca  Ca0  1  0.33333400  0.66666800  0.74999896  1
  Ca  Ca1  1  0.66666600  0.33333300  0.25000004  1
  F  F2  1  0.17634058  0.35268116  0.25000078  1
  F  F3  1  0.64731884  0.82366042  0.25000078  1
  F  F4  1  0.17634058  0.82366042  0.25000078  1
  F  F5  1  0.82365842  0.64731984  0.74999822  1
  F  F6  1  0.35268316  0.17634258  0.74999822  1
  F  F7  1  0.82366042  0.17634258  0.74999822  1
