# generated using pymatgen
data_MnH8(NO5)2
_symmetry_space_group_name_H-M   'P 1'
_cell_length_a   5.45637335
_cell_length_b   27.69944409
_cell_length_c   5.87560734
_cell_angle_alpha   90.00000000
_cell_angle_beta   113.52989983
_cell_angle_gamma   90.00000000
_symmetry_Int_Tables_number   1
_chemical_formula_structural   MnH8(NO5)2
_chemical_formula_sum   'Mn4 H32 N8 O40'
_cell_volume   814.19244411
_cell_formula_units_Z   4
loop_
 _symmetry_equiv_pos_site_id
 _symmetry_equiv_pos_as_xyz
  1  'x, y, z'
loop_
 _atom_site_type_symbol
 _atom_site_label
 _atom_site_symmetry_multiplicity
 _atom_site_fract_x
 _atom_site_fract_y
 _atom_site_fract_z
 _atom_site_occupancy
  Mn  Mn0  1  0.52040046  0.62589086  0.22018979  1
  Mn  Mn1  1  0.02040046  0.87410914  0.72018979  1
  Mn  Mn2  1  0.47959954  0.37410914  0.77981021  1
  Mn  Mn3  1  0.97959954  0.12589086  0.27981021  1
  H  H4  1  0.03751853  0.63066254  0.79257101  1
  H  H5  1  0.53751853  0.86933746  0.29257101  1
  H  H6  1  0.96248147  0.36933746  0.20742899  1
  H  H7  1  0.46248147  0.13066254  0.70742899  1
  H  H8  1  0.17225733  0.68201162  0.84681482  1
  H  H9  1  0.67225733  0.81798838  0.34681482  1
  H  H10  1  0.82774267  0.31798838  0.15318518  1
  H  H11  1  0.32774267  0.18201162  0.65318518  1
  H  H12  1  0.57317586  0.55234343  0.88782302  1
  H  H13  1  0.07317586  0.94765657  0.38782302  1
  H  H14  1  0.42682414  0.44765657  0.11217698  1
  H  H15  1  0.92682414  0.05234343  0.61217698  1
  H  H16  1  0.51399363  0.60513309  0.76204396  1
  H  H17  1  0.01399363  0.89486691  0.26204396  1
  H  H18  1  0.48600637  0.39486691  0.23795604  1
  H  H19  1  0.98600637  0.10513309  0.73795604  1
  H  H20  1  0.01648662  0.58574716  0.43342258  1
  H  H21  1  0.51648662  0.91425284  0.93342258  1
  H  H22  1  0.98351338  0.41425284  0.56657742  1
  H  H23  1  0.48351338  0.08574716  0.06657742  1
  H  H24  1  0.86283330  0.55764700  0.56819924  1
  H  H25  1  0.36283330  0.94235300  0.06819924  1
  H  H26  1  0.13716670  0.44235300  0.43180076  1
  H  H27  1  0.63716670  0.05764700  0.93180076  1
  H  H28  1  0.77646639  0.71269029  0.17113192  1
  H  H29  1  0.27646639  0.78730971  0.67113192  1
  H  H30  1  0.22353361  0.28730971  0.82886808  1
  H  H31  1  0.72353361  0.21269029  0.32886808  1
  H  H32  1  0.89847997  0.66835729  0.07907645  1
  H  H33  1  0.39847997  0.83164271  0.57907645  1
  H  H34  1  0.10152003  0.33164271  0.92092355  1
  H  H35  1  0.60152003  0.16835729  0.42092355  1
  N  N36  1  0.25733036  0.52699520  0.26427696  1
  N  N37  1  0.75733036  0.97300480  0.76427696  1
  N  N38  1  0.74266964  0.47300480  0.73572304  1
  N  N39  1  0.24266964  0.02699520  0.23572304  1
  N  N40  1  0.39650220  0.70512658  0.51870703  1
  N  N41  1  0.89650220  0.79487342  0.01870703  1
  N  N42  1  0.60349780  0.29487342  0.48129297  1
  N  N43  1  0.10349780  0.20512658  0.98129297  1
  O  O44  1  0.25153650  0.57327150  0.30133555  1
  O  O45  1  0.75153650  0.92672850  0.80133555  1
  O  O46  1  0.74846350  0.42672850  0.69866445  1
  O  O47  1  0.24846350  0.07327150  0.19866445  1
  O  O48  1  0.44807519  0.51024602  0.22078972  1
  O  O49  1  0.94807519  0.98975398  0.72078972  1
  O  O50  1  0.55192481  0.48975398  0.77921028  1
  O  O51  1  0.05192481  0.01024602  0.27921028  1
  O  O52  1  0.07368624  0.50161126  0.27577408  1
  O  O53  1  0.57368624  0.99838874  0.77577408  1
  O  O54  1  0.92631376  0.49838874  0.72422592  1
  O  O55  1  0.42631376  0.00161126  0.22422592  1
  O  O56  1  0.45360641  0.65928528  0.52983021  1
  O  O57  1  0.95360641  0.84071472  0.02983021  1
  O  O58  1  0.54639359  0.34071472  0.47016979  1
  O  O59  1  0.04639359  0.15928528  0.97016979  1
  O  O60  1  0.31274184  0.72175236  0.67528439  1
  O  O61  1  0.81274184  0.77824764  0.17528439  1
  O  O62  1  0.68725816  0.27824764  0.32471561  1
  O  O63  1  0.18725816  0.22175236  0.82471561  1
  O  O64  1  0.42365541  0.73058112  0.35704826  1
  O  O65  1  0.92365541  0.76941888  0.85704826  1
  O  O66  1  0.57634459  0.26941888  0.64295174  1
  O  O67  1  0.07634459  0.23058112  0.14295174  1
  O  O68  1  0.13043999  0.65369956  0.92923242  1
  O  O69  1  0.63043999  0.84630044  0.42923242  1
  O  O70  1  0.86956001  0.34630044  0.07076758  1
  O  O71  1  0.36956001  0.15369956  0.57076758  1
  O  O72  1  0.57427109  0.58741935  0.91955078  1
  O  O73  1  0.07427109  0.91258065  0.41955078  1
  O  O74  1  0.42572891  0.41258065  0.08044922  1
  O  O75  1  0.92572891  0.08741935  0.58044922  1
  O  O76  1  0.88678178  0.59045855  0.51268648  1
  O  O77  1  0.38678178  0.90954145  0.01268648  1
  O  O78  1  0.11321822  0.40954145  0.48731352  1
  O  O79  1  0.61321822  0.09045855  0.98731352  1
  O  O80  1  0.79430399  0.67707425  0.17745174  1
  O  O81  1  0.29430399  0.82292575  0.67745174  1
  O  O82  1  0.20569601  0.32292575  0.82254826  1
  O  O83  1  0.70569601  0.17707425  0.32254826  1
