# generated using pymatgen
data_K2MnH8(SO6)2
_symmetry_space_group_name_H-M   'P 1'
_cell_length_a   13.05206796
_cell_length_b   12.20937368
_cell_length_c   13.05206796
_cell_angle_alpha   122.72090081
_cell_angle_beta   136.73260879
_cell_angle_gamma   75.52556776
_symmetry_Int_Tables_number   1
_chemical_formula_structural   K2MnH8(SO6)2
_chemical_formula_sum   'K8 Mn4 H32 S8 O48'
_cell_volume   1161.56302657
_cell_formula_units_Z   4
loop_
 _symmetry_equiv_pos_site_id
 _symmetry_equiv_pos_as_xyz
  1  'x, y, z'
loop_
 _atom_site_type_symbol
 _atom_site_label
 _atom_site_symmetry_multiplicity
 _atom_site_fract_x
 _atom_site_fract_y
 _atom_site_fract_z
 _atom_site_occupancy
  K  K0  1  0.36225888  0.45994962  0.06345104  1
  K  K1  1  0.60350142  0.04005038  0.40230926  1
  K  K2  1  0.63774112  0.54005038  0.93654896  1
  K  K3  1  0.39649858  0.95994962  0.59769074  1
  K  K4  1  0.88132444  0.45218008  0.58969867  1
  K  K5  1  0.13751859  0.04781992  0.92914436  1
  K  K6  1  0.11867556  0.54781992  0.41030133  1
  K  K7  1  0.86248141  0.95218008  0.07085564  1
  Mn  Mn8  1  0.75084319  0.75000000  0.50084319  1
  Mn  Mn9  1  0.24915681  0.25000000  0.49915681  1
  Mn  Mn10  1  0.00000000  0.50000000  0.00000000  1
  Mn  Mn11  1  0.50000000  0.00000000  0.00000000  1
  H  H12  1  0.29788080  0.63480566  0.32180064  1
  H  H13  1  0.68699498  0.86519434  0.16307513  1
  H  H14  1  0.70211920  0.36519434  0.67819936  1
  H  H15  1  0.31300502  0.13480566  0.83692487  1
  H  H16  1  0.25598511  0.70017148  0.22249064  1
  H  H17  1  0.52231917  0.79982852  0.05581363  1
  H  H18  1  0.74401489  0.29982852  0.77750936  1
  H  H19  1  0.47768083  0.20017148  0.94418637  1
  H  H20  1  0.80490855  0.63276906  0.82576813  1
  H  H21  1  0.19299907  0.86723094  0.67213949  1
  H  H22  1  0.19509145  0.36723094  0.17423187  1
  H  H23  1  0.80700093  0.13276906  0.32786051  1
  H  H24  1  0.97350059  0.70138767  0.94365191  1
  H  H25  1  0.24226425  0.79861233  0.77211292  1
  H  H26  1  0.02649941  0.29861233  0.05634809  1
  H  H27  1  0.75773575  0.20138767  0.22788708  1
  H  H28  1  0.44335619  0.78681067  0.26937195  1
  H  H29  1  0.48256128  0.71318933  0.15654552  1
  H  H30  1  0.55664381  0.21318933  0.73062805  1
  H  H31  1  0.51743872  0.28681067  0.84345448  1
  H  H32  1  0.01835729  0.78723674  0.84436677  1
  H  H33  1  0.05713003  0.71276326  0.73112054  1
  H  H34  1  0.98164271  0.21276326  0.15563323  1
  H  H35  1  0.94286997  0.28723674  0.26887946  1
  H  H36  1  0.63213123  0.68312241  0.59192781  1
  H  H37  1  0.90880540  0.81687759  0.44900881  1
  H  H38  1  0.36786877  0.31687759  0.40807219  1
  H  H39  1  0.09119460  0.18312241  0.55099119  1
  H  H40  1  0.60082827  0.55094501  0.43409332  1
  H  H41  1  0.88314831  0.94905499  0.54988326  1
  H  H42  1  0.39917173  0.44905499  0.56590668  1
  H  H43  1  0.11685169  0.05094501  0.45011674  1
  S  S44  1  0.26995223  0.56593088  0.79076837  1
  S  S45  1  0.22483749  0.93406912  0.20402135  1
  S  S46  1  0.73004777  0.43406912  0.20923163  1
  S  S47  1  0.77516251  0.06593088  0.79597865  1
  S  S48  1  0.01840285  0.22162507  0.72044236  1
  S  S49  1  0.49881729  0.27837493  0.29677778  1
  S  S50  1  0.98159715  0.77837493  0.27955764  1
  S  S51  1  0.50118271  0.72162507  0.70322222  1
  O  O52  1  0.43195593  0.64856176  0.96905626  1
  O  O53  1  0.32049450  0.85143824  0.28339416  1
  O  O54  1  0.56804407  0.35143824  0.03094374  1
  O  O55  1  0.67950550  0.14856176  0.71660584  1
  O  O56  1  0.06243473  0.84995176  0.02915418  1
  O  O57  1  0.17920242  0.65004824  0.71248297  1
  O  O58  1  0.93756527  0.15004824  0.97084582  1
  O  O59  1  0.82079758  0.34995176  0.28751703  1
  O  O60  1  0.64236051  0.69944471  0.74247589  1
  O  O61  1  0.04303118  0.80055529  0.44291581  1
  O  O62  1  0.35763949  0.30055529  0.25752411  1
  O  O63  1  0.95696882  0.19944471  0.55708419  1
  O  O64  1  0.37043147  0.69988430  0.52346717  1
  O  O65  1  0.82358287  0.80011570  0.17054717  1
  O  O66  1  0.62956853  0.30011570  0.47653283  1
  O  O67  1  0.17641713  0.19988430  0.82945283  1
  O  O68  1  0.78057760  0.95250892  0.67279502  1
  O  O69  1  0.72028609  0.54749108  0.32806868  1
  O  O70  1  0.21942240  0.04749108  0.32720498  1
  O  O71  1  0.27971391  0.45250892  0.67193132  1
  O  O72  1  0.19450656  0.51747999  0.80950191  1
  O  O73  1  0.29202191  0.98252001  0.17702657  1
  O  O74  1  0.80549344  0.48252001  0.19049809  1
  O  O75  1  0.70797809  0.01747999  0.82297343  1
  O  O76  1  0.02707213  0.36540401  0.82667602  1
  O  O77  1  0.46127201  0.13459599  0.16166812  1
  O  O78  1  0.97292787  0.63459599  0.17332398  1
  O  O79  1  0.53872799  0.86540401  0.83833188  1
  O  O80  1  0.91592270  0.12927122  0.67201372  1
  O  O81  1  0.54274250  0.37072878  0.28665148  1
  O  O82  1  0.08407730  0.87072878  0.32798628  1
  O  O83  1  0.45725750  0.62927122  0.71334852  1
  O  O84  1  0.24089507  0.61209757  0.20291866  1
  O  O85  1  0.59082109  0.88790243  0.12879750  1
  O  O86  1  0.75910493  0.38790243  0.79708134  1
  O  O87  1  0.40917891  0.11209757  0.87120250  1
  O  O88  1  0.90562936  0.61362130  0.87312846  1
  O  O89  1  0.25950715  0.88637870  0.79200806  1
  O  O90  1  0.09437064  0.38637870  0.12687154  1
  O  O91  1  0.74049285  0.11362130  0.20799194  1
  O  O92  1  0.52247096  0.75000000  0.27247096  1
  O  O93  1  0.47752904  0.25000000  0.72752904  1
  O  O94  1  0.97850449  0.75000000  0.72850449  1
  O  O95  1  0.02149551  0.25000000  0.27149551  1
  O  O96  1  0.63748842  0.65036314  0.50813323  1
  O  O97  1  0.85777009  0.84963686  0.48712528  1
  O  O98  1  0.36251158  0.34963686  0.49186677  1
  O  O99  1  0.14222991  0.15036314  0.51287472  1
