# generated using pymatgen
data_Na6P2H2O9
_symmetry_space_group_name_H-M   'P 1'
_cell_length_a   5.58354945
_cell_length_b   5.58354945
_cell_length_c   17.15030800
_cell_angle_alpha   78.94979371
_cell_angle_beta   101.05020629
_cell_angle_gamma   121.22869552
_symmetry_Int_Tables_number   1
_chemical_formula_structural   Na6P2H2O9
_chemical_formula_sum   'Na12 P4 H4 O18'
_cell_volume   446.00738682
_cell_formula_units_Z   2
loop_
 _symmetry_equiv_pos_site_id
 _symmetry_equiv_pos_as_xyz
  1  'x, y, z'
loop_
 _atom_site_type_symbol
 _atom_site_label
 _atom_site_symmetry_multiplicity
 _atom_site_fract_x
 _atom_site_fract_y
 _atom_site_fract_z
 _atom_site_occupancy
  Na  Na0  1  0.65202718  0.28913669  0.45198876  1
  Na  Na1  1  0.28913669  0.65202718  0.04801124  1
  Na  Na2  1  0.34797282  0.71086331  0.54801124  1
  Na  Na3  1  0.71086331  0.34797282  0.95198876  1
  Na  Na4  1  0.90348810  0.90163290  0.09712049  1
  Na  Na5  1  0.90163290  0.90348810  0.40287951  1
  Na  Na6  1  0.09651190  0.09836710  0.90287951  1
  Na  Na7  1  0.09836710  0.09651190  0.59712049  1
  Na  Na8  1  0.48254821  0.18240014  0.28469325  1
  Na  Na9  1  0.18240014  0.48254821  0.21530675  1
  Na  Na10  1  0.51745179  0.81759986  0.71530675  1
  Na  Na11  1  0.81759986  0.51745179  0.78469325  1
  P  P12  1  0.77045848  0.45606271  0.61320212  1
  P  P13  1  0.45606271  0.77045848  0.88679788  1
  P  P14  1  0.22954152  0.54393729  0.38679788  1
  P  P15  1  0.54393729  0.22954152  0.11320212  1
  H  H16  1  0.06552436  0.23010007  0.72660011  1
  H  H17  1  0.23010007  0.06552436  0.77339989  1
  H  H18  1  0.93447564  0.76989993  0.27339989  1
  H  H19  1  0.76989993  0.93447564  0.22660011  1
  O  O20  1  0.04076738  0.04076738  0.75000000  1
  O  O21  1  0.95923262  0.95923262  0.25000000  1
  O  O22  1  0.86786975  0.66438391  0.53565564  1
  O  O23  1  0.66438391  0.86786975  0.96434436  1
  O  O24  1  0.13213025  0.33561609  0.46434436  1
  O  O25  1  0.33561609  0.13213025  0.03565564  1
  O  O26  1  0.50662857  0.44247316  0.14904968  1
  O  O27  1  0.44247316  0.50662857  0.35095032  1
  O  O28  1  0.49337143  0.55752684  0.85095032  1
  O  O29  1  0.55752684  0.49337143  0.64904968  1
  O  O30  1  0.47874920  0.96293083  0.17486126  1
  O  O31  1  0.96293083  0.47874920  0.32513874  1
  O  O32  1  0.52125080  0.03706917  0.82513874  1
  O  O33  1  0.03706917  0.52125080  0.67486126  1
  O  O34  1  0.62832939  0.14510281  0.59327666  1
  O  O35  1  0.14510281  0.62832939  0.90672334  1
  O  O36  1  0.37167061  0.85489719  0.40672334  1
  O  O37  1  0.85489719  0.37167061  0.09327666  1
