# generated using pymatgen
data_K2ZnCr4(HO4)4
_symmetry_space_group_name_H-M   'P 1'
_cell_length_a   6.89690555
_cell_length_b   7.84235646
_cell_length_c   8.00460037
_cell_angle_alpha   89.32577882
_cell_angle_beta   81.68377051
_cell_angle_gamma   64.11571221
_symmetry_Int_Tables_number   1
_chemical_formula_structural   K2ZnCr4(HO4)4
_chemical_formula_sum   'K2 Zn1 Cr4 H4 O16'
_cell_volume   384.77967827
_cell_formula_units_Z   1
loop_
 _symmetry_equiv_pos_site_id
 _symmetry_equiv_pos_as_xyz
  1  'x, y, z'
loop_
 _atom_site_type_symbol
 _atom_site_label
 _atom_site_symmetry_multiplicity
 _atom_site_fract_x
 _atom_site_fract_y
 _atom_site_fract_z
 _atom_site_occupancy
  K  K0  1  0.70813354  0.73521754  0.17395482  1
  K  K1  1  0.29186646  0.26478246  0.82604518  1
  Zn  Zn2  1  0.00000000  0.00000000  0.50000000  1
  Cr  Cr3  1  0.27605455  0.49384245  0.33299925  1
  Cr  Cr4  1  0.72394545  0.50615755  0.66700075  1
  Cr  Cr5  1  0.73970556  0.20542488  0.15664130  1
  Cr  Cr6  1  0.26029444  0.79457512  0.84335870  1
  H  H7  1  0.73653566  0.85553600  0.61109662  1
  H  H8  1  0.26346434  0.14446400  0.38890338  1
  H  H9  1  0.82657891  0.90805613  0.76446030  1
  H  H10  1  0.17342109  0.09194387  0.23553970  1
  O  O11  1  0.15231496  0.46335319  0.18702117  1
  O  O12  1  0.84768504  0.53664681  0.81297883  1
  O  O13  1  0.84495643  0.28580046  0.58745602  1
  O  O14  1  0.15504357  0.71419954  0.41254398  1
  O  O15  1  0.28655379  0.34183817  0.47828838  1
  O  O16  1  0.71344621  0.65816183  0.52171162  1
  O  O17  1  0.55023516  0.44155872  0.23774574  1
  O  O18  1  0.44976484  0.55844128  0.76225426  1
  O  O19  1  0.96164787  0.21536402  0.06603738  1
  O  O20  1  0.03835213  0.78463598  0.93396262  1
  O  O21  1  0.62877131  0.13517770  0.02414755  1
  O  O22  1  0.37122869  0.86482230  0.97585245  1
  O  O23  1  0.79345189  0.05982678  0.31354501  1
  O  O24  1  0.20654811  0.94017322  0.68645499  1
  O  O25  1  0.75898708  0.95905824  0.66332639  1
  O  O26  1  0.24101292  0.04094176  0.33667361  1
