# generated using pymatgen
data_Na3VSi4(HO6)2
_symmetry_space_group_name_H-M   'P 1'
_cell_length_a   7.62096745
_cell_length_b   8.83677028
_cell_length_c   9.18016966
_cell_angle_alpha   62.40138875
_cell_angle_beta   84.02908108
_cell_angle_gamma   88.63609771
_symmetry_Int_Tables_number   1
_chemical_formula_structural   Na3VSi4(HO6)2
_chemical_formula_sum   'Na6 V2 Si8 H4 O24'
_cell_volume   544.70895604
_cell_formula_units_Z   2
loop_
 _symmetry_equiv_pos_site_id
 _symmetry_equiv_pos_as_xyz
  1  'x, y, z'
loop_
 _atom_site_type_symbol
 _atom_site_label
 _atom_site_symmetry_multiplicity
 _atom_site_fract_x
 _atom_site_fract_y
 _atom_site_fract_z
 _atom_site_occupancy
  Na  Na0  1  0.85574622  0.25437221  0.87886124  1
  Na  Na1  1  0.14425378  0.74562779  0.12113876  1
  Na  Na2  1  0.65604266  0.13166873  0.57629224  1
  Na  Na3  1  0.34395734  0.86833127  0.42370776  1
  Na  Na4  1  0.64057272  0.59984740  0.18386483  1
  Na  Na5  1  0.35942728  0.40015260  0.81613517  1
  V  V6  1  0.00000000  0.50000000  0.00000000  1
  V  V7  1  0.50000000  0.00000000  0.00000000  1
  Si  Si8  1  0.77696301  0.71084799  0.68011127  1
  Si  Si9  1  0.22303699  0.28915201  0.31988873  1
  Si  Si10  1  0.88578700  0.90727032  0.84383662  1
  Si  Si11  1  0.11421300  0.09272968  0.15616338  1
  Si  Si12  1  0.60159962  0.25534203  0.16655403  1
  Si  Si13  1  0.39840038  0.74465797  0.83344597  1
  Si  Si14  1  0.73538214  0.91089991  0.30566906  1
  Si  Si15  1  0.26461786  0.08910009  0.69433094  1
  H  H16  1  0.90905425  0.41192108  0.36795337  1
  H  H17  1  0.09094575  0.58807892  0.63204663  1
  H  H18  1  0.82385302  0.46176981  0.50531269  1
  H  H19  1  0.17614698  0.53823019  0.49468731  1
  O  O20  1  0.77318635  0.75369508  0.48614150  1
  O  O21  1  0.22681365  0.24630492  0.51385850  1
  O  O22  1  0.90302124  0.71908321  0.99691577  1
  O  O23  1  0.09697876  0.28091679  0.00308423  1
  O  O24  1  0.60504267  0.84151925  0.22184640  1
  O  O25  1  0.39495733  0.15848075  0.77815360  1
  O  O26  1  0.55822779  0.21574064  0.01746380  1
  O  O27  1  0.44177221  0.78425936  0.98253620  1
  O  O28  1  0.90517950  0.55232377  0.76869679  1
  O  O29  1  0.09482050  0.44767623  0.23130321  1
  O  O30  1  0.56961529  0.66732257  0.76380061  1
  O  O31  1  0.43038471  0.33267743  0.23619939  1
  O  O32  1  0.73536034  0.03116258  0.86164841  1
  O  O33  1  0.26463966  0.96883742  0.13835159  1
  O  O34  1  0.07458955  0.01447845  0.80459136  1
  O  O35  1  0.92541045  0.98552155  0.19540864  1
  O  O36  1  0.84710760  0.88868956  0.67639160  1
  O  O37  1  0.15289240  0.11131044  0.32360840  1
  O  O38  1  0.63801189  0.06869880  0.33431359  1
  O  O39  1  0.36198811  0.93130120  0.66568641  1
  O  O40  1  0.76625727  0.38577132  0.12106325  1
  O  O41  1  0.23374273  0.61422868  0.87893675  1
  O  O42  1  0.79950698  0.39830455  0.44581790  1
  O  O43  1  0.20049302  0.60169545  0.55418210  1
