# generated using pymatgen
data_Ca10Ti8NbFeO30
_symmetry_space_group_name_H-M   'P 1'
_cell_length_a   5.43686105
_cell_length_b   5.53379022
_cell_length_c   38.61817858
_cell_angle_alpha   90.07275480
_cell_angle_beta   90.04505867
_cell_angle_gamma   90.23411323
_symmetry_Int_Tables_number   1
_chemical_formula_structural   Ca10Ti8NbFeO30
_chemical_formula_sum   'Ca20 Ti16 Nb2 Fe2 O60'
_cell_volume   1161.87284106
_cell_formula_units_Z   2
loop_
 _symmetry_equiv_pos_site_id
 _symmetry_equiv_pos_as_xyz
  1  'x, y, z'
loop_
 _atom_site_type_symbol
 _atom_site_label
 _atom_site_symmetry_multiplicity
 _atom_site_fract_x
 _atom_site_fract_y
 _atom_site_fract_z
 _atom_site_occupancy
  Ca  Ca0  1  0.00817137  0.95187261  0.15074579  1
  Ca  Ca1  1  0.01903231  0.96792600  0.54630854  1
  Ca  Ca2  1  0.00731241  0.96836948  0.34830555  1
  Ca  Ca3  1  0.00871029  0.96785411  0.74914916  1
  Ca  Ca4  1  0.00430328  0.94561485  0.95287836  1
  Ca  Ca5  1  0.49417974  0.46451793  0.34817334  1
  Ca  Ca6  1  0.48972834  0.45289898  0.15049520  1
  Ca  Ca7  1  0.48934784  0.46217195  0.54626216  1
  Ca  Ca8  1  0.48226783  0.45764116  0.74983167  1
  Ca  Ca9  1  0.48699098  0.44739674  0.95311658  1
  Ca  Ca10  1  0.50582026  0.53548207  0.05182666  1
  Ca  Ca11  1  0.51027166  0.54710102  0.24950480  1
  Ca  Ca12  1  0.51773217  0.54235884  0.65016833  1
  Ca  Ca13  1  0.51300902  0.55260326  0.44688342  1
  Ca  Ca14  1  0.51065216  0.53782805  0.85373784  1
  Ca  Ca15  1  0.99182863  0.04812739  0.24925421  1
  Ca  Ca16  1  0.99268759  0.03163052  0.05169445  1
  Ca  Ca17  1  0.99128971  0.03214589  0.65085084  1
  Ca  Ca18  1  0.99569672  0.05438515  0.44712164  1
  Ca  Ca19  1  0.98096769  0.03207400  0.85369146  1
  Ti  Ti20  1  0.00000000  0.50000000  0.20000000  1
  Ti  Ti21  1  0.99579340  0.51625972  0.39743083  1
  Ti  Ti22  1  0.99863467  0.51263973  0.49536929  1
  Ti  Ti23  1  0.00136533  0.48736027  0.90463071  1
  Ti  Ti24  1  0.50455693  0.98677800  0.10084253  1
  Ti  Ti25  1  0.49544307  0.01322200  0.29915747  1
  Ti  Ti26  1  0.50777346  0.98899297  0.00179853  1
  Ti  Ti27  1  0.50330795  0.00857097  0.49904247  1
  Ti  Ti28  1  0.49669205  0.99142903  0.90095753  1
  Ti  Ti29  1  0.50000000  0.00000000  0.20000000  1
  Ti  Ti30  1  0.49222654  0.01100703  0.39820147  1
  Ti  Ti31  1  0.50000000  0.00000000  0.70000000  1
  Ti  Ti32  1  0.99991815  0.48375227  0.10188889  1
  Ti  Ti33  1  0.00420660  0.48374028  0.00256917  1
  Ti  Ti34  1  0.00008185  0.51624773  0.29811111  1
  Ti  Ti35  1  0.00000000  0.50000000  0.70000000  1
  Nb  Nb36  1  0.99598134  0.49797938  0.80201581  1
  Nb  Nb37  1  0.00401866  0.50202062  0.59798419  1
  Fe  Fe38  1  0.50345927  0.00124350  0.59926848  1
  Fe  Fe39  1  0.49654073  0.99875650  0.80073152  1
  O  O40  1  0.07233146  0.47702990  0.05166664  1
  O  O41  1  0.08259381  0.48011180  0.24933810  1
  O  O42  1  0.08897983  0.48675477  0.44769510  1
  O  O43  1  0.41618922  0.97184375  0.65081867  1
  O  O44  1  0.08280818  0.47703338  0.85248374  1
  O  O45  1  0.20944548  0.21050378  0.19184503  1
  O  O46  1  0.21925671  0.21396749  0.38973428  1
  O  O47  1  0.21949369  0.21960049  0.58876676  1
  O  O48  1  0.20841460  0.21447164  0.79150924  1
  O  O49  1  0.19763707  0.20594634  0.99408159  1
  O  O50  1  0.20306066  0.21124920  0.10953781  1
  O  O51  1  0.21600867  0.21027389  0.30688702  1
  O  O52  1  0.22317039  0.22141084  0.50568042  1
  O  O53  1  0.21498459  0.21878997  0.70790578  1
  O  O54  1  0.19877570  0.20430874  0.91117853  1
  O  O55  1  0.28550074  0.71000868  0.10952837  1
  O  O56  1  0.28934286  0.71021039  0.19165238  1
  O  O57  1  0.29454364  0.71033828  0.30670957  1
  O  O58  1  0.29903482  0.71449857  0.38965526  1
  O  O59  1  0.28967640  0.71744297  0.58760970  1
  O  O60  1  0.27789598  0.70156558  0.91195266  1
  O  O61  1  0.27958258  0.71706500  0.70991193  1
  O  O62  1  0.27741096  0.71442747  0.79074108  1
  O  O63  1  0.29584769  0.72176545  0.50592291  1
  O  O64  1  0.28025501  0.70397341  0.99408944  1
  O  O65  1  0.41640994  0.97654155  0.05186390  1
  O  O66  1  0.42267057  0.97966174  0.24935887  1
  O  O67  1  0.09089886  0.49122463  0.64984323  1
  O  O68  1  0.43049460  0.98522419  0.44725659  1
  O  O69  1  0.40490211  0.96815232  0.85360611  1
  O  O70  1  0.58359006  0.02345845  0.34813610  1
  O  O71  1  0.57732943  0.02033826  0.15064113  1
  O  O72  1  0.59509789  0.03184768  0.54639389  1
  O  O73  1  0.90910114  0.50877537  0.75015677  1
  O  O74  1  0.56950540  0.01477581  0.95274341  1
  O  O75  1  0.70096518  0.28550143  0.01034474  1
  O  O76  1  0.70545636  0.28966172  0.09329043  1
  O  O77  1  0.71065714  0.28978961  0.20834762  1
  O  O78  1  0.71449926  0.28999132  0.29047163  1
  O  O79  1  0.72258904  0.28557253  0.60925892  1
  O  O80  1  0.71974499  0.29602659  0.40591056  1
  O  O81  1  0.72210402  0.29843442  0.48804734  1
  O  O82  1  0.71032360  0.28255703  0.81239030  1
  O  O83  1  0.72041742  0.28293500  0.69008807  1
  O  O84  1  0.70415231  0.27823455  0.89407709  1
  O  O85  1  0.78399133  0.78972611  0.09311298  1
  O  O86  1  0.78501541  0.78121003  0.69209422  1
  O  O87  1  0.79693934  0.78875080  0.29046219  1
  O  O88  1  0.80122430  0.79569126  0.48882147  1
  O  O89  1  0.77682961  0.77858916  0.89431958  1
  O  O90  1  0.78074329  0.78603251  0.01026572  1
  O  O91  1  0.79055452  0.78949622  0.20815497  1
  O  O92  1  0.80236293  0.79405366  0.40591841  1
  O  O93  1  0.79158540  0.78552836  0.60849076  1
  O  O94  1  0.78050631  0.78039951  0.81123324  1
  O  O95  1  0.91740619  0.51988820  0.15066190  1
  O  O96  1  0.92766854  0.52297010  0.34833336  1
  O  O97  1  0.91719182  0.52296662  0.54751626  1
  O  O98  1  0.58381078  0.02815625  0.74918133  1
  O  O99  1  0.91102017  0.51324523  0.95230490  1
