# generated using pymatgen
data_NiH4(IO4)2
_symmetry_space_group_name_H-M   'P 1'
_cell_length_a   6.91512980
_cell_length_b   9.14062653
_cell_length_c   12.32341789
_cell_angle_alpha   90.00000000
_cell_angle_beta   90.00000000
_cell_angle_gamma   90.00000000
_symmetry_Int_Tables_number   1
_chemical_formula_structural   NiH4(IO4)2
_chemical_formula_sum   'Ni4 H16 I8 O32'
_cell_volume   778.94622506
_cell_formula_units_Z   4
loop_
 _symmetry_equiv_pos_site_id
 _symmetry_equiv_pos_as_xyz
  1  'x, y, z'
loop_
 _atom_site_type_symbol
 _atom_site_label
 _atom_site_symmetry_multiplicity
 _atom_site_fract_x
 _atom_site_fract_y
 _atom_site_fract_z
 _atom_site_occupancy
  Ni  Ni0  1  0.00000000  0.00000000  0.00000000  1
  Ni  Ni1  1  0.50000000  0.50000000  0.00000000  1
  Ni  Ni2  1  0.00000000  0.50000000  0.50000000  1
  Ni  Ni3  1  0.50000000  0.00000000  0.50000000  1
  I  I4  1  0.22136819  0.27593890  0.13675030  1
  I  I5  1  0.72136819  0.22406110  0.86324970  1
  I  I6  1  0.77863181  0.77593890  0.36324970  1
  I  I7  1  0.27863181  0.72406110  0.63675030  1
  I  I8  1  0.77863181  0.72406110  0.86324970  1
  I  I9  1  0.27863181  0.77593890  0.13675030  1
  I  I10  1  0.22136819  0.22406110  0.63675030  1
  I  I11  1  0.72136819  0.27593890  0.36324970  1
  O  O12  1  0.44110994  0.29144150  0.05385135  1
  O  O13  1  0.94110994  0.20855850  0.94614865  1
  O  O14  1  0.55889006  0.79144150  0.44614865  1
  O  O15  1  0.05889006  0.70855850  0.55385135  1
  O  O16  1  0.55889006  0.70855850  0.94614865  1
  O  O17  1  0.05889006  0.79144150  0.05385135  1
  O  O18  1  0.44110994  0.20855850  0.55385135  1
  O  O19  1  0.94110994  0.29144150  0.44614865  1
  O  O20  1  0.32493944  0.27664597  0.27353021  1
  O  O21  1  0.82493944  0.22335403  0.72646979  1
  O  O22  1  0.67506056  0.77664597  0.22646979  1
  O  O23  1  0.17506056  0.72335403  0.77353021  1
  O  O24  1  0.67506056  0.72335403  0.72646979  1
  O  O25  1  0.17506056  0.77664597  0.27353021  1
  O  O26  1  0.32493944  0.22335403  0.77353021  1
  O  O27  1  0.82493944  0.27664597  0.22646979  1
  O  O28  1  0.17856689  0.07856853  0.12399284  1
  O  O29  1  0.67856689  0.42143147  0.87600716  1
  O  O30  1  0.82143311  0.57856853  0.37600716  1
  O  O31  1  0.32143311  0.92143147  0.62399284  1
  O  O32  1  0.82143311  0.92143147  0.87600716  1
  O  O33  1  0.32143311  0.57856853  0.12399284  1
  O  O34  1  0.17856689  0.42143147  0.62399284  1
  O  O35  1  0.67856689  0.07856853  0.37600716  1
  O  O36  1  0.24089272  0.51820390  0.40005903  1
  O  O37  1  0.74089272  0.98179610  0.59994097  1
  O  O38  1  0.75910728  0.01820390  0.09994097  1
  O  O39  1  0.25910728  0.48179610  0.90005903  1
  O  O40  1  0.75910728  0.48179610  0.59994097  1
  O  O41  1  0.25910728  0.01820390  0.40005903  1
  O  O42  1  0.24089272  0.98179610  0.90005903  1
  O  O43  1  0.74089272  0.51820390  0.09994097  1
  H  H44  1  0.23178443  0.60451924  0.35203386  1
  H  H45  1  0.73178443  0.89548076  0.64796614  1
  H  H46  1  0.76821557  0.10451924  0.14796614  1
  H  H47  1  0.26821557  0.39548076  0.85203386  1
  H  H48  1  0.76821557  0.39548076  0.64796614  1
  H  H49  1  0.26821557  0.10451924  0.35203386  1
  H  H50  1  0.23178443  0.89548076  0.85203386  1
  H  H51  1  0.73178443  0.60451924  0.14796614  1
  H  H52  1  0.26383865  0.43211661  0.35258102  1
  H  H53  1  0.76383865  0.06788339  0.64741898  1
  H  H54  1  0.73616135  0.93211661  0.14741898  1
  H  H55  1  0.23616135  0.56788339  0.85258102  1
  H  H56  1  0.73616135  0.56788339  0.64741898  1
  H  H57  1  0.23616135  0.93211661  0.35258102  1
  H  H58  1  0.26383865  0.06788339  0.85258102  1
  H  H59  1  0.76383865  0.43211661  0.14741898  1
