# generated using pymatgen
data_Fe3Pb8F24
_symmetry_space_group_name_H-M   'P 1'
_cell_length_a   10.68623137
_cell_length_b   10.61499229
_cell_length_c   9.57956813
_cell_angle_alpha   75.09429623
_cell_angle_beta   104.50328218
_cell_angle_gamma   149.12507345
_symmetry_Int_Tables_number   1
_chemical_formula_structural   Fe3Pb8F24
_chemical_formula_sum   'Fe3 Pb8 F24'
_cell_volume   537.90348019
_cell_formula_units_Z   1
loop_
 _symmetry_equiv_pos_site_id
 _symmetry_equiv_pos_as_xyz
  1  'x, y, z'
loop_
 _atom_site_type_symbol
 _atom_site_label
 _atom_site_symmetry_multiplicity
 _atom_site_fract_x
 _atom_site_fract_y
 _atom_site_fract_z
 _atom_site_occupancy
  Fe  Fe0  1  0.00000000  0.00000000  0.00000000  1
  Fe  Fe1  1  0.45051942  0.54548712  0.24881427  1
  Fe  Fe2  1  0.54948058  0.45451288  0.75118573  1
  Pb  Pb3  1  0.26532961  0.71511288  0.35986011  1
  Pb  Pb4  1  0.73467039  0.28488712  0.64013989  1
  Pb  Pb5  1  0.35715482  0.62001609  0.82672926  1
  Pb  Pb6  1  0.64284518  0.37998391  0.17327074  1
  Pb  Pb7  1  0.17632749  0.81859167  0.89761240  1
  Pb  Pb8  1  0.82367251  0.18140833  0.10238760  1
  Pb  Pb9  1  0.91287068  0.08618328  0.56248105  1
  Pb  Pb10  1  0.08712932  0.91381672  0.43751895  1
  F  F11  1  0.02198563  0.46990106  0.87538880  1
  F  F12  1  0.97801437  0.53009894  0.12461120  1
  F  F13  1  0.57287233  0.92903583  0.60883314  1
  F  F14  1  0.42712767  0.07096417  0.39116686  1
  F  F15  1  0.07858443  0.44638292  0.61383074  1
  F  F16  1  0.92141557  0.55361708  0.38616926  1
  F  F17  1  0.29346726  0.57677458  0.13970719  1
  F  F18  1  0.70653274  0.42322542  0.86029281  1
  F  F19  1  0.83141701  0.74821043  0.63291749  1
  F  F20  1  0.16858299  0.25178957  0.36708251  1
  F  F21  1  0.10928942  0.75085721  0.64342926  1
  F  F22  1  0.89071058  0.24914279  0.35657074  1
  F  F23  1  0.27123679  0.16585214  0.87795933  1
  F  F24  1  0.72876321  0.83414786  0.12204067  1
  F  F25  1  0.70661036  0.66897771  0.89718067  1
  F  F26  1  0.29338964  0.33102229  0.10281933  1
  F  F27  1  0.40359202  0.22892618  0.62385272  1
  F  F28  1  0.59640798  0.77107382  0.37614728  1
  F  F29  1  0.38841981  0.48436932  0.66438479  1
  F  F30  1  0.61158019  0.51563068  0.33561521  1
  F  F31  1  0.04407839  0.86449942  0.14738571  1
  F  F32  1  0.95592161  0.13550058  0.85261429  1
  F  F33  1  0.51722411  0.97248924  0.86734872  1
  F  F34  1  0.48277589  0.02751076  0.13265128  1
