# generated using pymatgen
data_Ti2CrFe3(PO4)6
_symmetry_space_group_name_H-M   'P 1'
_cell_length_a   8.32878498
_cell_length_b   8.32878493
_cell_length_c   8.32878562
_cell_angle_alpha   63.33651715
_cell_angle_beta   63.33651542
_cell_angle_gamma   63.33651383
_symmetry_Int_Tables_number   1
_chemical_formula_structural   Ti2CrFe3(PO4)6
_chemical_formula_sum   'Ti2 Cr1 Fe3 P6 O24'
_cell_volume   438.71726800
_cell_formula_units_Z   1
loop_
 _symmetry_equiv_pos_site_id
 _symmetry_equiv_pos_as_xyz
  1  'x, y, z'
loop_
 _atom_site_type_symbol
 _atom_site_label
 _atom_site_symmetry_multiplicity
 _atom_site_fract_x
 _atom_site_fract_y
 _atom_site_fract_z
 _atom_site_occupancy
  Ti  Ti0  1  0.00605219  0.00605219  0.00605219  1
  Ti  Ti1  1  0.49606164  0.49606164  0.49606164  1
  Cr  Cr2  1  0.85995822  0.85995822  0.85995822  1
  Fe  Fe3  1  0.14400945  0.14400945  0.14400945  1
  Fe  Fe4  1  0.35488132  0.35488132  0.35488132  1
  Fe  Fe5  1  0.64497715  0.64497715  0.64497715  1
  P  P6  1  0.04427569  0.74888645  0.45855488  1
  P  P7  1  0.45855488  0.04427569  0.74888645  1
  P  P8  1  0.74888645  0.45855488  0.04427569  1
  P  P9  1  0.24930228  0.54856935  0.94985374  1
  P  P10  1  0.54856935  0.94985374  0.24930228  1
  P  P11  1  0.94985374  0.24930228  0.54856935  1
  O  O12  1  0.09997861  0.32605037  0.51256696  1
  O  O13  1  0.32605037  0.51256696  0.09997861  1
  O  O14  1  0.05846147  0.89518604  0.25169671  1
  O  O15  1  0.51256696  0.09997861  0.32605037  1
  O  O16  1  0.00359427  0.82557596  0.61068388  1
  O  O17  1  0.25077779  0.60429196  0.43967210  1
  O  O18  1  0.25169671  0.05846147  0.89518604  1
  O  O19  1  0.43967210  0.25077779  0.60429196  1
  O  O20  1  0.17139269  0.39808976  0.98862913  1
  O  O21  1  0.60429196  0.43967210  0.25077779  1
  O  O22  1  0.09916912  0.75700646  0.93358121  1
  O  O23  1  0.39808976  0.98862913  0.17139269  1
  O  O24  1  0.61068388  0.00359427  0.82557596  1
  O  O25  1  0.89518604  0.25169671  0.05846147  1
  O  O26  1  0.39942135  0.56433666  0.74236647  1
  O  O27  1  0.82557596  0.61068388  0.00359427  1
  O  O28  1  0.56433666  0.74236647  0.39942135  1
  O  O29  1  0.75700646  0.93358121  0.09916912  1
  O  O30  1  0.74236647  0.39942135  0.56433666  1
  O  O31  1  0.98862913  0.17139269  0.39808976  1
  O  O32  1  0.49904812  0.89255060  0.67048895  1
  O  O33  1  0.93358121  0.09916912  0.75700646  1
  O  O34  1  0.67048895  0.49904812  0.89255060  1
  O  O35  1  0.89255060  0.67048895  0.49904812  1
