# generated using pymatgen
data_CaV2P3HO12
_symmetry_space_group_name_H-M   'P 1'
_cell_length_a   6.47966650
_cell_length_b   20.31129292
_cell_length_c   6.52978707
_cell_angle_alpha   90.00000000
_cell_angle_beta   91.38292084
_cell_angle_gamma   90.00000000
_symmetry_Int_Tables_number   1
_chemical_formula_structural   CaV2P3HO12
_chemical_formula_sum   'Ca4 V8 P12 H4 O48'
_cell_volume   859.13760013
_cell_formula_units_Z   4
loop_
 _symmetry_equiv_pos_site_id
 _symmetry_equiv_pos_as_xyz
  1  'x, y, z'
loop_
 _atom_site_type_symbol
 _atom_site_label
 _atom_site_symmetry_multiplicity
 _atom_site_fract_x
 _atom_site_fract_y
 _atom_site_fract_z
 _atom_site_occupancy
  Ca  Ca0  1  0.85404718  0.92085312  0.05935635  1
  Ca  Ca1  1  0.35404718  0.57914688  0.55935635  1
  Ca  Ca2  1  0.14595282  0.07914688  0.94064365  1
  Ca  Ca3  1  0.64595282  0.42085312  0.44064365  1
  V  V4  1  0.40491481  0.90304716  0.73238950  1
  V  V5  1  0.90491481  0.59695284  0.23238950  1
  V  V6  1  0.59508519  0.09695284  0.26761050  1
  V  V7  1  0.09508519  0.40304716  0.76761050  1
  V  V8  1  0.43511737  0.78928373  0.08613062  1
  V  V9  1  0.93511737  0.71071627  0.58613062  1
  V  V10  1  0.56488263  0.21071627  0.91386938  1
  V  V11  1  0.06488263  0.28928373  0.41386938  1
  P  P12  1  0.91590612  0.87814574  0.61711169  1
  P  P13  1  0.41590612  0.62185426  0.11711169  1
  P  P14  1  0.08409388  0.12185426  0.38288831  1
  P  P15  1  0.58409388  0.37814574  0.88288831  1
  P  P16  1  0.43846415  0.74797909  0.58079218  1
  P  P17  1  0.93846415  0.75202091  0.08079218  1
  P  P18  1  0.56153585  0.25202091  0.41920782  1
  P  P19  1  0.06153585  0.24797909  0.91920782  1
  P  P20  1  0.38206236  0.94950971  0.21848835  1
  P  P21  1  0.88206236  0.55049029  0.71848835  1
  P  P22  1  0.61793764  0.05049029  0.78151165  1
  P  P23  1  0.11793764  0.44950971  0.28151165  1
  H  H24  1  0.06593590  0.94370444  0.40697789  1
  H  H25  1  0.56593590  0.55629556  0.90697789  1
  H  H26  1  0.93406410  0.05629556  0.59302211  1
  H  H27  1  0.43406410  0.44370444  0.09302211  1
  O  O28  1  0.71359398  0.89414316  0.72377098  1
  O  O29  1  0.21359398  0.60585684  0.22377098  1
  O  O30  1  0.28640602  0.10585684  0.27622902  1
  O  O31  1  0.78640602  0.39414316  0.77622902  1
  O  O32  1  0.92225972  0.92741451  0.42420849  1
  O  O33  1  0.42225972  0.57258549  0.92420849  1
  O  O34  1  0.07774028  0.07258549  0.57579151  1
  O  O35  1  0.57774028  0.42741451  0.07579151  1
  O  O36  1  0.09061035  0.89992332  0.76930793  1
  O  O37  1  0.59061035  0.60007668  0.26930793  1
  O  O38  1  0.90938965  0.10007668  0.23069207  1
  O  O39  1  0.40938965  0.39992332  0.73069207  1
  O  O40  1  0.93313510  0.80873432  0.54154305  1
  O  O41  1  0.43313510  0.69126568  0.04154305  1
  O  O42  1  0.06686490  0.19126568  0.45845695  1
  O  O43  1  0.56686490  0.30873432  0.95845695  1
  O  O44  1  0.41154521  0.79991169  0.76111101  1
  O  O45  1  0.91154521  0.70008831  0.26111101  1
  O  O46  1  0.58845479  0.20008831  0.23888899  1
  O  O47  1  0.08845479  0.29991169  0.73888899  1
  O  O48  1  0.46109176  0.78865800  0.38580576  1
  O  O49  1  0.96109176  0.71134200  0.88580576  1
  O  O50  1  0.53890824  0.21134200  0.61419424  1
  O  O51  1  0.03890824  0.28865800  0.11419424  1
  O  O52  1  0.62787070  0.70286169  0.61561247  1
  O  O53  1  0.12787070  0.79713831  0.11561247  1
  O  O54  1  0.37212930  0.29713831  0.38438753  1
  O  O55  1  0.87212930  0.20286169  0.88438753  1
  O  O56  1  0.24894691  0.70104963  0.57280614  1
  O  O57  1  0.74894691  0.79895037  0.07280614  1
  O  O58  1  0.75105309  0.29895037  0.42719386  1
  O  O59  1  0.25105309  0.20104963  0.92719386  1
  O  O60  1  0.34769317  0.92027558  0.43129768  1
  O  O61  1  0.84769317  0.57972442  0.93129768  1
  O  O62  1  0.65230683  0.07972442  0.56870232  1
  O  O63  1  0.15230683  0.42027558  0.06870232  1
  O  O64  1  0.45587539  0.89414357  0.06333408  1
  O  O65  1  0.95587539  0.60585643  0.56333408  1
  O  O66  1  0.54412461  0.10585643  0.93666592  1
  O  O67  1  0.04412461  0.39414357  0.43666592  1
  O  O68  1  0.17593075  0.97815063  0.13571201  1
  O  O69  1  0.67593075  0.52184937  0.63571201  1
  O  O70  1  0.82406925  0.02184937  0.86428799  1
  O  O71  1  0.32406925  0.47815063  0.36428799  1
  O  O72  1  0.56570901  0.99880253  0.22181408  1
  O  O73  1  0.06570901  0.50119747  0.72181408  1
  O  O74  1  0.43429099  0.00119747  0.77818592  1
  O  O75  1  0.93429099  0.49880253  0.27818592  1
