# generated using pymatgen
data_Ca(GaO2)2
_symmetry_space_group_name_H-M   'P 1'
_cell_length_a   8.07387146
_cell_length_b   8.93786915
_cell_length_c   10.72860825
_cell_angle_alpha   90.00000000
_cell_angle_beta   94.86787134
_cell_angle_gamma   90.00000000
_symmetry_Int_Tables_number   1
_chemical_formula_structural   Ca(GaO2)2
_chemical_formula_sum   'Ca8 Ga16 O32'
_cell_volume   771.41822453
_cell_formula_units_Z   8
loop_
 _symmetry_equiv_pos_site_id
 _symmetry_equiv_pos_as_xyz
  1  'x, y, z'
loop_
 _atom_site_type_symbol
 _atom_site_label
 _atom_site_symmetry_multiplicity
 _atom_site_fract_x
 _atom_site_fract_y
 _atom_site_fract_z
 _atom_site_occupancy
  O  O0  1  0.02773569  0.02919525  0.82864235  1
  O  O1  1  0.97226431  0.52919525  0.67135765  1
  O  O2  1  0.97226431  0.97080475  0.17135765  1
  O  O3  1  0.02773569  0.47080475  0.32864235  1
  O  O4  1  0.76727975  0.25597917  0.71466285  1
  O  O5  1  0.23272025  0.75597917  0.78533715  1
  O  O6  1  0.23272025  0.74402083  0.28533715  1
  O  O7  1  0.76727975  0.24402083  0.21466285  1
  O  O8  1  0.72590203  0.91372844  0.69732082  1
  O  O9  1  0.27409797  0.41372844  0.80267918  1
  O  O10  1  0.27409797  0.08627156  0.30267918  1
  O  O11  1  0.72590203  0.58627156  0.19732082  1
  O  O12  1  0.20894031  0.92840459  0.54376844  1
  O  O13  1  0.79105969  0.42840459  0.95623156  1
  O  O14  1  0.79105969  0.07159541  0.45623156  1
  O  O15  1  0.20894031  0.57159541  0.04376844  1
  O  O16  1  0.48780288  0.16320157  0.55227185  1
  O  O17  1  0.51219712  0.66320157  0.94772815  1
  O  O18  1  0.51219712  0.83679843  0.44772815  1
  O  O19  1  0.48780288  0.33679843  0.05227185  1
  O  O20  1  0.13782852  0.25595474  0.56924873  1
  O  O21  1  0.86217148  0.75595474  0.93075127  1
  O  O22  1  0.86217148  0.74404526  0.43075127  1
  O  O23  1  0.13782852  0.24404526  0.06924873  1
  O  O24  1  0.36938658  0.43415573  0.28223811  1
  O  O25  1  0.63061342  0.93415573  0.21776189  1
  O  O26  1  0.63061342  0.56584427  0.71776189  1
  O  O27  1  0.36938658  0.06584427  0.78223811  1
  O  O28  1  0.72221402  0.41742463  0.45900822  1
  O  O29  1  0.27778598  0.91742463  0.04099178  1
  O  O30  1  0.27778598  0.58257537  0.54099178  1
  O  O31  1  0.72221402  0.08257537  0.95900822  1
  Ca  Ca32  1  0.99936620  0.28526211  0.87182690  1
  Ca  Ca33  1  0.00063380  0.78526211  0.62817310  1
  Ca  Ca34  1  0.00063380  0.71473789  0.12817310  1
  Ca  Ca35  1  0.99936620  0.21473789  0.37182690  1
  Ca  Ca36  1  0.53740823  0.26102182  0.85552014  1
  Ca  Ca37  1  0.46259177  0.76102182  0.64447986  1
  Ca  Ca38  1  0.46259177  0.73897818  0.14447986  1
  Ca  Ca39  1  0.53740823  0.23897818  0.35552014  1
  Ga  Ga40  1  0.23486711  0.94184013  0.86984753  1
  Ga  Ga41  1  0.76513289  0.44184013  0.63015247  1
  Ga  Ga42  1  0.76513289  0.05815987  0.13015247  1
  Ga  Ga43  1  0.23486711  0.55815987  0.36984753  1
  Ga  Ga44  1  0.82464429  0.94407600  0.86182460  1
  Ga  Ga45  1  0.17535571  0.44407600  0.63817540  1
  Ga  Ga46  1  0.17535571  0.05592400  0.13817540  1
  Ga  Ga47  1  0.82464429  0.55592400  0.36182460  1
  Ga  Ga48  1  0.69938899  0.09550076  0.61019743  1
  Ga  Ga49  1  0.30061101  0.59550076  0.88980257  1
  Ga  Ga50  1  0.30061101  0.90449924  0.38980257  1
  Ga  Ga51  1  0.69938899  0.40449924  0.11019743  1
  Ga  Ga52  1  0.29093077  0.10829551  0.61683721  1
  Ga  Ga53  1  0.70906923  0.60829551  0.88316279  1
  Ga  Ga54  1  0.70906923  0.89170449  0.38316279  1
  Ga  Ga55  1  0.29093077  0.39170449  0.11683721  1
