# generated using pymatgen
data_Rb2S2O7
_symmetry_space_group_name_H-M   'P 1'
_cell_length_a   7.52255682
_cell_length_b   7.52255682
_cell_length_c   7.76284601
_cell_angle_alpha   85.42816972
_cell_angle_beta   94.57183028
_cell_angle_gamma   118.47776704
_symmetry_Int_Tables_number   1
_chemical_formula_structural   Rb2S2O7
_chemical_formula_sum   'Rb4 S4 O14'
_cell_volume   384.47260538
_cell_formula_units_Z   2
loop_
 _symmetry_equiv_pos_site_id
 _symmetry_equiv_pos_as_xyz
  1  'x, y, z'
loop_
 _atom_site_type_symbol
 _atom_site_label
 _atom_site_symmetry_multiplicity
 _atom_site_fract_x
 _atom_site_fract_y
 _atom_site_fract_z
 _atom_site_occupancy
  Rb  Rb0  1  0.00807176  0.29490315  0.65075727  1
  Rb  Rb1  1  0.70509685  0.99192824  0.15075727  1
  Rb  Rb2  1  0.29490315  0.00807176  0.84924273  1
  Rb  Rb3  1  0.99192824  0.70509685  0.34924273  1
  S  S4  1  0.57974693  0.78245656  0.64382208  1
  S  S5  1  0.21754344  0.42025307  0.14382208  1
  S  S6  1  0.78245656  0.57974693  0.85617792  1
  S  S7  1  0.42025307  0.21754344  0.35617792  1
  O  O8  1  0.37192345  0.69810247  0.57484095  1
  O  O9  1  0.30189753  0.62807655  0.07484095  1
  O  O10  1  0.63210755  0.93222029  0.77426467  1
  O  O11  1  0.06777971  0.36789245  0.27426467  1
  O  O12  1  0.15030770  0.26707299  0.01427496  1
  O  O13  1  0.73292701  0.84969230  0.51427496  1
  O  O14  1  0.57779680  0.57779680  0.75000000  1
  O  O15  1  0.42220320  0.42220320  0.25000000  1
  O  O16  1  0.26707299  0.15030770  0.48572504  1
  O  O17  1  0.84969230  0.73292701  0.98572504  1
  O  O18  1  0.93222029  0.63210755  0.72573533  1
  O  O19  1  0.36789245  0.06777971  0.22573533  1
  O  O20  1  0.69810247  0.37192345  0.92515905  1
  O  O21  1  0.62807655  0.30189753  0.42515905  1
