# generated using pymatgen
data_Li8TiS6
_symmetry_space_group_name_H-M   'P 1'
_cell_length_a   6.89495203
_cell_length_b   6.89501184
_cell_length_c   13.46207679
_cell_angle_alpha   90.00028286
_cell_angle_beta   90.00051151
_cell_angle_gamma   120.00075273
_symmetry_Int_Tables_number   1
_chemical_formula_structural   Li8TiS6
_chemical_formula_sum   'Li16 Ti2 S12'
_cell_volume   554.24995465
_cell_formula_units_Z   2
loop_
 _symmetry_equiv_pos_site_id
 _symmetry_equiv_pos_as_xyz
  1  'x, y, z'
loop_
 _atom_site_type_symbol
 _atom_site_label
 _atom_site_symmetry_multiplicity
 _atom_site_fract_x
 _atom_site_fract_y
 _atom_site_fract_z
 _atom_site_occupancy
  Li  Li0  1  0.99999077  0.68308235  0.76607909  1
  Li  Li1  1  0.99999747  0.61971870  0.13068418  1
  Li  Li2  1  0.99998480  0.38028106  0.63068376  1
  Li  Li3  1  0.99999755  0.31691397  0.26607394  1
  Li  Li4  1  0.33331721  0.66668447  0.40148487  1
  Li  Li5  1  0.33331427  0.66663562  0.90148956  1
  Li  Li6  1  0.31688698  0.31688564  0.76607745  1
  Li  Li7  1  0.38028035  0.38029481  0.13068746  1
  Li  Li8  1  0.61969992  0.61969836  0.63068187  1
  Li  Li9  1  0.31691255  0.00001953  0.26607475  1
  Li  Li10  1  0.68308887  0.68311202  0.26607448  1
  Li  Li11  1  0.38028412  0.99998262  0.63068394  1
  Li  Li12  1  0.66664103  0.33331230  0.90148956  1
  Li  Li13  1  0.66668314  0.33336723  0.40148560  1
  Li  Li14  1  0.61971360  0.00001380  0.13068580  1
  Li  Li15  1  0.68308311  0.99998771  0.76607909  1
  Ti  Ti16  1  0.99999118  0.99999197  0.99799631  1
  Ti  Ti17  1  0.99999746  0.00000571  0.49799298  1
  S  S18  1  0.99998104  0.68558159  0.95012356  1
  S  S19  1  0.00000493  0.31438182  0.45012055  1
  S  S20  1  0.33332771  0.66667184  0.21732635  1
  S  S21  1  0.00000231  0.00001488  0.16937760  1
  S  S22  1  0.99998327  0.99998253  0.66935608  1
  S  S23  1  0.33333700  0.66666244  0.71732071  1
  S  S24  1  0.31439837  0.31439465  0.95012634  1
  S  S25  1  0.31438138  0.00002439  0.45012025  1
  S  S26  1  0.68560663  0.68563294  0.45011368  1
  S  S27  1  0.66667366  0.33334004  0.71731972  1
  S  S28  1  0.66666317  0.33334080  0.21732943  1
  S  S29  1  0.68557613  0.99998320  0.95012205  1
