# generated using pymatgen
data_Ho2TeO6
_symmetry_space_group_name_H-M   'P 1'
_cell_length_a   9.15735951
_cell_length_b   9.15711907
_cell_length_c   5.18405809
_cell_angle_alpha   89.99936024
_cell_angle_beta   90.00000000
_cell_angle_gamma   120.00086494
_symmetry_Int_Tables_number   1
_chemical_formula_structural   Ho2TeO6
_chemical_formula_sum   'Ho6 Te3 O18'
_cell_volume   376.46606245
_cell_formula_units_Z   3
loop_
 _symmetry_equiv_pos_site_id
 _symmetry_equiv_pos_as_xyz
  1  'x, y, z'
loop_
 _atom_site_type_symbol
 _atom_site_label
 _atom_site_symmetry_multiplicity
 _atom_site_fract_x
 _atom_site_fract_y
 _atom_site_fract_z
 _atom_site_occupancy
  Ho  Ho0  1  0.00002739  0.62256492  0.99999120  1
  Ho  Ho1  1  0.99999882  0.28554513  0.50000239  1
  Ho  Ho2  1  0.37746247  0.37743508  0.00000880  1
  Ho  Ho3  1  0.28555263  1.00000000  0.50000000  1
  Ho  Ho4  1  0.71445369  0.71445487  0.49999761  1
  Ho  Ho5  1  0.62249821  1.00000000  0.00000000  1
  Te  Te6  1  0.33330639  0.66666265  0.50497636  1
  Te  Te7  1  0.00010907  0.00000000  0.00000000  1
  Te  Te8  1  0.66664273  0.33333735  0.49502364  1
  O  O9  1  0.08206499  0.88099156  0.79055964  1
  O  O10  1  0.22279529  0.75892573  0.29139434  1
  O  O11  1  0.13269740  0.54350735  0.71855033  1
  O  O12  1  0.41081848  0.86727293  0.71856521  1
  O  O13  1  0.11900803  0.20110838  0.79056940  1
  O  O14  1  0.24104649  0.46383183  0.29140375  1
  O  O15  1  0.53614238  0.77720699  0.29140359  1
  O  O16  1  0.20107343  0.11900844  0.20944036  1
  O  O17  1  0.45647449  0.58918659  0.71857313  1
  O  O18  1  0.46386856  0.24107427  0.70860566  1
  O  O19  1  0.79885482  0.91792381  0.79052361  1
  O  O20  1  0.58919005  0.45649265  0.28144967  1
  O  O21  1  0.54354456  0.13272707  0.28143479  1
  O  O22  1  0.91789965  0.79889162  0.20943060  1
  O  O23  1  0.77721366  0.53616817  0.70859725  1
  O  O24  1  0.75893540  0.22279301  0.70859641  1
  O  O25  1  0.86728790  0.41081341  0.28142687  1
  O  O26  1  0.88093201  0.08207619  0.20947639  1
