# generated using pymatgen
data_Li5AlO4
_symmetry_space_group_name_H-M   'P 1'
_cell_length_a   4.66955213
_cell_length_b   6.36617935
_cell_length_c   6.48306170
_cell_angle_alpha   90.00000000
_cell_angle_beta   90.00000000
_cell_angle_gamma   90.00000000
_symmetry_Int_Tables_number   1
_chemical_formula_structural   Li5AlO4
_chemical_formula_sum   'Li10 Al2 O8'
_cell_volume   192.72331290
_cell_formula_units_Z   2
loop_
 _symmetry_equiv_pos_site_id
 _symmetry_equiv_pos_as_xyz
  1  'x, y, z'
loop_
 _atom_site_type_symbol
 _atom_site_label
 _atom_site_symmetry_multiplicity
 _atom_site_fract_x
 _atom_site_fract_y
 _atom_site_fract_z
 _atom_site_occupancy
  Li  Li0  1  0.74534820  0.48881020  0.44754662  1
  Li  Li1  1  0.74534820  0.01118980  0.05245338  1
  Li  Li2  1  0.25465180  0.98881020  0.55245338  1
  Li  Li3  1  0.25465180  0.51118980  0.94754662  1
  Li  Li4  1  0.25465180  0.51118980  0.55245338  1
  Li  Li5  1  0.25465180  0.98881020  0.94754662  1
  Li  Li6  1  0.74534820  0.01118980  0.44754662  1
  Li  Li7  1  0.74534820  0.48881020  0.05245338  1
  Li  Li8  1  0.79603193  0.25000000  0.75000000  1
  Li  Li9  1  0.20396807  0.75000000  0.25000000  1
  O  O10  1  0.01657957  0.25000000  0.48187292  1
  O  O11  1  0.01657957  0.25000000  0.01812708  1
  O  O12  1  0.57081782  0.98580983  0.75000000  1
  O  O13  1  0.57081782  0.51419017  0.75000000  1
  O  O14  1  0.42918218  0.48580983  0.25000000  1
  O  O15  1  0.42918218  0.01419017  0.25000000  1
  O  O16  1  0.98342043  0.75000000  0.98187292  1
  O  O17  1  0.98342043  0.75000000  0.51812708  1
  Al  Al18  1  0.22448823  0.25000000  0.25000000  1
  Al  Al19  1  0.77551177  0.75000000  0.75000000  1
