# generated using pymatgen
data_Ca2HfO4
_symmetry_space_group_name_H-M   'P 1'
_cell_length_a   5.74887014
_cell_length_b   9.92522054
_cell_length_c   3.27935823
_cell_angle_alpha   90.00000000
_cell_angle_beta   90.00000000
_cell_angle_gamma   90.00000000
_symmetry_Int_Tables_number   1
_chemical_formula_structural   Ca2HfO4
_chemical_formula_sum   'Ca4 Hf2 O8'
_cell_volume   187.11625848
_cell_formula_units_Z   2
loop_
 _symmetry_equiv_pos_site_id
 _symmetry_equiv_pos_as_xyz
  1  'x, y, z'
loop_
 _atom_site_type_symbol
 _atom_site_label
 _atom_site_symmetry_multiplicity
 _atom_site_fract_x
 _atom_site_fract_y
 _atom_site_fract_z
 _atom_site_occupancy
  Ca  Ca0  1  0.06640089  0.31889422  0.50000000  1
  Ca  Ca1  1  0.43359911  0.81889422  0.50000000  1
  Ca  Ca2  1  0.56640089  0.18110578  0.50000000  1
  Ca  Ca3  1  0.93359911  0.68110578  0.50000000  1
  Hf  Hf4  1  0.00000000  0.00000000  0.00000000  1
  Hf  Hf5  1  0.50000000  0.50000000  0.00000000  1
  O  O6  1  0.13876053  0.80770744  0.00000000  1
  O  O7  1  0.22569081  0.04542862  0.50000000  1
  O  O8  1  0.27430919  0.54542862  0.50000000  1
  O  O9  1  0.36123947  0.30770744  0.00000000  1
  O  O10  1  0.63876053  0.69229256  0.00000000  1
  O  O11  1  0.72569081  0.45457138  0.50000000  1
  O  O12  1  0.77430919  0.95457138  0.50000000  1
  O  O13  1  0.86123947  0.19229256  0.00000000  1
