# generated using pymatgen
data_Te(S2O7)2
_symmetry_space_group_name_H-M   'P 1'
_cell_length_a   6.98584058
_cell_length_b   6.97127295
_cell_length_c   12.32789999
_cell_angle_alpha   80.18960914
_cell_angle_beta   99.95744739
_cell_angle_gamma   102.65837429
_symmetry_Int_Tables_number   1
_chemical_formula_structural   Te(S2O7)2
_chemical_formula_sum   'Te2 S8 O28'
_cell_volume   571.44470560
_cell_formula_units_Z   2
loop_
 _symmetry_equiv_pos_site_id
 _symmetry_equiv_pos_as_xyz
  1  'x, y, z'
loop_
 _atom_site_type_symbol
 _atom_site_label
 _atom_site_symmetry_multiplicity
 _atom_site_fract_x
 _atom_site_fract_y
 _atom_site_fract_z
 _atom_site_occupancy
  Te  Te0  1  0.06200247  0.06670645  0.74970000  1
  Te  Te1  1  0.93579698  0.93721807  0.25015506  1
  S  S2  1  0.07540015  0.45860106  0.85873202  1
  S  S3  1  0.54300101  0.92730190  0.35793733  1
  S  S4  1  0.31064141  0.18991094  0.99819354  1
  S  S5  1  0.19258038  0.30817444  0.50756846  1
  S  S6  1  0.80932864  0.69018421  0.49776557  1
  S  S7  1  0.69122518  0.80728082  0.00683754  1
  S  S8  1  0.51024044  0.22506783  0.68104872  1
  S  S9  1  0.94130982  0.54767441  0.14718160  1
  O  O10  1  0.11157514  0.66656652  0.81846916  1
  O  O11  1  0.33511224  0.88917662  0.31875636  1
  O  O12  1  0.07088059  0.35372940  0.75148416  1
  O  O13  1  0.28149064  0.41879176  0.92937783  1
  O  O14  1  0.12314460  0.65099615  0.11039448  1
  O  O15  1  0.73500658  0.85271053  0.89518289  1
  O  O16  1  0.22482871  0.50602346  0.53223304  1
  O  O17  1  0.64842345  0.93129177  0.25144468  1
  O  O18  1  0.04971669  0.15857240  0.57928627  1
  O  O19  1  0.58235578  0.71969299  0.42909933  1
  O  O20  1  0.16314797  0.05287058  0.92328087  1
  O  O21  1  0.14898949  0.26482984  0.39577916  1
  O  O22  1  0.49445848  0.77674201  0.03135508  1
  O  O23  1  0.83341639  0.76244511  0.60209825  1
  O  O24  1  0.54080749  0.41831380  0.71206838  1
  O  O25  1  0.51372326  0.19702576  0.99234657  1
  O  O26  1  0.84427944  0.94636187  0.07945222  1
  O  O27  1  0.34876656  0.07350304  0.74676410  1
  O  O28  1  0.40356788  0.22142495  0.55356798  1
  O  O29  1  0.94781542  0.83414573  0.42216978  1
  O  O30  1  0.24213321  0.17012617  0.10323974  1
  O  O31  1  0.80037940  0.48546977  0.49343458  1
  O  O32  1  0.91216964  0.36381202  0.91594322  1
  O  O33  1  0.90156140  0.64501766  0.24849772  1
  O  O34  1  0.75437574  0.58247833  0.05613282  1
  O  O35  1  0.66854706  0.12163817  0.68847334  1
  O  O36  1  0.63742114  0.09019385  0.41613993  1
  O  O37  1  0.90264612  0.33809663  0.18251623  1
