# generated using pymatgen
data_K2Co3P4(HO4)4
_symmetry_space_group_name_H-M   'P 1'
_cell_length_a   9.30804587
_cell_length_b   8.17748999
_cell_length_c   9.21384762
_cell_angle_alpha   90.00000000
_cell_angle_beta   99.26845149
_cell_angle_gamma   90.00000000
_symmetry_Int_Tables_number   1
_chemical_formula_structural   K2Co3P4(HO4)4
_chemical_formula_sum   'K4 Co6 P8 H8 O32'
_cell_volume   692.16927085
_cell_formula_units_Z   2
loop_
 _symmetry_equiv_pos_site_id
 _symmetry_equiv_pos_as_xyz
  1  'x, y, z'
loop_
 _atom_site_type_symbol
 _atom_site_label
 _atom_site_symmetry_multiplicity
 _atom_site_fract_x
 _atom_site_fract_y
 _atom_site_fract_z
 _atom_site_occupancy
  K  K0  1  0.02234239  0.27455161  0.92558859  1
  K  K1  1  0.47765761  0.77455161  0.07441141  1
  K  K2  1  0.97765761  0.72544839  0.07441141  1
  K  K3  1  0.52234239  0.22544839  0.92558859  1
  Co  Co4  1  0.00000000  0.50000000  0.50000000  1
  Co  Co5  1  0.50000000  0.00000000  0.50000000  1
  Co  Co6  1  0.50466499  0.35724889  0.36719751  1
  Co  Co7  1  0.99533501  0.85724889  0.63280249  1
  Co  Co8  1  0.49533501  0.64275111  0.63280249  1
  Co  Co9  1  0.00466499  0.14275111  0.36719751  1
  P  P10  1  0.29082461  0.30174797  0.60165361  1
  P  P11  1  0.20917539  0.80174797  0.39834639  1
  P  P12  1  0.70917539  0.69825203  0.39834639  1
  P  P13  1  0.79082461  0.19825203  0.60165361  1
  P  P14  1  0.76516779  0.43117880  0.19767508  1
  P  P15  1  0.73483221  0.93117880  0.80232492  1
  P  P16  1  0.23483221  0.56882120  0.80232492  1
  P  P17  1  0.26516779  0.06882120  0.19767508  1
  H  H18  1  0.73477414  0.47320298  0.72057060  1
  H  H19  1  0.76522586  0.97320298  0.27942940  1
  H  H20  1  0.26522586  0.52679702  0.27942940  1
  H  H21  1  0.23477414  0.02679702  0.72057060  1
  H  H22  1  0.70069385  0.51079579  0.87918301  1
  H  H23  1  0.79930615  0.01079579  0.12081699  1
  H  H24  1  0.29930615  0.48920421  0.12081699  1
  H  H25  1  0.20069385  0.98920421  0.87918301  1
  O  O26  1  0.88878515  0.37343668  0.31953660  1
  O  O27  1  0.61121485  0.87343668  0.68046340  1
  O  O28  1  0.11121485  0.62656332  0.68046340  1
  O  O29  1  0.38878515  0.12656332  0.31953660  1
  O  O30  1  0.86221500  0.36477202  0.63785519  1
  O  O31  1  0.63778500  0.86477202  0.36214481  1
  O  O32  1  0.13778500  0.63522798  0.36214481  1
  O  O33  1  0.36221500  0.13522798  0.63785519  1
  O  O34  1  0.38901135  0.42444771  0.53873381  1
  O  O35  1  0.11098865  0.92444771  0.46126619  1
  O  O36  1  0.61098865  0.57555229  0.46126619  1
  O  O37  1  0.88901135  0.07555229  0.53873381  1
  O  O38  1  0.13705087  0.29551947  0.51016703  1
  O  O39  1  0.36294913  0.79551947  0.48983297  1
  O  O40  1  0.86294913  0.70448053  0.48983297  1
  O  O41  1  0.63705087  0.20448053  0.51016703  1
  O  O42  1  0.26596266  0.37483918  0.76156617  1
  O  O43  1  0.23403734  0.87483918  0.23843383  1
  O  O44  1  0.73403734  0.62516082  0.23843383  1
  O  O45  1  0.76596266  0.12516082  0.76156617  1
  O  O46  1  0.80907153  0.44243221  0.04647205  1
  O  O47  1  0.69092847  0.94243221  0.95352795  1
  O  O48  1  0.19092847  0.55756779  0.95352795  1
  O  O49  1  0.30907153  0.05756779  0.04647205  1
  O  O50  1  0.34573052  0.49509522  0.22560132  1
  O  O51  1  0.15426948  0.99509522  0.77439868  1
  O  O52  1  0.65426948  0.50490478  0.77439868  1
  O  O53  1  0.84573052  0.00490478  0.22560132  1
  O  O54  1  0.62090573  0.34120170  0.19737979  1
  O  O55  1  0.87909427  0.84120170  0.80262021  1
  O  O56  1  0.37909427  0.65879830  0.80262021  1
  O  O57  1  0.12090573  0.15879830  0.19737979  1
