# generated using pymatgen
data_K3LiTi7O16
_symmetry_space_group_name_H-M   'P 1'
_cell_length_a   8.20745269
_cell_length_b   7.10690689
_cell_length_c   7.14073123
_cell_angle_alpha   65.01232126
_cell_angle_beta   82.76120903
_cell_angle_gamma   97.13814088
_symmetry_Int_Tables_number   1
_chemical_formula_structural   K3LiTi7O16
_chemical_formula_sum   'K3 Li1 Ti7 O16'
_cell_volume   367.15170109
_cell_formula_units_Z   1
loop_
 _symmetry_equiv_pos_site_id
 _symmetry_equiv_pos_as_xyz
  1  'x, y, z'
loop_
 _atom_site_type_symbol
 _atom_site_label
 _atom_site_symmetry_multiplicity
 _atom_site_fract_x
 _atom_site_fract_y
 _atom_site_fract_z
 _atom_site_occupancy
  K  K0  1  0.96391879  0.26980043  0.26687024  1
  K  K1  1  0.99309288  0.56047258  0.56418991  1
  K  K2  1  0.96808426  0.83830532  0.87594763  1
  Li  Li3  1  0.62621352  0.46923527  0.15603063  1
  Ti  Ti4  1  0.64217180  0.23102184  0.90998466  1
  Ti  Ti5  1  0.37277796  0.28324708  0.58983937  1
  Ti  Ti6  1  0.37169838  0.03656763  0.34292147  1
  Ti  Ti7  1  0.37373187  0.52748584  0.84917932  1
  Ti  Ti8  1  0.61824913  0.96654295  0.65770658  1
  Ti  Ti9  1  0.64182826  0.71446420  0.39369542  1
  Ti  Ti10  1  0.37301963  0.77586282  0.09592779  1
  O  O11  1  0.76624690  0.13366444  0.73332607  1
  O  O12  1  0.42078716  0.04147416  0.83050354  1
  O  O13  1  0.79377381  0.38487337  0.96076149  1
  O  O14  1  0.55392448  0.19268203  0.43024352  1
  O  O15  1  0.56611481  0.45395667  0.67110491  1
  O  O16  1  0.55495190  0.70953127  0.91744222  1
  O  O17  1  0.22461694  0.12979460  0.49545613  1
  O  O18  1  0.23224070  0.37294963  0.75249103  1
  O  O19  1  0.43362857  0.55393850  0.33741532  1
  O  O20  1  0.76634591  0.87428114  0.50819469  1
  O  O21  1  0.43280072  0.28701312  0.07077073  1
  O  O22  1  0.79378621  0.63721809  0.26653428  1
  O  O23  1  0.42134140  0.79451686  0.58410553  1
  O  O24  1  0.22640439  0.60870525  0.01688091  1
  O  O25  1  0.57165053  0.95534961  0.16945088  1
  O  O26  1  0.23350408  0.86877328  0.25629975  1
