# generated using pymatgen
data_BaTi6O12
_symmetry_space_group_name_H-M   'P 1'
_cell_length_a   8.51133760
_cell_length_b   8.51133760
_cell_length_c   8.51133760
_cell_angle_alpha   106.07822984
_cell_angle_beta   116.49379241
_cell_angle_gamma   106.07822984
_symmetry_Int_Tables_number   1
_chemical_formula_structural   BaTi6O12
_chemical_formula_sum   'Ba2 Ti12 O24'
_cell_volume   469.23714497
_cell_formula_units_Z   2
loop_
 _symmetry_equiv_pos_site_id
 _symmetry_equiv_pos_as_xyz
  1  'x, y, z'
loop_
 _atom_site_type_symbol
 _atom_site_label
 _atom_site_symmetry_multiplicity
 _atom_site_fract_x
 _atom_site_fract_y
 _atom_site_fract_z
 _atom_site_occupancy
  Ba  Ba0  1  0.38588751  0.00000000  0.38588751  1
  Ba  Ba1  1  0.94744549  0.00000000  0.94744549  1
  Ti  Ti2  1  0.48118658  0.81549190  0.99848674  1
  Ti  Ti3  1  0.81684485  0.82008386  0.33657200  1
  Ti  Ti4  1  0.85214742  0.18450810  0.33484726  1
  Ti  Ti5  1  0.66569468  0.48269984  0.48118658  1
  Ti  Ti6  1  0.99676100  0.48027185  0.81684485  1
  Ti  Ti7  1  0.33484726  0.48269984  0.15033816  1
  Ti  Ti8  1  0.66763832  0.51730016  0.85214742  1
  Ti  Ti9  1  0.33657200  0.51972815  0.51648915  1
  Ti  Ti10  1  0.99848674  0.51730016  0.18299484  1
  Ti  Ti11  1  0.15033816  0.81549190  0.66763832  1
  Ti  Ti12  1  0.51648915  0.17991614  0.99676100  1
  Ti  Ti13  1  0.18299484  0.18450810  0.66569468  1
  O  O14  1  0.96945327  0.65066143  0.01454116  1
  O  O15  1  0.66801978  0.70958637  0.04030862  1
  O  O16  1  0.00261076  0.70958637  0.37489959  1
  O  O17  1  0.98830286  0.95526824  0.63430561  1
  O  O18  1  0.65429563  0.95526824  0.30029838  1
  O  O19  1  0.70659798  0.37604857  0.00278358  1
  O  O20  1  0.62673502  0.62395143  0.33054942  1
  O  O21  1  0.95843441  0.62771216  0.66801978  1
  O  O22  1  0.67903737  0.04473176  0.03303462  1
  O  O23  1  0.66531322  0.29041363  0.29302538  1
  O  O24  1  0.30029838  0.64600275  0.34503014  1
  O  O25  1  0.63430561  0.64600275  0.67903737  1
  O  O26  1  0.36387973  0.34933857  0.31879184  1
  O  O27  1  0.69902739  0.35399725  0.65429563  1
  O  O28  1  0.33054942  0.70381440  0.70659798  1
  O  O29  1  0.31879184  0.95491211  0.96945327  1
  O  O30  1  0.37489959  0.37228784  0.66531322  1
  O  O31  1  0.04030862  0.37228784  0.33072224  1
  O  O32  1  0.29302538  0.62771216  0.00261076  1
  O  O33  1  0.01454116  0.04508789  0.36387973  1
  O  O34  1  0.34503014  0.04473176  0.69902739  1
  O  O35  1  0.00278358  0.29618560  0.62673502  1
  O  O36  1  0.33072224  0.29041363  0.95843441  1
  O  O37  1  0.03303462  0.35399725  0.98830286  1
