# generated using pymatgen
data_KP(HO2)2
_symmetry_space_group_name_H-M   'P 1'
_cell_length_a   7.73261945
_cell_length_b   7.73261945
_cell_length_c   14.51333812
_cell_angle_alpha   88.36061200
_cell_angle_beta   91.63938800
_cell_angle_gamma   107.81240900
_symmetry_Int_Tables_number   1
_chemical_formula_structural   KP(HO2)2
_chemical_formula_sum   'K8 P8 H16 O32'
_cell_volume   825.68422789
_cell_formula_units_Z   8
loop_
 _symmetry_equiv_pos_site_id
 _symmetry_equiv_pos_as_xyz
  1  'x, y, z'
loop_
 _atom_site_type_symbol
 _atom_site_label
 _atom_site_symmetry_multiplicity
 _atom_site_fract_x
 _atom_site_fract_y
 _atom_site_fract_z
 _atom_site_occupancy
  K  K0  1  0.14076940  0.63860701  0.71059561  1
  K  K1  1  0.36139299  0.85923060  0.21059561  1
  K  K2  1  0.60776266  0.64894169  0.96087397  1
  K  K3  1  0.10166510  0.14061789  0.95356955  1
  K  K4  1  0.35105831  0.39223734  0.46087397  1
  K  K5  1  0.85938211  0.89833490  0.45356955  1
  K  K6  1  0.63884034  0.14524291  0.72714914  1
  K  K7  1  0.85475709  0.36115966  0.22714914  1
  P  P8  1  0.12537141  0.67642405  0.96086643  1
  P  P9  1  0.32357595  0.87462859  0.46086643  1
  P  P10  1  0.63801025  0.64874519  0.71213636  1
  P  P11  1  0.15335380  0.16008028  0.71470961  1
  P  P12  1  0.35125481  0.36198975  0.21213636  1
  P  P13  1  0.83991972  0.84664620  0.21470961  1
  P  P14  1  0.62448372  0.15652984  0.96418631  1
  P  P15  1  0.84347016  0.37551628  0.46418631  1
  H  H16  1  0.36539395  0.88748746  0.89603487  1
  H  H17  1  0.11251254  0.63460605  0.39603487  1
  H  H18  1  0.51177243  0.77947289  0.59789894  1
  H  H19  1  0.22052711  0.48822757  0.09789894  1
  H  H20  1  0.88359217  0.87903448  0.76589404  1
  H  H21  1  0.37815331  0.38895464  0.77961505  1
  H  H22  1  0.12096552  0.11640783  0.26589404  1
  H  H23  1  0.61104536  0.62184669  0.27961505  1
  H  H24  1  0.23825338  0.01926716  0.59688166  1
  H  H25  1  0.75710253  0.52044701  0.57952136  1
  H  H26  1  0.98073284  0.76174662  0.09688166  1
  H  H27  1  0.47955299  0.24289747  0.07952136  1
  H  H28  1  0.89849020  0.43434962  0.90871109  1
  H  H29  1  0.56565038  0.10150980  0.40871109  1
  H  H30  1  0.97439869  0.25908326  0.58168767  1
  H  H31  1  0.74091674  0.02560131  0.08168767  1
  O  O32  1  0.22703954  0.82334408  0.88609898  1
  O  O33  1  0.17665592  0.77296046  0.38609898  1
  O  O34  1  0.03970933  0.49881528  0.90261252  1
  O  O35  1  0.50118472  0.96029067  0.40261252  1
  O  O36  1  0.56636690  0.98693785  0.90530275  1
  O  O37  1  0.01306215  0.43363310  0.40530275  1
  O  O38  1  0.35591846  0.73742575  0.53215966  1
  O  O39  1  0.26257425  0.64408154  0.03215966  1
  O  O40  1  0.62406851  0.81003399  0.64366161  1
  O  O41  1  0.13891707  0.30188907  0.64141153  1
  O  O42  1  0.18996601  0.37593149  0.14366161  1
  O  O43  1  0.47715965  0.59069789  0.77674787  1
  O  O44  1  0.69811093  0.86108293  0.14141153  1
  O  O45  1  0.40930211  0.52284035  0.27674787  1
  O  O46  1  0.30979518  0.25080935  0.78790665  1
  O  O47  1  0.74919065  0.69020482  0.28790665  1
  O  O48  1  0.82185530  0.73666151  0.76714732  1
  O  O49  1  0.26333849  0.17814470  0.26714732  1
  O  O50  1  0.65566726  0.48770918  0.65787823  1
  O  O51  1  0.51229082  0.34433274  0.15787823  1
  O  O52  1  0.21744080  0.00558840  0.66982268  1
  O  O53  1  0.97367374  0.73881142  0.00128346  1
  O  O54  1  0.99441160  0.78255920  0.16982268  1
  O  O55  1  0.26118858  0.02632626  0.50128346  1
  O  O56  1  0.83765513  0.54908688  0.51814195  1
  O  O57  1  0.45091312  0.16234487  0.01814195  1
  O  O58  1  0.70776409  0.33384292  0.91049064  1
  O  O59  1  0.66615708  0.29223591  0.41049164  1
  O  O60  1  0.85620565  0.22517808  0.54010909  1
  O  O61  1  0.77482192  0.14379435  0.04010909  1
  O  O62  1  0.97951465  0.07242355  0.76811340  1
  O  O63  1  0.92757645  0.02048535  0.26811340  1
