# generated using pymatgen
data_TiCu2O3
_symmetry_space_group_name_H-M   'P 1'
_cell_length_a   9.17372622
_cell_length_b   9.17372622
_cell_length_c   4.96866307
_cell_angle_alpha   69.63005054
_cell_angle_beta   110.36994946
_cell_angle_gamma   132.60175294
_symmetry_Int_Tables_number   1
_chemical_formula_structural   TiCu2O3
_chemical_formula_sum   'Ti4 Cu8 O12'
_cell_volume   284.68380202
_cell_formula_units_Z   4
loop_
 _symmetry_equiv_pos_site_id
 _symmetry_equiv_pos_as_xyz
  1  'x, y, z'
loop_
 _atom_site_type_symbol
 _atom_site_label
 _atom_site_symmetry_multiplicity
 _atom_site_fract_x
 _atom_site_fract_y
 _atom_site_fract_z
 _atom_site_occupancy
  Ti  Ti0  1  0.28455513  0.44798061  0.85843170  1
  Ti  Ti1  1  0.55201939  0.71544487  0.35843170  1
  Ti  Ti2  1  0.44798061  0.28455513  0.64156830  1
  Ti  Ti3  1  0.71544487  0.55201939  0.14156830  1
  Cu  Cu4  1  0.36435012  0.88057120  0.74478352  1
  Cu  Cu5  1  0.11942880  0.63564988  0.24478352  1
  Cu  Cu6  1  0.81626720  0.00221532  0.91004851  1
  Cu  Cu7  1  0.99778468  0.18373280  0.41004851  1
  Cu  Cu8  1  0.00221532  0.81626720  0.58995149  1
  Cu  Cu9  1  0.18373280  0.99778468  0.08995149  1
  Cu  Cu10  1  0.88057120  0.36435012  0.75521648  1
  Cu  Cu11  1  0.63564988  0.11942880  0.25521648  1
  O  O12  1  0.04000310  0.29671363  0.98717033  1
  O  O13  1  0.28193255  0.57324196  0.46446201  1
  O  O14  1  0.70328737  0.95999690  0.48717033  1
  O  O15  1  0.42675804  0.71806745  0.96446201  1
  O  O16  1  0.21148363  0.21148363  0.75000000  1
  O  O17  1  0.56622219  0.56622219  0.75000000  1
  O  O18  1  0.78851637  0.78851637  0.25000000  1
  O  O19  1  0.43377781  0.43377781  0.25000000  1
  O  O20  1  0.57324196  0.28193255  0.03553799  1
  O  O21  1  0.29671363  0.04000310  0.51282967  1
  O  O22  1  0.71806745  0.42675804  0.53553799  1
  O  O23  1  0.95999690  0.70328737  0.01282967  1
