# generated using pymatgen
data_Li3V2(PO4)3
_symmetry_space_group_name_H-M   'P 1'
_cell_length_a   8.56103781
_cell_length_b   12.07336980
_cell_length_c   8.79102053
_cell_angle_alpha   90.00000000
_cell_angle_beta   90.00000000
_cell_angle_gamma   90.63753149
_symmetry_Int_Tables_number   1
_chemical_formula_structural   Li3V2(PO4)3
_chemical_formula_sum   'Li12 V8 P12 O48'
_cell_volume   908.58869069
_cell_formula_units_Z   4
loop_
 _symmetry_equiv_pos_site_id
 _symmetry_equiv_pos_as_xyz
  1  'x, y, z'
loop_
 _atom_site_type_symbol
 _atom_site_label
 _atom_site_symmetry_multiplicity
 _atom_site_fract_x
 _atom_site_fract_y
 _atom_site_fract_z
 _atom_site_occupancy
  Li  Li0  1  0.07941782  0.69056971  0.08697826  1
  Li  Li1  1  0.06590620  0.34641337  0.51210487  1
  Li  Li2  1  0.17986835  0.17796693  0.77959620  1
  Li  Li3  1  0.32013165  0.32203307  0.27959620  1
  Li  Li4  1  0.42058218  0.80943029  0.58697826  1
  Li  Li5  1  0.43409380  0.15358663  0.01210487  1
  Li  Li6  1  0.56590620  0.84641337  0.98789513  1
  Li  Li7  1  0.57941782  0.19056971  0.41302174  1
  Li  Li8  1  0.67986835  0.67796693  0.72040380  1
  Li  Li9  1  0.82013165  0.82203307  0.22040380  1
  Li  Li10  1  0.93409380  0.65358663  0.48789513  1
  Li  Li11  1  0.92058218  0.30943029  0.91302174  1
  V  V12  1  0.24495332  0.89477226  0.02803136  1
  V  V13  1  0.25504668  0.60522774  0.52803136  1
  V  V14  1  0.25572525  0.39138213  0.96583448  1
  V  V15  1  0.24427475  0.10861787  0.46583448  1
  V  V16  1  0.75572525  0.89138213  0.53416552  1
  V  V17  1  0.74427475  0.60861787  0.03416552  1
  V  V18  1  0.74495332  0.39477226  0.47196864  1
  V  V19  1  0.75504668  0.10522774  0.97196864  1
  P  P20  1  0.03901141  0.49074869  0.24880158  1
  P  P21  1  0.11361192  0.84812931  0.38257575  1
  P  P22  1  0.11440184  0.14690593  0.11065242  1
  P  P23  1  0.38638808  0.65187069  0.88257575  1
  P  P24  1  0.38559816  0.35309407  0.61065242  1
  P  P25  1  0.46098859  0.00925131  0.74880158  1
  P  P26  1  0.53901141  0.99074869  0.25119842  1
  P  P27  1  0.61440184  0.64690593  0.38934758  1
  P  P28  1  0.61361192  0.34812931  0.11742425  1
  P  P29  1  0.88559816  0.85309407  0.88934758  1
  P  P30  1  0.88638808  0.15187069  0.61742425  1
  P  P31  1  0.96098859  0.50925131  0.75119842  1
  O  O32  1  0.05144023  0.44490809  0.87201324  1
  O  O33  1  0.05283498  0.89781750  0.88991906  1
  O  O34  1  0.05586899  0.60018285  0.66630795  1
  O  O35  1  0.05828487  0.18903381  0.57831429  1
  O  O36  1  0.09756651  0.58215495  0.36045155  1
  O  O37  1  0.12241439  0.83096436  0.20607654  1
  O  O38  1  0.13787335  0.97019961  0.42069651  1
  O  O39  1  0.12794038  0.24545432  0.99383748  1
  O  O40  1  0.17132850  0.18701150  0.26907846  1
  O  O41  1  0.18430677  0.43358736  0.17711097  1
  O  O42  1  0.23034978  0.77543234  0.47102291  1
  O  O43  1  0.26965022  0.72456766  0.97102291  1
  O  O44  1  0.23587962  0.06125925  0.05029842  1
  O  O45  1  0.26412038  0.43874075  0.55029842  1
  O  O46  1  0.31569323  0.06641264  0.67711097  1
  O  O47  1  0.32867150  0.31298850  0.76907846  1
  O  O48  1  0.36212665  0.52980039  0.92069651  1
  O  O49  1  0.37205962  0.25454568  0.49383748  1
  O  O50  1  0.37758561  0.66903564  0.70607654  1
  O  O51  1  0.40243349  0.91784505  0.86045155  1
  O  O52  1  0.44413101  0.89981715  0.16630795  1
  O  O53  1  0.44716502  0.60218250  0.38991906  1
  O  O54  1  0.44171513  0.31096619  0.07831429  1
  O  O55  1  0.44855977  0.05509191  0.37201324  1
  O  O56  1  0.55144023  0.94490809  0.62798676  1
  O  O57  1  0.55828487  0.68903381  0.92168571  1
  O  O58  1  0.55283498  0.39781750  0.61008094  1
  O  O59  1  0.55586899  0.10018285  0.83369205  1
  O  O60  1  0.59756651  0.08215495  0.13954845  1
  O  O61  1  0.62241439  0.33096436  0.29392346  1
  O  O62  1  0.62794038  0.74545432  0.50616252  1
  O  O63  1  0.63787335  0.47019961  0.07930349  1
  O  O64  1  0.67132850  0.68701150  0.23092154  1
  O  O65  1  0.68430677  0.93358636  0.32288903  1
  O  O66  1  0.73587962  0.56125925  0.44970158  1
  O  O67  1  0.76412038  0.93874075  0.94970158  1
  O  O68  1  0.73034978  0.27543234  0.02897709  1
  O  O69  1  0.76965022  0.22456766  0.52897709  1
  O  O70  1  0.81569323  0.56641364  0.82288903  1
  O  O71  1  0.82867150  0.81298850  0.73092154  1
  O  O72  1  0.87205962  0.75454568  0.00616252  1
  O  O73  1  0.86212665  0.02980039  0.57930349  1
  O  O74  1  0.87758561  0.16903564  0.79392346  1
  O  O75  1  0.90243349  0.41784505  0.63954845  1
  O  O76  1  0.94171513  0.81096619  0.42168571  1
  O  O77  1  0.94413101  0.39981715  0.33369205  1
  O  O78  1  0.94716502  0.10218250  0.11008094  1
  O  O79  1  0.94855977  0.55509191  0.12798676  1
