# generated using pymatgen
data_Na6Zn3As4H6O19
_symmetry_space_group_name_H-M   'P 1'
_cell_length_a   12.37328441
_cell_length_b   12.37328441
_cell_length_c   12.37328441
_cell_angle_alpha   90.00000000
_cell_angle_beta   90.00000000
_cell_angle_gamma   90.00000000
_symmetry_Int_Tables_number   1
_chemical_formula_structural   Na6Zn3As4H6O19
_chemical_formula_sum   'Na24 Zn12 As16 H24 O76'
_cell_volume   1894.32716406
_cell_formula_units_Z   4
loop_
 _symmetry_equiv_pos_site_id
 _symmetry_equiv_pos_as_xyz
  1  'x, y, z'
loop_
 _atom_site_type_symbol
 _atom_site_label
 _atom_site_symmetry_multiplicity
 _atom_site_fract_x
 _atom_site_fract_y
 _atom_site_fract_z
 _atom_site_occupancy
  Na  Na0  1  0.00264494  0.25286504  0.57877590  1
  Na  Na1  1  0.00450692  0.74237489  0.32614240  1
  Na  Na2  1  0.07877590  0.49735506  0.74713496  1
  Na  Na3  1  0.17385760  0.99549308  0.24237489  1
  Na  Na4  1  0.24237489  0.17385760  0.99549308  1
  Na  Na5  1  0.24713496  0.42122410  0.50264494  1
  Na  Na6  1  0.25286504  0.57877590  0.00264494  1
  Na  Na7  1  0.25762511  0.82614240  0.49549308  1
  Na  Na8  1  0.32614240  0.00450692  0.74237489  1
  Na  Na9  1  0.42122410  0.50264494  0.24713496  1
  Na  Na10  1  0.49549308  0.25762511  0.82614240  1
  Na  Na11  1  0.49735506  0.74713496  0.07877590  1
  Na  Na12  1  0.50264494  0.24713496  0.42122410  1
  Na  Na13  1  0.50450692  0.75762511  0.67385760  1
  Na  Na14  1  0.57877590  0.00264494  0.25286504  1
  Na  Na15  1  0.67385760  0.50450692  0.75762511  1
  Na  Na16  1  0.74237489  0.32614240  0.00450692  1
  Na  Na17  1  0.74713496  0.07877590  0.49735506  1
  Na  Na18  1  0.75286504  0.92122410  0.99735506  1
  Na  Na19  1  0.75762511  0.67385760  0.50450692  1
  Na  Na20  1  0.82614240  0.49549308  0.25762511  1
  Na  Na21  1  0.92122410  0.99735506  0.75286504  1
  Na  Na22  1  0.99549308  0.24237489  0.17385760  1
  Na  Na23  1  0.99735506  0.75286504  0.92122410  1
  Zn  Zn24  1  0.01023422  0.75224564  0.62501656  1
  Zn  Zn25  1  0.12501656  0.48976578  0.24775436  1
  Zn  Zn26  1  0.24775436  0.12501656  0.48976578  1
  Zn  Zn27  1  0.25224564  0.87498344  0.98976578  1
  Zn  Zn28  1  0.37498344  0.51023422  0.74775436  1
  Zn  Zn29  1  0.48976578  0.24775436  0.12501656  1
  Zn  Zn30  1  0.51023422  0.74775436  0.37498344  1
  Zn  Zn31  1  0.62501656  0.01023422  0.75224564  1
  Zn  Zn32  1  0.74775436  0.37498344  0.51023422  1
  Zn  Zn33  1  0.75224564  0.62501656  0.01023422  1
  Zn  Zn34  1  0.87498344  0.98976578  0.25224564  1
  Zn  Zn35  1  0.98976578  0.25224564  0.87498344  1
  As  As36  1  0.01724510  0.98275490  0.48275490  1
  As  As37  1  0.03173818  0.03173818  0.03173818  1
  As  As38  1  0.22099255  0.27900745  0.72099255  1
  As  As39  1  0.23094199  0.73094199  0.76905801  1
  As  As40  1  0.26905801  0.26905801  0.26905801  1
  As  As41  1  0.27900745  0.72099255  0.22099255  1
  As  As42  1  0.46826182  0.96826182  0.53173818  1
  As  As43  1  0.48275490  0.01724510  0.98275490  1
  As  As44  1  0.51724510  0.51724510  0.51724510  1
  As  As45  1  0.53173818  0.46826182  0.96826182  1
  As  As46  1  0.72099255  0.22099255  0.27900745  1
  As  As47  1  0.73094199  0.76905801  0.23094199  1
  As  As48  1  0.76905801  0.23094199  0.73094199  1
  As  As49  1  0.77900745  0.77900745  0.77900745  1
  As  As50  1  0.96826182  0.53173818  0.46826182  1
  As  As51  1  0.98275490  0.48275490  0.01724510  1
  H  H52  1  0.04028927  0.17874473  0.38028664  1
  H  H53  1  0.06783974  0.30132915  0.37597357  1
  H  H54  1  0.12402643  0.93216026  0.80132915  1
  H  H55  1  0.11971336  0.95971073  0.67874473  1
  H  H56  1  0.17874473  0.38028664  0.04028927  1
  H  H57  1  0.19867085  0.62402643  0.56783974  1
  H  H58  1  0.30132915  0.37597357  0.06783974  1
  H  H59  1  0.32125527  0.61971336  0.54028927  1
  H  H60  1  0.38028664  0.04028927  0.17874473  1
  H  H61  1  0.37597357  0.06783974  0.30132915  1
  H  H62  1  0.43216026  0.69867085  0.87597357  1
  H  H63  1  0.45971073  0.82125527  0.88028664  1
  H  H64  1  0.54028927  0.32125527  0.61971336  1
  H  H65  1  0.56783974  0.19867085  0.62402643  1
  H  H66  1  0.62402643  0.56783974  0.19867085  1
  H  H67  1  0.61971336  0.54028927  0.32125527  1
  H  H68  1  0.67874473  0.11971336  0.95971073  1
  H  H69  1  0.69867085  0.87597357  0.43216026  1
  H  H70  1  0.80132915  0.12402643  0.93216026  1
  H  H71  1  0.82125527  0.88028664  0.45971073  1
  H  H72  1  0.88028664  0.45971073  0.82125527  1
  H  H73  1  0.87597357  0.43216026  0.69867085  1
  H  H74  1  0.93216026  0.80132915  0.12402643  1
  H  H75  1  0.95971073  0.67874473  0.11971336  1
  O  O76  1  0.00525474  0.25106352  0.37915903  1
  O  O77  1  0.00852814  0.54630518  0.33443134  1
  O  O78  1  0.04630518  0.16556866  0.99147186  1
  O  O79  1  0.04730987  0.45269013  0.54730987  1
  O  O80  1  0.05734867  0.41619276  0.11682798  1
  O  O81  1  0.06183225  0.56183225  0.93816775  1
  O  O82  1  0.08380724  0.88317202  0.55734867  1
  O  O83  1  0.09249003  0.30869269  0.77055523  1
  O  O84  1  0.11682798  0.05734867  0.41619276  1
  O  O85  1  0.12084097  0.99474526  0.75106352  1
  O  O86  1  0.12824239  0.66876769  0.69566229  1
  O  O87  1  0.16556866  0.99147186  0.04630518  1
  O  O88  1  0.16876769  0.80433771  0.87175761  1
  O  O89  1  0.19046098  0.19046098  0.19046098  1
  O  O90  1  0.19130731  0.22944477  0.59249003  1
  O  O91  1  0.19566229  0.37175761  0.33123231  1
  O  O92  1  0.19981626  0.80018374  0.30018374  1
  O  O93  1  0.22944477  0.59249003  0.19130731  1
  O  O94  1  0.24893648  0.62084097  0.50525474  1
  O  O95  1  0.25106352  0.37915903  0.00525474  1
  O  O96  1  0.27055523  0.40750997  0.69130731  1
  O  O97  1  0.30018374  0.19981626  0.80018374  1
  O  O98  1  0.30433771  0.62824239  0.83123231  1
  O  O99  1  0.30869269  0.77055523  0.09249003  1
  O  O100  1  0.30953902  0.80953902  0.69046098  1
  O  O101  1  0.33123231  0.19566229  0.37175761  1
  O  O102  1  0.33443134  0.00852814  0.54630518  1
  O  O103  1  0.37175761  0.33123231  0.19566229  1
  O  O104  1  0.37915903  0.00525474  0.25106352  1
  O  O105  1  0.38317202  0.94265133  0.91619276  1
  O  O106  1  0.40750997  0.69130731  0.27055523  1
  O  O107  1  0.41619276  0.11682798  0.05734867  1
  O  O108  1  0.43816775  0.43816775  0.43816775  1
  O  O109  1  0.44265133  0.58380724  0.61682798  1
  O  O110  1  0.45269013  0.54730987  0.04730987  1
  O  O111  1  0.45369482  0.83443134  0.49147186  1
  O  O112  1  0.49147186  0.45369482  0.83443134  1
  O  O113  1  0.49474526  0.74893648  0.87915903  1
  O  O114  1  0.50525474  0.24893648  0.62084097  1
  O  O115  1  0.50852814  0.95369482  0.66556866  1
  O  O116  1  0.54630518  0.33443134  0.00852814  1
  O  O117  1  0.54730987  0.04730987  0.45269013  1
  O  O118  1  0.55734867  0.08380724  0.88317202  1
  O  O119  1  0.56183225  0.93816775  0.06183225  1
  O  O120  1  0.58380724  0.61682798  0.44265133  1
  O  O121  1  0.59249003  0.19130731  0.22944477  1
  O  O122  1  0.61682798  0.44265133  0.58380724  1
  O  O123  1  0.62084097  0.50525474  0.24893648  1
  O  O124  1  0.62824239  0.83123231  0.30433771  1
  O  O125  1  0.66556866  0.50852814  0.95369482  1
  O  O126  1  0.66876769  0.69566229  0.12824239  1
  O  O127  1  0.69046098  0.30953902  0.80953902  1
  O  O128  1  0.69130731  0.27055523  0.40750997  1
  O  O129  1  0.69566229  0.12824239  0.66876769  1
  O  O130  1  0.69981626  0.69981626  0.69981626  1
  O  O131  1  0.72944477  0.90750997  0.80869269  1
  O  O132  1  0.74893648  0.87915903  0.49474526  1
  O  O133  1  0.75106352  0.12084097  0.99474526  1
  O  O134  1  0.77055523  0.09249003  0.30869269  1
  O  O135  1  0.80018374  0.30018374  0.19981626  1
  O  O136  1  0.80433771  0.87175761  0.16876769  1
  O  O137  1  0.80869269  0.72944477  0.90750997  1
  O  O138  1  0.80953902  0.69046098  0.30953902  1
  O  O139  1  0.83123231  0.30433771  0.62824239  1
  O  O140  1  0.83443134  0.49147186  0.45369482  1
  O  O141  1  0.87175761  0.16876769  0.80433771  1
  O  O142  1  0.87915903  0.49474526  0.74893648  1
  O  O143  1  0.88317202  0.55734867  0.08380724  1
  O  O144  1  0.90750997  0.80869269  0.72944477  1
  O  O145  1  0.91619276  0.38317202  0.94265133  1
  O  O146  1  0.93816775  0.06183225  0.56183225  1
  O  O147  1  0.94265133  0.91619276  0.38317202  1
  O  O148  1  0.95269013  0.95269013  0.95269013  1
  O  O149  1  0.95369482  0.66556866  0.50852814  1
  O  O150  1  0.99147186  0.04630518  0.16556866  1
  O  O151  1  0.99474526  0.75106352  0.12084097  1
