# generated using pymatgen
data_CsSi3HO7
_symmetry_space_group_name_H-M   'P 1'
_cell_length_a   4.97285873
_cell_length_b   10.46010640
_cell_length_c   14.35197028
_cell_angle_alpha   90.00000000
_cell_angle_beta   90.00000000
_cell_angle_gamma   90.00000000
_symmetry_Int_Tables_number   1
_chemical_formula_structural   CsSi3HO7
_chemical_formula_sum   'Cs4 Si12 H4 O28'
_cell_volume   746.54114832
_cell_formula_units_Z   4
loop_
 _symmetry_equiv_pos_site_id
 _symmetry_equiv_pos_as_xyz
  1  'x, y, z'
loop_
 _atom_site_type_symbol
 _atom_site_label
 _atom_site_symmetry_multiplicity
 _atom_site_fract_x
 _atom_site_fract_y
 _atom_site_fract_z
 _atom_site_occupancy
  Cs  Cs0  1  0.03066987  0.08344495  0.74722633  1
  Cs  Cs1  1  0.46933013  0.91655505  0.24722633  1
  Cs  Cs2  1  0.53066987  0.41655505  0.25277367  1
  Cs  Cs3  1  0.96933013  0.58344495  0.75277367  1
  Si  Si4  1  0.01819490  0.91595849  0.00832906  1
  Si  Si5  1  0.02379427  0.64849593  0.10833970  1
  Si  Si6  1  0.10837854  0.20434010  0.05502596  1
  Si  Si7  1  0.39162146  0.79565990  0.55502596  1
  Si  Si8  1  0.47620573  0.35150407  0.60833970  1
  Si  Si9  1  0.48180510  0.08404151  0.50832906  1
  Si  Si10  1  0.51819490  0.58404151  0.99167094  1
  Si  Si11  1  0.52379427  0.85150407  0.89166030  1
  Si  Si12  1  0.60837854  0.29565990  0.94497404  1
  Si  Si13  1  0.89162146  0.70434010  0.44497304  1
  Si  Si14  1  0.97620573  0.14849593  0.39166030  1
  Si  Si15  1  0.98180510  0.41595849  0.49167094  1
  H  H16  1  0.03032182  0.69924032  0.29053068  1
  H  H17  1  0.46967818  0.30075968  0.79053068  1
  H  H18  1  0.53032182  0.80075968  0.70946932  1
  H  H19  1  0.96967818  0.19924032  0.20946932  1
  O  O20  1  0.02033533  0.26344432  0.15466452  1
  O  O21  1  0.05271719  0.80433690  0.08695172  1
  O  O22  1  0.08279433  0.75079527  0.53175707  1
  O  O23  1  0.09860214  0.61686675  0.21327349  1
  O  O24  1  0.10163974  0.04738186  0.06145917  1
  O  O25  1  0.20961678  0.89081874  0.91752167  1
  O  O26  1  0.20873487  0.57433738  0.02857162  1
  O  O27  1  0.29126513  0.42566262  0.52857162  1
  O  O28  1  0.29038322  0.10918126  0.41752167  1
  O  O29  1  0.39836026  0.95261814  0.56145917  1
  O  O30  1  0.40139786  0.38313325  0.71327349  1
  O  O31  1  0.41720567  0.24920473  0.03175707  1
  O  O32  1  0.44728281  0.19566310  0.58695172  1
  O  O33  1  0.47966467  0.73655568  0.65466452  1
  O  O34  1  0.52033533  0.23655568  0.84533548  1
  O  O35  1  0.55271719  0.69566310  0.91304828  1
  O  O36  1  0.58279433  0.74920473  0.46824293  1
  O  O37  1  0.59860214  0.88313325  0.78672651  1
  O  O38  1  0.60163974  0.45261814  0.93854083  1
  O  O39  1  0.70961678  0.60918126  0.08247833  1
  O  O40  1  0.70873487  0.92566262  0.97142838  1
  O  O41  1  0.79126513  0.07433738  0.47142838  1
  O  O42  1  0.79038322  0.39081874  0.58247833  1
  O  O43  1  0.89836026  0.54738186  0.43854083  1
  O  O44  1  0.90139786  0.11686675  0.28672651  1
  O  O45  1  0.91720567  0.25079527  0.96824293  1
  O  O46  1  0.94728281  0.30433690  0.41304828  1
  O  O47  1  0.97966467  0.76344432  0.34533548  1
