# generated using pymatgen
data_Al19CrO30
_symmetry_space_group_name_H-M   'P 1'
_cell_length_a   4.82030468
_cell_length_b   5.19121754
_cell_length_c   20.25189648
_cell_angle_alpha   94.04333795
_cell_angle_beta   96.85045189
_cell_angle_gamma   117.65082544
_symmetry_Int_Tables_number   1
_chemical_formula_structural   Al19CrO30
_chemical_formula_sum   'Al19 Cr1 O30'
_cell_volume   441.09878698
_cell_formula_units_Z   1
loop_
 _symmetry_equiv_pos_site_id
 _symmetry_equiv_pos_as_xyz
  1  'x, y, z'
loop_
 _atom_site_type_symbol
 _atom_site_label
 _atom_site_symmetry_multiplicity
 _atom_site_fract_x
 _atom_site_fract_y
 _atom_site_fract_z
 _atom_site_occupancy
  Al  Al0  1  0.57696998  0.08372750  0.07120946  1
  Al  Al1  1  0.62318834  0.01667781  0.23012512  1
  Al  Al2  1  0.77753738  0.18458251  0.37068397  1
  Al  Al3  1  0.97844079  0.78757235  0.17177495  1
  Al  Al4  1  0.82271611  0.11578272  0.52958726  1
  Al  Al5  1  0.97733968  0.28428308  0.67029505  1
  Al  Al6  1  0.42277189  0.41583237  0.42974986  1
  Al  Al7  1  0.37852350  0.48564103  0.27129877  1
  Al  Al8  1  0.22318867  0.31604955  0.13106648  1
  Al  Al9  1  0.57739223  0.58431736  0.57043216  1
  Al  Al10  1  0.77651397  0.68377557  0.86884796  1
  Al  Al11  1  0.62204663  0.51544745  0.72908853  1
  Al  Al12  1  0.02185633  0.21604080  0.82893893  1
  Al  Al13  1  0.02302587  0.71609757  0.32990090  1
  Al  Al14  1  0.22267421  0.81556993  0.62942365  1
  Al  Al15  1  0.42197203  0.91427011  0.92821053  1
  Al  Al16  1  0.17732895  0.88425190  0.47053473  1
  Al  Al17  1  0.37679215  0.98465007  0.76987785  1
  Al  Al18  1  0.17835260  0.38402297  0.96914452  1
  Cr  Cr19  1  0.82090531  0.61096185  0.02990204  1
  O  O20  1  0.99381372  0.14987772  0.45002404  1
  O  O21  1  0.94612888  0.47258613  0.11407519  1
  O  O22  1  0.65579482  0.32824472  0.28903332  1
  O  O23  1  0.85728726  0.93982543  0.09258703  1
  O  O24  1  0.83871956  0.57254785  0.41127012  1
  O  O25  1  0.40561584  0.05058819  0.15058249  1
  O  O26  1  0.80598275  0.25040835  0.74957764  1
  O  O27  1  0.38251247  0.34085478  0.05008410  1
  O  O28  1  0.79379047  0.54998777  0.64978091  1
  O  O29  1  0.76478486  0.22023317  0.98807144  1
  O  O30  1  0.56168205  0.62839596  0.18930197  1
  O  O31  1  0.36130083  0.02774372  0.38885750  1
  O  O32  1  0.96065250  0.82734182  0.78831754  1
  O  O33  1  0.74482336  0.87244985  0.31148460  1
  O  O34  1  0.54485625  0.27247570  0.51116788  1
  O  O35  1  0.45508616  0.72758322  0.48880178  1
  O  O36  1  0.25750020  0.77591529  0.01032961  1
  O  O37  1  0.25472812  0.12719706  0.68842449  1
  O  O38  1  0.63881383  0.97247596  0.61108977  1
  O  O39  1  0.04065683  0.17416481  0.21277288  1
  O  O40  1  0.43709718  0.37197042  0.81029615  1
  O  O41  1  0.59599368  0.64656513  0.94580513  1
  O  O42  1  0.20626496  0.45045273  0.35033559  1
  O  O43  1  0.59356731  0.95118783  0.84903905  1
  O  O44  1  0.19493963  0.75125376  0.25052973  1
  O  O45  1  0.16119784  0.42750831  0.58867496  1
  O  O46  1  0.34467784  0.67253741  0.71088575  1
  O  O47  1  0.14488280  0.07167926  0.91068922  1
  O  O48  1  0.05123663  0.52637706  0.88809809  1
  O  O49  1  0.00607280  0.85001307  0.54991931  1
