# generated using pymatgen
data_LiP4WO13
_symmetry_space_group_name_H-M   'P 1'
_cell_length_a   5.24342161
_cell_length_b   8.09168181
_cell_length_c   14.02169654
_cell_angle_alpha   78.79997775
_cell_angle_beta   85.84363188
_cell_angle_gamma   80.10186437
_symmetry_Int_Tables_number   1
_chemical_formula_structural   LiP4WO13
_chemical_formula_sum   'Li2 P8 W2 O26'
_cell_volume   574.42660367
_cell_formula_units_Z   2
loop_
 _symmetry_equiv_pos_site_id
 _symmetry_equiv_pos_as_xyz
  1  'x, y, z'
loop_
 _atom_site_type_symbol
 _atom_site_label
 _atom_site_symmetry_multiplicity
 _atom_site_fract_x
 _atom_site_fract_y
 _atom_site_fract_z
 _atom_site_occupancy
  Li  Li0  1  0.55580090  0.46093750  0.99759454  1
  Li  Li1  1  0.01019225  0.60941890  0.51404223  1
  P  P2  1  0.12714150  0.79708458  0.12861055  1
  P  P3  1  0.99745341  0.87897014  0.65516939  1
  P  P4  1  0.34805539  0.58117378  0.31292632  1
  P  P5  1  0.30693610  0.65371221  0.80360865  1
  P  P6  1  0.67366244  0.34125412  0.20499173  1
  P  P7  1  0.63697414  0.42748537  0.67917742  1
  P  P8  1  0.98456882  0.10211105  0.35083729  1
  P  P9  1  0.86543847  0.20731415  0.85931366  1
  W  W10  1  0.43201509  0.04900961  0.75380651  1
  W  W11  1  0.55576533  0.94850588  0.24038685  1
  O  O12  1  0.16241290  0.01591981  0.66671557  1
  O  O13  1  0.17163104  0.63793695  0.22031948  1
  O  O14  1  0.27088957  0.01742469  0.32934936  1
  O  O15  1  0.19266350  0.55774450  0.40461497  1
  O  O16  1  0.16428975  0.73960535  0.03475413  1
  O  O17  1  0.05908617  0.79749027  0.56920486  1
  O  O18  1  0.03127594  0.73480528  0.75712332  1
  O  O19  1  0.15883277  0.12909156  0.84387127  1
  O  O20  1  0.29914605  0.92691172  0.14560257  1
  O  O21  1  0.30072095  0.51182190  0.88705659  1
  O  O22  1  0.54147293  0.19775220  0.18095588  1
  O  O23  1  0.50587794  0.40017197  0.29731831  1
  O  O24  1  0.45579223  0.29322535  0.68466340  1
  O  O25  1  0.55022795  0.70252407  0.30437175  1
  O  O26  1  0.46775169  0.59572186  0.70937494  1
  O  O27  1  0.43039580  0.80520850  0.82160406  1
  O  O28  1  0.69271109  0.48213220  0.12136819  1
  O  O29  1  0.70654685  0.07219539  0.84037922  1
  O  O30  1  0.84014125  0.88138603  0.15233036  1
  O  O31  1  0.94310482  0.25448356  0.25185827  1
  O  O32  1  0.93781901  0.16847644  0.44164509  1
  O  O33  1  0.80001896  0.26957011  0.95150536  1
  O  O34  1  0.77383526  0.47840697  0.58565223  1
  O  O35  1  0.70717597  0.96230417  0.66570880  1
  O  O36  1  0.83465451  0.36190897  0.76567611  1
  O  O37  1  0.81358127  0.96974590  0.33495779  1
