# generated using pymatgen
data_Hf3N2O3
_symmetry_space_group_name_H-M   'P 1'
_cell_length_a   4.04105178
_cell_length_b   5.64570267
_cell_length_c   10.56948272
_cell_angle_alpha   90.00000000
_cell_angle_beta   90.00000000
_cell_angle_gamma   110.97050559
_symmetry_Int_Tables_number   1
_chemical_formula_structural   Hf3N2O3
_chemical_formula_sum   'Hf6 N4 O6'
_cell_volume   225.16642914
_cell_formula_units_Z   2
loop_
 _symmetry_equiv_pos_site_id
 _symmetry_equiv_pos_as_xyz
  1  'x, y, z'
loop_
 _atom_site_type_symbol
 _atom_site_label
 _atom_site_symmetry_multiplicity
 _atom_site_fract_x
 _atom_site_fract_y
 _atom_site_fract_z
 _atom_site_occupancy
  Hf  Hf0  1  0.19188016  0.38376033  0.25000000  1
  Hf  Hf1  1  0.14393696  0.28787493  0.94333414  1
  Hf  Hf2  1  0.14393696  0.28787493  0.55666586  1
  Hf  Hf3  1  0.80811984  0.61623967  0.75000000  1
  Hf  Hf4  1  0.85606304  0.71212507  0.05666586  1
  Hf  Hf5  1  0.85606304  0.71212507  0.44333414  1
  N  N6  1  0.30034256  0.60068612  0.42105333  1
  N  N7  1  0.30034256  0.60068612  0.07894667  1
  N  N8  1  0.69965744  0.39931388  0.57894667  1
  N  N9  1  0.69965744  0.39931388  0.92105333  1
  O  O10  1  0.24775199  0.49550298  0.75000000  1
  O  O11  1  0.04346984  0.08693968  0.11597278  1
  O  O12  1  0.04346984  0.08693968  0.38402722  1
  O  O13  1  0.75224801  0.50449702  0.25000000  1
  O  O14  1  0.95653016  0.91306032  0.88402722  1
  O  O15  1  0.95653016  0.91306032  0.61597278  1
