# generated using pymatgen
data_Ga2P3H12(NO4)3
_symmetry_space_group_name_H-M   'P 1'
_cell_length_a   8.48348912
_cell_length_b   8.48348912
_cell_length_c   9.17572117
_cell_angle_alpha   73.72449209
_cell_angle_beta   106.27550791
_cell_angle_gamma   104.66795663
_symmetry_Int_Tables_number   1
_chemical_formula_structural   Ga2P3H12(NO4)3
_chemical_formula_sum   'Ga4 P6 H24 N6 O24'
_cell_volume   597.47179978
_cell_formula_units_Z   2
loop_
 _symmetry_equiv_pos_site_id
 _symmetry_equiv_pos_as_xyz
  1  'x, y, z'
loop_
 _atom_site_type_symbol
 _atom_site_label
 _atom_site_symmetry_multiplicity
 _atom_site_fract_x
 _atom_site_fract_y
 _atom_site_fract_z
 _atom_site_occupancy
  Ga  Ga0  1  0.25639034  0.59123193  0.92112905  1
  Ga  Ga1  1  0.40876807  0.74360966  0.42112905  1
  Ga  Ga2  1  0.59123193  0.25639034  0.57887095  1
  Ga  Ga3  1  0.74360966  0.40876807  0.07887095  1
  P  P4  1  0.33021284  0.91881849  0.66098175  1
  P  P5  1  0.08118151  0.66978716  0.16098175  1
  P  P6  1  0.49696844  0.49696844  0.75000000  1
  P  P7  1  0.50303156  0.50303156  0.25000000  1
  P  P8  1  0.91881849  0.33021284  0.83901825  1
  P  P9  1  0.66978716  0.08118151  0.33901825  1
  H  H10  1  0.28530819  0.96358901  0.97800812  1
  H  H11  1  0.03641099  0.71469181  0.47800812  1
  H  H12  1  0.60114147  0.87754434  0.93527150  1
  H  H13  1  0.14743719  0.37684551  0.62690240  1
  H  H14  1  0.12245566  0.39885853  0.43527150  1
  H  H15  1  0.92917658  0.99186741  0.81392576  1
  H  H16  1  0.78113482  0.90136680  0.67896191  1
  H  H17  1  0.20709107  0.14178668  0.93544907  1
  H  H18  1  0.14178668  0.20709107  0.56455093  1
  H  H19  1  0.90136680  0.78113482  0.82103809  1
  H  H20  1  0.62315449  0.85256281  0.12690240  1
  H  H21  1  0.99186741  0.92917658  0.68607424  1
  H  H22  1  0.00813259  0.07082342  0.31392576  1
  H  H23  1  0.37684551  0.14743719  0.87309760  1
  H  H24  1  0.09863320  0.21886518  0.17896191  1
  H  H25  1  0.85821332  0.79290893  0.43544907  1
  H  H26  1  0.79290893  0.85821332  0.06455093  1
  H  H27  1  0.21886518  0.09863320  0.32103809  1
  H  H28  1  0.07082342  0.00813259  0.18607424  1
  H  H29  1  0.87754434  0.60114147  0.56472850  1
  H  H30  1  0.85256281  0.62315449  0.37309760  1
  H  H31  1  0.39885853  0.12245566  0.06472850  1
  H  H32  1  0.96358901  0.28530819  0.52199188  1
  H  H33  1  0.71469181  0.03641099  0.02199188  1
  N  N34  1  0.09281379  0.31738500  0.53532144  1
  N  N35  1  0.89795059  0.89795059  0.75000000  1
  N  N36  1  0.31738500  0.09281379  0.96467856  1
  N  N37  1  0.68261500  0.90718621  0.03532144  1
  N  N38  1  0.10204941  0.10204941  0.25000000  1
  N  N39  1  0.90718621  0.68261500  0.46467856  1
  O  O40  1  0.03304207  0.50621452  0.83979736  1
  O  O41  1  0.36635518  0.80175613  0.82771269  1
  O  O42  1  0.27751066  0.81912667  0.53141666  1
  O  O43  1  0.49378548  0.96695793  0.33979736  1
  O  O44  1  0.01246993  0.19099068  0.85825218  1
  O  O45  1  0.19824387  0.63364482  0.32771269  1
  O  O46  1  0.18087333  0.72248934  0.03141666  1
  O  O47  1  0.32481232  0.48707820  0.78273888  1
  O  O48  1  0.53942747  0.63997115  0.60896990  1
  O  O49  1  0.80900932  0.98753007  0.35825218  1
  O  O50  1  0.63997115  0.53942747  0.89103010  1
  O  O51  1  0.51292180  0.67518768  0.28273888  1
  O  O52  1  0.48707820  0.32481232  0.71726112  1
  O  O53  1  0.36002885  0.46057253  0.10896990  1
  O  O54  1  0.19099068  0.01246993  0.64174782  1
  O  O55  1  0.46057253  0.36002885  0.39103010  1
  O  O56  1  0.67518768  0.51292180  0.21726112  1
  O  O57  1  0.81912667  0.27751066  0.96858334  1
  O  O58  1  0.80175613  0.36635518  0.67228731  1
  O  O59  1  0.98753007  0.80900932  0.14174782  1
  O  O60  1  0.50621452  0.03304207  0.66020264  1
  O  O61  1  0.72248934  0.18087333  0.46858334  1
  O  O62  1  0.63364482  0.19824387  0.17228731  1
  O  O63  1  0.96695793  0.49378548  0.16020264  1
