# generated using pymatgen
data_V2O3F
_symmetry_space_group_name_H-M   'P 1'
_cell_length_a   4.71696558
_cell_length_b   4.71696558
_cell_length_c   9.05050644
_cell_angle_alpha   90.00000000
_cell_angle_beta   90.00000000
_cell_angle_gamma   94.39834235
_symmetry_Int_Tables_number   1
_chemical_formula_structural   V2O3F
_chemical_formula_sum   'V6 O9 F3'
_cell_volume   200.77858963
_cell_formula_units_Z   3
loop_
 _symmetry_equiv_pos_site_id
 _symmetry_equiv_pos_as_xyz
  1  'x, y, z'
loop_
 _atom_site_type_symbol
 _atom_site_label
 _atom_site_symmetry_multiplicity
 _atom_site_fract_x
 _atom_site_fract_y
 _atom_site_fract_z
 _atom_site_occupancy
  V  V0  1  0.00235168  0.99764832  -0.00029684  1
  V  V1  1  0.00235168  0.99764832  0.33362984  1
  V  V2  1  0.00769848  0.99230152  0.66666700  1
  V  V3  1  0.55164183  0.44835817  0.16666700  1
  V  V4  1  0.45687389  0.54312611  0.83404759  1
  V  V5  1  0.45687389  0.54312611  0.49928641  1
  O  O6  1  0.19905364  0.80094636  0.49938594  1
  O  O7  1  0.19905364  0.80094636  0.83394806  1
  O  O8  1  0.31140632  0.30447852  0.00052344  1
  O  O9  1  0.31140632  0.30447852  0.33281056  1
  O  O10  1  0.30470382  0.31002599  0.66666700  1
  O  O11  1  0.69552148  0.68859368  0.00052344  1
  O  O12  1  0.69552148  0.68859368  0.33281056  1
  O  O13  1  0.68997401  0.69529618  0.66666700  1
  O  O14  1  0.80793824  0.19206176  0.16666700  1
  F  F15  1  0.19991962  0.80008038  0.16666700  1
  F  F16  1  0.80385548  0.19614452  0.83266261  1
  F  F17  1  0.80385548  0.19614452  0.50067039  1
