# generated using pymatgen
data_Li2MnV(P2O7)2
_symmetry_space_group_name_H-M   'P 1'
_cell_length_a   9.71423873
_cell_length_b   8.30273567
_cell_length_c   7.05997602
_cell_angle_alpha   90.00000000
_cell_angle_beta   108.86720958
_cell_angle_gamma   90.00000000
_symmetry_Int_Tables_number   1
_chemical_formula_structural   Li2MnV(P2O7)2
_chemical_formula_sum   'Li4 Mn2 V2 P8 O28'
_cell_volume   538.82600651
_cell_formula_units_Z   2
loop_
 _symmetry_equiv_pos_site_id
 _symmetry_equiv_pos_as_xyz
  1  'x, y, z'
loop_
 _atom_site_type_symbol
 _atom_site_label
 _atom_site_symmetry_multiplicity
 _atom_site_fract_x
 _atom_site_fract_y
 _atom_site_fract_z
 _atom_site_occupancy
  Li  Li0  1  0.08635732  0.86079017  0.67260169  1
  Li  Li1  1  0.41364268  0.36079017  0.32739831  1
  Li  Li2  1  0.58963149  0.85962480  0.67555483  1
  Li  Li3  1  0.91036851  0.35962480  0.32444517  1
  Mn  Mn4  1  0.60644133  0.49790330  0.73041269  1
  Mn  Mn5  1  0.89355867  0.99790330  0.26958731  1
  V  V6  1  0.10704562  0.50025122  0.72698359  1
  V  V7  1  0.39295438  0.00025122  0.27301641  1
  P  P8  1  0.19982880  0.17958264  0.52158038  1
  P  P9  1  0.10611985  0.78471326  0.08670522  1
  P  P10  1  0.39388015  0.28471326  0.91329478  1
  P  P11  1  0.30017120  0.67958264  0.47841962  1
  P  P12  1  0.70035508  0.17826017  0.51755116  1
  P  P13  1  0.60719066  0.78700210  0.08933673  1
  P  P14  1  0.89280934  0.28700210  0.91066327  1
  P  P15  1  0.79964492  0.67826017  0.48244884  1
  O  O16  1  0.02447846  0.32811588  0.84644132  1
  O  O17  1  0.06830007  0.69567739  0.88703672  1
  O  O18  1  0.09348253  0.03704023  0.48094895  1
  O  O19  1  0.12431713  0.34327360  0.50701070  1
  O  O20  1  0.19809194  0.67680352  0.60486762  1
  O  O21  1  0.30182298  0.43377781  0.91442140  1
  O  O22  1  0.29846688  0.15303925  0.75200158  1
  O  O23  1  0.20153312  0.65303925  0.24799842  1
  O  O24  1  0.19817702  0.93377781  0.08557860  1
  O  O25  1  0.30190806  0.17680352  0.39513238  1
  O  O26  1  0.37568287  0.84327360  0.49298930  1
  O  O27  1  0.40651747  0.53704023  0.51905105  1
  O  O28  1  0.52876778  0.32430350  0.85596185  1
  O  O29  1  0.56232748  0.70475794  0.88678697  1
  O  O30  1  0.43169993  0.19567739  0.11296328  1
  O  O31  1  0.47552154  0.82811588  0.15355868  1
  O  O32  1  0.59426653  0.03584085  0.48318485  1
  O  O33  1  0.62384968  0.34034563  0.49356031  1
  O  O34  1  0.69604496  0.67200181  0.60790293  1
  O  O35  1  0.79895044  0.43702301  0.91002204  1
  O  O36  1  0.79823994  0.15545192  0.75068849  1
  O  O37  1  0.70176006  0.65545192  0.24931151  1
  O  O38  1  0.70104956  0.93702301  0.08997796  1
  O  O39  1  0.80395504  0.17200181  0.39209707  1
  O  O40  1  0.87615032  0.84034563  0.50643969  1
  O  O41  1  0.90573347  0.53584085  0.51681515  1
  O  O42  1  0.93767252  0.20475794  0.11321303  1
  O  O43  1  0.97123222  0.82430350  0.14403815  1
