# generated using pymatgen
data_Li3Fe2(PO4)3
_symmetry_space_group_name_H-M   'P 1'
_cell_length_a   8.75202027
_cell_length_b   12.16236952
_cell_length_c   8.76283225
_cell_angle_alpha   90.00000000
_cell_angle_beta   90.00000000
_cell_angle_gamma   90.00000000
_symmetry_Int_Tables_number   1
_chemical_formula_structural   Li3Fe2(PO4)3
_chemical_formula_sum   'Li12 Fe8 P12 O48'
_cell_volume   932.76234775
_cell_formula_units_Z   4
loop_
 _symmetry_equiv_pos_site_id
 _symmetry_equiv_pos_as_xyz
  1  'x, y, z'
loop_
 _atom_site_type_symbol
 _atom_site_label
 _atom_site_symmetry_multiplicity
 _atom_site_fract_x
 _atom_site_fract_y
 _atom_site_fract_z
 _atom_site_occupancy
  Li  Li0  1  0.21736391  0.18059861  0.76857320  1
  Li  Li1  1  0.21736391  0.81940139  0.73142680  1
  Li  Li2  1  0.28263609  0.68059861  0.23142680  1
  Li  Li3  1  0.28263609  0.31940139  0.26857320  1
  Li  Li4  1  0.55374202  0.21348742  0.42650696  1
  Li  Li5  1  0.55374202  0.78651258  0.07349304  1
  Li  Li6  1  0.69772202  0.68406261  0.73522845  1
  Li  Li7  1  0.69772202  0.31593739  0.76477155  1
  Li  Li8  1  0.80227798  0.18406261  0.26477155  1
  Li  Li9  1  0.80227798  0.81593739  0.23522845  1
  Li  Li10  1  0.94625798  0.28651258  0.92650696  1
  Li  Li11  1  0.94625798  0.71348742  0.57349304  1
  Fe  Fe12  1  0.25556194  0.38840148  0.95635276  1
  Fe  Fe13  1  0.25556194  0.61159852  0.54364724  1
  Fe  Fe14  1  0.24443806  0.11159852  0.45635276  1
  Fe  Fe15  1  0.24443806  0.88840148  0.04364724  1
  Fe  Fe16  1  0.73986026  0.10654957  0.95449597  1
  Fe  Fe17  1  0.73986026  0.89345043  0.54550403  1
  Fe  Fe18  1  0.76013974  0.39345043  0.45449597  1
  Fe  Fe19  1  0.76013974  0.60654957  0.04550403  1
  P  P20  1  0.04801593  0.50000000  0.25000000  1
  P  P21  1  0.10557267  0.14748561  0.10219107  1
  P  P22  1  0.10557267  0.85251439  0.39780893  1
  P  P23  1  0.39442733  0.35251439  0.60219107  1
  P  P24  1  0.39442733  0.64748561  0.89780893  1
  P  P25  1  0.45198407  0.00000000  0.75000000  1
  P  P26  1  0.54732875  0.00000000  0.25000000  1
  P  P27  1  0.60548336  0.35108475  0.10443311  1
  P  P28  1  0.60548336  0.64891525  0.39556689  1
  P  P29  1  0.89451664  0.85108475  0.89556689  1
  P  P30  1  0.89451664  0.14891525  0.60443311  1
  P  P31  1  0.95267125  0.50000000  0.75000000  1
  O  O32  1  0.04806857  0.57446895  0.64366448  1
  O  O33  1  0.04806857  0.42553105  0.85633552  1
  O  O34  1  0.07021164  0.16376514  0.59569228  1
  O  O35  1  0.07021164  0.83623486  0.90430772  1
  O  O36  1  0.15155796  0.97060069  0.43049971  1
  O  O37  1  0.15155796  0.02939931  0.06950029  1
  O  O38  1  0.15259004  0.57821386  0.34284812  1
  O  O39  1  0.15259004  0.42178614  0.15715188  1
  O  O40  1  0.16345668  0.18256634  0.26164838  1
  O  O41  1  0.16345668  0.81743366  0.23835162  1
  O  O42  1  0.16763578  0.22648020  0.97535366  1
  O  O43  1  0.16763578  0.77351980  0.52464634  1
  O  O44  1  0.33236422  0.27351980  0.47535366  1
  O  O45  1  0.33236422  0.72648020  0.02464634  1
  O  O46  1  0.33654332  0.68256634  0.73835162  1
  O  O47  1  0.33654332  0.31743366  0.76164838  1
  O  O48  1  0.34740996  0.07821386  0.65715188  1
  O  O49  1  0.34740996  0.92178614  0.84284812  1
  O  O50  1  0.34844204  0.47060069  0.56950029  1
  O  O51  1  0.34844204  0.52939931  0.93049971  1
  O  O52  1  0.42978836  0.66376514  0.40430772  1
  O  O53  1  0.42978836  0.33623486  0.09569228  1
  O  O54  1  0.45193143  0.07446895  0.35633552  1
  O  O55  1  0.45193143  0.92553105  0.14366448  1
  O  O56  1  0.55020543  0.92715341  0.64544909  1
  O  O57  1  0.55020543  0.07284659  0.85455091  1
  O  O58  1  0.57060682  0.33609640  0.59270547  1
  O  O59  1  0.57060682  0.66390360  0.90729453  1
  O  O60  1  0.65231131  0.47066207  0.07817110  1
  O  O61  1  0.65231131  0.52933793  0.42182890  1
  O  O62  1  0.65489917  0.07897528  0.16101063  1
  O  O63  1  0.65489917  0.92102472  0.33898937  1
  O  O64  1  0.65657176  0.68754275  0.23253245  1
  O  O65  1  0.65657176  0.31245725  0.26746755  1
  O  O66  1  0.68745168  0.27956817  0.98112195  1
  O  O67  1  0.68745168  0.72043183  0.51887805  1
  O  O68  1  0.81254832  0.22043183  0.48112195  1
  O  O69  1  0.81254832  0.77956817  0.01887805  1
  O  O70  1  0.84342824  0.18754275  0.76746755  1
  O  O71  1  0.84342824  0.81245725  0.73253245  1
  O  O72  1  0.84510083  0.42102472  0.66101063  1
  O  O73  1  0.84510083  0.57897528  0.83898937  1
  O  O74  1  0.84768869  0.02933793  0.57817110  1
  O  O75  1  0.84768869  0.97066207  0.92182890  1
  O  O76  1  0.92939318  0.83609640  0.40729453  1
  O  O77  1  0.92939318  0.16390360  0.09270547  1
  O  O78  1  0.94979457  0.42715341  0.35455091  1
  O  O79  1  0.94979457  0.57284659  0.14544909  1
