# generated using pymatgen
data_Na5(WO3)14
_symmetry_space_group_name_H-M   'P 1'
_cell_length_a   7.77916589
_cell_length_b   19.83136727
_cell_length_c   5.50293653
_cell_angle_alpha   97.97324052
_cell_angle_beta   90.00003589
_cell_angle_gamma   78.68486662
_symmetry_Int_Tables_number   1
_chemical_formula_structural   Na5(WO3)14
_chemical_formula_sum   'Na5 W14 O42'
_cell_volume   824.07407333
_cell_formula_units_Z   1
loop_
 _symmetry_equiv_pos_site_id
 _symmetry_equiv_pos_as_xyz
  1  'x, y, z'
loop_
 _atom_site_type_symbol
 _atom_site_label
 _atom_site_symmetry_multiplicity
 _atom_site_fract_x
 _atom_site_fract_y
 _atom_site_fract_z
 _atom_site_occupancy
  Na  Na0  1  0.63840715  0.71531265  0.85607756  1
  Na  Na1  1  0.85843246  0.28622745  0.14785354  1
  Na  Na2  1  0.06859008  0.85910961  0.43075144  1
  Na  Na3  1  0.42835044  0.14150647  0.56897347  1
  Na  Na4  1  0.21078527  0.57123996  0.28270322  1
  W  W5  1  0.96534643  0.56984331  0.78431236  1
  W  W6  1  0.89359109  0.71444929  0.35643088  1
  W  W7  1  0.81883575  0.85887317  0.92912787  1
  W  W8  1  0.67972303  0.14185214  0.06956588  1
  W  W9  1  0.60595753  0.28629174  0.64211867  1
  W  W10  1  0.53748169  0.42790201  0.21278703  1
  W  W11  1  0.75080933  0.00029931  0.49958177  1
  W  W12  1  0.39327996  0.71413202  0.35529670  1
  W  W13  1  0.46769176  0.56935824  0.78357130  1
  W  W14  1  0.32107770  0.85876934  0.92700957  1
  W  W15  1  0.25074406  0.00023335  0.49768282  1
  W  W16  1  0.10838282  0.28664268  0.64252060  1
  W  W17  1  0.17710840  0.14200915  0.06930017  1
  W  W18  1  0.03767803  0.42822573  0.21304178  1
  O  O19  1  0.85669907  0.78536979  0.14053584  1
  O  O20  1  0.78934311  0.92849228  0.71368702  1
  O  O21  1  0.92903772  0.64297692  0.57079060  1
  O  O22  1  0.85725714  0.78613014  0.64110818  1
  O  O23  1  0.93069867  0.64288637  0.07116924  1
  O  O24  1  0.78956595  0.92705476  0.21829746  1
  O  O25  1  0.85756028  0.28571831  0.64145024  1
  O  O26  1  0.57169697  0.85620263  0.92609848  1
  O  O27  1  0.92752504  0.14417601  0.06999460  1
  O  O28  1  0.78770594  0.42750065  0.21404265  1
  O  O29  1  0.64349243  0.71445930  0.35528762  1
  O  O30  1  0.71535925  0.57211146  0.78655242  1
  O  O31  1  0.71055076  0.07194197  0.78284148  1
  O  O32  1  0.71201097  0.07193496  0.28689843  1
  O  O33  1  0.64202470  0.21338413  0.85271925  1
  O  O34  1  0.57684599  0.35580752  0.93004638  1
  O  O35  1  0.64313858  0.21455673  0.35394296  1
  O  O36  1  0.49752442  0.50048479  0.49677076  1
  O  O37  1  0.57507211  0.35636198  0.42558197  1
  O  O38  1  0.49794582  0.50035960  0.00157275  1
  O  O39  1  0.43150494  0.64320874  0.57213281  1
  O  O40  1  0.42887993  0.64229717  0.07165161  1
  O  O41  1  0.28314854  0.92783436  0.70905904  1
  O  O42  1  0.28339187  0.92757993  0.21427599  1
  O  O43  1  0.35793748  0.78613941  0.63895639  1
  O  O44  1  0.35786693  0.78486009  0.13757456  1
  O  O45  1  0.35812178  0.28449876  0.64162293  1
  O  O46  1  0.42831779  0.14262639  0.07157378  1
  O  O47  1  0.28685006  0.42920544  0.21157668  1
  O  O48  1  0.21570929  0.57144924  0.78402671  1
  O  O49  1  0.07125548  0.85715224  0.92708934  1
  O  O50  1  0.14340088  0.71460808  0.35781800  1
  O  O51  1  0.50008338  0.00085263  0.49822748  1
  O  O52  1  0.00398375  0.50098164  0.00315802  1
  O  O53  1  0.14279612  0.21398541  0.35685292  1
  O  O54  1  0.00523064  0.50055029  0.49764672  1
  O  O55  1  0.14270881  0.21461280  0.85728888  1
  O  O56  1  0.06951777  0.35676956  0.92836403  1
  O  O57  1  0.21670157  0.07181509  0.28526980  1
  O  O58  1  0.07038275  0.35613778  0.42385730  1
  O  O59  1  0.21699269  0.07238184  0.78101101  1
  O  O60  1  0.00121263  0.99862620  0.49725406  1
