# generated using pymatgen
data_Li2Mn3CoO8
_symmetry_space_group_name_H-M   'P 1'
_cell_length_a   8.30293272
_cell_length_b   8.30292323
_cell_length_c   8.30296206
_cell_angle_alpha   90.00092842
_cell_angle_beta   89.99862338
_cell_angle_gamma   90.00100488
_symmetry_Int_Tables_number   1
_chemical_formula_structural   Li2Mn3CoO8
_chemical_formula_sum   'Li8 Mn12 Co4 O32'
_cell_volume   572.39468770
_cell_formula_units_Z   4
loop_
 _symmetry_equiv_pos_site_id
 _symmetry_equiv_pos_as_xyz
  1  'x, y, z'
loop_
 _atom_site_type_symbol
 _atom_site_label
 _atom_site_symmetry_multiplicity
 _atom_site_fract_x
 _atom_site_fract_y
 _atom_site_fract_z
 _atom_site_occupancy
  Li  Li0  1  0.12444110  0.87556256  0.37555533  1
  Li  Li1  1  0.25161067  0.75161083  0.74839464  1
  Li  Li2  1  0.24838867  0.24839331  0.24839231  1
  Li  Li3  1  0.37555324  0.12444196  0.87556133  1
  Li  Li4  1  0.62443147  0.62444015  0.62443962  1
  Li  Li5  1  0.75160803  0.74838675  0.25161299  1
  Li  Li6  1  0.74838707  0.25161394  0.75161635  1
  Li  Li7  1  0.87556209  0.37555611  0.12444289  1
  Mn  Mn8  1  0.12420069  0.62301605  0.12199510  1
  Mn  Mn9  1  0.12302184  0.37800495  0.87580158  1
  Mn  Mn10  1  0.12199718  0.12419620  0.62301839  1
  Mn  Mn11  1  0.37800789  0.87580438  0.12302001  1
  Mn  Mn12  1  0.37698087  0.62199629  0.37580663  1
  Mn  Mn13  1  0.37580194  0.37698499  0.62199544  1
  Mn  Mn14  1  0.62419546  0.87698208  0.87800124  1
  Mn  Mn15  1  0.62301759  0.12199798  0.12419150  1
  Mn  Mn16  1  0.62199441  0.37580979  0.37698478  1
  Mn  Mn17  1  0.87800867  0.62419691  0.87698513  1
  Mn  Mn18  1  0.87698178  0.87800820  0.62419910  1
  Mn  Mn19  1  0.87579771  0.12302253  0.37800874  1
  Co  Co20  1  0.99703501  0.50296660  0.49703793  1
  Co  Co21  1  0.50296430  0.49703374  0.99703820  1
  Co  Co22  1  0.49703490  0.99703397  0.50297132  1
  Co  Co23  1  0.00296556  0.00296473  0.00297049  1
  O  O24  1  0.10154302  0.12785387  0.39330934  1
  O  O25  1  0.10669293  0.89845527  0.62785624  1
  O  O26  1  0.11396574  0.61394748  0.88604710  1
  O  O27  1  0.12785546  0.39330411  0.10154217  1
  O  O28  1  0.12159158  0.14733036  0.85972506  1
  O  O29  1  0.13586514  0.36413934  0.63585925  1
  O  O30  1  0.14027613  0.62159037  0.35266715  1
  O  O31  1  0.14733270  0.85972413  0.12159167  1
  O  O32  1  0.35267185  0.14028136  0.62160064  1
  O  O33  1  0.35972160  0.37840751  0.85266808  1
  O  O34  1  0.36414116  0.63586568  0.13586866  1
  O  O35  1  0.37840222  0.85267142  0.35972464  1
  O  O36  1  0.37214092  0.60669494  0.60154931  1
  O  O37  1  0.38604667  0.38605027  0.38604466  1
  O  O38  1  0.39330739  0.10154424  0.12785283  1
  O  O39  1  0.39845545  0.87215086  0.89330820  1
  O  O40  1  0.60154351  0.37215295  0.60669631  1
  O  O41  1  0.60669289  0.60155389  0.37215055  1
  O  O42  1  0.61395526  0.88604234  0.11394658  1
  O  O43  1  0.62785437  0.10669444  0.89845123  1
  O  O44  1  0.62159247  0.35267057  0.14027986  1
  O  O45  1  0.63585725  0.13586758  0.36413684  1
  O  O46  1  0.64027569  0.87840508  0.64733236  1
  O  O47  1  0.64732965  0.64027995  0.87840585  1
  O  O48  1  0.85266633  0.35972551  0.37841060  1
  O  O49  1  0.85971988  0.12159503  0.14733140  1
  O  O50  1  0.86413697  0.86414072  0.86414043  1
  O  O51  1  0.87840776  0.64733387  0.64028074  1
  O  O52  1  0.87214651  0.89330806  0.39846071  1
  O  O53  1  0.88604852  0.11396547  0.61395290  1
  O  O54  1  0.89331209  0.39845363  0.87215137  1
  O  O55  1  0.89846174  0.62785671  0.10669821  1
