# generated using pymatgen
data_Na2(NiO2)5
_symmetry_space_group_name_H-M   'P 1'
_cell_length_a   7.09681682
_cell_length_b   4.90126187
_cell_length_c   6.52849969
_cell_angle_alpha   76.15594277
_cell_angle_beta   113.14486952
_cell_angle_gamma   83.47616316
_symmetry_Int_Tables_number   1
_chemical_formula_structural   Na2(NiO2)5
_chemical_formula_sum   'Na2 Ni5 O10'
_cell_volume   197.17967450
_cell_formula_units_Z   1
loop_
 _symmetry_equiv_pos_site_id
 _symmetry_equiv_pos_as_xyz
  1  'x, y, z'
loop_
 _atom_site_type_symbol
 _atom_site_label
 _atom_site_symmetry_multiplicity
 _atom_site_fract_x
 _atom_site_fract_y
 _atom_site_fract_z
 _atom_site_occupancy
  Na  Na0  1  0.97183033  0.01859698  0.47274720  1
  Na  Na1  1  0.42816967  0.78140302  0.92725280  1
  Ni  Ni2  1  0.00275782  0.00116125  0.99947403  1
  Ni  Ni3  1  0.20000000  0.40000000  0.20000000  1
  Ni  Ni4  1  0.39724218  0.79883875  0.40052597  1
  Ni  Ni5  1  0.59626785  0.19913721  0.60129292  1
  Ni  Ni6  1  0.80373215  0.60086279  0.79870708  1
  O  O7  1  0.27396820  0.07291033  0.09979424  1
  O  O8  1  0.12603180  0.72708967  0.30020576  1
  O  O9  1  0.32868045  0.08606033  0.51774129  1
  O  O10  1  0.46269125  0.49292381  0.29276496  1
  O  O11  1  0.07131955  0.71393967  0.88225871  1
  O  O12  1  0.93730875  0.30707619  0.10723504  1
  O  O13  1  0.52382739  0.51188878  0.69885050  1
  O  O14  1  0.66225709  0.89588463  0.49122978  1
  O  O15  1  0.87617261  0.28811122  0.70114950  1
  O  O16  1  0.73774291  0.90411537  0.90877022  1
