# generated using pymatgen
data_Li4Mn3Ni(PO4)4
_symmetry_space_group_name_H-M   'P 1'
_cell_length_a   4.76822849
_cell_length_b   10.43285768
_cell_length_c   6.10144767
_cell_angle_alpha   90.00000000
_cell_angle_beta   90.00000000
_cell_angle_gamma   90.10192003
_symmetry_Int_Tables_number   1
_chemical_formula_structural   Li4Mn3Ni(PO4)4
_chemical_formula_sum   'Li4 Mn3 Ni1 P4 O16'
_cell_volume   303.52365589
_cell_formula_units_Z   1
loop_
 _symmetry_equiv_pos_site_id
 _symmetry_equiv_pos_as_xyz
  1  'x, y, z'
loop_
 _atom_site_type_symbol
 _atom_site_label
 _atom_site_symmetry_multiplicity
 _atom_site_fract_x
 _atom_site_fract_y
 _atom_site_fract_z
 _atom_site_occupancy
  Li  Li0  1  0.99967848  0.00134978  0.00003894  1
  Li  Li1  1  0.99967848  0.00134978  0.49996106  1
  Li  Li2  1  0.50094629  0.49817978  0.49954663  1
  Li  Li3  1  0.50094629  0.49817978  0.00045337  1
  Mn  Mn4  1  0.02790683  0.71749788  0.75000000  1
  Mn  Mn5  1  0.47251102  0.22094756  0.75000000  1
  Mn  Mn6  1  0.52631913  0.78001063  0.25000000  1
  Ni  Ni7  1  0.98052971  0.27803154  0.25000000  1
  P  P8  1  0.08728572  0.58810411  0.25000000  1
  P  P9  1  0.40790731  0.09686545  0.25000000  1
  P  P10  1  0.59068036  0.90845603  0.75000000  1
  P  P11  1  0.91323138  0.40647487  0.75000000  1
  O  O12  1  0.20471756  0.44903198  0.25000000  1
  O  O13  1  0.22395180  0.65828572  0.04860786  1
  O  O14  1  0.22395180  0.65828572  0.45139214  1
  O  O15  1  0.23556438  0.40518954  0.75000000  1
  O  O16  1  0.26835414  0.90442948  0.75000000  1
  O  O17  1  0.26762488  0.16589784  0.04904802  1
  O  O18  1  0.26762488  0.16589784  0.45095198  1
  O  O19  1  0.29164989  0.95748903  0.25000000  1
  O  O20  1  0.71233044  0.04663143  0.75000000  1
  O  O21  1  0.72457926  0.83885720  0.54765412  1
  O  O22  1  0.72457926  0.83885720  0.95234588  1
  O  O23  1  0.73030785  0.10290337  0.25000000  1
  O  O24  1  0.76557849  0.59530770  0.25000000  1
  O  O25  1  0.78250511  0.33679048  0.54499935  1
  O  O26  1  0.78250511  0.33679048  0.95500065  1
  O  O27  1  0.78655413  0.54390682  0.75000000  1
