# generated using pymatgen
data_TiMn3Co2(PO4)6
_symmetry_space_group_name_H-M   'P 1'
_cell_length_a   8.50356220
_cell_length_b   8.50356199
_cell_length_c   8.50356228
_cell_angle_alpha   61.23213046
_cell_angle_beta   61.23213236
_cell_angle_gamma   61.23212843
_symmetry_Int_Tables_number   1
_chemical_formula_structural   TiMn3Co2(PO4)6
_chemical_formula_sum   'Ti1 Mn3 Co2 P6 O24'
_cell_volume   446.84624377
_cell_formula_units_Z   1
loop_
 _symmetry_equiv_pos_site_id
 _symmetry_equiv_pos_as_xyz
  1  'x, y, z'
loop_
 _atom_site_type_symbol
 _atom_site_label
 _atom_site_symmetry_multiplicity
 _atom_site_fract_x
 _atom_site_fract_y
 _atom_site_fract_z
 _atom_site_occupancy
  Ti  Ti0  1  0.85639841  0.85639841  0.85639841  1
  Mn  Mn1  1  0.14388139  0.14388139  0.14388139  1
  Mn  Mn2  1  0.35721779  0.35721779  0.35721779  1
  Mn  Mn3  1  0.64329907  0.64329907  0.64329907  1
  Co  Co4  1  0.00002515  0.00002515  0.00002515  1
  Co  Co5  1  0.50109585  0.50109585  0.50109585  1
  P  P6  1  0.25071487  0.54497298  0.95547069  1
  P  P7  1  0.54497298  0.95547069  0.25071487  1
  P  P8  1  0.95547069  0.25071487  0.54497298  1
  P  P9  1  0.04539697  0.75044064  0.45304454  1
  P  P10  1  0.45304454  0.04539697  0.75044064  1
  P  P11  1  0.75044064  0.45304454  0.04539697  1
  O  O12  1  0.10963784  0.31531560  0.51274148  1
  O  O13  1  0.31531560  0.51274148  0.10963784  1
  O  O14  1  0.06115331  0.91093749  0.25510856  1
  O  O15  1  0.51274148  0.10963784  0.31531560  1
  O  O16  1  0.99210860  0.82025541  0.61607961  1
  O  O17  1  0.24349848  0.59428057  0.44746672  1
  O  O18  1  0.25510856  0.06115331  0.91093749  1
  O  O19  1  0.44746672  0.24349848  0.59428057  1
  O  O20  1  0.18622434  0.38797135  0.99015971  1
  O  O21  1  0.59428057  0.44746672  0.24349848  1
  O  O22  1  0.08896778  0.74438992  0.93621042  1
  O  O23  1  0.38797135  0.99015971  0.18622434  1
  O  O24  1  0.61607961  0.99210860  0.82025541  1
  O  O25  1  0.91093749  0.25510856  0.06115331  1
  O  O26  1  0.40848084  0.56044323  0.75469020  1
  O  O27  1  0.82025541  0.61607961  0.99210860  1
  O  O28  1  0.56044323  0.75469020  0.40848084  1
  O  O29  1  0.74438992  0.93621042  0.08896778  1
  O  O30  1  0.75469020  0.40848084  0.56044323  1
  O  O31  1  0.99015971  0.18622434  0.38797135  1
  O  O32  1  0.48680313  0.89099617  0.68412285  1
  O  O33  1  0.93621042  0.08896778  0.74438992  1
  O  O34  1  0.68412285  0.48680313  0.89099617  1
  O  O35  1  0.89099617  0.68412285  0.48680313  1
