# generated using pymatgen
data_Ni17(As3O16)2
_symmetry_space_group_name_H-M   'P 1'
_cell_length_a   9.92813793
_cell_length_b   6.02749889
_cell_length_c   10.37060656
_cell_angle_alpha   89.99999851
_cell_angle_beta   69.48742732
_cell_angle_gamma   90.00000200
_symmetry_Int_Tables_number   1
_chemical_formula_structural   Ni17(As3O16)2
_chemical_formula_sum   'Ni17 As6 O32'
_cell_volume   581.24747894
_cell_formula_units_Z   1
loop_
 _symmetry_equiv_pos_site_id
 _symmetry_equiv_pos_as_xyz
  1  'x, y, z'
loop_
 _atom_site_type_symbol
 _atom_site_label
 _atom_site_symmetry_multiplicity
 _atom_site_fract_x
 _atom_site_fract_y
 _atom_site_fract_z
 _atom_site_occupancy
  Ni  Ni0  1  0.74010216  0.50000000  0.75113799  1
  Ni  Ni1  1  0.74368883  0.24351423  0.50452175  1
  Ni  Ni2  1  0.74368883  0.75648577  0.50452175  1
  Ni  Ni3  1  0.73408058  0.00000000  0.25495368  1
  Ni  Ni4  1  0.73601334  0.25172402  0.00428620  1
  Ni  Ni5  1  0.73601334  0.74827598  0.00428620  1
  Ni  Ni6  1  0.26398666  0.74827598  0.99571380  1
  Ni  Ni7  1  0.26398666  0.25172402  0.99571380  1
  Ni  Ni8  1  0.26591942  1.00000000  0.74504632  1
  Ni  Ni9  1  0.25631117  0.75648577  0.49547825  1
  Ni  Ni10  1  0.25631117  0.24351423  0.49547825  1
  Ni  Ni11  1  0.25989784  0.50000000  0.24886201  1
  Ni  Ni12  1  0.99929341  0.75781328  0.74175843  1
  Ni  Ni13  1  0.99929341  0.24218672  0.74175843  1
  Ni  Ni14  1  0.00070659  0.24218672  0.25824157  1
  Ni  Ni15  1  0.00070659  0.75781328  0.25824157  1
  Ni  Ni16  1  0.00000000  0.50000000  0.00000000  1
  As  As17  1  0.57851139  0.00000000  0.80764822  1
  As  As18  1  0.57579433  0.50000000  0.31014320  1
  As  As19  1  0.42420567  0.50000000  0.68985680  1
  As  As20  1  0.42148861  1.00000000  0.19235178  1
  As  As21  1  0.00000000  0.50000000  0.50000000  1
  As  As22  1  0.00000000  0.00000000  0.00000000  1
  O  O23  1  0.88397173  0.00000000  0.89079970  1
  O  O24  1  0.87113157  0.50000000  0.87819285  1
  O  O25  1  0.88116453  0.28712396  0.61532871  1
  O  O26  1  0.88116453  0.71287604  0.61532871  1
  O  O27  1  0.88498248  0.50000000  0.38938311  1
  O  O28  1  0.86093876  0.00000000  0.36746767  1
  O  O29  1  0.62872420  0.23725327  0.86958414  1
  O  O30  1  0.62872420  0.76274673  0.86958414  1
  O  O31  1  0.88529651  0.77877690  0.11132928  1
  O  O32  1  0.88529651  0.22122310  0.11132928  1
  O  O33  1  0.62817412  1.00000000  0.63235222  1
  O  O34  1  0.61345381  0.50000000  0.62744815  1
  O  O35  1  0.62944596  0.73561514  0.37013490  1
  O  O36  1  0.62944596  0.26438486  0.37013490  1
  O  O37  1  0.38800015  0.00000000  0.87182479  1
  O  O38  1  0.37040403  0.50000000  0.86695057  1
  O  O39  1  0.62959597  0.50000000  0.13304943  1
  O  O40  1  0.61199985  0.00000000  0.12817521  1
  O  O41  1  0.37055404  0.26438486  0.62986510  1
  O  O42  1  0.37055404  0.73561514  0.62986510  1
  O  O43  1  0.38654619  0.50000000  0.37255185  1
  O  O44  1  0.37182588  0.00000000  0.36764778  1
  O  O45  1  0.11470349  0.77877690  0.88867072  1
  O  O46  1  0.11470349  0.22122310  0.88867072  1
  O  O47  1  0.37127580  0.76274673  0.13041586  1
  O  O48  1  0.37127580  0.23725327  0.13041586  1
  O  O49  1  0.13906124  1.00000000  0.63253233  1
  O  O50  1  0.11501752  0.50000000  0.61061689  1
  O  O51  1  0.11883547  0.28712396  0.38467129  1
  O  O52  1  0.11883547  0.71287604  0.38467129  1
  O  O53  1  0.12886843  0.50000000  0.12180715  1
  O  O54  1  0.11602827  0.00000000  0.10920030  1
