# generated using pymatgen
data_Li2Cr3(SiO3)4
_symmetry_space_group_name_H-M   'P 1'
_cell_length_a   7.59835075
_cell_length_b   10.22490349
_cell_length_c   13.86990132
_cell_angle_alpha   90.00000000
_cell_angle_beta   90.00000000
_cell_angle_gamma   90.00000000
_symmetry_Int_Tables_number   1
_chemical_formula_structural   Li2Cr3(SiO3)4
_chemical_formula_sum   'Li8 Cr12 Si16 O48'
_cell_volume   1077.58596434
_cell_formula_units_Z   4
loop_
 _symmetry_equiv_pos_site_id
 _symmetry_equiv_pos_as_xyz
  1  'x, y, z'
loop_
 _atom_site_type_symbol
 _atom_site_label
 _atom_site_symmetry_multiplicity
 _atom_site_fract_x
 _atom_site_fract_y
 _atom_site_fract_z
 _atom_site_occupancy
  Li  Li0  1  0.04259724  0.75000000  0.14650812  1
  Li  Li1  1  0.22458919  0.75000000  0.49139674  1
  Li  Li2  1  0.27541081  0.25000000  0.99139674  1
  Li  Li3  1  0.45740276  0.25000000  0.64650812  1
  Li  Li4  1  0.54259724  0.75000000  0.35349188  1
  Li  Li5  1  0.72458919  0.75000000  0.00860326  1
  Li  Li6  1  0.77541081  0.25000000  0.50860326  1
  Li  Li7  1  0.95740276  0.25000000  0.85349188  1
  Cr  Cr8  1  0.00000000  0.00000000  0.00000000  1
  Cr  Cr9  1  0.00000000  0.50000000  0.00000000  1
  Cr  Cr10  1  0.23107182  0.75000000  0.71066371  1
  Cr  Cr11  1  0.23304944  0.25000000  0.43072107  1
  Cr  Cr12  1  0.26695056  0.75000000  0.93072107  1
  Cr  Cr13  1  0.26892818  0.25000000  0.21066371  1
  Cr  Cr14  1  0.50000000  0.00000000  0.50000000  1
  Cr  Cr15  1  0.50000000  0.50000000  0.50000000  1
  Cr  Cr16  1  0.73107182  0.75000000  0.78933629  1
  Cr  Cr17  1  0.76695056  0.75000000  0.56927893  1
  Cr  Cr18  1  0.73304944  0.25000000  0.06927893  1
  Cr  Cr19  1  0.76892818  0.25000000  0.28933629  1
  Si  Si20  1  0.17572725  0.03966613  0.61893586  1
  Si  Si21  1  0.17572725  0.46033387  0.61893586  1
  Si  Si22  1  0.22110644  0.54120812  0.33025785  1
  Si  Si23  1  0.22110644  0.95879188  0.33025785  1
  Si  Si24  1  0.27889356  0.45879188  0.83025785  1
  Si  Si25  1  0.27889356  0.04120812  0.83025785  1
  Si  Si26  1  0.32427275  0.53966613  0.11893586  1
  Si  Si27  1  0.32427275  0.96033387  0.11893586  1
  Si  Si28  1  0.67572725  0.03966613  0.88106414  1
  Si  Si29  1  0.67572725  0.46033387  0.88106414  1
  Si  Si30  1  0.72110644  0.54120812  0.16974215  1
  Si  Si31  1  0.72110644  0.95879188  0.16974215  1
  Si  Si32  1  0.77889356  0.04120812  0.66974215  1
  Si  Si33  1  0.77889356  0.45879188  0.66974215  1
  Si  Si34  1  0.82427275  0.53966613  0.38106414  1
  Si  Si35  1  0.82427275  0.96033387  0.38106414  1
  O  O36  1  0.03119692  0.58719566  0.37789290  1
  O  O37  1  0.03119692  0.91280434  0.37789290  1
  O  O38  1  0.12824829  0.10734067  0.89705348  1
  O  O39  1  0.12824829  0.39265933  0.89705348  1
  O  O40  1  0.20085436  0.88340658  0.60610068  1
  O  O41  1  0.20085436  0.61659342  0.60610068  1
  O  O42  1  0.22122742  0.61150422  0.03025559  1
  O  O43  1  0.22122742  0.88849578  0.03025559  1
  O  O44  1  0.23333834  0.11834880  0.32086194  1
  O  O45  1  0.23333834  0.38165120  0.32086194  1
  O  O46  1  0.22824514  0.59882244  0.21824136  1
  O  O47  1  0.22824514  0.90117756  0.21824136  1
  O  O48  1  0.27175486  0.40117756  0.71824136  1
  O  O49  1  0.27175486  0.09882244  0.71824136  1
  O  O50  1  0.26666166  0.61834880  0.82086194  1
  O  O51  1  0.26666166  0.88165120  0.82086194  1
  O  O52  1  0.27877258  0.11150422  0.53025559  1
  O  O53  1  0.27877258  0.38849578  0.53025559  1
  O  O54  1  0.29914564  0.38340658  0.10610068  1
  O  O55  1  0.29914564  0.11659342  0.10610068  1
  O  O56  1  0.37175171  0.60734067  0.39705348  1
  O  O57  1  0.37175171  0.89265933  0.39705348  1
  O  O58  1  0.46880308  0.08719566  0.87789290  1
  O  O59  1  0.46880308  0.41280434  0.87789290  1
  O  O60  1  0.53119692  0.91280434  0.12210710  1
  O  O61  1  0.53119692  0.58719566  0.12210710  1
  O  O62  1  0.62824829  0.10734067  0.60294652  1
  O  O63  1  0.62824829  0.39265933  0.60294652  1
  O  O64  1  0.70085436  0.61659342  0.89389932  1
  O  O65  1  0.70085436  0.88340658  0.89389932  1
  O  O66  1  0.72122742  0.61150422  0.46974441  1
  O  O67  1  0.72122742  0.88849578  0.46974441  1
  O  O68  1  0.73333834  0.11834880  0.17913806  1
  O  O69  1  0.73333834  0.38165120  0.17913806  1
  O  O70  1  0.72824514  0.59882244  0.28175864  1
  O  O71  1  0.72824514  0.90117756  0.28175864  1
  O  O72  1  0.77175486  0.09882244  0.78175864  1
  O  O73  1  0.77175486  0.40117756  0.78175864  1
  O  O74  1  0.76666166  0.61834880  0.67913806  1
  O  O75  1  0.76666166  0.88165120  0.67913806  1
  O  O76  1  0.77877258  0.11150422  0.96974441  1
  O  O77  1  0.77877258  0.38849578  0.96974441  1
  O  O78  1  0.79914564  0.11659342  0.39389932  1
  O  O79  1  0.79914564  0.38340658  0.39389932  1
  O  O80  1  0.87175171  0.60734067  0.10294652  1
  O  O81  1  0.87175171  0.89265933  0.10294652  1
  O  O82  1  0.96880308  0.08719566  0.62210710  1
  O  O83  1  0.96880308  0.41280434  0.62210710  1
