# generated using pymatgen
data_Li4MnNi3(PO4)4
_symmetry_space_group_name_H-M   'P 1'
_cell_length_a   4.73502645
_cell_length_b   10.19185803
_cell_length_c   5.97256737
_cell_angle_alpha   90.00000000
_cell_angle_beta   90.00000000
_cell_angle_gamma   89.91360406
_symmetry_Int_Tables_number   1
_chemical_formula_structural   Li4MnNi3(PO4)4
_chemical_formula_sum   'Li4 Mn1 Ni3 P4 O16'
_cell_volume   288.22811299
_cell_formula_units_Z   1
loop_
 _symmetry_equiv_pos_site_id
 _symmetry_equiv_pos_as_xyz
  1  'x, y, z'
loop_
 _atom_site_type_symbol
 _atom_site_label
 _atom_site_symmetry_multiplicity
 _atom_site_fract_x
 _atom_site_fract_y
 _atom_site_fract_z
 _atom_site_occupancy
  Li  Li0  1  0.00043621  0.99833989  0.99996328  1
  Li  Li1  1  0.00043621  0.99833989  0.50003672  1
  Li  Li2  1  0.49889941  0.50220130  0.50048568  1
  Li  Li3  1  0.49889941  0.50220130  0.99951432  1
  Mn  Mn4  1  0.97521343  0.27891786  0.25000000  1
  Ni  Ni5  1  0.01954687  0.72582105  0.75000000  1
  Ni  Ni6  1  0.48109228  0.22184720  0.75000000  1
  Ni  Ni7  1  0.52080840  0.77664161  0.25000000  1
  P  P8  1  0.08760827  0.59845931  0.25000000  1
  P  P9  1  0.41754300  0.08936863  0.25000000  1
  P  P10  1  0.58421241  0.90519238  0.75000000  1
  P  P11  1  0.91131824  0.40699410  0.75000000  1
  O  O12  1  0.20865363  0.45717482  0.25000000  1
  O  O13  1  0.22598399  0.66840700  0.04281082  1
  O  O14  1  0.22598399  0.66840700  0.45718918  1
  O  O15  1  0.23474281  0.39823898  0.75000000  1
  O  O16  1  0.26058516  0.89940671  0.75000000  1
  O  O17  1  0.28150854  0.16082669  0.04325444  1
  O  O18  1  0.28150854  0.16082669  0.45674556  1
  O  O19  1  0.29475956  0.94801019  0.25000000  1
  O  O20  1  0.70157641  0.04741937  0.75000000  1
  O  O21  1  0.72540084  0.83447803  0.54404618  1
  O  O22  1  0.72540084  0.83447803  0.95595382  1
  O  O23  1  0.74041642  0.09296669  0.25000000  1
  O  O24  1  0.76351478  0.60127288  0.25000000  1
  O  O25  1  0.76695289  0.33673847  0.54647084  1
  O  O26  1  0.76695289  0.33673847  0.95352916  1
  O  O27  1  0.80004254  0.55028744  0.75000000  1
