# generated using pymatgen
data_LiFeP2O7
_symmetry_space_group_name_H-M   'P 1'
_cell_length_a   8.70689070
_cell_length_b   4.81360857
_cell_length_c   8.03543214
_cell_angle_alpha   72.95736616
_cell_angle_beta   72.45659021
_cell_angle_gamma   90.30490968
_symmetry_Int_Tables_number   1
_chemical_formula_structural   LiFeP2O7
_chemical_formula_sum   'Li2 Fe2 P4 O14'
_cell_volume   305.38770430
_cell_formula_units_Z   2
loop_
 _symmetry_equiv_pos_site_id
 _symmetry_equiv_pos_as_xyz
  1  'x, y, z'
loop_
 _atom_site_type_symbol
 _atom_site_label
 _atom_site_symmetry_multiplicity
 _atom_site_fract_x
 _atom_site_fract_y
 _atom_site_fract_z
 _atom_site_occupancy
  Li  Li0  1  0.55198275  0.87026758  0.09458313  1
  Li  Li1  1  0.05035149  0.53842962  0.09242780  1
  Fe  Fe2  1  0.94826314  0.37690631  0.51234701  1
  Fe  Fe3  1  0.44659254  0.60973659  0.51472326  1
  P  P4  1  0.70292290  0.77145425  0.70554754  1
  P  P5  1  0.30934494  0.22935905  0.30034402  1
  P  P6  1  0.81145187  0.96517540  0.30306570  1
  P  P7  1  0.20556795  0.02742570  0.70176077  1
  O  O8  1  0.82852812  0.55020731  0.69174534  1
  O  O9  1  0.05584334  0.18094883  0.68059891  1
  O  O10  1  0.92227070  0.71377401  0.31407422  1
  O  O11  1  0.88050398  0.24005080  0.15209823  1
  O  O12  1  0.64074824  0.84805872  0.31687463  1
  O  O13  1  0.54582288  0.66148746  0.68673758  1
  O  O14  1  0.78700125  0.04844125  0.50236650  1
  O  O15  1  0.34026377  0.24504748  0.69158896  1
  O  O16  1  0.41742317  0.47214979  0.31530714  1
  O  O17  1  0.17449694  0.74312911  0.84851189  1
  O  O18  1  0.38130237  0.10649551  0.14867328  1
  O  O19  1  0.28382297  0.94831115  0.49898446  1
  O  O20  1  0.13849203  0.32765573  0.31234966  1
  O  O21  1  0.68367966  0.90622935  0.85380695  1
