# generated using pymatgen
data_V2OF5
_symmetry_space_group_name_H-M   'P 1'
_cell_length_a   5.23600588
_cell_length_b   7.60917794
_cell_length_c   5.41455298
_cell_angle_alpha   92.73439268
_cell_angle_beta   90.00000000
_cell_angle_gamma   90.00000000
_symmetry_Int_Tables_number   1
_chemical_formula_structural   V2OF5
_chemical_formula_sum   'V4 O2 F10'
_cell_volume   215.47937731
_cell_formula_units_Z   2
loop_
 _symmetry_equiv_pos_site_id
 _symmetry_equiv_pos_as_xyz
  1  'x, y, z'
loop_
 _atom_site_type_symbol
 _atom_site_label
 _atom_site_symmetry_multiplicity
 _atom_site_fract_x
 _atom_site_fract_y
 _atom_site_fract_z
 _atom_site_occupancy
  V  V0  1  0.48452965  0.49579710  0.47665027  1
  V  V1  1  0.51547035  0.99579710  0.47665027  1
  V  V2  1  0.00256287  0.49857419  0.00169253  1
  V  V3  1  0.99743713  0.99857419  0.00169253  1
  O  O4  1  0.69863241  0.96228069  0.22186648  1
  O  O5  1  0.30136759  0.46228069  0.22186648  1
  F  F6  1  0.90194831  0.24953738  0.99944628  1
  F  F7  1  0.79933543  0.55278153  0.30144121  1
  F  F8  1  0.79454129  0.94806186  0.70498059  1
  F  F9  1  0.69933357  0.54212713  0.78532799  1
  F  F10  1  0.59713100  0.25084011  0.50859465  1
  F  F11  1  0.40286900  0.75084011  0.50859465  1
  F  F12  1  0.30066643  0.04212713  0.78532799  1
  F  F13  1  0.20066457  0.05278153  0.30144121  1
  F  F14  1  0.20545871  0.44806186  0.70498059  1
  F  F15  1  0.09805169  0.74953738  0.99944628  1
