# generated using pymatgen
data_VF5
_symmetry_space_group_name_H-M   'P 1'
_cell_length_a   5.58127220
_cell_length_b   9.96408134
_cell_length_c   7.34184171
_cell_angle_alpha   90.00000000
_cell_angle_beta   90.02736713
_cell_angle_gamma   90.00000000
_symmetry_Int_Tables_number   1
_chemical_formula_structural   VF5
_chemical_formula_sum   'V4 F20'
_cell_volume   408.29629145
_cell_formula_units_Z   4
loop_
 _symmetry_equiv_pos_site_id
 _symmetry_equiv_pos_as_xyz
  1  'x, y, z'
loop_
 _atom_site_type_symbol
 _atom_site_label
 _atom_site_symmetry_multiplicity
 _atom_site_fract_x
 _atom_site_fract_y
 _atom_site_fract_z
 _atom_site_occupancy
  V  V0  1  0.01632405  0.60993621  0.57706566  1
  V  V1  1  0.48422928  0.21967355  0.11376508  1
  V  V2  1  0.51577072  0.71967355  0.88623492  1
  V  V3  1  0.98367595  0.10993621  0.42293434  1
  F  F4  1  0.01243892  0.73664808  0.40921602  1
  F  F5  1  0.02617359  0.53042353  0.79251630  1
  F  F6  1  0.22171231  0.23146375  0.29932329  1
  F  F7  1  0.23478069  0.51056953  0.47498527  1
  F  F8  1  0.22516940  0.01901629  0.50871843  1
  F  F9  1  0.27034082  0.21152745  0.94116616  1
  F  F10  1  0.27425499  0.71058875  0.03619635  1
  F  F11  1  0.27305684  0.72697162  0.68281200  1
  F  F12  1  0.47505999  0.04771254  0.17269261  1
  F  F13  1  0.48288923  0.39506070  0.14382892  1
  F  F14  1  0.51711077  0.89506070  0.85617108  1
  F  F15  1  0.52494001  0.54771254  0.82730739  1
  F  F16  1  0.72694316  0.22697162  0.31718800  1
  F  F17  1  0.72574501  0.21058875  0.96380365  1
  F  F18  1  0.72965918  0.71152745  0.05883384  1
  F  F19  1  0.77483060  0.51901629  0.49128157  1
  F  F20  1  0.76521931  0.01056953  0.52501473  1
  F  F21  1  0.77828769  0.73146375  0.70067671  1
  F  F22  1  0.97382641  0.03042353  0.20748370  1
  F  F23  1  0.98756108  0.23664808  0.59078398  1
