# generated using pymatgen
data_SnP2O7
_symmetry_space_group_name_H-M   'P 1'
_cell_length_a   8.42124297
_cell_length_b   5.24463722
_cell_length_c   13.56076438
_cell_angle_alpha   90.00000000
_cell_angle_beta   73.22974226
_cell_angle_gamma   90.00000000
_symmetry_Int_Tables_number   1
_chemical_formula_structural   SnP2O7
_chemical_formula_sum   'Sn4 P8 O28'
_cell_volume   573.45682513
_cell_formula_units_Z   4
loop_
 _symmetry_equiv_pos_site_id
 _symmetry_equiv_pos_as_xyz
  1  'x, y, z'
loop_
 _atom_site_type_symbol
 _atom_site_label
 _atom_site_symmetry_multiplicity
 _atom_site_fract_x
 _atom_site_fract_y
 _atom_site_fract_z
 _atom_site_occupancy
  Sn  Sn0  1  0.09318272  0.24698145  0.64270515  1
  Sn  Sn1  1  0.59318272  0.25301855  0.14270515  1
  Sn  Sn2  1  0.40681728  0.74698145  0.85729485  1
  Sn  Sn3  1  0.90681728  0.75301855  0.35729485  1
  P  P4  1  0.97518370  0.23465001  0.20120411  1
  P  P5  1  0.28103841  0.23526278  0.02277850  1
  P  P6  1  0.21896159  0.73526278  0.47722150  1
  P  P7  1  0.52481630  0.73465001  0.29879589  1
  P  P8  1  0.47518370  0.26534999  0.70120411  1
  P  P9  1  0.78103841  0.26473722  0.52277850  1
  P  P10  1  0.71896159  0.76473722  0.97722150  1
  P  P11  1  0.02481630  0.76534999  0.79879589  1
  O  O12  1  0.02637315  0.97268620  0.23210169  1
  O  O13  1  0.09098783  0.28449141  0.08616023  1
  O  O14  1  0.01221656  0.44717502  0.26877972  1
  O  O15  1  0.11619169  0.79493997  0.40435354  1
  O  O16  1  0.29238562  0.95553544  0.98761452  1
  O  O17  1  0.20761438  0.45553544  0.51238548  1
  O  O18  1  0.38380831  0.29493997  0.09564646  1
  O  O19  1  0.19047270  0.91518071  0.56876113  1
  O  O20  1  0.20113833  0.76226907  0.80575508  1
  O  O21  1  0.48778344  0.94717502  0.23122028  1
  O  O22  1  0.40901217  0.78449141  0.41383977  1
  O  O23  1  0.47362685  0.47268620  0.26789831  1
  O  O24  1  0.29886167  0.26226907  0.69424492  1
  O  O25  1  0.30952730  0.41518071  0.93123887  1
  O  O26  1  0.69047270  0.58481929  0.06876113  1
  O  O27  1  0.70113833  0.73773093  0.30575508  1
  O  O28  1  0.52637315  0.52731380  0.73210169  1
  O  O29  1  0.59098783  0.21550859  0.58616023  1
  O  O30  1  0.51221656  0.05282498  0.76877972  1
  O  O31  1  0.79886167  0.23773093  0.19424492  1
  O  O32  1  0.80952730  0.08481929  0.43123887  1
  O  O33  1  0.61619169  0.70506003  0.90435354  1
  O  O34  1  0.79238562  0.54446456  0.48761452  1
  O  O35  1  0.70761438  0.04446456  0.01238548  1
  O  O36  1  0.88380831  0.20506003  0.59564646  1
  O  O37  1  0.98778344  0.55282498  0.73122028  1
  O  O38  1  0.90901217  0.71550859  0.91383977  1
  O  O39  1  0.97362685  0.02731380  0.76789831  1
