# generated using pymatgen
data_Li4FeNi3O8
_symmetry_space_group_name_H-M   'P 1'
_cell_length_a   5.78690282
_cell_length_b   5.83360953
_cell_length_c   5.89912885
_cell_angle_alpha   120.34358868
_cell_angle_beta   119.69115053
_cell_angle_gamma   61.03084521
_symmetry_Int_Tables_number   1
_chemical_formula_structural   Li4FeNi3O8
_chemical_formula_sum   'Li4 Fe1 Ni3 O8'
_cell_volume   141.83479632
_cell_formula_units_Z   1
loop_
 _symmetry_equiv_pos_site_id
 _symmetry_equiv_pos_as_xyz
  1  'x, y, z'
loop_
 _atom_site_type_symbol
 _atom_site_label
 _atom_site_symmetry_multiplicity
 _atom_site_fract_x
 _atom_site_fract_y
 _atom_site_fract_z
 _atom_site_occupancy
  Li  Li0  1  0.49999602  0.50000933  0.50000333  1
  Li  Li1  1  0.99999890  0.50000161  0.50000743  1
  Li  Li2  1  0.49998522  0.99999512  0.49998754  1
  Li  Li3  1  0.00000125  0.00000620  0.49999930  1
  Fe  Fe4  1  0.49998130  0.00000828  0.00001069  1
  Ni  Ni5  1  0.50000755  0.49995739  -0.00001035  1
  Ni  Ni6  1  0.00001213  0.49999211  0.00000752  1
  Ni  Ni7  1  0.99998348  0.00002120  0.99998889  1
  O  O8  1  0.72019974  0.74835941  0.23235504  1
  O  O9  1  0.25333671  0.71938282  0.22297866  1
  O  O10  1  0.77432212  0.74424190  0.78170916  1
  O  O11  1  0.76890267  0.22342004  0.23222217  1
  O  O12  1  0.23109213  0.77655641  0.76775547  1
  O  O13  1  0.22566543  0.25576755  0.21828422  1
  O  O14  1  0.74668068  0.28063872  0.77702750  1
  O  O15  1  0.27983168  0.25162691  0.76766845  1
