# generated using pymatgen
data_Mg3Fe2O5
_symmetry_space_group_name_H-M   'P 1'
_cell_length_a   5.30297685
_cell_length_b   4.22754865
_cell_length_c   5.31738172
_cell_angle_alpha   66.31657451
_cell_angle_beta   80.76383558
_cell_angle_gamma   66.93087370
_symmetry_Int_Tables_number   1
_chemical_formula_structural   Mg3Fe2O5
_chemical_formula_sum   'Mg3 Fe2 O5'
_cell_volume   100.43778497
_cell_formula_units_Z   1
loop_
 _symmetry_equiv_pos_site_id
 _symmetry_equiv_pos_as_xyz
  1  'x, y, z'
loop_
 _atom_site_type_symbol
 _atom_site_label
 _atom_site_symmetry_multiplicity
 _atom_site_fract_x
 _atom_site_fract_y
 _atom_site_fract_z
 _atom_site_occupancy
  Mg  Mg0  1  0.99364359  0.00600223  0.99265571  1
  Mg  Mg1  1  0.79954855  0.79906653  0.60013684  1
  Mg  Mg2  1  0.60529216  0.59170413  0.20769808  1
  Fe  Fe3  1  0.20115387  0.20101025  0.39385255  1
  Fe  Fe4  1  0.39787830  0.39705760  0.80609225  1
  O  O5  1  0.19778806  0.70571687  0.38787178  1
  O  O6  1  0.98388623  0.51246091  0.99038985  1
  O  O7  1  0.40119825  0.89234174  0.81232229  1
  O  O8  1  0.79964439  0.29910111  0.60003528  1
  O  O9  1  0.61490660  0.08522363  0.20993337  1
