# generated using pymatgen
data_Li4MnV3(P2O7)4
_symmetry_space_group_name_H-M   'P 1'
_cell_length_a   4.97970041
_cell_length_b   8.40865223
_cell_length_c   26.78349146
_cell_angle_alpha   90.00000000
_cell_angle_beta   88.63337584
_cell_angle_gamma   90.00000000
_symmetry_Int_Tables_number   1
_chemical_formula_structural   Li4MnV3(P2O7)4
_chemical_formula_sum   'Li8 Mn2 V6 P16 O56'
_cell_volume   1121.17458717
_cell_formula_units_Z   2
loop_
 _symmetry_equiv_pos_site_id
 _symmetry_equiv_pos_as_xyz
  1  'x, y, z'
loop_
 _atom_site_type_symbol
 _atom_site_label
 _atom_site_symmetry_multiplicity
 _atom_site_fract_x
 _atom_site_fract_y
 _atom_site_fract_z
 _atom_site_occupancy
  Li  Li0  1  0.15968145  0.36261835  0.32999138  1
  Li  Li1  1  0.15818836  0.35767399  0.83194536  1
  Li  Li2  1  0.34040813  0.86045835  0.41838344  1
  Li  Li3  1  0.33782722  0.86231463  0.91707272  1
  Li  Li4  1  0.66217278  0.36231463  0.08292728  1
  Li  Li5  1  0.65959187  0.36045835  0.58161656  1
  Li  Li6  1  0.84181164  0.85767399  0.16805464  1
  Li  Li7  1  0.84031855  0.86261835  0.67000862  1
  Mn  Mn8  1  0.14922551  0.00003496  0.81628763  1
  Mn  Mn9  1  0.85077449  0.50003496  0.18371237  1
  V  V10  1  0.14903148  -0.00005560  0.31816304  1
  V  V11  1  0.35142365  0.49954740  0.43204032  1
  V  V12  1  0.34966438  0.49708704  0.93195300  1
  V  V13  1  0.65033562  0.99708704  0.06804700  1
  V  V14  1  0.64857635  -0.00045260  0.56795968  1
  V  V15  1  0.85096852  0.49994440  0.68183696  1
  P  P16  1  0.13876091  0.17949120  0.12937347  1
  P  P17  1  0.17245539  0.78368276  0.02174703  1
  P  P18  1  0.13878135  0.18128155  0.63067556  1
  P  P19  1  0.17100542  0.78498744  0.52189618  1
  P  P20  1  0.33158832  0.28100523  0.22867673  1
  P  P21  1  0.35978717  0.67949113  0.11932417  1
  P  P22  1  0.33166575  0.28952361  0.72793766  1
  P  P23  1  0.36110487  0.68074423  0.61957168  1
  P  P24  1  0.63889513  0.18074423  0.38042832  1
  P  P25  1  0.66833425  0.78952361  0.27206234  1
  P  P26  1  0.64021283  0.17949113  0.88067583  1
  P  P27  1  0.66841168  0.78100523  0.77132327  1
  P  P28  1  0.82899458  0.28498744  0.47810382  1
  P  P29  1  0.86121865  0.68128155  0.36932444  1
  P  P30  1  0.82754461  0.28368176  0.97825297  1
  P  P31  1  0.86123909  0.67949120  0.87062653  1
  O  O32  1  0.00294112  0.84329046  0.37306033  1
  O  O33  1  0.05456287  0.54198345  0.37900537  1
  O  O34  1  0.10364563  0.68284515  0.15115431  1
  O  O35  1  0.99757464  0.83951511  0.87669875  1
  O  O36  1  0.05198172  0.53719171  0.88001852  1
  O  O37  1  0.15293610  0.42705090  0.23122540  1
  O  O38  1  0.09716957  0.67649884  0.65083933  1
  O  O39  1  0.11775550  0.32655710  0.46252144  1
  O  O40  1  0.21697497  0.15543072  0.18738107  1
  O  O41  1  0.14385273  0.43544442  0.72710607  1
  O  O42  1  0.19192718  0.69798955  0.47174971  1
  O  O43  1  0.11833409  0.33026539  0.96354462  1
  O  O44  1  0.27480173  0.65390549  0.06165783  1
  O  O45  1  0.22203344  0.15573444  0.68838789  1
  O  O46  1  0.19331079  0.69517710  0.97171478  1
  O  O47  1  0.30664294  0.18887674  0.27817620  1
  O  O48  1  0.35887559  0.93049434  0.02146650  1
  O  O49  1  0.28013654  0.65398710  0.56182132  1
  O  O50  1  0.38082097  0.83044560  0.28934199  1
  O  O51  1  0.31772239  0.20832539  0.77832752  1
  O  O52  1  0.40774434  0.16926086  0.09875311  1
  O  O53  1  0.35805015  0.93123797  0.52165207  1
  O  O54  1  0.38062619  0.81738439  0.78531542  1
  O  O55  1  0.40116039  0.17696790  0.59885078  1
  O  O56  1  0.44586878  0.04124351  0.37091627  1
  O  O57  1  0.50927464  0.84175246  0.12141248  1
  O  O58  1  0.49719796  0.34260920  0.37659692  1
  O  O59  1  0.45380217  0.03981143  0.87157984  1
  O  O60  1  0.54619783  0.53981143  0.12842016  1
  O  O61  1  0.50280204  0.84260920  0.62340308  1
  O  O62  1  0.49072536  0.34175246  0.87858752  1
  O  O63  1  0.55413122  0.54124351  0.62908373  1
  O  O64  1  0.59883961  0.67696790  0.40114922  1
  O  O65  1  0.61937381  0.31738439  0.21468458  1
  O  O66  1  0.64194985  0.43123797  0.47834793  1
  O  O67  1  0.59225566  0.66926086  0.90124689  1
  O  O68  1  0.68227761  0.70832539  0.22167248  1
  O  O69  1  0.61917903  0.33044560  0.71065801  1
  O  O70  1  0.71986346  0.15398710  0.43817868  1
  O  O71  1  0.64112441  0.43049434  0.97853350  1
  O  O72  1  0.69335706  0.68887674  0.72182380  1
  O  O73  1  0.80668921  0.19517710  0.02828522  1
  O  O74  1  0.77796656  0.65573444  0.31161211  1
  O  O75  1  0.72519827  0.15390549  0.93834217  1
  O  O76  1  0.88166591  0.83026539  0.03645538  1
  O  O77  1  0.80807282  0.19798955  0.52825029  1
  O  O78  1  0.85614727  0.93544442  0.27289393  1
  O  O79  1  0.78302503  0.65543072  0.81261893  1
  O  O80  1  0.88224450  0.82655710  0.53747856  1
  O  O81  1  0.90283043  0.17649884  0.34916167  1
  O  O82  1  0.84706390  0.92705090  0.76877460  1
  O  O83  1  0.94801828  0.03719171  0.11998148  1
  O  O84  1  0.00242536  0.33951511  0.12330125  1
  O  O85  1  0.89635437  0.18284515  0.84884569  1
  O  O86  1  0.94543713  0.04198345  0.62099463  1
  O  O87  1  0.99705888  0.34329046  0.62693967  1
