# generated using pymatgen
data_Sn(PO3)2
_symmetry_space_group_name_H-M   'P 1'
_cell_length_a   7.33599231
_cell_length_b   8.02940878
_cell_length_c   17.52944515
_cell_angle_alpha   90.00000000
_cell_angle_beta   91.25391244
_cell_angle_gamma   90.00000000
_symmetry_Int_Tables_number   1
_chemical_formula_structural   Sn(PO3)2
_chemical_formula_sum   'Sn8 P16 O48'
_cell_volume   1032.30158676
_cell_formula_units_Z   8
loop_
 _symmetry_equiv_pos_site_id
 _symmetry_equiv_pos_as_xyz
  1  'x, y, z'
loop_
 _atom_site_type_symbol
 _atom_site_label
 _atom_site_symmetry_multiplicity
 _atom_site_fract_x
 _atom_site_fract_y
 _atom_site_fract_z
 _atom_site_occupancy
  Sn  Sn0  1  0.02924851  0.12734160  0.89782690  1
  Sn  Sn1  1  0.02924851  0.37265840  0.39782690  1
  Sn  Sn2  1  0.47998776  0.64073680  0.67460441  1
  Sn  Sn3  1  0.47998776  0.85926320  0.17460441  1
  Sn  Sn4  1  0.52001224  0.14073680  0.82539559  1
  Sn  Sn5  1  0.52001224  0.35926320  0.32539559  1
  Sn  Sn6  1  0.97075149  0.62734160  0.60217310  1
  Sn  Sn7  1  0.97075149  0.87265840  0.10217310  1
  P  P8  1  0.12856981  0.01351967  0.69352628  1
  P  P9  1  0.12856981  0.48648033  0.19352628  1
  P  P10  1  0.24442088  0.28888532  0.58972977  1
  P  P11  1  0.24442088  0.21111468  0.08972977  1
  P  P12  1  0.26837340  0.51443578  0.85634204  1
  P  P13  1  0.26837340  0.98556422  0.35634204  1
  P  P14  1  0.36365535  0.80309526  0.95947238  1
  P  P15  1  0.36365535  0.69690474  0.45947238  1
  P  P16  1  0.63634465  0.30309526  0.54052762  1
  P  P17  1  0.63634465  0.19690474  0.04052762  1
  P  P18  1  0.73162760  0.01443578  0.64365796  1
  P  P19  1  0.73162760  0.48556422  0.14365796  1
  P  P20  1  0.75557912  0.78888532  0.91027023  1
  P  P21  1  0.75557912  0.71111468  0.41027023  1
  P  P22  1  0.87143019  0.51351967  0.80647372  1
  P  P23  1  0.87143019  0.98648033  0.30647372  1
  O  O24  1  0.08496086  0.56460061  0.81038829  1
  O  O25  1  0.09132615  0.33610578  0.53498593  1
  O  O26  1  0.08496086  0.93539939  0.31038829  1
  O  O27  1  0.09132615  0.16389422  0.03498593  1
  O  O28  1  0.15314771  0.82951509  0.68159648  1
  O  O29  1  0.15314771  0.67048491  0.18159648  1
  O  O30  1  0.20161860  0.09248180  0.76574812  1
  O  O31  1  0.20699715  0.10260281  0.61862861  1
  O  O32  1  0.20161860  0.40751820  0.26574812  1
  O  O33  1  0.20699715  0.39739719  0.11862861  1
  O  O34  1  0.25439160  0.33871743  0.88679943  1
  O  O35  1  0.26476749  0.63525217  0.92969061  1
  O  O36  1  0.25439160  0.16128257  0.38679943  1
  O  O37  1  0.26476749  0.86474783  0.42969061  1
  O  O38  1  0.28016270  0.40643314  0.65593558  1
  O  O39  1  0.28016270  0.09356686  0.15593558  1
  O  O40  1  0.31183373  0.67883063  0.54154573  1
  O  O41  1  0.32732593  0.94710251  0.90543135  1
  O  O42  1  0.31183373  0.82116937  0.04154573  1
  O  O43  1  0.32732593  0.55289749  0.40543135  1
  O  O44  1  0.42733617  0.55570354  0.80690642  1
  O  O45  1  0.42325210  0.25562803  0.54115135  1
  O  O46  1  0.42733617  0.94429646  0.30690642  1
  O  O47  1  0.42325210  0.24437197  0.04115135  1
  O  O48  1  0.57674790  0.75562803  0.95884865  1
  O  O49  1  0.57266383  0.05570354  0.69309358  1
  O  O50  1  0.57674790  0.74437197  0.45884865  1
  O  O51  1  0.57266383  0.44429646  0.19309358  1
  O  O52  1  0.67267407  0.44710251  0.59456865  1
  O  O53  1  0.68816627  0.17883063  0.95845427  1
  O  O54  1  0.67267407  0.05289749  0.09456865  1
  O  O55  1  0.68816627  0.32116937  0.45845427  1
  O  O56  1  0.71983730  0.90643314  0.84406442  1
  O  O57  1  0.71983730  0.59356686  0.34406442  1
  O  O58  1  0.73523251  0.13525217  0.57030939  1
  O  O59  1  0.74560840  0.83871743  0.61320057  1
  O  O60  1  0.73523251  0.36474783  0.07030939  1
  O  O61  1  0.74560840  0.66128257  0.11320057  1
  O  O62  1  0.79300285  0.60260281  0.88137139  1
  O  O63  1  0.79838140  0.59248180  0.73425188  1
  O  O64  1  0.79300285  0.89739719  0.38137139  1
  O  O65  1  0.79838140  0.90751820  0.23425188  1
  O  O66  1  0.84685229  0.32951509  0.81840352  1
  O  O67  1  0.84685229  0.17048491  0.31840352  1
  O  O68  1  0.90867385  0.83610578  0.96501407  1
  O  O69  1  0.91503914  0.06460061  0.68961171  1
  O  O70  1  0.90867385  0.66389422  0.46501407  1
  O  O71  1  0.91503914  0.43539939  0.18961171  1
