# generated using pymatgen
data_KH(IO3)2
_symmetry_space_group_name_H-M   'P 1'
_cell_length_a   10.69137465
_cell_length_b   8.71933410
_cell_length_c   7.53855372
_cell_angle_alpha   90.00000000
_cell_angle_beta   90.00000000
_cell_angle_gamma   112.04374448
_symmetry_Int_Tables_number   1
_chemical_formula_structural   KH(IO3)2
_chemical_formula_sum   'K4 H4 I8 O24'
_cell_volume   651.38334277
_cell_formula_units_Z   4
loop_
 _symmetry_equiv_pos_site_id
 _symmetry_equiv_pos_as_xyz
  1  'x, y, z'
loop_
 _atom_site_type_symbol
 _atom_site_label
 _atom_site_symmetry_multiplicity
 _atom_site_fract_x
 _atom_site_fract_y
 _atom_site_fract_z
 _atom_site_occupancy
  K  K0  1  0.20167725  0.83995559  0.75245533  1
  K  K1  1  0.20167725  0.33995559  0.74754467  1
  K  K2  1  0.79832275  0.66004441  0.25245533  1
  K  K3  1  0.79832275  0.16004441  0.24754467  1
  H  H4  1  0.00000000  0.50000000  0.00000000  1
  H  H5  1  0.00000000  0.00000000  0.50000000  1
  H  H6  1  0.50000000  0.50000000  0.00000000  1
  H  H7  1  0.50000000  0.00000000  0.50000000  1
  I  I8  1  0.12613273  0.57275407  0.30293116  1
  I  I9  1  0.12613273  0.07275407  0.19706884  1
  I  I10  1  0.49394569  0.79552141  0.06525968  1
  I  I11  1  0.50605431  0.70447859  0.56525968  1
  I  I12  1  0.49394569  0.29552141  0.43474032  1
  I  I13  1  0.50605431  0.20447859  0.93474032  1
  I  I14  1  0.87386727  0.92724593  0.80293116  1
  I  I15  1  0.87386727  0.42724593  0.69706884  1
  O  O16  1  0.05816060  0.68532433  0.45259376  1
  O  O17  1  0.02814956  0.51193052  0.84263355  1
  O  O18  1  0.05816060  0.18532433  0.04740624  1
  O  O19  1  0.22990092  0.73430736  0.15320624  1
  O  O20  1  0.02814956  0.01193052  0.65736645  1
  O  O21  1  0.32376495  0.64983271  0.54307480  1
  O  O22  1  0.22990092  0.23430736  0.34679376  1
  O  O23  1  0.46013127  0.88579907  0.85821746  1
  O  O24  1  0.43040528  0.58009659  0.97145981  1
  O  O25  1  0.32376495  0.14983271  0.95692520  1
  O  O26  1  0.56959472  0.91990341  0.47145981  1
  O  O27  1  0.46013127  0.38579907  0.64178254  1
  O  O28  1  0.53986873  0.61420093  0.35821746  1
  O  O29  1  0.43040528  0.08009659  0.52854019  1
  O  O30  1  0.67623505  0.85016729  0.04307480  1
  O  O31  1  0.56959472  0.41990341  0.02854019  1
  O  O32  1  0.53986873  0.11420093  0.14178254  1
  O  O33  1  0.77009908  0.76569264  0.65320624  1
  O  O34  1  0.67623505  0.35016729  0.45692520  1
  O  O35  1  0.97185044  0.98806948  0.34263355  1
  O  O36  1  0.77009908  0.26569264  0.84679376  1
  O  O37  1  0.94183940  0.81467567  0.95259376  1
  O  O38  1  0.97185044  0.48806948  0.15736645  1
  O  O39  1  0.94183940  0.31467567  0.54740624  1
