# generated using pymatgen
data_Fe3(PO4)4
_symmetry_space_group_name_H-M   'P 1'
_cell_length_a   6.40320785
_cell_length_b   10.36890221
_cell_length_c   11.03503921
_cell_angle_alpha   92.27924930
_cell_angle_beta   89.80231954
_cell_angle_gamma   71.89077138
_symmetry_Int_Tables_number   1
_chemical_formula_structural   Fe3(PO4)4
_chemical_formula_sum   'Fe6 P8 O32'
_cell_volume   695.72366583
_cell_formula_units_Z   2
loop_
 _symmetry_equiv_pos_site_id
 _symmetry_equiv_pos_as_xyz
  1  'x, y, z'
loop_
 _atom_site_type_symbol
 _atom_site_label
 _atom_site_symmetry_multiplicity
 _atom_site_fract_x
 _atom_site_fract_y
 _atom_site_fract_z
 _atom_site_occupancy
  Fe  Fe0  1  0.00000000  0.50000000  0.50000000  1
  Fe  Fe1  1  0.32814684  0.31139479  0.74733174  1
  Fe  Fe2  1  0.36332803  0.30769668  0.24699926  1
  Fe  Fe3  1  0.50000000  0.50000000  -0.00000000  1
  Fe  Fe4  1  0.63667197  0.69230332  0.75300074  1
  Fe  Fe5  1  0.67185316  0.68860521  0.25266826  1
  P  P6  1  0.81356888  0.40499261  0.24488056  1
  P  P7  1  0.78173119  0.40615003  0.74508536  1
  P  P8  1  0.43408458  0.81832192  0.01214781  1
  P  P9  1  0.56591542  0.18167808  0.98785219  1
  P  P10  1  0.21826881  0.59384997  0.25491464  1
  P  P11  1  0.18643112  0.59500739  0.75511944  1
  P  P12  1  0.74564128  0.81821471  0.50893824  1
  P  P13  1  0.25435872  0.18178529  0.49106176  1
  O  O14  1  0.24264223  0.95175174  0.03348477  1
  O  O15  1  0.01603720  0.31777779  0.76576122  1
  O  O16  1  0.04545965  0.30693865  0.49146094  1
  O  O17  1  0.19679565  0.04803023  0.47609563  1
  O  O18  1  0.05051841  0.31846068  0.22149115  1
  O  O19  1  0.20902400  0.48714200  0.64391577  1
  O  O20  1  0.98396280  0.68222221  0.23423878  1
  O  O21  1  0.95454035  0.69306135  0.50853906  1
  O  O22  1  0.80320435  0.95196977  0.52390437  1
  O  O23  1  0.94948159  0.68153932  0.77850885  1
  O  O24  1  0.79097600  0.51285800  0.35608423  1
  O  O25  1  0.62623117  0.82454911  0.38774742  1
  O  O26  1  0.76549996  0.51098254  0.64083951  1
  O  O27  1  0.58791913  0.81453540  0.11978415  1
  O  O28  1  0.59418650  0.81548710  0.61705439  1
  O  O29  1  0.72577609  0.50977184  0.14049459  1
  O  O30  1  0.54846286  0.82571806  0.89102677  1
  O  O31  1  0.69412742  0.51414546  0.85604054  1
  O  O32  1  0.66586416  0.31756346  0.26519538  1
  O  O33  1  0.23449904  0.48901746  0.35916049  1
  O  O34  1  0.75735777  0.04824826  0.96651523  1
  O  O35  1  0.63311659  0.31864305  0.72151234  1
  O  O36  1  0.36688341  0.68135695  0.27848766  1
  O  O37  1  0.64877068  0.30692938  0.99025258  1
  O  O38  1  0.35122932  0.69307062  0.00974742  1
  O  O39  1  0.33413584  0.68243654  0.73480462  1
  O  O40  1  0.30587258  0.48585454  0.14395946  1
  O  O41  1  0.45153714  0.17428194  0.10897323  1
  O  O42  1  0.27422391  0.49022816  0.85950441  1
  O  O43  1  0.40581350  0.18451290  0.38294561  1
  O  O44  1  0.41208087  0.18546460  0.88021585  1
  O  O45  1  0.37376883  0.17545089  0.61225258  1
