# generated using pymatgen
data_Na3IO
_symmetry_space_group_name_H-M   'P 1'
_cell_length_a   6.79856586
_cell_length_b   6.79721227
_cell_length_c   16.58140295
_cell_angle_alpha   90.00266594
_cell_angle_beta   89.99921871
_cell_angle_gamma   120.00305899
_symmetry_Int_Tables_number   1
_chemical_formula_structural   Na3IO
_chemical_formula_sum   'Na18 I6 O6'
_cell_volume   663.56987115
_cell_formula_units_Z   6
loop_
 _symmetry_equiv_pos_site_id
 _symmetry_equiv_pos_as_xyz
  1  'x, y, z'
loop_
 _atom_site_type_symbol
 _atom_site_label
 _atom_site_symmetry_multiplicity
 _atom_site_fract_x
 _atom_site_fract_y
 _atom_site_fract_z
 _atom_site_occupancy
  Na  Na0  1  0.16602537  0.83401747  0.92090474  1
  Na  Na1  1  0.16602418  0.83401105  0.57909997  1
  Na  Na2  1  0.05725067  0.52864024  0.75000415  1
  Na  Na3  1  0.16604402  0.33207323  0.57909894  1
  Na  Na4  1  0.16602902  0.33208873  0.92089717  1
  Na  Na5  1  0.47141563  0.94283483  0.75000860  1
  Na  Na6  1  0.47139520  0.52863655  0.74999538  1
  Na  Na7  1  0.33198621  0.16603490  0.07910447  1
  Na  Na8  1  0.33201057  0.16591578  0.42089912  1
  Na  Na9  1  0.66796887  0.83404995  0.92090101  1
  Na  Na10  1  0.66798722  0.83402664  0.57910070  1
  Na  Na11  1  0.52856768  0.47133178  0.25001064  1
  Na  Na12  1  0.52855327  0.05713275  0.24999519  1
  Na  Na13  1  0.83392585  0.66798416  0.07909113  1
  Na  Na14  1  0.83394211  0.66788426  0.42091789  1
  Na  Na15  1  0.94272542  0.47132707  0.24999994  1
  Na  Na16  1  0.83394842  0.16604792  0.07910593  1
  Na  Na17  1  0.83394825  0.16592658  0.42090102  1
  I  I18  1  0.33321958  0.66689627  0.09946271  1
  I  I19  1  0.99990579  0.99958639  0.25000627  1
  I  I20  1  0.33318603  0.66582907  0.40055773  1
  I  I21  1  0.00005449  0.00016270  0.75000372  1
  I  I22  1  0.66710073  0.33402459  0.59943581  1
  I  I23  1  0.66691742  0.33376134  0.90047851  1
  O  O24  1  0.33338718  0.66675931  0.85053661  1
  O  O25  1  0.99997975  0.00010300  0.00000313  1
  O  O26  1  0.99999970  0.99993724  0.50000509  1
  O  O27  1  0.33340252  0.66680188  0.64947210  1
  O  O28  1  0.66658333  0.33310773  0.35053654  1
  O  O29  1  0.66657849  0.33333156  0.14946578  1
