# generated using pymatgen
data_Li9Mn12Ni3O32
_symmetry_space_group_name_H-M   'P 1'
_cell_length_a   8.26364762
_cell_length_b   8.29583541
_cell_length_c   8.29859927
_cell_angle_alpha   89.88363729
_cell_angle_beta   90.19961929
_cell_angle_gamma   89.80285392
_symmetry_Int_Tables_number   1
_chemical_formula_structural   Li9Mn12Ni3O32
_chemical_formula_sum   'Li9 Mn12 Ni3 O32'
_cell_volume   568.89300933
_cell_formula_units_Z   1
loop_
 _symmetry_equiv_pos_site_id
 _symmetry_equiv_pos_as_xyz
  1  'x, y, z'
loop_
 _atom_site_type_symbol
 _atom_site_label
 _atom_site_symmetry_multiplicity
 _atom_site_fract_x
 _atom_site_fract_y
 _atom_site_fract_z
 _atom_site_occupancy
  Li  Li0  1  0.00291328  0.00187091  0.00743945  1
  Li  Li1  1  0.24530501  0.24911736  0.24547612  1
  Li  Li2  1  0.25269286  0.75275203  0.74521334  1
  Li  Li3  1  0.49721025  0.99534581  0.50274524  1
  Li  Li4  1  0.50477401  0.49545138  0.99917725  1
  Li  Li5  1  0.74705156  0.25734785  0.75176841  1
  Li  Li6  1  0.75547766  0.74598667  0.25232534  1
  Li  Li7  1  0.87499887  0.37584278  0.12586618  1
  Li  Li8  1  0.99459396  0.50232777  0.49606787  1
  Mn  Mn9  1  0.12283429  0.12773346  0.62320167  1
  Mn  Mn10  1  0.12489055  0.38052410  0.87424481  1
  Mn  Mn11  1  0.12656325  0.62336248  0.12182745  1
  Mn  Mn12  1  0.37252929  0.37502083  0.62123932  1
  Mn  Mn13  1  0.37496100  0.62123022  0.37125607  1
  Mn  Mn14  1  0.37744450  0.87128203  0.12516939  1
  Mn  Mn15  1  0.62338401  0.37180182  0.37343835  1
  Mn  Mn16  1  0.62505335  0.12417915  0.13054951  1
  Mn  Mn17  1  0.62721424  0.87325830  0.87763490  1
  Mn  Mn18  1  0.87097864  0.12672840  0.37680124  1
  Mn  Mn19  1  0.87509017  0.87809858  0.62799108  1
  Mn  Mn20  1  0.87909929  0.62684113  0.87661696  1
  Ni  Ni21  1  0.12422528  0.87424538  0.37434370  1
  Ni  Ni22  1  0.37495501  0.12628676  0.87632889  1
  Ni  Ni23  1  0.62575229  0.62437805  0.62429560  1
  O  O24  1  0.10282397  0.12499532  0.39336826  1
  O  O25  1  0.10881967  0.89832038  0.62452476  1
  O  O26  1  0.11608210  0.61378458  0.88441700  1
  O  O27  1  0.12940917  0.39447953  0.09932352  1
  O  O28  1  0.14245643  0.14441490  0.86138107  1
  O  O29  1  0.13595094  0.36273311  0.63571323  1
  O  O30  1  0.14183812  0.62524678  0.35135532  1
  O  O31  1  0.14805929  0.85788720  0.12552435  1
  O  O32  1  0.35509037  0.14124405  0.62900845  1
  O  O33  1  0.36202820  0.37025152  0.85213655  1
  O  O34  1  0.36626037  0.63646948  0.13573259  1
  O  O35  1  0.37519811  0.85212228  0.35700256  1
  O  O36  1  0.37469153  0.60701264  0.60210713  1
  O  O37  1  0.38369032  0.38565878  0.38653106  1
  O  O38  1  0.38807013  0.10216658  0.12074502  1
  O  O39  1  0.39476941  0.87946231  0.89126050  1
  O  O40  1  0.60183923  0.37542161  0.60785591  1
  O  O41  1  0.60810601  0.60145864  0.37541813  1
  O  O42  1  0.61401052  0.88557156  0.11261558  1
  O  O43  1  0.60751368  0.11149247  0.89460571  1
  O  O44  1  0.62061144  0.34939182  0.14468931  1
  O  O45  1  0.63402192  0.13431646  0.36378729  1
  O  O46  1  0.64125740  0.87470931  0.64831832  1
  O  O47  1  0.64720524  0.64334163  0.87475200  1
  O  O48  1  0.84986812  0.35503829  0.37838395  1
  O  O49  1  0.85438389  0.12164446  0.14914377  1
  O  O50  1  0.86282098  0.86720880  0.86452028  1
  O  O51  1  0.87493970  0.64919624  0.64220303  1
  O  O52  1  0.87521494  0.89217748  0.39922641  1
  O  O53  1  0.88721678  0.11457404  0.61708844  1
  O  O54  1  0.89566353  0.39910467  0.87158468  1
  O  O55  1  0.90009787  0.62829083  0.10485768  1
