# generated using pymatgen
data_K3MgPCO7
_symmetry_space_group_name_H-M   'P 1'
_cell_length_a   9.62412673
_cell_length_b   6.92906094
_cell_length_c   5.65247844
_cell_angle_alpha   90.00000000
_cell_angle_beta   90.31333735
_cell_angle_gamma   90.00000000
_symmetry_Int_Tables_number   1
_chemical_formula_structural   K3MgPCO7
_chemical_formula_sum   'K6 Mg2 P2 C2 O14'
_cell_volume   376.93644845
_cell_formula_units_Z   2
loop_
 _symmetry_equiv_pos_site_id
 _symmetry_equiv_pos_as_xyz
  1  'x, y, z'
loop_
 _atom_site_type_symbol
 _atom_site_label
 _atom_site_symmetry_multiplicity
 _atom_site_fract_x
 _atom_site_fract_y
 _atom_site_fract_z
 _atom_site_occupancy
  K  K0  1  0.07379900  0.25000000  0.76071471  1
  K  K1  1  0.28042668  0.01295129  0.25939269  1
  K  K2  1  0.28042668  0.48704871  0.25939269  1
  K  K3  1  0.71957332  0.51295129  0.74060731  1
  K  K4  1  0.71957332  0.98704871  0.74060731  1
  K  K5  1  0.92620100  0.75000000  0.23928529  1
  Mg  Mg6  1  0.35828551  0.75000000  0.77013895  1
  Mg  Mg7  1  0.64171449  0.25000000  0.22986105  1
  P  P8  1  0.42586078  0.25000000  0.72665717  1
  P  P9  1  0.57413922  0.75000000  0.27334283  1
  C  C10  1  0.08897000  0.75000000  0.74269351  1
  C  C11  1  0.91103000  0.25000000  0.25730649  1
  O  O12  1  0.04577045  0.25000000  0.26283074  1
  O  O13  1  0.15712907  0.75000000  0.94336462  1
  O  O14  1  0.16223756  0.75000000  0.54892439  1
  O  O15  1  0.33357879  0.06686707  0.75818716  1
  O  O16  1  0.33357879  0.43313293  0.75818716  1
  O  O17  1  0.48830585  0.25000000  0.47195611  1
  O  O18  1  0.45403724  0.75000000  0.08866465  1
  O  O19  1  0.54596276  0.25000000  0.91133535  1
  O  O20  1  0.51169415  0.75000000  0.52804389  1
  O  O21  1  0.66642121  0.56686707  0.24181284  1
  O  O22  1  0.66642121  0.93313293  0.24181284  1
  O  O23  1  0.83776244  0.25000000  0.45107561  1
  O  O24  1  0.84287093  0.25000000  0.05663538  1
  O  O25  1  0.95422955  0.75000000  0.73716926  1
