# generated using pymatgen
data_Lu(PO3)3
_symmetry_space_group_name_H-M   'P 1'
_cell_length_a   6.98170694
_cell_length_b   9.70985293
_cell_length_c   10.91431359
_cell_angle_alpha   90.00000000
_cell_angle_beta   91.75440101
_cell_angle_gamma   90.00000000
_symmetry_Int_Tables_number   1
_chemical_formula_structural   Lu(PO3)3
_chemical_formula_sum   'Lu4 P12 O36'
_cell_volume   739.54919457
_cell_formula_units_Z   4
loop_
 _symmetry_equiv_pos_site_id
 _symmetry_equiv_pos_as_xyz
  1  'x, y, z'
loop_
 _atom_site_type_symbol
 _atom_site_label
 _atom_site_symmetry_multiplicity
 _atom_site_fract_x
 _atom_site_fract_y
 _atom_site_fract_z
 _atom_site_occupancy
  Lu  Lu0  1  0.18985464  0.75000000  0.01898556  1
  Lu  Lu1  1  0.32695173  0.75000000  0.53733584  1
  Lu  Lu2  1  0.67304827  0.25000000  0.46266416  1
  Lu  Lu3  1  0.81014536  0.25000000  0.98101444  1
  P  P4  1  0.17483535  0.53596673  0.28416157  1
  P  P5  1  0.17483535  0.96403327  0.28416157  1
  P  P6  1  0.18544039  0.25000000  0.37492221  1
  P  P7  1  0.23426149  0.51218272  0.76784253  1
  P  P8  1  0.23426149  0.98781728  0.76784253  1
  P  P9  1  0.32208945  0.25000000  0.89812242  1
  P  P10  1  0.67791055  0.75000000  0.10187758  1
  P  P11  1  0.76573851  0.01218272  0.23215747  1
  P  P12  1  0.76573851  0.48781728  0.23215747  1
  P  P13  1  0.81455961  0.75000000  0.62507779  1
  P  P14  1  0.82516465  0.03596673  0.71583843  1
  P  P15  1  0.82516465  0.46403327  0.71583843  1
  O  O16  1  0.01223861  0.75000000  0.57458284  1
  O  O17  1  0.05137635  0.05158404  0.69383945  1
  O  O18  1  0.05137635  0.44841596  0.69383945  1
  O  O19  1  0.12313505  0.25000000  0.94646746  1
  O  O20  1  0.17302380  0.91256677  0.88032282  1
  O  O21  1  0.17302380  0.58743323  0.88032282  1
  O  O22  1  0.20546851  0.12719470  0.27668492  1
  O  O23  1  0.20546851  0.37280530  0.27668492  1
  O  O24  1  0.22060603  0.90759434  0.16100549  1
  O  O25  1  0.22060603  0.59240566  0.16100549  1
  O  O26  1  0.27366727  0.59429039  0.39640443  1
  O  O27  1  0.27366727  0.90570961  0.39640443  1
  O  O28  1  0.35061830  0.12409082  0.80382620  1
  O  O29  1  0.35061830  0.37590918  0.80382620  1
  O  O30  1  0.35107662  0.58890694  0.67739107  1
  O  O31  1  0.35107662  0.91109306  0.67739107  1
  O  O32  1  0.35611642  0.25000000  0.46229565  1
  O  O33  1  0.49254175  0.25000000  0.98504398  1
  O  O34  1  0.50745825  0.75000000  0.01495602  1
  O  O35  1  0.64388358  0.75000000  0.53770435  1
  O  O36  1  0.64892338  0.08890694  0.32260893  1
  O  O37  1  0.64892338  0.41109306  0.32260893  1
  O  O38  1  0.64938170  0.62409082  0.19617380  1
  O  O39  1  0.64938170  0.87590918  0.19617380  1
  O  O40  1  0.72633273  0.09429039  0.60359557  1
  O  O41  1  0.72633273  0.40570961  0.60359557  1
  O  O42  1  0.77939397  0.09240566  0.83899451  1
  O  O43  1  0.77939397  0.40759434  0.83899451  1
  O  O44  1  0.79453149  0.62719470  0.72331508  1
  O  O45  1  0.79453149  0.87280530  0.72331508  1
  O  O46  1  0.82697620  0.08743323  0.11967718  1
  O  O47  1  0.82697620  0.41256677  0.11967718  1
  O  O48  1  0.87686495  0.75000000  0.05353254  1
  O  O49  1  0.94862365  0.55158404  0.30616055  1
  O  O50  1  0.94862365  0.94841596  0.30616055  1
  O  O51  1  0.98776139  0.25000000  0.42541716  1
