# generated using pymatgen
data_VPO5
_symmetry_space_group_name_H-M   'P 1'
_cell_length_a   17.79990398
_cell_length_b   9.01118099
_cell_length_c   5.10599503
_cell_angle_alpha   90.00000000
_cell_angle_beta   89.61647125
_cell_angle_gamma   90.00000000
_symmetry_Int_Tables_number   1
_chemical_formula_structural   VPO5
_chemical_formula_sum   'V8 P8 O40'
_cell_volume   818.97384114
_cell_formula_units_Z   8
loop_
 _symmetry_equiv_pos_site_id
 _symmetry_equiv_pos_as_xyz
  1  'x, y, z'
loop_
 _atom_site_type_symbol
 _atom_site_label
 _atom_site_symmetry_multiplicity
 _atom_site_fract_x
 _atom_site_fract_y
 _atom_site_fract_z
 _atom_site_occupancy
  V  V0  1  0.12371604  0.38608213  0.50029913  1
  V  V1  1  0.13485872  0.91909206  0.08438557  1
  V  V2  1  0.36514128  0.41909206  0.91561443  1
  V  V3  1  0.37628396  0.88608213  0.49970087  1
  V  V4  1  0.62371604  0.11391787  0.50029913  1
  V  V5  1  0.63485872  0.58090794  0.08438557  1
  V  V6  1  0.86514128  0.08090794  0.91561443  1
  V  V7  1  0.87628396  0.61391787  0.49970087  1
  P  P8  1  0.03254078  0.23234283  0.00086374  1
  P  P9  1  0.19736531  0.58185913  0.99954903  1
  P  P10  1  0.30263469  0.08185913  0.00045097  1
  P  P11  1  0.46745922  0.73234283  0.99913626  1
  P  P12  1  0.53254078  0.26765717  0.00086374  1
  P  P13  1  0.69736531  0.91814087  0.99954903  1
  P  P14  1  0.80263469  0.41814087  0.00045097  1
  P  P15  1  0.96745922  0.76765717  0.99913626  1
  O  O16  1  0.05275866  0.79501906  0.98908364  1
  O  O17  1  0.05219714  0.32204492  0.24770813  1
  O  O18  1  0.05101344  0.32315530  0.75275686  1
  O  O19  1  0.07486141  0.08347911  0.99014903  1
  O  O20  1  0.13189524  0.91808952  0.39740380  1
  O  O21  1  0.15681577  0.52526535  0.24704162  1
  O  O22  1  0.15759572  0.52381719  0.75356302  1
  O  O23  1  0.18602197  0.25882954  0.49966011  1
  O  O24  1  0.19654143  0.75284403  0.99586631  1
  O  O25  1  0.21957497  0.03465489  0.99575273  1
  O  O26  1  0.28042503  0.53465489  0.00424727  1
  O  O27  1  0.30345857  0.25284403  0.00413369  1
  O  O28  1  0.31397803  0.75882954  0.50033989  1
  O  O29  1  0.34318423  0.02526535  0.75295838  1
  O  O30  1  0.34240428  0.02381719  0.24643698  1
  O  O31  1  0.36810476  0.41808952  0.60259620  1
  O  O32  1  0.42513859  0.58347911  0.00985097  1
  O  O33  1  0.44898656  0.82315530  0.24724314  1
  O  O34  1  0.44780286  0.82204492  0.75229187  1
  O  O35  1  0.44724134  0.29501906  0.01091636  1
  O  O36  1  0.55275866  0.70498094  0.98908364  1
  O  O37  1  0.55219714  0.17795508  0.24770813  1
  O  O38  1  0.55101344  0.17684470  0.75275686  1
  O  O39  1  0.57486141  0.41652089  0.99014903  1
  O  O40  1  0.63189524  0.58191048  0.39740380  1
  O  O41  1  0.65681577  0.97473465  0.24704162  1
  O  O42  1  0.65759572  0.97618281  0.75356302  1
  O  O43  1  0.68602197  0.24117046  0.49966011  1
  O  O44  1  0.69654143  0.74715597  0.99586631  1
  O  O45  1  0.71957497  0.46534511  0.99575273  1
  O  O46  1  0.78042503  0.96534511  0.00424727  1
  O  O47  1  0.80345857  0.24715597  0.00413369  1
  O  O48  1  0.81397803  0.74117046  0.50033989  1
  O  O49  1  0.84240428  0.47618281  0.24643698  1
  O  O50  1  0.84318423  0.47473465  0.75295838  1
  O  O51  1  0.86810476  0.08191048  0.60259620  1
  O  O52  1  0.92513859  0.91652089  0.00985097  1
  O  O53  1  0.94898656  0.67684470  0.24724314  1
  O  O54  1  0.94780286  0.67795508  0.75229187  1
  O  O55  1  0.94724134  0.20498094  0.01091636  1
