# generated using pymatgen
data_CoPO4
_symmetry_space_group_name_H-M   'P 1'
_cell_length_a   8.90087283
_cell_length_b   15.48759381
_cell_length_c   8.30495281
_cell_angle_alpha   90.00000000
_cell_angle_beta   90.00000000
_cell_angle_gamma   90.51845351
_symmetry_Int_Tables_number   1
_chemical_formula_structural   CoPO4
_chemical_formula_sum   'Co12 P12 O48'
_cell_volume   1144.81664431
_cell_formula_units_Z   12
loop_
 _symmetry_equiv_pos_site_id
 _symmetry_equiv_pos_as_xyz
  1  'x, y, z'
loop_
 _atom_site_type_symbol
 _atom_site_label
 _atom_site_symmetry_multiplicity
 _atom_site_fract_x
 _atom_site_fract_y
 _atom_site_fract_z
 _atom_site_occupancy
  Co  Co0  1  0.05409819  0.40614215  0.28145018  1
  Co  Co1  1  0.08026078  0.76596714  0.20918662  1
  Co  Co2  1  0.10732290  0.07640857  0.28154158  1
  Co  Co3  1  0.39267710  0.42359143  0.78154158  1
  Co  Co4  1  0.41973922  0.73403286  0.70918662  1
  Co  Co5  1  0.44590181  0.09385785  0.78145018  1
  Co  Co6  1  0.55409819  0.90614215  0.21854982  1
  Co  Co7  1  0.58026078  0.26596714  0.29081338  1
  Co  Co8  1  0.60732290  0.57640857  0.21845842  1
  Co  Co9  1  0.89267710  0.92359143  0.71845842  1
  Co  Co10  1  0.91973922  0.23403286  0.79081338  1
  Co  Co11  1  0.94590181  0.59385785  0.71854982  1
  P  P12  1  0.06442581  0.40706187  0.66307751  1
  P  P13  1  0.08555161  0.76842996  0.83249338  1
  P  P14  1  0.11011324  0.07923430  0.66550314  1
  P  P15  1  0.38988676  0.42076570  0.16550314  1
  P  P16  1  0.41444839  0.73157004  0.33249338  1
  P  P17  1  0.43557419  0.09293813  0.16307751  1
  P  P18  1  0.56442581  0.90706187  0.83692249  1
  P  P19  1  0.58555061  0.26842996  0.66750662  1
  P  P20  1  0.61011324  0.57923430  0.83449686  1
  P  P21  1  0.88988676  0.92076570  0.33449686  1
  P  P22  1  0.91444939  0.23157004  0.16750662  1
  P  P23  1  0.93557419  0.59293813  0.33692249  1
  O  O24  1  0.02004139  0.85489658  0.34295082  1
  O  O25  1  0.00556173  0.60842200  0.50538210  1
  O  O26  1  0.02586598  0.52294778  0.24646641  1
  O  O27  1  0.04230433  0.19022524  0.26561582  1
  O  O28  1  0.05545623  0.99679285  0.75385684  1
  O  O29  1  0.05996667  0.32296471  0.76226272  1
  O  O30  1  0.09323086  0.80987962  0.00196995  1
  O  O31  1  0.05470688  0.66990446  0.84735837  1
  O  O32  1  0.16222929  0.05521850  0.49349342  1
  O  O33  1  0.23041564  0.43710448  0.64469080  1
  O  O34  1  0.23627510  0.78517589  0.74536488  1
  O  O35  1  0.24273691  0.11953584  0.75965655  1
  O  O36  1  0.25726309  0.38046416  0.25965655  1
  O  O37  1  0.26372490  0.71482411  0.24536488  1
  O  O38  1  0.26958436  0.06289552  0.14469080  1
  O  O39  1  0.33777071  0.44478150  0.99349342  1
  O  O40  1  0.44529312  0.83009554  0.34735837  1
  O  O41  1  0.40676914  0.69012038  0.50196995  1
  O  O42  1  0.44003333  0.17703529  0.26226272  1
  O  O43  1  0.44454377  0.50320715  0.25385684  1
  O  O44  1  0.45769567  0.30977476  0.76561582  1
  O  O45  1  0.47413402  0.97705222  0.74646641  1
  O  O46  1  0.49443827  0.89157800  0.00538210  1
  O  O47  1  0.47995861  0.64510342  0.84295082  1
  O  O48  1  0.52004139  0.35489658  0.15704918  1
  O  O49  1  0.50556173  0.10842200  0.99461790  1
  O  O50  1  0.52586598  0.02294778  0.25353359  1
  O  O51  1  0.54230433  0.69022524  0.23438418  1
  O  O52  1  0.55545623  0.49679285  0.74614316  1
  O  O53  1  0.55996667  0.82296471  0.73773728  1
  O  O54  1  0.59323086  0.30987962  0.49803005  1
  O  O55  1  0.55470688  0.16990446  0.65264163  1
  O  O56  1  0.66222929  0.55521850  0.00650658  1
  O  O57  1  0.73041564  0.93710448  0.85530920  1
  O  O58  1  0.73627510  0.28517589  0.75463512  1
  O  O59  1  0.74273691  0.61953584  0.74034345  1
  O  O60  1  0.75726309  0.88046416  0.24034345  1
  O  O61  1  0.76372490  0.21482411  0.25463512  1
  O  O62  1  0.76958436  0.56289552  0.35530920  1
  O  O63  1  0.83777071  0.94478150  0.50650658  1
  O  O64  1  0.94529312  0.33009554  0.15264163  1
  O  O65  1  0.90676914  0.19012038  0.99803005  1
  O  O66  1  0.94003333  0.67703529  0.23773628  1
  O  O67  1  0.94454377  0.00320715  0.24614316  1
  O  O68  1  0.95769567  0.80977476  0.73438418  1
  O  O69  1  0.97413402  0.47705222  0.75353359  1
  O  O70  1  0.99443827  0.39157800  0.49461790  1
  O  O71  1  0.97995861  0.14510342  0.65704918  1
