# generated using pymatgen
data_V9Sb7O32
_symmetry_space_group_name_H-M   'P 1'
_cell_length_a   4.66774017
_cell_length_b   15.34063166
_cell_length_c   7.80794259
_cell_angle_alpha   102.43390918
_cell_angle_beta   89.98519241
_cell_angle_gamma   90.12029257
_symmetry_Int_Tables_number   1
_chemical_formula_structural   V9Sb7O32
_chemical_formula_sum   'V9 Sb7 O32'
_cell_volume   545.98137939
_cell_formula_units_Z   1
loop_
 _symmetry_equiv_pos_site_id
 _symmetry_equiv_pos_as_xyz
  1  'x, y, z'
loop_
 _atom_site_type_symbol
 _atom_site_label
 _atom_site_symmetry_multiplicity
 _atom_site_fract_x
 _atom_site_fract_y
 _atom_site_fract_z
 _atom_site_occupancy
  V  V0  1  0.49453454  0.31178576  0.43706675  1
  V  V1  1  0.50546546  0.18821424  0.06293325  1
  V  V2  1  0.50392020  0.56103150  0.18766723  1
  V  V3  1  0.49607980  0.93896850  0.31233277  1
  V  V4  1  0.00000000  0.25000000  0.75000000  1
  V  V5  1  0.00795839  0.62108059  0.87549941  1
  V  V6  1  0.00438650  0.49673998  0.49927251  1
  V  V7  1  0.99204161  0.87891941  0.62450059  1
  V  V8  1  0.99561350  0.00326002  0.00072749  1
  Sb  Sb9  1  0.49540888  0.06261171  0.69139202  1
  Sb  Sb10  1  0.50459112  0.43738829  0.80860798  1
  Sb  Sb11  1  0.49998659  0.81720526  0.93661075  1
  Sb  Sb12  1  0.50001341  0.68279474  0.56338925  1
  Sb  Sb13  1  0.99727704  0.12734741  0.37101277  1
  Sb  Sb14  1  0.00272296  0.37265259  0.12898723  1
  Sb  Sb15  1  0.00000000  0.75000000  0.25000000  1
  O  O16  1  0.80346468  0.13687547  0.60854407  1
  O  O17  1  0.80272424  0.39154883  0.36418530  1
  O  O18  1  0.81011720  0.01367140  0.23508371  1
  O  O19  1  0.80853861  0.26452115  0.98839068  1
  O  O20  1  0.81122723  0.63961343  0.11522152  1
  O  O21  1  0.80478486  0.51292813  0.72845083  1
  O  O22  1  0.80889949  0.89084782  0.86522804  1
  O  O23  1  0.79933889  0.76220008  0.48483968  1
  O  O24  1  0.69977788  0.44969151  0.04556569  1
  O  O25  1  0.70873912  0.07312171  0.92259374  1
  O  O26  1  0.68736994  0.95295192  0.55246023  1
  O  O27  1  0.70148297  0.57513116  0.42814542  1
  O  O28  1  0.69503694  0.70242923  0.80129872  1
  O  O29  1  0.69360228  0.82578611  0.17049246  1
  O  O30  1  0.69020744  0.32660037  0.67470348  1
  O  O31  1  0.69439693  0.20086047  0.29634494  1
  O  O32  1  0.30979256  0.17339963  0.82529652  1
  O  O33  1  0.29126088  0.42687829  0.57740626  1
  O  O34  1  0.29851703  0.92486884  0.07185458  1
  O  O35  1  0.31263006  0.54704808  0.94753977  1
  O  O36  1  0.30496306  0.79757077  0.69870128  1
  O  O37  1  0.30560307  0.29913953  0.20365506  1
  O  O38  1  0.30639772  0.67421389  0.32950754  1
  O  O39  1  0.30022212  0.05030849  0.45443431  1
  O  O40  1  0.19727576  0.10845117  0.13581470  1
  O  O41  1  0.19110051  0.60915218  0.63477196  1
  O  O42  1  0.19653532  0.36312453  0.89145593  1
  O  O43  1  0.18877277  0.86038657  0.38477848  1
  O  O44  1  0.19146139  0.23547885  0.51160932  1
  O  O45  1  0.20066111  0.73779992  0.01516032  1
  O  O46  1  0.19521514  0.98707187  0.77154917  1
  O  O47  1  0.18988280  0.48632860  0.26491629  1
