# generated using pymatgen
data_P3(WO6)2
_symmetry_space_group_name_H-M   'P 1'
_cell_length_a   8.78609050
_cell_length_b   8.88722703
_cell_length_c   12.30277121
_cell_angle_alpha   90.00000000
_cell_angle_beta   89.60561675
_cell_angle_gamma   90.00000000
_symmetry_Int_Tables_number   1
_chemical_formula_structural   P3(WO6)2
_chemical_formula_sum   'P12 W8 O48'
_cell_volume   960.62659492
_cell_formula_units_Z   4
loop_
 _symmetry_equiv_pos_site_id
 _symmetry_equiv_pos_as_xyz
  1  'x, y, z'
loop_
 _atom_site_type_symbol
 _atom_site_label
 _atom_site_symmetry_multiplicity
 _atom_site_fract_x
 _atom_site_fract_y
 _atom_site_fract_z
 _atom_site_occupancy
  P  P0  1  0.03091709  0.25289543  0.50457129  1
  P  P1  1  0.10647430  0.11298272  0.14649538  1
  P  P2  1  0.10884616  0.38831892  0.85548516  1
  P  P3  1  0.39352570  0.61298272  0.35350462  1
  P  P4  1  0.39115384  0.88831892  0.64451484  1
  P  P5  1  0.46908291  0.75289543  0.99542871  1
  P  P6  1  0.53091709  0.24710457  0.00457129  1
  P  P7  1  0.60884616  0.11168108  0.35548516  1
  P  P8  1  0.60647430  0.38701728  0.64649538  1
  P  P9  1  0.89115384  0.61168108  0.14451484  1
  P  P10  1  0.89352570  0.88701728  0.85350462  1
  P  P11  1  0.96908291  0.74710457  0.49542871  1
  W  W12  1  0.25092769  0.46739793  0.11643199  1
  W  W13  1  0.24907231  0.96739793  0.38356801  1
  W  W14  1  0.25060980  0.53395040  0.61610815  1
  W  W15  1  0.24939020  0.03395040  0.88389185  1
  W  W16  1  0.75060980  0.96604960  0.11610815  1
  W  W17  1  0.74939020  0.46604960  0.38389185  1
  W  W18  1  0.75092769  0.03260207  0.61643199  1
  W  W19  1  0.74907231  0.53260207  0.88356801  1
  O  O20  1  0.06483782  0.63911153  0.56753243  1
  O  O21  1  0.06475900  0.60896383  0.13054548  1
  O  O22  1  0.07052778  0.82079758  0.40811528  1
  O  O23  1  0.06654597  0.92358315  0.83974182  1
  O  O24  1  0.11051546  0.14557325  0.42842485  1
  O  O25  1  0.12298231  0.28059894  0.16499184  1
  O  O26  1  0.15467274  0.06363098  0.03081233  1
  O  O27  1  0.15795549  0.49621479  0.76289221  1
  O  O28  1  0.15007899  0.34913900  0.56555637  1
  O  O29  1  0.15673118  0.22341402  0.82750939  1
  O  O30  1  0.19647859  0.01527218  0.22670648  1
  O  O31  1  0.19310102  0.43698672  0.95784566  1
  O  O32  1  0.30352141  0.51527218  0.27329352  1
  O  O33  1  0.30689898  0.93698672  0.54215434  1
  O  O34  1  0.34326882  0.72341402  0.67249061  1
  O  O35  1  0.34992101  0.84913900  0.93444363  1
  O  O36  1  0.34532726  0.56363098  0.46918767  1
  O  O37  1  0.34204451  0.99621479  0.73710779  1
  O  O38  1  0.37701769  0.78059894  0.33500816  1
  O  O39  1  0.38948454  0.64557325  0.07157515  1
  O  O40  1  0.42947222  0.32079758  0.09188472  1
  O  O41  1  0.43524100  0.10896383  0.36945452  1
  O  O42  1  0.43345403  0.42358315  0.66025818  1
  O  O43  1  0.43516218  0.13911153  0.93246757  1
  O  O44  1  0.56483782  0.86088847  0.06753243  1
  O  O45  1  0.56654597  0.57641685  0.33974182  1
  O  O46  1  0.56475900  0.89103617  0.63054548  1
  O  O47  1  0.57052778  0.67920242  0.90811528  1
  O  O48  1  0.61051546  0.35442675  0.92842485  1
  O  O49  1  0.62298231  0.21940106  0.66499184  1
  O  O50  1  0.65795549  0.00378521  0.26289221  1
  O  O51  1  0.65467274  0.43636902  0.53081233  1
  O  O52  1  0.65007899  0.15086100  0.06555737  1
  O  O53  1  0.65673118  0.27658598  0.32750939  1
  O  O54  1  0.69310102  0.06301328  0.45784566  1
  O  O55  1  0.69647859  0.48472782  0.72670648  1
  O  O56  1  0.80689898  0.56301328  0.04215434  1
  O  O57  1  0.80352141  0.98472782  0.77329352  1
  O  O58  1  0.84326882  0.77658598  0.17249061  1
  O  O59  1  0.84992101  0.65086100  0.43444263  1
  O  O60  1  0.84204451  0.50378521  0.23710779  1
  O  O61  1  0.84532726  0.93636902  0.96918767  1
  O  O62  1  0.87701769  0.71940106  0.83500816  1
  O  O63  1  0.88948454  0.85442675  0.57157515  1
  O  O64  1  0.93345403  0.07641685  0.16025818  1
  O  O65  1  0.92947222  0.17920242  0.59188472  1
  O  O66  1  0.93524100  0.39103617  0.86945452  1
  O  O67  1  0.93516218  0.36088847  0.43246757  1
