# generated using pymatgen
data_Bi4(B2O5)3
_symmetry_space_group_name_H-M   'P 1'
_cell_length_a   4.55157669
_cell_length_b   6.42430770
_cell_length_c   19.55404656
_cell_angle_alpha   82.76943096
_cell_angle_beta   90.00000000
_cell_angle_gamma   69.25273041
_symmetry_Int_Tables_number   1
_chemical_formula_structural   Bi4(B2O5)3
_chemical_formula_sum   'Bi8 B12 O30'
_cell_volume   529.83116069
_cell_formula_units_Z   2
loop_
 _symmetry_equiv_pos_site_id
 _symmetry_equiv_pos_as_xyz
  1  'x, y, z'
loop_
 _atom_site_type_symbol
 _atom_site_label
 _atom_site_symmetry_multiplicity
 _atom_site_fract_x
 _atom_site_fract_y
 _atom_site_fract_z
 _atom_site_occupancy
  Bi  Bi0  1  0.34586184  0.71167469  0.80001333  1
  Bi  Bi1  1  0.31799583  0.73899891  0.59486711  1
  Bi  Bi2  1  0.94246347  0.71167469  0.30001333  1
  Bi  Bi3  1  0.94300526  0.73899891  0.09486711  1
  Bi  Bi4  1  0.05699474  0.26100109  0.90513289  1
  Bi  Bi5  1  0.05753653  0.28832531  0.69998667  1
  Bi  Bi6  1  0.68200417  0.26100109  0.40513289  1
  Bi  Bi7  1  0.65413816  0.28832531  0.19998667  1
  B  B8  1  0.80691906  0.79960817  0.91196951  1
  B  B9  1  0.79098839  0.87118636  0.69521556  1
  B  B10  1  0.37459596  0.65965710  0.97217145  1
  B  B11  1  0.39347277  0.79960817  0.41196951  1
  B  B12  1  0.33782525  0.87118636  0.19521556  1
  B  B13  1  0.96574594  0.65965710  0.47217145  1
  B  B14  1  0.03425406  0.34034290  0.52782855  1
  B  B15  1  0.66217475  0.12881364  0.80478444  1
  B  B16  1  0.60652723  0.20039183  0.58803049  1
  B  B17  1  0.62540404  0.34034290  0.02782855  1
  B  B18  1  0.20901161  0.12881364  0.30478444  1
  B  B19  1  0.19308094  0.20039183  0.08803049  1
  O  O20  1  0.82387554  0.97900793  0.62529783  1
  O  O21  1  0.48586232  0.82399351  0.93458663  1
  O  O22  1  0.48357040  0.85507104  0.69878134  1
  O  O23  1  0.03104423  0.74132688  0.97180974  1
  O  O24  1  0.19711654  0.97900793  0.12529783  1
  O  O25  1  0.69014416  0.82399351  0.43458663  1
  O  O26  1  0.90462332  0.63516055  0.86200542  1
  O  O27  1  0.66135856  0.85507104  0.19878134  1
  O  O28  1  0.22762889  0.74132688  0.47180974  1
  O  O29  1  0.05761612  0.65112249  0.70607571  1
  O  O30  1  0.93304117  0.57995576  0.54813243  1
  O  O31  1  0.51299693  0.42004424  0.95186757  1
  O  O32  1  0.46021514  0.63516055  0.36200542  1
  O  O33  1  0.29126139  0.65112249  0.20607571  1
  O  O34  1  0.70873861  0.34887751  0.79392429  1
  O  O35  1  0.53978486  0.36483945  0.63799458  1
  O  O36  1  0.48700307  0.57995576  0.04813243  1
  O  O37  1  0.06695883  0.42004424  0.45186757  1
  O  O38  1  0.94238388  0.34887751  0.29392429  1
  O  O39  1  0.77237111  0.25867312  0.52819026  1
  O  O40  1  0.33864144  0.14492896  0.80121866  1
  O  O41  1  0.09537668  0.36483945  0.13799458  1
  O  O42  1  0.30985584  0.17600649  0.56541337  1
  O  O43  1  0.80288346  0.02099207  0.87470217  1
  O  O44  1  0.85465402  0.00000000  0.75000000  1
  O  O45  1  0.96895577  0.25867312  0.02819026  1
  O  O46  1  0.51642960  0.14492896  0.30121866  1
  O  O47  1  0.51413768  0.17600649  0.06541337  1
  O  O48  1  0.17612446  0.02099207  0.37470217  1
  O  O49  1  0.14534598  0.00000000  0.25000000  1
