# generated using pymatgen
data_Li4Mn3Co3(TeO8)2
_symmetry_space_group_name_H-M   'P 1'
_cell_length_a   5.99430843
_cell_length_b   6.00385334
_cell_length_c   9.83414235
_cell_angle_alpha   90.05680658
_cell_angle_beta   89.31558112
_cell_angle_gamma   120.42929370
_symmetry_Int_Tables_number   1
_chemical_formula_structural   Li4Mn3Co3(TeO8)2
_chemical_formula_sum   'Li4 Mn3 Co3 Te2 O16'
_cell_volume   305.14259062
_cell_formula_units_Z   1
loop_
 _symmetry_equiv_pos_site_id
 _symmetry_equiv_pos_as_xyz
  1  'x, y, z'
loop_
 _atom_site_type_symbol
 _atom_site_label
 _atom_site_symmetry_multiplicity
 _atom_site_fract_x
 _atom_site_fract_y
 _atom_site_fract_z
 _atom_site_occupancy
  Li  Li0  1  0.33855867  0.66865430  0.91314895  1
  Li  Li1  1  0.00893910  0.00397694  0.98474197  1
  Li  Li2  1  0.00556217  0.00325891  0.48308650  1
  Li  Li3  1  0.66349575  0.33039977  0.41155897  1
  Mn  Mn4  1  0.66069175  0.83116983  0.20858563  1
  Mn  Mn5  1  0.82962543  0.66044699  0.71075621  1
  Mn  Mn6  1  0.83008971  0.16966669  0.71081108  1
  Co  Co7  1  0.16848303  0.82700133  0.21357069  1
  Co  Co8  1  0.17248077  0.34596266  0.21836178  1
  Co  Co9  1  0.34237062  0.17153126  0.71627058  1
  Te  Te10  1  0.32672099  0.66487806  0.48308184  1
  Te  Te11  1  0.66917686  0.33626500  0.98364013  1
  O  O12  1  0.16291198  0.82544407  0.58825295  1
  O  O13  1  0.03465847  0.51209371  0.35184437  1
  O  O14  1  0.33828546  0.65600088  0.11545286  1
  O  O15  1  0.99434836  0.00897621  0.29300125  1
  O  O16  1  0.98257752  0.99141479  0.79407652  1
  O  O17  1  0.16426955  0.33876203  0.58864593  1
  O  O18  1  0.47965267  0.96158739  0.35526960  1
  O  O19  1  0.47588353  0.51346663  0.35320600  1
  O  O20  1  0.34218398  0.17250770  0.08591856  1
  O  O21  1  0.64819685  0.82340376  0.58630785  1
  O  O22  1  0.52550516  0.48608944  0.85248152  1
  O  O23  1  0.52525024  0.03976541  0.85385826  1
  O  O24  1  0.68480191  0.34237452  0.61529154  1
  O  O25  1  0.82633366  0.65820126  0.08909345  1
  O  O26  1  0.97102106  0.48585213  0.85819019  1
  O  O27  1  0.82792473  0.17114932  0.08933682  1
