# generated using pymatgen
data_YTa7O19
_symmetry_space_group_name_H-M   'P 1'
_cell_length_a   6.26644077
_cell_length_b   6.26644229
_cell_length_c   20.11357120
_cell_angle_alpha   89.99987396
_cell_angle_beta   89.99978569
_cell_angle_gamma   119.99983285
_symmetry_Int_Tables_number   1
_chemical_formula_structural   YTa7O19
_chemical_formula_sum   'Y2 Ta14 O38'
_cell_volume   684.01013057
_cell_formula_units_Z   2
loop_
 _symmetry_equiv_pos_site_id
 _symmetry_equiv_pos_as_xyz
  1  'x, y, z'
loop_
 _atom_site_type_symbol
 _atom_site_label
 _atom_site_symmetry_multiplicity
 _atom_site_fract_x
 _atom_site_fract_y
 _atom_site_fract_z
 _atom_site_occupancy
  Y  Y0  1  0.33329079  0.66671732  0.99999939  1
  Y  Y1  1  0.33329530  0.66657664  0.49999977  1
  Ta  Ta2  1  0.36033317  0.36022040  0.15544596  1
  Ta  Ta3  1  0.36032948  0.36022168  0.34454173  1
  Ta  Ta4  1  0.63978897  0.63967692  0.65545553  1
  Ta  Ta5  1  0.63978820  0.63967673  0.84455245  1
  Ta  Ta6  1  0.36033478  0.00011248  0.84454561  1
  Ta  Ta7  1  0.36033705  0.00010999  0.65544967  1
  Ta  Ta8  1  0.66665791  0.33332020  0.49999978  1
  Ta  Ta9  1  0.66666197  0.33333958  0.00000026  1
  Ta  Ta10  1  0.63978713  0.00010887  0.15545215  1
  Ta  Ta11  1  0.63978242  0.00011073  0.34455046  1
  Ta  Ta12  1  0.99989291  0.63967172  0.15545321  1
  Ta  Ta13  1  0.99989137  0.63967198  0.34454910  1
  Ta  Ta14  1  0.99989556  0.36021666  0.84455000  1
  Ta  Ta15  1  0.99989620  0.36021871  0.65545491  1
  O  O16  1  0.99976510  0.75267774  0.65328128  1
  O  O17  1  0.99976476  0.75268008  0.84671974  1
  O  O18  1  0.04241787  0.62648125  0.25000196  1
  O  O19  1  0.24732581  0.00024034  0.34671818  1
  O  O20  1  0.24732394  0.00024071  0.15328492  1
  O  O21  1  0.04241649  0.41593163  0.74999854  1
  O  O22  1  0.99976486  0.24708932  0.15328098  1
  O  O23  1  0.99975954  0.24709304  0.34671864  1
  O  O24  1  0.37352843  0.95758868  0.74999694  1
  O  O25  1  0.33333446  0.66667401  0.13101841  1
  O  O26  1  0.33333316  0.66666750  0.86897840  1
  O  O27  1  0.33333430  0.66666008  0.63101825  1
  O  O28  1  0.33333635  0.66666361  0.36898129  1
  O  O29  1  0.58407252  0.95758393  0.25000256  1
  O  O30  1  0.24732461  0.24708040  0.65328447  1
  O  O31  1  0.24732491  0.24708275  0.84671476  1
  O  O32  1  0.37351942  0.41593681  0.24999965  1
  O  O33  1  0.42801164  0.38300896  0.05569834  1
  O  O34  1  0.42800024  0.38299562  0.44430485  1
  O  O35  1  0.75290810  0.00024077  0.84672022  1
  O  O36  1  0.75290830  0.00024199  0.65328112  1
  O  O37  1  0.58407455  0.62649073  0.74999919  1
  O  O38  1  0.61699396  0.57199129  0.94430247  1
  O  O39  1  0.61699982  0.57198458  0.55569645  1
  O  O40  1  0.75290931  0.75266723  0.15328194  1
  O  O41  1  0.75291452  0.75267585  0.34671566  1
  O  O42  1  0.42801640  0.04500754  0.55569689  1
  O  O43  1  0.42800501  0.04500577  0.94430465  1
  O  O44  1  0.66666482  0.33333277  0.33352730  1
  O  O45  1  0.66667120  0.33333749  0.83352871  1
  O  O46  1  0.66667157  0.33333593  0.66647080  1
  O  O47  1  0.66666960  0.33333292  0.16647292  1
  O  O48  1  0.61700014  0.04501689  0.05569907  1
  O  O49  1  0.61699509  0.04500394  0.44430266  1
  O  O50  1  0.95499620  0.57200257  0.05569613  1
  O  O51  1  0.95498261  0.57197720  0.44430147  1
  O  O52  1  0.95500124  0.38299888  0.55569399  1
  O  O53  1  0.95499197  0.38300561  0.94430319  1
