# generated using pymatgen
data_Li8TiO6
_symmetry_space_group_name_H-M   'P 1'
_cell_length_a   5.60440080
_cell_length_b   5.60433259
_cell_length_c   10.92017701
_cell_angle_alpha   90.00022447
_cell_angle_beta   89.99976651
_cell_angle_gamma   120.00017395
_symmetry_Int_Tables_number   1
_chemical_formula_structural   Li8TiO6
_chemical_formula_sum   'Li16 Ti2 O12'
_cell_volume   297.03842635
_cell_formula_units_Z   2
loop_
 _symmetry_equiv_pos_site_id
 _symmetry_equiv_pos_as_xyz
  1  'x, y, z'
loop_
 _atom_site_type_symbol
 _atom_site_label
 _atom_site_symmetry_multiplicity
 _atom_site_fract_x
 _atom_site_fract_y
 _atom_site_fract_z
 _atom_site_occupancy
  Li  Li0  1  0.99998592  0.68302992  0.76820432  1
  Li  Li1  1  -0.00000046  0.60455410  0.12862847  1
  Li  Li2  1  0.99998793  0.39544541  0.62862734  1
  Li  Li3  1  0.99999899  0.31696944  0.26820548  1
  Li  Li4  1  0.33332918  0.66667604  0.40697620  1
  Li  Li5  1  0.33331863  0.66665523  0.90697412  1
  Li  Li6  1  0.31694678  0.31694692  0.76820102  1
  Li  Li7  1  0.39544302  0.39545348  0.12862660  1
  Li  Li8  1  0.60454056  0.60454468  0.62862728  1
  Li  Li9  1  0.31696613  0.00001856  0.26820483  1
  Li  Li10  1  0.68303326  0.68305212  0.26820253  1
  Li  Li11  1  0.39544970  0.99999380  0.62862639  1
  Li  Li12  1  0.66665427  0.33332184  0.90697401  1
  Li  Li13  1  0.66667162  0.33334660  0.40697615  1
  Li  Li14  1  0.60454554  0.00001035  0.12862674  1
  Li  Li15  1  0.68302559  0.99998765  0.76820305  1
  Ti  Ti16  1  0.99998884  0.99998925  0.99564883  1
  Ti  Ti17  1  0.99999515  0.00003286  0.49566595  1
  O  O18  1  0.99998673  0.68691502  0.94907821  1
  O  O19  1  0.99999700  0.31307085  0.44907862  1
  O  O20  1  0.33332940  0.66666259  0.21601082  1
  O  O21  1  0.99999787  0.00001525  0.16629298  1
  O  O22  1  0.99997886  0.99997850  0.66628362  1
  O  O23  1  0.33333267  0.66667471  0.71600948  1
  O  O24  1  0.31307140  0.31307511  0.94907215  1
  O  O25  1  0.31309645  0.00001204  0.44907090  1
  O  O26  1  0.68689276  0.68690777  0.44906528  1
  O  O27  1  0.66666786  0.33333985  0.71600976  1
  O  O28  1  0.66666409  0.33333156  0.21601396  1
  O  O29  1  0.68690226  0.99998950  0.94907491  1
