# generated using pymatgen
data_LiFeSbO4
_symmetry_space_group_name_H-M   'P 1'
_cell_length_a   6.23612144
_cell_length_b   6.23611957
_cell_length_c   8.62569589
_cell_angle_alpha   89.99918755
_cell_angle_beta   89.99994178
_cell_angle_gamma   89.98444720
_symmetry_Int_Tables_number   1
_chemical_formula_structural   LiFeSbO4
_chemical_formula_sum   'Li4 Fe4 Sb4 O16'
_cell_volume   335.44639092
_cell_formula_units_Z   4
loop_
 _symmetry_equiv_pos_site_id
 _symmetry_equiv_pos_as_xyz
  1  'x, y, z'
loop_
 _atom_site_type_symbol
 _atom_site_label
 _atom_site_symmetry_multiplicity
 _atom_site_fract_x
 _atom_site_fract_y
 _atom_site_fract_z
 _atom_site_occupancy
  Li  Li0  1  0.99999294  0.21263610  0.00003657  1
  Li  Li1  1  0.99997508  0.78736763  0.49998322  1
  Li  Li2  1  0.21262292  0.00000233  0.24998618  1
  Li  Li3  1  0.78735684  0.99998181  0.74999207  1
  Fe  Fe4  1  0.24380648  0.24376981  0.62501659  1
  Fe  Fe5  1  0.24359166  0.75640793  0.87500450  1
  Fe  Fe6  1  0.75637959  0.24362139  0.37500108  1
  Fe  Fe7  1  0.75618428  0.75616547  0.12499076  1
  Sb  Sb8  1  0.23389638  0.50001852  0.24997010  1
  Sb  Sb9  1  0.50002004  0.23389340  0.00002306  1
  Sb  Sb10  1  0.49998803  0.76612096  0.50001866  1
  Sb  Sb11  1  0.76612149  0.49998460  0.74998409  1
  O  O12  1  0.02413958  0.26702091  0.25163829  1
  O  O13  1  0.02410309  0.73305326  0.24827177  1
  O  O14  1  0.26698801  0.02414870  0.99838816  1
  O  O15  1  0.26692811  0.97589300  0.50170855  1
  O  O16  1  0.27056333  0.47743351  0.01500153  1
  O  O17  1  0.27048522  0.52267599  0.48498545  1
  O  O18  1  0.47740069  0.27053458  0.23501033  1
  O  O19  1  0.47730270  0.72954991  0.26500576  1
  O  O20  1  0.52270100  0.27045611  0.76501626  1
  O  O21  1  0.52258562  0.72946277  0.73499907  1
  O  O22  1  0.72949450  0.52261605  0.51498741  1
  O  O23  1  0.72958030  0.47727883  0.98499080  1
  O  O24  1  0.73304796  0.02409587  0.00172725  1
  O  O25  1  0.73297386  0.97587793  0.49836085  1
  O  O26  1  0.97590073  0.26692863  0.74828874  1
  O  O27  1  0.97586958  0.73300401  0.75161287  1
