# generated using pymatgen
data_La2P4O13
_symmetry_space_group_name_H-M   'P 1'
_cell_length_a   7.34803024
_cell_length_b   9.84419403
_cell_length_c   8.91831731
_cell_angle_alpha   90.00000000
_cell_angle_beta   90.00000000
_cell_angle_gamma   68.08587566
_symmetry_Int_Tables_number   1
_chemical_formula_structural   La2P4O13
_chemical_formula_sum   'La4 P8 O26'
_cell_volume   598.49745040
_cell_formula_units_Z   2
loop_
 _symmetry_equiv_pos_site_id
 _symmetry_equiv_pos_as_xyz
  1  'x, y, z'
loop_
 _atom_site_type_symbol
 _atom_site_label
 _atom_site_symmetry_multiplicity
 _atom_site_fract_x
 _atom_site_fract_y
 _atom_site_fract_z
 _atom_site_occupancy
  La  La0  1  0.39795542  0.70633803  0.39249659  1
  La  La1  1  0.89570655  0.70633803  0.60750341  1
  La  La2  1  0.60204458  0.29366197  0.89249659  1
  La  La3  1  0.10429345  0.29366197  0.10750341  1
  P  P4  1  0.27364686  0.88285373  0.01816858  1
  P  P5  1  0.84349941  0.88285373  0.98183142  1
  P  P6  1  0.90295364  0.68337384  0.24467486  1
  P  P7  1  0.41367352  0.68337384  0.75532514  1
  P  P8  1  0.58632648  0.31662616  0.25532514  1
  P  P9  1  0.09704636  0.31662616  0.74467486  1
  P  P10  1  0.15650059  0.11714627  0.48183142  1
  P  P11  1  0.72635314  0.11714627  0.51816858  1
  O  O12  1  0.29145762  0.96113636  0.46206805  1
  O  O13  1  0.74740602  0.96113636  0.53793195  1
  O  O14  1  0.06217018  0.87566065  0.00000000  1
  O  O15  1  0.79638308  0.82777852  0.14094824  1
  O  O16  1  0.37583839  0.82777852  0.85905176  1
  O  O17  1  0.37892834  0.77559479  0.13920296  1
  O  O18  1  0.84547688  0.77559479  0.86079704  1
  O  O19  1  0.06003957  0.71206089  0.34114353  1
  O  O20  1  0.22789954  0.71206089  0.65885647  1
  O  O21  1  0.57718460  0.67986351  0.64537968  1
  O  O22  1  0.74295289  0.67986351  0.35462032  1
  O  O23  1  0.98066985  0.55120709  0.14288020  1
  O  O24  1  0.46812306  0.55120709  0.85711980  1
  O  O25  1  0.53187694  0.44879291  0.35711980  1
  O  O26  1  0.01933015  0.44879291  0.64288020  1
  O  O27  1  0.42281540  0.32013649  0.14537968  1
  O  O28  1  0.25704711  0.32013649  0.85462032  1
  O  O29  1  0.93996043  0.28793911  0.84114353  1
  O  O30  1  0.77210046  0.28793911  0.15885647  1
  O  O31  1  0.15452312  0.22440521  0.36079704  1
  O  O32  1  0.62107166  0.22440521  0.63920296  1
  O  O33  1  0.62416161  0.17222148  0.35905176  1
  O  O34  1  0.20361692  0.17222148  0.64094824  1
  O  O35  1  0.93782982  0.12433935  0.50000000  1
  O  O36  1  0.70854238  0.03886364  0.96206805  1
  O  O37  1  0.25259398  0.03886364  0.03793195  1
