# generated using pymatgen
data_Li2CoGeO4
_symmetry_space_group_name_H-M   'P 1'
_cell_length_a   6.33688805
_cell_length_b   5.55456005
_cell_length_c   5.09847193
_cell_angle_alpha   90.00000000
_cell_angle_beta   90.00000000
_cell_angle_gamma   90.00000000
_symmetry_Int_Tables_number   1
_chemical_formula_structural   Li2CoGeO4
_chemical_formula_sum   'Li4 Co2 Ge2 O8'
_cell_volume   179.45920258
_cell_formula_units_Z   2
loop_
 _symmetry_equiv_pos_site_id
 _symmetry_equiv_pos_as_xyz
  1  'x, y, z'
loop_
 _atom_site_type_symbol
 _atom_site_label
 _atom_site_symmetry_multiplicity
 _atom_site_fract_x
 _atom_site_fract_y
 _atom_site_fract_z
 _atom_site_occupancy
  Li  Li0  1  0.25067308  0.33396470  0.99479068  1
  Li  Li1  1  0.24932692  0.66603530  0.49479068  1
  Li  Li2  1  0.74932692  0.33396470  0.99479068  1
  Li  Li3  1  0.75067308  0.66603530  0.49479068  1
  Co  Co4  1  0.00000000  0.83396889  0.99641140  1
  Co  Co5  1  0.50000000  0.16603111  0.49641140  1
  Ge  Ge6  1  0.00000000  0.16832538  0.50051309  1
  Ge  Ge7  1  0.50000000  0.83167462  0.00051309  1
  O  O8  1  0.00000000  0.16785803  0.85028842  1
  O  O9  1  0.00000000  0.86338196  0.38901905  1
  O  O10  1  0.27041063  0.67702010  0.88709284  1
  O  O11  1  0.22958937  0.32297990  0.38709284  1
  O  O12  1  0.50000000  0.13661804  0.88901905  1
  O  O13  1  0.50000000  0.83214197  0.35028842  1
  O  O14  1  0.77041063  0.32297990  0.38709284  1
  O  O15  1  0.72958937  0.67702010  0.88709284  1
