# generated using pymatgen
data_Li10Fe9CoO20
_symmetry_space_group_name_H-M   'P 1'
_cell_length_a   21.25559234
_cell_length_b   2.97297356
_cell_length_c   5.97913580
_cell_angle_alpha   90.00000860
_cell_angle_beta   82.45841951
_cell_angle_gamma   90.00000803
_symmetry_Int_Tables_number   1
_chemical_formula_structural   Li10Fe9CoO20
_chemical_formula_sum   'Li10 Fe9 Co1 O20'
_cell_volume   374.56710417
_cell_formula_units_Z   1
loop_
 _symmetry_equiv_pos_site_id
 _symmetry_equiv_pos_as_xyz
  1  'x, y, z'
loop_
 _atom_site_type_symbol
 _atom_site_label
 _atom_site_symmetry_multiplicity
 _atom_site_fract_x
 _atom_site_fract_y
 _atom_site_fract_z
 _atom_site_occupancy
  Li  Li0  1  0.89999951  0.50000000  0.79999367  1
  Li  Li1  1  0.80172912  0.00000000  0.59691649  1
  Li  Li2  1  0.69934876  0.50000000  0.40033449  1
  Li  Li3  1  0.60009416  0.00000000  0.19974858  1
  Li  Li4  1  0.40000049  0.00000000  0.79996420  1
  Li  Li5  1  0.49996947  0.50000000  0.00001282  1
  Li  Li6  1  0.30003109  0.50000000  0.59997070  1
  Li  Li7  1  0.19990475  1.00000000  0.40029482  1
  Li  Li8  1  0.10065155  0.50000000  0.19968824  1
  Li  Li9  1  0.99826806  1.00000000  0.00312537  1
  Fe  Fe10  1  0.70129369  0.50000000  0.90081663  1
  Fe  Fe11  1  0.80221937  0.00000000  0.10472058  1
  Fe  Fe12  1  0.60024261  0.00000000  0.70077040  1
  Fe  Fe13  1  0.50003070  0.50000000  0.50012728  1
  Fe  Fe14  1  0.39999787  0.00000000  0.29999717  1
  Fe  Fe15  1  0.19976138  1.00000000  0.89922589  1
  Fe  Fe16  1  0.29996770  0.50000000  0.09986250  1
  Fe  Fe17  1  0.09870261  0.50000000  0.69917837  1
  Fe  Fe18  1  0.99777986  1.00000000  0.49526947  1
  Co  Co19  1  0.89999902  0.50000000  0.30000249  1
  O  O20  1  0.90175287  0.00000000  0.51941418  1
  O  O21  1  0.99361324  0.50000000  0.26447599  1
  O  O22  1  0.89824605  1.00000000  0.08057551  1
  O  O23  1  0.79893459  0.50000000  0.86699729  1
  O  O24  1  0.80638856  0.50000000  0.33553502  1
  O  O25  1  0.69784282  0.00000000  0.66489372  1
  O  O26  1  0.70379808  1.00000000  0.13614771  1
  O  O27  1  0.60323743  0.50000000  0.93491708  1
  O  O28  1  0.50281100  1.00000000  0.73504610  1
  O  O29  1  0.59735947  0.50000000  0.46512084  1
  O  O30  1  0.49727197  0.00000000  0.26498700  1
  O  O31  1  0.40273765  0.50000000  0.53505044  1
  O  O32  1  0.29719036  0.00000000  0.86493358  1
  O  O33  1  0.30272587  1.00000000  0.33501240  1
  O  O34  1  0.39726299  0.50000000  0.06494837  1
  O  O35  1  0.10215896  0.00000000  0.93510659  1
  O  O36  1  0.19676464  0.50000000  0.66507930  1
  O  O37  1  0.20264359  0.50000000  0.13488284  1
  O  O38  1  0.09620307  0.00000000  0.46386199  1
  O  O39  1  0.00106501  0.50000000  0.73299390  1
