# generated using pymatgen
data_Na4Cr2C4SO16
_symmetry_space_group_name_H-M   'P 1'
_cell_length_a   9.88472076
_cell_length_b   9.71476870
_cell_length_c   9.88472105
_cell_angle_alpha   60.82608950
_cell_angle_beta   92.39784163
_cell_angle_gamma   60.82609045
_symmetry_Int_Tables_number   1
_chemical_formula_structural   Na4Cr2C4SO16
_chemical_formula_sum   'Na8 Cr4 C8 S2 O32'
_cell_volume   673.28740563
_cell_formula_units_Z   2
loop_
 _symmetry_equiv_pos_site_id
 _symmetry_equiv_pos_as_xyz
  1  'x, y, z'
loop_
 _atom_site_type_symbol
 _atom_site_label
 _atom_site_symmetry_multiplicity
 _atom_site_fract_x
 _atom_site_fract_y
 _atom_site_fract_z
 _atom_site_occupancy
  Na  Na0  1  0.08380712  0.83238577  0.83380712  1
  Na  Na1  1  0.08437550  0.25000000  0.83437550  1
  Na  Na2  1  0.33437550  0.75000000  0.58437550  1
  Na  Na3  1  0.33380712  0.33238577  0.58380712  1
  Na  Na4  1  0.66619288  0.66761423  0.41619288  1
  Na  Na5  1  0.66562450  0.25000000  0.41562450  1
  Na  Na6  1  0.91562450  0.75000000  0.16562450  1
  Na  Na7  1  0.91619288  0.16761423  0.16619288  1
  Cr  Cr8  1  0.00000000  0.50000000  0.00000000  1
  Cr  Cr9  1  0.50000000  0.00000000  0.50000000  1
  Cr  Cr10  1  0.50000000  0.50000000  0.00000000  1
  Cr  Cr11  1  0.50000000  0.00000000  0.00000000  1
  C  C12  1  0.36139540  0.92777675  0.78042272  1
  C  C13  1  0.28042272  0.42777675  0.86139540  1
  C  C14  1  0.71082785  0.92777675  0.79180053  1
  C  C15  1  0.70819947  0.57222325  0.78917215  1
  C  C16  1  0.29180053  0.42777675  0.21082785  1
  C  C17  1  0.28917215  0.07222325  0.20819947  1
  C  C18  1  0.71957728  0.57222325  0.13860460  1
  C  C19  1  0.63860460  0.07222325  0.21957728  1
  S  S20  1  0.12500000  0.75000000  0.37500000  1
  S  S21  1  0.87500000  0.25000000  0.62500000  1
  O  O22  1  0.35603838  0.78895927  0.89314663  1
  O  O23  1  0.06605854  0.87705364  0.43459239  1
  O  O24  1  0.36463601  0.95091963  0.64083730  1
  O  O25  1  0.14083730  0.45091963  0.86463601  1
  O  O26  1  0.68444336  0.95091963  0.90824307  1
  O  O27  1  0.30543621  0.55032126  0.85547459  1
  O  O28  1  0.05688782  0.87705364  0.18835496  1
  O  O29  1  0.06540761  0.62294636  0.43394146  1
  O  O30  1  0.40579585  0.94967874  0.35575747  1
  O  O31  1  0.59175693  0.54908037  0.81555664  1
  O  O32  1  0.39314663  0.28895927  0.85603838  1
  O  O33  1  0.31164504  0.62294636  0.44311218  1
  O  O34  1  0.85500135  0.78895927  0.81789310  1
  O  O35  1  0.68210690  0.71104073  0.64499865  1
  O  O36  1  0.35547459  0.05032126  0.80543621  1
  O  O37  1  0.14424253  0.55032126  0.09420415  1
  O  O38  1  0.85575747  0.44967874  0.90579585  1
  O  O39  1  0.64452541  0.94967874  0.19456379  1
  O  O40  1  0.31789310  0.28895927  0.35500135  1
  O  O41  1  0.14499865  0.21103973  0.18210690  1
  O  O42  1  0.68835496  0.37705364  0.55688782  1
  O  O43  1  0.60685337  0.71104073  0.14396162  1
  O  O44  1  0.40824307  0.45091963  0.18444336  1
  O  O45  1  0.59420415  0.05032126  0.64424253  1
  O  O46  1  0.93459239  0.37705364  0.56605854  1
  O  O47  1  0.94311218  0.12294636  0.81164504  1
  O  O48  1  0.69456379  0.44967874  0.14452541  1
  O  O49  1  0.31555664  0.04908037  0.09175693  1
  O  O50  1  0.85916270  0.54908037  0.13536399  1
  O  O51  1  0.63536399  0.04908037  0.35916270  1
  O  O52  1  0.93394146  0.12294636  0.56540761  1
  O  O53  1  0.64396162  0.21103973  0.10685337  1
