# generated using pymatgen
data_RbFeO2
_symmetry_space_group_name_H-M   'P 1'
_cell_length_a   6.01545322
_cell_length_b   5.98370960
_cell_length_c   8.19635939
_cell_angle_alpha   90.00000000
_cell_angle_beta   90.00000000
_cell_angle_gamma   90.00000000
_symmetry_Int_Tables_number   1
_chemical_formula_structural   RbFeO2
_chemical_formula_sum   'Rb4 Fe4 O8'
_cell_volume   295.02570373
_cell_formula_units_Z   4
loop_
 _symmetry_equiv_pos_site_id
 _symmetry_equiv_pos_as_xyz
  1  'x, y, z'
loop_
 _atom_site_type_symbol
 _atom_site_label
 _atom_site_symmetry_multiplicity
 _atom_site_fract_x
 _atom_site_fract_y
 _atom_site_fract_z
 _atom_site_occupancy
  Rb  Rb0  1  0.06394544  0.01415241  0.62226217  1
  Rb  Rb1  1  0.43605456  0.51415241  0.12226217  1
  Rb  Rb2  1  0.56394544  0.01415241  0.87773783  1
  Rb  Rb3  1  0.93605456  0.51415241  0.37773783  1
  Fe  Fe4  1  0.04628895  0.00113668  0.12656146  1
  Fe  Fe5  1  0.45371105  0.50113668  0.62656146  1
  Fe  Fe6  1  0.54628895  0.00113668  0.37343854  1
  Fe  Fe7  1  0.95371105  0.50113668  0.87343854  1
  O  O8  1  0.00694227  0.70186660  0.05001516  1
  O  O9  1  0.15034902  0.54296431  0.69280296  1
  O  O10  1  0.34965098  0.04296431  0.19280296  1
  O  O11  1  0.49305773  0.20186760  0.55001516  1
  O  O12  1  0.50694227  0.70186660  0.44998484  1
  O  O13  1  0.65034902  0.54296431  0.80719704  1
  O  O14  1  0.84965098  0.04296431  0.30719704  1
  O  O15  1  0.99305773  0.20186760  0.94998484  1
