# generated using pymatgen
data_Nb3Co(PO4)6
_symmetry_space_group_name_H-M   'P 1'
_cell_length_a   8.91444373
_cell_length_b   8.91444384
_cell_length_c   8.91444389
_cell_angle_alpha   58.46254356
_cell_angle_beta   58.46254925
_cell_angle_gamma   58.46254681
_symmetry_Int_Tables_number   1
_chemical_formula_structural   Nb3Co(PO4)6
_chemical_formula_sum   'Nb3 Co1 P6 O24'
_cell_volume   483.29797908
_cell_formula_units_Z   1
loop_
 _symmetry_equiv_pos_site_id
 _symmetry_equiv_pos_as_xyz
  1  'x, y, z'
loop_
 _atom_site_type_symbol
 _atom_site_label
 _atom_site_symmetry_multiplicity
 _atom_site_fract_x
 _atom_site_fract_y
 _atom_site_fract_z
 _atom_site_occupancy
  Nb  Nb0  1  0.14006009  0.14006009  0.14006009  1
  Nb  Nb1  1  0.35832998  0.35832998  0.35832998  1
  Nb  Nb2  1  0.63862677  0.63862677  0.63862677  1
  Co  Co3  1  0.85576896  0.85576896  0.85576896  1
  P  P4  1  0.02974853  0.75048356  0.47700319  1
  P  P5  1  0.47700319  0.02974853  0.75048356  1
  P  P6  1  0.75048356  0.47700319  0.02974853  1
  P  P7  1  0.23534089  0.54476306  0.96474138  1
  P  P8  1  0.54476306  0.96474138  0.23534089  1
  P  P9  1  0.96474138  0.23534089  0.54476306  1
  O  O10  1  0.13335087  0.27786027  0.50439628  1
  O  O11  1  0.27786027  0.50439628  0.13335087  1
  O  O12  1  0.06011728  0.91979629  0.29251696  1
  O  O13  1  0.50439628  0.13335087  0.27786027  1
  O  O14  1  0.20912971  0.57940785  0.43919061  1
  O  O15  1  0.00993032  0.77570641  0.64217734  1
  O  O16  1  0.29251696  0.06011728  0.91979629  1
  O  O17  1  0.43919061  0.20912971  0.57940785  1
  O  O18  1  0.57940785  0.43919061  0.20912971  1
  O  O19  1  0.21769179  0.36608793  0.99551305  1
  O  O20  1  0.06855640  0.72090540  0.94029474  1
  O  O21  1  0.36608793  0.99551305  0.21769179  1
  O  O22  1  0.64217734  0.00993032  0.77570641  1
  O  O23  1  0.91979629  0.29251696  0.06011728  1
  O  O24  1  0.77570641  0.64217734  0.00993032  1
  O  O25  1  0.41676611  0.56341372  0.78983167  1
  O  O26  1  0.56341372  0.78983167  0.41676611  1
  O  O27  1  0.72090540  0.94029474  0.06855640  1
  O  O28  1  0.99551305  0.21769179  0.36608793  1
  O  O29  1  0.78983167  0.41676611  0.56341372  1
  O  O30  1  0.49907016  0.86344104  0.71998140  1
  O  O31  1  0.94029474  0.06855640  0.72090540  1
  O  O32  1  0.71998140  0.49907016  0.86344104  1
  O  O33  1  0.86344104  0.71998140  0.49907016  1
