# generated using pymatgen
data_Li2ScFe(SiO3)4
_symmetry_space_group_name_H-M   'P 1'
_cell_length_a   6.65927478
_cell_length_b   6.65927478
_cell_length_c   5.38657916
_cell_angle_alpha   75.01758480
_cell_angle_beta   104.98241520
_cell_angle_gamma   96.10740810
_symmetry_Int_Tables_number   1
_chemical_formula_structural   Li2ScFe(SiO3)4
_chemical_formula_sum   'Li2 Sc1 Fe1 Si4 O12'
_cell_volume   222.70772395
_cell_formula_units_Z   1
loop_
 _symmetry_equiv_pos_site_id
 _symmetry_equiv_pos_as_xyz
  1  'x, y, z'
loop_
 _atom_site_type_symbol
 _atom_site_label
 _atom_site_symmetry_multiplicity
 _atom_site_fract_x
 _atom_site_fract_y
 _atom_site_fract_z
 _atom_site_occupancy
  Li  Li0  1  0.74216489  0.74216489  0.75000000  1
  Li  Li1  1  0.25565000  0.25565000  0.25000000  1
  Sc  Sc2  1  0.10159161  0.10159161  0.75000000  1
  Fe  Fe3  1  0.89323205  0.89323205  0.25000000  1
  Si  Si4  1  0.20819633  0.61655132  0.76755766  1
  Si  Si5  1  0.38603772  0.79219092  0.27152461  1
  Si  Si6  1  0.61655132  0.20819633  0.73244234  1
  Si  Si7  1  0.79219092  0.38603772  0.22847539  1
  O  O8  1  0.02928753  0.79421907  0.64572285  1
  O  O9  1  0.20446468  0.96620478  0.16095578  1
  O  O10  1  0.11441848  0.38021659  0.83205371  1
  O  O11  1  0.35760271  0.64538996  0.55886953  1
  O  O12  1  0.62501017  0.88467431  0.33211231  1
  O  O13  1  0.35288317  0.65001472  0.05411480  1
  O  O14  1  0.64538996  0.35760271  0.94113047  1
  O  O15  1  0.38021659  0.11441848  0.66794629  1
  O  O16  1  0.65001472  0.35288317  0.44588520  1
  O  O17  1  0.88467431  0.62501017  0.16788769  1
  O  O18  1  0.79421907  0.02928753  0.85427715  1
  O  O19  1  0.96620478  0.20446468  0.33904422  1
