# generated using pymatgen
data_Li4Mn3Fe(BO3)4
_symmetry_space_group_name_H-M   'P 1'
_cell_length_a   5.24916053
_cell_length_b   5.23594150
_cell_length_c   10.49638404
_cell_angle_alpha   89.22144836
_cell_angle_beta   91.01177066
_cell_angle_gamma   60.21754119
_symmetry_Int_Tables_number   1
_chemical_formula_structural   Li4Mn3Fe(BO3)4
_chemical_formula_sum   'Li4 Mn3 Fe1 B4 O12'
_cell_volume   250.25969508
_cell_formula_units_Z   1
loop_
 _symmetry_equiv_pos_site_id
 _symmetry_equiv_pos_as_xyz
  1  'x, y, z'
loop_
 _atom_site_type_symbol
 _atom_site_label
 _atom_site_symmetry_multiplicity
 _atom_site_fract_x
 _atom_site_fract_y
 _atom_site_fract_z
 _atom_site_occupancy
  Li  Li0  1  0.32133540  0.65215122  0.33189274  1
  Li  Li1  1  0.34882037  0.67862377  0.83181152  1
  Li  Li2  1  0.65339931  0.33803895  0.58305315  1
  Li  Li3  1  0.66214897  0.34884405  0.08288477  1
  Mn  Mn4  1  0.32620195  0.00646388  0.11790445  1
  Mn  Mn5  1  0.67663285  0.00210045  0.86716533  1
  Mn  Mn6  1  0.99596164  0.66947654  0.61495585  1
  Fe  Fe7  1  0.99573867  0.31719791  0.36762157  1
  B  B8  1  0.00268591  0.34149448  0.87412809  1
  B  B9  1  0.33492141  0.00317563  0.62303542  1
  B  B10  1  0.66128442  0.99690640  0.37377317  1
  B  B11  1  0.99414561  0.66623371  0.12582238  1
  O  O12  1  0.07111635  0.24568305  0.58047882  1
  O  O13  1  0.25307814  0.07053102  0.90442427  1
  O  O14  1  0.03305675  0.57901887  0.83236981  1
  O  O15  1  0.57761170  0.03702700  0.65361677  1
  O  O16  1  0.26774206  0.64208938  0.13972310  1
  O  O17  1  0.35829092  0.73005032  0.63814194  1
  O  O18  1  0.64033265  0.27147796  0.38755248  1
  O  O19  1  0.72829787  0.37085476  0.88885137  1
  O  O20  1  0.41494092  0.97887573  0.33588592  1
  O  O21  1  0.96176247  0.42240048  0.15686949  1
  O  O22  1  0.75165737  0.92928858  0.08297345  1
  O  O23  1  0.92823529  0.74259687  0.40126216  1
