# generated using pymatgen
data_Li2MnV(P2O7)2
_symmetry_space_group_name_H-M   'P 1'
_cell_length_a   9.73260354
_cell_length_b   8.31238506
_cell_length_c   7.15444541
_cell_angle_alpha   90.00000000
_cell_angle_beta   69.15100753
_cell_angle_gamma   90.00000000
_symmetry_Int_Tables_number   1
_chemical_formula_structural   Li2MnV(P2O7)2
_chemical_formula_sum   'Li4 Mn2 V2 P8 O28'
_cell_volume   540.90381618
_cell_formula_units_Z   2
loop_
 _symmetry_equiv_pos_site_id
 _symmetry_equiv_pos_as_xyz
  1  'x, y, z'
loop_
 _atom_site_type_symbol
 _atom_site_label
 _atom_site_symmetry_multiplicity
 _atom_site_fract_x
 _atom_site_fract_y
 _atom_site_fract_z
 _atom_site_occupancy
  Li  Li0  1  0.24726057  0.36035774  0.32670010  1
  Li  Li1  1  0.25273943  0.86035774  0.67329990  1
  Li  Li2  1  0.74986193  0.35997135  0.32569893  1
  Li  Li3  1  0.75013807  0.85997135  0.67430107  1
  Mn  Mn4  1  0.75915518  0.99815909  0.27077406  1
  Mn  Mn5  1  0.74084482  0.49815909  0.72922594  1
  V  V6  1  0.25642055  0.00002913  0.27215938  1
  V  V7  1  0.24357945  0.50002913  0.72784062  1
  P  P8  1  0.06284119  0.78333543  0.08608406  1
  P  P9  1  0.05991017  0.67970896  0.47784875  1
  P  P10  1  0.44008983  0.17970896  0.52215125  1
  P  P11  1  0.56365874  0.78723081  0.09028657  1
  P  P12  1  0.43715881  0.28333543  0.91391594  1
  P  P13  1  0.55998787  0.67913856  0.48233035  1
  P  P14  1  0.94001213  0.17913856  0.51766965  1
  P  P15  1  0.93634126  0.28723081  0.90971343  1
  O  O16  1  0.07799747  0.65260531  0.24674585  1
  O  O17  1  0.15621121  0.93226991  0.08399614  1
  O  O18  1  0.10594234  0.17354852  0.39624981  1
  O  O19  1  0.12958508  0.84257007  0.49272571  1
  O  O20  1  0.14835732  0.53905644  0.51607378  1
  O  O21  1  0.09958785  0.32785331  0.84578004  1
  O  O22  1  0.12547943  0.69562495  0.88592570  1
  O  O23  1  0.37452157  0.19562495  0.11407430  1
  O  O24  1  0.40041215  0.82785331  0.15421996  1
  O  O25  1  0.35164268  0.03905644  0.48392622  1
  O  O26  1  0.37041492  0.34257007  0.50727429  1
  O  O27  1  0.39405766  0.67354852  0.60375019  1
  O  O28  1  0.34378879  0.43226991  0.91600386  1
  O  O29  1  0.42200253  0.15260531  0.75325415  1
  O  O30  1  0.57855444  0.65533054  0.25017860  1
  O  O31  1  0.65646724  0.93772700  0.09266556  1
  O  O32  1  0.60411125  0.17774494  0.39402832  1
  O  O33  1  0.62401914  0.84070873  0.50563175  1
  O  O34  1  0.64546398  0.53451446  0.52150625  1
  O  O35  1  0.59987332  0.32315371  0.85829530  1
  O  O36  1  0.62066859  0.70494103  0.88874956  1
  O  O37  1  0.87933141  0.20494103  0.11125044  1
  O  O38  1  0.90012668  0.82315371  0.14170470  1
  O  O39  1  0.85453602  0.03451446  0.47849375  1
  O  O40  1  0.87598086  0.34070873  0.49436825  1
  O  O41  1  0.89588875  0.67774494  0.60597168  1
  O  O42  1  0.84353276  0.43772700  0.90733444  1
  O  O43  1  0.92144556  0.15533054  0.74982140  1
