# generated using pymatgen
data_Li8MnFe7(BO3)8
_symmetry_space_group_name_H-M   'P 1'
_cell_length_a   6.02617473
_cell_length_b   9.72073755
_cell_length_c   9.71531343
_cell_angle_alpha   65.09720037
_cell_angle_beta   78.52291087
_cell_angle_gamma   79.67351646
_symmetry_Int_Tables_number   1
_chemical_formula_structural   Li8MnFe7(BO3)8
_chemical_formula_sum   'Li8 Mn1 Fe7 B8 O24'
_cell_volume   502.94983319
_cell_formula_units_Z   1
loop_
 _symmetry_equiv_pos_site_id
 _symmetry_equiv_pos_as_xyz
  1  'x, y, z'
loop_
 _atom_site_type_symbol
 _atom_site_label
 _atom_site_symmetry_multiplicity
 _atom_site_fract_x
 _atom_site_fract_y
 _atom_site_fract_z
 _atom_site_occupancy
  Li  Li0  1  0.95545046  0.18501102  0.53412769  1
  Li  Li1  1  0.95510497  0.68552576  0.03323499  1
  Li  Li2  1  0.54483374  0.81555564  0.96644326  1
  Li  Li3  1  0.45569181  0.68461177  0.53366085  1
  Li  Li4  1  0.54659127  0.31550198  0.46736260  1
  Li  Li5  1  0.45480433  0.18313494  0.03311051  1
  Li  Li6  1  0.04483548  0.31495369  0.96468912  1
  Li  Li7  1  0.04576359  0.81530267  0.46667518  1
  Mn  Mn8  1  0.18566966  0.37490697  0.20582580  1
  Fe  Fe9  1  0.81617166  0.62509860  0.79029901  1
  Fe  Fe10  1  0.68475615  0.37170473  0.70750109  1
  Fe  Fe11  1  0.68492273  0.87784853  0.20676114  1
  Fe  Fe12  1  0.81249448  0.12748861  0.29534553  1
  Fe  Fe13  1  0.18355529  0.87247456  0.71025652  1
  Fe  Fe14  1  0.31522843  0.12772311  0.79032144  1
  Fe  Fe15  1  0.31893909  0.62915257  0.29102532  1
  B  B16  1  0.66422917  0.96159189  0.63286918  1
  B  B17  1  0.83509017  0.03748490  0.86790061  1
  B  B18  1  0.83374271  0.53998531  0.36779702  1
  B  B19  1  0.66671683  0.46263130  0.13207035  1
  B  B20  1  0.33681002  0.53721818  0.86638017  1
  B  B21  1  0.16489347  0.46293488  0.63159334  1
  B  B22  1  0.16447008  0.96281940  0.13202929  1
  B  B23  1  0.33201432  0.03506478  0.37008234  1
  O  O24  1  0.82181730  0.89560205  0.98712651  1
  O  O25  1  0.98321731  0.43805969  0.75303194  1
  O  O26  1  0.98400044  0.93750602  0.25303021  1
  O  O27  1  0.83621933  0.84339261  0.63862099  1
  O  O28  1  0.82309022  0.39697040  0.48685315  1
  O  O29  1  0.48349138  0.93783955  0.75417268  1
  O  O30  1  0.83607970  0.34220613  0.13671313  1
  O  O31  1  0.66428408  0.15697235  0.86202079  1
  O  O32  1  0.65929938  0.65660574  0.36209355  1
  O  O33  1  0.51760550  0.56329271  0.74541644  1
  O  O34  1  0.67670900  0.10343435  0.51322588  1
  O  O35  1  0.67901695  0.60437181  0.01271725  1
  O  O36  1  0.32342824  0.39403560  0.98350610  1
  O  O37  1  0.32369928  0.89330791  0.48850885  1
  O  O38  1  0.48718060  0.43846690  0.25427287  1
  O  O39  1  0.33603011  0.34307865  0.63792651  1
  O  O40  1  0.33738253  0.84410510  0.13766142  1
  O  O41  1  0.16513517  0.65567570  0.86282078  1
  O  O42  1  0.51384673  0.06122095  0.24806853  1
  O  O43  1  0.17811717  0.60393614  0.51354716  1
  O  O44  1  0.15913348  0.15255504  0.36526554  1
  O  O45  1  0.01599605  0.06152893  0.74662589  1
  O  O46  1  0.01491595  0.56601484  0.24701293  1
  O  O47  1  0.17752518  0.10409507  0.01239854  1
