# generated using pymatgen
data_Li4MnFe3(BO3)4
_symmetry_space_group_name_H-M   'P 1'
_cell_length_a   6.18446414
_cell_length_b   8.08296305
_cell_length_c   5.16208628
_cell_angle_alpha   88.54469922
_cell_angle_beta   87.94630661
_cell_angle_gamma   78.40415892
_symmetry_Int_Tables_number   1
_chemical_formula_structural   Li4MnFe3(BO3)4
_chemical_formula_sum   'Li4 Mn1 Fe3 B4 O12'
_cell_volume   252.57370947
_cell_formula_units_Z   1
loop_
 _symmetry_equiv_pos_site_id
 _symmetry_equiv_pos_as_xyz
  1  'x, y, z'
loop_
 _atom_site_type_symbol
 _atom_site_label
 _atom_site_symmetry_multiplicity
 _atom_site_fract_x
 _atom_site_fract_y
 _atom_site_fract_z
 _atom_site_occupancy
  Li  Li0  1  0.52357213  0.14745921  0.91421143  1
  Li  Li1  1  0.02669071  0.65004326  0.41865805  1
  Li  Li2  1  0.97754086  0.35057489  0.58398359  1
  Li  Li3  1  0.47456466  0.85069096  0.08407698  1
  Mn  Mn4  1  0.73795017  0.49036033  0.09694310  1
  Fe  Fe5  1  0.75912436  0.01212617  0.40924843  1
  Fe  Fe6  1  0.25187805  0.50998185  0.90643393  1
  Fe  Fe7  1  0.24197577  0.98784749  0.58813673  1
  B  B8  1  0.09311934  0.16880090  0.09330987  1
  B  B9  1  0.40978596  0.32989946  0.40223545  1
  B  B10  1  0.58766266  0.66954135  0.59842306  1
  B  B11  1  0.91049834  0.83244522  0.90526630  1
  O  O12  1  0.25053056  0.04466449  0.97909690  1
  O  O13  1  0.00290041  0.31495841  0.95502766  1
  O  O14  1  0.02795200  0.15213798  0.35594339  1
  O  O15  1  0.50673244  0.18561846  0.54174858  1
  O  O16  1  0.25104903  0.45247543  0.51810174  1
  O  O17  1  0.47209287  0.34605910  0.14036607  1
  O  O18  1  0.51866813  0.65296895  0.85697290  1
  O  O19  1  0.75290114  0.54776402  0.48844465  1
  O  O20  1  0.49462698  0.81343646  0.45614377  1
  O  O21  1  0.97307075  0.84901652  0.64276212  1
  O  O22  1  0.00529777  0.68718417  0.04432377  1
  O  O23  1  0.74981689  0.95394593  0.02014052  1
