# generated using pymatgen
data_Li7Ni5O12
_symmetry_space_group_name_H-M   'P 1'
_cell_length_a   4.92672628
_cell_length_b   4.94852034
_cell_length_c   9.60148951
_cell_angle_alpha   85.03016354
_cell_angle_beta   100.02214338
_cell_angle_gamma   119.85442616
_symmetry_Int_Tables_number   1
_chemical_formula_structural   Li7Ni5O12
_chemical_formula_sum   'Li7 Ni5 O12'
_cell_volume   199.92176030
_cell_formula_units_Z   1
loop_
 _symmetry_equiv_pos_site_id
 _symmetry_equiv_pos_as_xyz
  1  'x, y, z'
loop_
 _atom_site_type_symbol
 _atom_site_label
 _atom_site_symmetry_multiplicity
 _atom_site_fract_x
 _atom_site_fract_y
 _atom_site_fract_z
 _atom_site_occupancy
  Li  Li0  1  0.99128978  0.49442848  0.00467985  1
  Li  Li1  1  0.34255047  0.17235740  0.00501897  1
  Li  Li2  1  0.15895451  0.83021169  0.49632616  1
  Li  Li3  1  0.50313970  0.49442848  0.49532015  1
  Li  Li4  1  0.82980693  0.17235740  0.49498103  1
  Li  Li5  1  0.67125718  0.83021169  0.00367384  1
  Li  Li6  1  0.74784942  0.49569785  0.25000000  1
  Ni  Ni7  1  0.08099904  0.16199808  0.25000000  1
  Ni  Ni8  1  0.25128975  0.50258050  0.75000000  1
  Ni  Ni9  1  0.58681265  0.17362430  0.75000000  1
  Ni  Ni10  1  0.41443159  0.82886419  0.25000000  1
  Ni  Ni11  1  0.92072639  0.84145177  0.75000000  1
  O  O12  1  0.23082818  0.16478815  0.63591961  1
  O  O13  1  0.42460509  0.13470730  0.35907120  1
  O  O14  1  0.14492982  0.49591321  0.36031947  1
  O  O15  1  0.71010121  0.13470730  0.14092880  1
  O  O16  1  0.93395996  0.16478815  0.86408039  1
  O  O17  1  0.35098338  0.49591321  0.13968053  1
  O  O18  1  0.63161713  0.49073528  0.86631891  1
  O  O19  1  0.07080816  0.85608289  0.14003398  1
  O  O20  1  0.28939594  0.85866778  0.85931935  1
  O  O21  1  0.85911814  0.49073528  0.63368109  1
  O  O22  1  0.56927084  0.85866778  0.64068065  1
  O  O23  1  0.78527472  0.85608289  0.35996602  1
