# generated using pymatgen
data_AlZnH16N(OF)6
_symmetry_space_group_name_H-M   'P 1'
_cell_length_a   12.73459007
_cell_length_b   6.60110518
_cell_length_c   12.91154266
_cell_angle_alpha   90.00000000
_cell_angle_beta   95.43699652
_cell_angle_gamma   90.00000000
_symmetry_Int_Tables_number   1
_chemical_formula_structural   AlZnH16N(OF)6
_chemical_formula_sum   'Al4 Zn4 H64 N4 O24 F24'
_cell_volume   1080.49174433
_cell_formula_units_Z   4
loop_
 _symmetry_equiv_pos_site_id
 _symmetry_equiv_pos_as_xyz
  1  'x, y, z'
loop_
 _atom_site_type_symbol
 _atom_site_label
 _atom_site_symmetry_multiplicity
 _atom_site_fract_x
 _atom_site_fract_y
 _atom_site_fract_z
 _atom_site_occupancy
  Al  Al0  1  0.00000000  0.00000000  0.50000000  1
  Al  Al1  1  0.00000000  0.50000000  0.00000000  1
  Al  Al2  1  0.50000000  0.00000000  0.50000000  1
  Al  Al3  1  0.50000000  0.50000000  0.00000000  1
  Zn  Zn4  1  0.23094473  0.52765975  0.69408156  1
  Zn  Zn5  1  0.23094473  0.97234025  0.19408156  1
  Zn  Zn6  1  0.76905527  0.02765975  0.80591844  1
  Zn  Zn7  1  0.76905527  0.47234025  0.30591844  1
  H  H8  1  0.02698703  0.60381919  0.62932870  1
  H  H9  1  0.03791560  0.36444013  0.61945006  1
  H  H10  1  0.02698703  0.89618081  0.12932870  1
  H  H11  1  0.03791560  0.13555987  0.11945006  1
  H  H12  1  0.12820338  0.78373013  0.80800304  1
  H  H13  1  0.15548111  0.36939569  0.86440005  1
  H  H14  1  0.14543661  0.90412192  0.70238121  1
  H  H15  1  0.12820338  0.71626987  0.30800304  1
  H  H16  1  0.15548111  0.13060431  0.36440005  1
  H  H17  1  0.14543661  0.59587808  0.20238121  1
  H  H18  1  0.17165045  0.69426256  0.50571320  1
  H  H19  1  0.17165045  0.80573744  0.00571320  1
  H  H20  1  0.27160551  0.45739292  0.89734422  1
  H  H21  1  0.23156034  0.16638354  0.61175521  1
  H  H22  1  0.28878077  0.76477877  0.53295560  1
  H  H23  1  0.27160551  0.04260708  0.39734422  1
  H  H24  1  0.23156034  0.33361646  0.11175521  1
  H  H25  1  0.31665089  0.99877625  0.94239708  1
  H  H26  1  0.31173435  0.97604708  0.81377106  1
  H  H27  1  0.28878077  0.73522123  0.03295560  1
  H  H28  1  0.31665089  0.50122375  0.44239708  1
  H  H29  1  0.35196665  0.24615517  0.60905943  1
  H  H30  1  0.31173435  0.52395292  0.31377106  1
  H  H31  1  0.38808030  0.16015448  0.87370568  1
  H  H32  1  0.35196665  0.25384483  0.10905943  1
  H  H33  1  0.42363841  0.91246171  0.89001768  1
  H  H34  1  0.38808030  0.33984552  0.37370568  1
  H  H35  1  0.43035619  0.55185256  0.78183345  1
  H  H36  1  0.42885672  0.71909214  0.68997411  1
  H  H37  1  0.42363841  0.58753829  0.39001768  1
  H  H38  1  0.43035619  0.94814744  0.28183345  1
  H  H39  1  0.42885672  0.78090786  0.18997411  1
  H  H40  1  0.57114328  0.21909214  0.81002589  1
  H  H41  1  0.56964381  0.05185256  0.71816655  1
  H  H42  1  0.57636159  0.41246171  0.60998232  1
  H  H43  1  0.57114328  0.28090786  0.31002589  1
  H  H44  1  0.56964381  0.44814744  0.21816655  1
  H  H45  1  0.61191970  0.66015448  0.62629432  1
  H  H46  1  0.57636159  0.08753829  0.10998232  1
  H  H47  1  0.64803335  0.74615517  0.89094057  1
  H  H48  1  0.61191970  0.83984552  0.12629432  1
  H  H49  1  0.68826565  0.47604708  0.68622894  1
  H  H50  1  0.64803335  0.75384483  0.39094057  1
  H  H51  1  0.68334911  0.49877625  0.55760292  1
  H  H52  1  0.71121923  0.26477877  0.96704440  1
  H  H53  1  0.68826565  0.02395292  0.18622894  1
  H  H54  1  0.68334911  0.00122375  0.05760292  1
  H  H55  1  0.76843966  0.66638354  0.88824479  1
  H  H56  1  0.72839449  0.95739292  0.60265578  1
  H  H57  1  0.71121923  0.23522123  0.46704440  1
  H  H58  1  0.76843966  0.83361646  0.38824479  1
  H  H59  1  0.72839449  0.54260708  0.10265578  1
  H  H60  1  0.82834955  0.19426256  0.99428680  1
  H  H61  1  0.82834955  0.30573744  0.49428680  1
  H  H62  1  0.85456339  0.40412192  0.79761879  1
  H  H63  1  0.84451889  0.86939569  0.63559995  1
  H  H64  1  0.87179662  0.28373013  0.69199696  1
  H  H65  1  0.85456339  0.09587808  0.29761879  1
  H  H66  1  0.84451889  0.63060431  0.13559995  1
  H  H67  1  0.87179662  0.21626987  0.19199696  1
  H  H68  1  0.96208440  0.86444013  0.88054994  1
  H  H69  1  0.97301297  0.10381919  0.87067130  1
  H  H70  1  0.96208440  0.63555987  0.38054994  1
  H  H71  1  0.97301297  0.39618081  0.37067130  1
  N  N72  1  0.36090075  0.01375805  0.87917037  1
  N  N73  1  0.36090075  0.48624195  0.37917037  1
  N  N74  1  0.63909925  0.51375805  0.62082963  1
  N  N75  1  0.63909925  0.98624195  0.12082963  1
  O  O76  1  0.06932132  0.48489775  0.65563337  1
  O  O77  1  0.06932132  0.01510225  0.15563337  1
  O  O78  1  0.18009390  0.81737615  0.75860840  1
  O  O79  1  0.22668563  0.39111269  0.84021463  1
  O  O80  1  0.18009390  0.68262385  0.25860840  1
  O  O81  1  0.24080555  0.64708663  0.54001256  1
  O  O82  1  0.22668563  0.10888731  0.34021463  1
  O  O83  1  0.28875155  0.24825727  0.64846831  1
  O  O84  1  0.24080555  0.85291337  0.04001256  1
  O  O85  1  0.28875155  0.25174273  0.14846831  1
  O  O86  1  0.38480360  0.63794785  0.73341031  1
  O  O87  1  0.38480360  0.86205215  0.23341031  1
  O  O88  1  0.61519640  0.13794785  0.76658969  1
  O  O89  1  0.61519640  0.36205215  0.26658969  1
  O  O90  1  0.71124845  0.74825727  0.85153169  1
  O  O91  1  0.75919445  0.14708663  0.95998744  1
  O  O92  1  0.71124845  0.75174273  0.35153169  1
  O  O93  1  0.77331437  0.89111269  0.65978537  1
  O  O94  1  0.75919445  0.35291337  0.45998744  1
  O  O95  1  0.81990610  0.31737615  0.74139160  1
  O  O96  1  0.77331437  0.60888731  0.15978537  1
  O  O97  1  0.81990610  0.18262385  0.24139160  1
  O  O98  1  0.93067868  0.98489775  0.84436663  1
  O  O99  1  0.93067868  0.51510225  0.34436663  1
  F  F100  1  0.04417587  0.30876608  0.91123098  1
  F  F101  1  0.06822454  0.70281723  0.93213287  1
  F  F102  1  0.04417587  0.19123392  0.41123098  1
  F  F103  1  0.06822454  0.79718277  0.43213287  1
  F  F104  1  0.11895507  0.03902333  0.59004017  1
  F  F105  1  0.11895507  0.46097667  0.09004017  1
  F  F106  1  0.35916612  0.55838490  0.98653288  1
  F  F107  1  0.35916612  0.94161510  0.48653288  1
  F  F108  1  0.48671049  0.38183750  0.86840891  1
  F  F109  1  0.47123985  0.24524984  0.55758369  1
  F  F110  1  0.52876015  0.74524984  0.94241631  1
  F  F111  1  0.51328951  0.88183750  0.63159109  1
  F  F112  1  0.48671049  0.11816250  0.36840891  1
  F  F113  1  0.47123985  0.25475016  0.05758369  1
  F  F114  1  0.52876015  0.75475016  0.44241631  1
  F  F115  1  0.51328951  0.61816250  0.13159109  1
  F  F116  1  0.64083388  0.05838490  0.51346712  1
  F  F117  1  0.64083388  0.44161510  0.01346712  1
  F  F118  1  0.88104493  0.53902333  0.90995983  1
  F  F119  1  0.88104493  0.96097667  0.40995983  1
  F  F120  1  0.93177546  0.20281723  0.56786713  1
  F  F121  1  0.95582413  0.80876608  0.58876902  1
  F  F122  1  0.93177546  0.29718277  0.06786713  1
  F  F123  1  0.95582413  0.69123392  0.08876902  1
