# generated using pymatgen
data_LiMnNiO4
_symmetry_space_group_name_H-M   'P 1'
_cell_length_a   5.73914666
_cell_length_b   5.86901392
_cell_length_c   5.86901375
_cell_angle_alpha   58.69433330
_cell_angle_beta   60.72931998
_cell_angle_gamma   60.72932092
_symmetry_Int_Tables_number   1
_chemical_formula_structural   LiMnNiO4
_chemical_formula_sum   'Li2 Mn2 Ni2 O8'
_cell_volume   139.83126590
_cell_formula_units_Z   2
loop_
 _symmetry_equiv_pos_site_id
 _symmetry_equiv_pos_as_xyz
  1  'x, y, z'
loop_
 _atom_site_type_symbol
 _atom_site_label
 _atom_site_symmetry_multiplicity
 _atom_site_fract_x
 _atom_site_fract_y
 _atom_site_fract_z
 _atom_site_occupancy
  Li  Li0  1  0.13107933  0.11892067  0.11892067  1
  Li  Li1  1  0.86892067  0.88107933  0.88107933  1
  Mn  Mn2  1  0.50000000  0.00000000  0.50000000  1
  Mn  Mn3  1  0.50000000  0.50000000  0.00000000  1
  Ni  Ni4  1  0.00000000  0.50000000  0.50000000  1
  Ni  Ni5  1  0.50000000  0.50000000  0.50000000  1
  O  O6  1  0.27573896  0.25166443  0.25166443  1
  O  O7  1  0.27091110  0.25770713  0.70047067  1
  O  O8  1  0.27091110  0.70047067  0.25770713  1
  O  O9  1  0.72093318  0.25166443  0.25166443  1
  O  O10  1  0.27906682  0.74833557  0.74833557  1
  O  O11  1  0.72908890  0.74229287  0.29952933  1
  O  O12  1  0.72908890  0.29952933  0.74229287  1
  O  O13  1  0.72426104  0.74833557  0.74833557  1
