# generated using pymatgen
data_Li8Mn5Fe3(BO3)8
_symmetry_space_group_name_H-M   'P 1'
_cell_length_a   5.23596756
_cell_length_b   5.24888971
_cell_length_c   20.94930556
_cell_angle_alpha   89.29182411
_cell_angle_beta   90.92956827
_cell_angle_gamma   60.10482477
_symmetry_Int_Tables_number   1
_chemical_formula_structural   Li8Mn5Fe3(BO3)8
_chemical_formula_sum   'Li8 Mn5 Fe3 B8 O24'
_cell_volume   498.93552398
_cell_formula_units_Z   1
loop_
 _symmetry_equiv_pos_site_id
 _symmetry_equiv_pos_as_xyz
  1  'x, y, z'
loop_
 _atom_site_type_symbol
 _atom_site_label
 _atom_site_symmetry_multiplicity
 _atom_site_fract_x
 _atom_site_fract_y
 _atom_site_fract_z
 _atom_site_occupancy
  Li  Li0  1  0.32158822  0.65077872  0.66660996  1
  Li  Li1  1  0.34741994  0.67756658  0.91619406  1
  Li  Li2  1  0.32278550  0.65204167  0.16567648  1
  Li  Li3  1  0.34849040  0.67895876  0.41588306  1
  Li  Li4  1  0.64888821  0.33773489  0.79191619  1
  Li  Li5  1  0.66237766  0.34804335  0.54132545  1
  Li  Li6  1  0.65350087  0.33717693  0.29156221  1
  Li  Li7  1  0.66299566  0.34624951  0.04132156  1
  Mn  Mn8  1  0.32930542  0.00297125  0.55858279  1
  Mn  Mn9  1  0.32813193  0.00655762  0.05807102  1
  Mn  Mn10  1  0.67727576  0.00292129  0.43324748  1
  Mn  Mn11  1  0.99721571  0.32551985  0.68405621  1
  Mn  Mn12  1  0.99694261  0.66817280  0.30733334  1
  Fe  Fe13  1  0.68441949  0.99803324  0.93278238  1
  Fe  Fe14  1  0.99415146  0.31927848  0.18347381  1
  Fe  Fe15  1  0.99727266  0.66745805  0.80913203  1
  B  B16  1  0.00331401  0.33758201  0.93635903  1
  B  B17  1  0.00219471  0.34152621  0.43698434  1
  B  B18  1  0.33253940  0.00819711  0.81310144  1
  B  B19  1  0.33384175  0.00421444  0.31132098  1
  B  B20  1  0.65997250  0.99631895  0.68814741  1
  B  B21  1  0.66094331  0.99674572  0.18669741  1
  B  B22  1  0.99598415  0.66589783  0.56215703  1
  B  B23  1  0.99487006  0.66745050  0.06209544  1
  O  O24  1  0.06834852  0.25771783  0.79324001  1
  O  O25  1  0.07057723  0.24593724  0.29036150  1
  O  O26  1  0.25866601  0.07257351  0.95055693  1
  O  O27  1  0.02132989  0.58442472  0.91741758  1
  O  O28  1  0.25327954  0.07050219  0.45210234  1
  O  O29  1  0.03318015  0.57870840  0.41614938  1
  O  O30  1  0.58179104  0.03117820  0.82714757  1
  O  O31  1  0.26918681  0.64143639  0.56957575  1
  O  O32  1  0.57812269  0.03641497  0.32663097  1
  O  O33  1  0.26915065  0.64321019  0.06922182  1
  O  O34  1  0.34437634  0.73988683  0.81922701  1
  O  O35  1  0.35790486  0.73026576  0.31896489  1
  O  O36  1  0.63120313  0.27187368  0.69496270  1
  O  O37  1  0.64076179  0.27019366  0.19349436  1
  O  O38  1  0.72942643  0.35818607  0.94292798  1
  O  O39  1  0.42178288  0.96708635  0.66716634  1
  O  O40  1  0.72733442  0.37108693  0.44424892  1
  O  O41  1  0.41492881  0.97819166  0.16787537  1
  O  O42  1  0.96230100  0.42290104  0.57760536  1
  O  O43  1  0.96246822  0.42382170  0.07762667  1
  O  O44  1  0.75286356  0.92983727  0.54094361  1
  O  O45  1  0.75252482  0.92993604  0.04072791  1
  O  O46  1  0.93110267  0.74661231  0.70336300  1
  O  O47  1  0.92976720  0.74182228  0.20062793  1
