# generated using pymatgen
data_Li2Mn3SnO8
_symmetry_space_group_name_H-M   'P 1'
_cell_length_a   6.06575234
_cell_length_b   5.85560003
_cell_length_c   9.76400556
_cell_angle_alpha   89.94060100
_cell_angle_beta   90.02867024
_cell_angle_gamma   118.86039704
_symmetry_Int_Tables_number   1
_chemical_formula_structural   Li2Mn3SnO8
_chemical_formula_sum   'Li4 Mn6 Sn2 O16'
_cell_volume   303.73021159
_cell_formula_units_Z   2
loop_
 _symmetry_equiv_pos_site_id
 _symmetry_equiv_pos_as_xyz
  1  'x, y, z'
loop_
 _atom_site_type_symbol
 _atom_site_label
 _atom_site_symmetry_multiplicity
 _atom_site_fract_x
 _atom_site_fract_y
 _atom_site_fract_z
 _atom_site_occupancy
  Li  Li0  1  0.31442374  0.65635536  0.89567570  1
  Li  Li1  1  0.98959503  0.99704121  0.99240543  1
  Li  Li2  1  0.01040497  0.00744619  0.49240543  1
  Li  Li3  1  0.68557626  0.34193162  0.39567570  1
  Mn  Mn4  1  0.16723402  0.83014551  0.21513141  1
  Mn  Mn5  1  0.16884313  0.33686119  0.21584257  1
  Mn  Mn6  1  0.65855188  0.82936965  0.21415899  1
  Mn  Mn7  1  0.34144812  0.17081776  0.71415899  1
  Mn  Mn8  1  0.83276598  0.66291149  0.71513141  1
  Mn  Mn9  1  0.83115687  0.16801806  0.71584257  1
  Sn  Sn10  1  0.36033256  0.68025092  0.49048545  1
  Sn  Sn11  1  0.63966744  0.31991936  0.99048545  1
  O  O12  1  0.18941901  0.85873670  0.59524373  1
  O  O13  1  0.05152758  0.52434101  0.33900123  1
  O  O14  1  0.33957221  0.67051727  0.11461061  1
  O  O15  1  0.98829361  0.99290361  0.30418745  1
  O  O16  1  0.01170639  0.00461000  0.80418745  1
  O  O17  1  0.18888543  0.33243308  0.59665612  1
  O  O18  1  0.51457185  0.97725698  0.33959332  1
  O  O19  1  0.51444649  0.53633084  0.33939858  1
  O  O20  1  0.30042903  0.15066745  0.10152941  1
  O  O21  1  0.69957097  0.85023842  0.60152941  1
  O  O22  1  0.48542815  0.46268513  0.83959332  1
  O  O23  1  0.48555351  0.02188435  0.83939858  1
  O  O24  1  0.66042779  0.33094406  0.61461061  1
  O  O25  1  0.81058099  0.66931869  0.09524373  1
  O  O26  1  0.94847242  0.47281343  0.83900123  1
  O  O27  1  0.81111457  0.14354764  0.09665612  1
