# generated using pymatgen
data_Li3MnFe2(BO3)3
_symmetry_space_group_name_H-M   'P 1'
_cell_length_a   8.25457421
_cell_length_b   8.84652513
_cell_length_c   6.30263758
_cell_angle_alpha   69.13170297
_cell_angle_beta   90.00000000
_cell_angle_gamma   62.06484343
_symmetry_Int_Tables_number   1
_chemical_formula_structural   Li3MnFe2(BO3)3
_chemical_formula_sum   'Li6 Mn2 Fe4 B6 O18'
_cell_volume   372.09961720
_cell_formula_units_Z   2
loop_
 _symmetry_equiv_pos_site_id
 _symmetry_equiv_pos_as_xyz
  1  'x, y, z'
loop_
 _atom_site_type_symbol
 _atom_site_label
 _atom_site_symmetry_multiplicity
 _atom_site_fract_x
 _atom_site_fract_y
 _atom_site_fract_z
 _atom_site_occupancy
  Li  Li0  1  0.71565568  0.98290268  0.75693866  1
  Li  Li1  1  0.71565568  0.98290268  0.26015966  1
  Li  Li2  1  0.98266038  0.30149413  0.59793261  1
  Li  Li3  1  0.98266038  0.30149413  0.10057326  1
  Li  Li4  1  0.30138613  0.71458909  0.89223125  1
  Li  Li5  1  0.30138613  0.71458909  0.39317866  1
  Mn  Mn6  1  0.62835118  0.35903330  0.82048385  1
  Mn  Mn7  1  0.35882207  0.01233882  0.99383009  1
  Fe  Fe8  1  0.63086668  0.36167217  0.31916342  1
  Fe  Fe9  1  0.36086916  0.00759580  0.49620210  1
  Fe  Fe10  1  0.00748347  0.63377602  0.18311149  1
  Fe  Fe11  1  0.00811362  0.63181345  0.68409328  1
  B  B12  1  0.66814849  0.66672808  0.41673852  1
  B  B13  1  0.66814849  0.66672808  0.91653340  1
  B  B14  1  0.33163212  0.33443774  0.58013889  1
  B  B15  1  0.33163212  0.33443774  0.08542336  1
  B  B16  1  0.00192580  0.99731361  0.00134319  1
  B  B17  1  0.99980224  -0.00004943  0.50002471  1
  O  O18  1  0.89196350  0.91391278  0.54304361  1
  O  O19  1  0.88759311  0.91731670  0.04134115  1
  O  O20  1  0.86261604  0.58037856  0.95978400  1
  O  O21  1  0.86261604  0.58037856  0.45983744  1
  O  O22  1  0.92165335  0.19140243  0.90429829  1
  O  O23  1  0.91274112  0.19476819  0.40261641  1
  O  O24  1  0.55972716  0.86090726  0.32319221  1
  O  O25  1  0.55972716  0.86090726  0.81590053  1
  O  O26  1  0.58168453  0.55887987  0.97378689  1
  O  O27  1  0.58168453  0.55887987  0.46733324  1
  O  O28  1  0.52617097  0.25323245  0.61993973  1
  O  O29  1  0.52617097  0.25323245  0.12682782  1
  O  O30  1  0.19490335  0.89208200  0.55395900  1
  O  O31  1  0.19576434  0.88260905  0.05869548  1
  O  O32  1  0.21805627  0.52807460  0.48602018  1
  O  O33  1  0.21805627  0.52807460  0.98590522  1
  O  O34  1  0.25183723  0.22058360  0.63638431  1
  O  O35  1  0.25183723  0.22058360  0.14303309  1
