# generated using pymatgen
data_Li4Mn3Fe(BO3)4
_symmetry_space_group_name_H-M   'P 1'
_cell_length_a   5.25858790
_cell_length_b   9.08386992
_cell_length_c   10.48570193
_cell_angle_alpha   91.55612105
_cell_angle_beta   91.12809800
_cell_angle_gamma   89.73099656
_symmetry_Int_Tables_number   1
_chemical_formula_structural   Li4Mn3Fe(BO3)4
_chemical_formula_sum   'Li8 Mn6 Fe2 B8 O24'
_cell_volume   500.59834664
_cell_formula_units_Z   2
loop_
 _symmetry_equiv_pos_site_id
 _symmetry_equiv_pos_as_xyz
  1  'x, y, z'
loop_
 _atom_site_type_symbol
 _atom_site_label
 _atom_site_symmetry_multiplicity
 _atom_site_fract_x
 _atom_site_fract_y
 _atom_site_fract_z
 _atom_site_occupancy
  Li  Li0  1  0.85298996  0.82583092  0.66726406  1
  Li  Li1  1  0.81311925  0.83923102  0.16747844  1
  Li  Li2  1  0.67884983  0.66832181  0.41777903  1
  Li  Li3  1  0.66344339  0.67455635  0.91754622  1
  Li  Li4  1  0.35408956  0.32564239  0.66836379  1
  Li  Li5  1  0.31216940  0.33942539  0.16807893  1
  Li  Li6  1  0.17861116  0.16852647  0.41715557  1
  Li  Li7  1  0.16347974  0.17427008  0.91729808  1
  Mn  Mn8  1  0.82222863  0.50139575  0.13319139  1
  Mn  Mn9  1  0.66893524  0.33578420  0.38526160  1
  Mn  Mn10  1  0.66933660  0.00306689  0.88216116  1
  Mn  Mn11  1  0.33985040  0.66143399  0.63101241  1
  Mn  Mn12  1  0.32221810  0.00058135  0.13393767  1
  Mn  Mn13  1  0.16889284  0.50170439  0.88306034  1
  Fe  Fe14  1  0.84593968  0.15907883  0.63286570  1
  Fe  Fe15  1  0.16178197  0.83729744  0.38224474  1
  B  B16  1  0.82593837  0.17046673  0.12635205  1
  B  B17  1  0.84262811  0.49709231  0.62651980  1
  B  B18  1  0.66575565  0.00064899  0.37801522  1
  B  B19  1  0.67270401  0.33276274  0.87475914  1
  B  B20  1  0.32625802  0.67066203  0.12682716  1
  B  B21  1  0.33979419  0.00023444  0.62425689  1
  B  B22  1  0.16345619  0.50398593  0.37523250  1
  B  B23  1  0.17249322  0.83302646  0.87532743  1
  O  O24  1  0.90336495  0.51903623  0.34529663  1
  O  O25  1  0.91100571  0.82063501  0.86072149  1
  O  O26  1  0.82766365  0.21138583  0.84345134  1
  O  O27  1  0.80626439  0.12312739  0.41871260  1
  O  O28  1  0.78307050  0.86405588  0.36281563  1
  O  O29  1  0.78215597  0.46527038  0.91778755  1
  O  O30  1  0.73344423  0.63486767  0.61109188  1
  O  O31  1  0.71148881  0.03445114  0.09598213  1
  O  O32  1  0.69819460  0.37054665  0.59764046  1
  O  O33  1  0.67642780  0.28925465  0.16760265  1
  O  O34  1  0.58587799  0.68614642  0.11196979  1
  O  O35  1  0.59425503  0.98885523  0.66360217  1
  O  O36  1  0.40557357  0.01347268  0.34834692  1
  O  O37  1  0.41136510  0.31980378  0.86113387  1
  O  O38  1  0.32713847  0.71130823  0.84445551  1
  O  O39  1  0.30493800  0.62702562  0.41569037  1
  O  O40  1  0.27668864  0.36658754  0.36219807  1
  O  O41  1  0.28299929  0.96537822  0.91761024  1
  O  O42  1  0.21209643  0.53468741  0.09575242  1
  O  O43  1  0.22574527  0.13779078  0.61231473  1
  O  O44  1  0.19701100  0.87403794  0.59435643  1
  O  O45  1  0.17685711  0.78931097  0.16834742  1
  O  O46  1  0.08590074  0.18543716  0.11204968  1
  O  O47  1  0.09610923  0.48310128  0.66668170  1
