# generated using pymatgen
data_Li8Sc5Fe3(SiO3)16
_symmetry_space_group_name_H-M   'P 1'
_cell_length_a   9.90140840
_cell_length_b   8.95037949
_cell_length_c   10.78614257
_cell_angle_alpha   90.00000000
_cell_angle_beta   110.36027093
_cell_angle_gamma   90.00000000
_symmetry_Int_Tables_number   1
_chemical_formula_structural   Li8Sc5Fe3(SiO3)16
_chemical_formula_sum   'Li8 Sc5 Fe3 Si16 O48'
_cell_volume   896.16241706
_cell_formula_units_Z   1
loop_
 _symmetry_equiv_pos_site_id
 _symmetry_equiv_pos_as_xyz
  1  'x, y, z'
loop_
 _atom_site_type_symbol
 _atom_site_label
 _atom_site_symmetry_multiplicity
 _atom_site_fract_x
 _atom_site_fract_y
 _atom_site_fract_z
 _atom_site_occupancy
  Li  Li0  1  0.00046974  0.74518212  0.87377312  1
  Li  Li1  1  0.00000000  0.25321002  0.62500000  1
  Li  Li2  1  0.99953026  0.74518212  0.37622688  1
  Li  Li3  1  0.00000000  0.25512587  0.12500000  1
  Li  Li4  1  0.49988815  0.24634627  0.87495972  1
  Li  Li5  1  0.50000000  0.75264497  0.62500000  1
  Li  Li6  1  0.50011185  0.24634627  0.37504028  1
  Li  Li7  1  0.50000000  0.75271833  0.12500000  1
  Sc  Sc8  1  0.99974445  0.10395030  0.87303947  1
  Sc  Sc9  1  0.00025555  0.10395030  0.37696053  1
  Sc  Sc10  1  0.00000000  0.89487696  0.12500000  1
  Sc  Sc11  1  0.49971424  0.60242788  0.87473731  1
  Sc  Sc12  1  0.50028576  0.60242788  0.37526269  1
  Fe  Fe13  1  0.00000000  0.89164661  0.62500000  1
  Fe  Fe14  1  0.50000000  0.39195258  0.62500000  1
  Fe  Fe15  1  0.50000000  0.39305833  0.12500000  1
  Si  Si16  1  0.20341558  0.41187199  0.86447269  1
  Si  Si17  1  0.29681992  0.91259866  0.88492371  1
  Si  Si18  1  0.20209901  0.58869217  0.61336210  1
  Si  Si19  1  0.29842906  0.08887385  0.63709735  1
  Si  Si20  1  0.20322351  0.41241158  0.36511907  1
  Si  Si21  1  0.29826809  0.91336623  0.38686038  1
  Si  Si22  1  0.20367782  0.58641107  0.11277015  1
  Si  Si23  1  0.29889032  0.08971569  0.13638145  1
  Si  Si24  1  0.70173191  0.91336623  0.86313962  1
  Si  Si25  1  0.79677649  0.41241158  0.88488093  1
  Si  Si26  1  0.70157094  0.08887385  0.61290265  1
  Si  Si27  1  0.79790099  0.58869217  0.63663790  1
  Si  Si28  1  0.70318008  0.91259866  0.36507629  1
  Si  Si29  1  0.79658442  0.41187199  0.38552731  1
  Si  Si30  1  0.70110968  0.08971569  0.11361855  1
  Si  Si31  1  0.79632218  0.58641107  0.13722985  1
  O  O32  1  0.14414028  0.49535684  0.97154475  1
  O  O33  1  0.11828659  0.91291777  0.82302431  1
  O  O34  1  0.13138967  0.24856182  0.82936359  1
  O  O35  1  0.14767994  0.50429756  0.72336647  1
  O  O36  1  0.12040159  0.08462244  0.58087564  1
  O  O37  1  0.12828497  0.75310055  0.58169029  1
  O  O38  1  0.14391725  0.49853829  0.47135681  1
  O  O39  1  0.12040011  0.91377562  0.32886766  1
  O  O40  1  0.13125508  0.24880332  0.33107610  1
  O  O41  1  0.36902549  0.74859976  0.91907771  1
  O  O42  1  0.38187913  0.41256852  0.92645101  1
  O  O43  1  0.35631267  0.99843755  0.77885159  1
  O  O44  1  0.14841782  0.50367908  0.22330174  1
  O  O45  1  0.12115916  0.08805938  0.07854525  1
  O  O46  1  0.13198964  0.75067420  0.07999851  1
  O  O47  1  0.37175593  0.25389429  0.66891215  1
  O  O48  1  0.38024982  0.58430946  0.66978767  1
  O  O49  1  0.35478860  0.00499799  0.52813867  1
  O  O50  1  0.36969266  0.74890144  0.41950952  1
  O  O51  1  0.38191443  0.41271936  0.42708649  1
  O  O52  1  0.35487624  0.99848859  0.27813550  1
  O  O53  1  0.64512376  0.99848859  0.97186450  1
  O  O54  1  0.37307142  0.25391877  0.16941375  1
  O  O55  1  0.61808557  0.41271936  0.82291351  1
  O  O56  1  0.38182579  0.58208231  0.17000205  1
  O  O57  1  0.63030734  0.74890144  0.83049048  1
  O  O58  1  0.35289665  0.00422744  0.02658372  1
  O  O59  1  0.64521140  0.00499799  0.72186133  1
  O  O60  1  0.61975018  0.58430946  0.58021233  1
  O  O61  1  0.62824407  0.25389429  0.58108785  1
  O  O62  1  0.64368733  0.99843755  0.47114841  1
  O  O63  1  0.61812087  0.41256852  0.32354899  1
  O  O64  1  0.63097451  0.74859976  0.33092229  1
  O  O65  1  0.86874492  0.24880332  0.91892390  1
  O  O66  1  0.87959989  0.91377562  0.92113234  1
  O  O67  1  0.85608275  0.49853829  0.77864319  1
  O  O68  1  0.64710335  0.00422744  0.22341628  1
  O  O69  1  0.61817421  0.58208231  0.07999795  1
  O  O70  1  0.62692858  0.25391877  0.08058625  1
  O  O71  1  0.87171503  0.75310055  0.66830971  1
  O  O72  1  0.87959841  0.08462244  0.66912436  1
  O  O73  1  0.85232006  0.50429756  0.52663353  1
  O  O74  1  0.86861033  0.24856182  0.42063641  1
  O  O75  1  0.88171341  0.91291777  0.42697569  1
  O  O76  1  0.85585972  0.49535684  0.27845525  1
  O  O77  1  0.86801036  0.75067420  0.17000149  1
  O  O78  1  0.87884084  0.08805938  0.17145475  1
  O  O79  1  0.85158218  0.50367908  0.02669826  1
