# generated using pymatgen
data_NaLi3Fe4(SiO3)8
_symmetry_space_group_name_H-M   'P 1'
_cell_length_a   6.61367390
_cell_length_b   13.21993358
_cell_length_c   10.73461007
_cell_angle_alpha   75.39408158
_cell_angle_beta   104.60518094
_cell_angle_gamma   96.41737522
_symmetry_Int_Tables_number   1
_chemical_formula_structural   NaLi3Fe4(SiO3)8
_chemical_formula_sum   'Na2 Li6 Fe8 Si16 O48'
_cell_volume   877.70871678
_cell_formula_units_Z   2
loop_
 _symmetry_equiv_pos_site_id
 _symmetry_equiv_pos_as_xyz
  1  'x, y, z'
loop_
 _atom_site_type_symbol
 _atom_site_label
 _atom_site_symmetry_multiplicity
 _atom_site_fract_x
 _atom_site_fract_y
 _atom_site_fract_z
 _atom_site_occupancy
  Na  Na0  1  0.70908298  0.85466403  0.87554384  1
  Na  Na1  1  0.29091702  0.14533597  0.12445616  1
  Li  Li2  1  0.25524059  0.62952594  0.62407472  1
  Li  Li3  1  0.74313978  0.87241592  0.37457731  1
  Li  Li4  1  0.25747053  0.62858097  0.12564052  1
  Li  Li5  1  0.74252947  0.37141903  0.87435948  1
  Li  Li6  1  0.25686022  0.12758408  0.62542269  1
  Li  Li7  1  0.74475941  0.37047406  0.37592528  1
  Fe  Fe8  1  0.10339637  0.55279534  0.87416057  1
  Fe  Fe9  1  0.89600401  0.94888751  0.62485218  1
  Fe  Fe10  1  0.10380484  0.55084500  0.37584995  1
  Fe  Fe11  1  0.89721920  0.94790132  0.12521664  1
  Fe  Fe12  1  0.10278080  0.05209868  0.87478336  1
  Fe  Fe13  1  0.89619516  0.44915500  0.62415005  1
  Fe  Fe14  1  0.10399599  0.05111249  0.37514782  1
  Fe  Fe15  1  0.89660363  0.44720466  0.12583943  1
  Si  Si16  1  0.20610881  0.80874176  0.87855267  1
  Si  Si17  1  0.38021044  0.89809657  0.62640737  1
  Si  Si18  1  0.20320015  0.80709307  0.37938060  1
  Si  Si19  1  0.38303110  0.89512372  0.12973337  1
  Si  Si20  1  0.61718478  0.60141758  0.87002568  1
  Si  Si21  1  0.20336672  0.31095925  0.87673513  1
  Si  Si22  1  0.79410345  0.69220591  0.61906518  1
  Si  Si23  1  0.38506449  0.39872207  0.62958247  1
  Si  Si24  1  0.61493551  0.60127793  0.37041753  1
  Si  Si25  1  0.20589655  0.30779409  0.38093482  1
  Si  Si26  1  0.79663328  0.68904075  0.12326487  1
  Si  Si27  1  0.38281522  0.39858242  0.12997432  1
  Si  Si28  1  0.61696890  0.10487628  0.87026663  1
  Si  Si29  1  0.79679985  0.19290693  0.62061940  1
  Si  Si30  1  0.61978956  0.10190343  0.37359263  1
  Si  Si31  1  0.79389119  0.19125824  0.12144733  1
  O  O32  1  0.03534540  0.90078060  0.82178759  1
  O  O33  1  0.19848075  0.98485482  0.57415777  1
  O  O34  1  0.02954542  0.89847571  0.32466068  1
  O  O35  1  0.10827381  0.68930051  0.91041144  1
  O  O36  1  0.35372652  0.82341876  0.77144969  1
  O  O37  1  0.19905945  0.98099288  0.07149234  1
  O  O38  1  0.61741925  0.94875083  0.65213619  1
  O  O39  1  0.34894907  0.82090751  0.52397179  1
  O  O40  1  0.10776809  0.68724883  0.41146196  1
  O  O41  1  0.35200025  0.82173192  0.27350820  1
  O  O42  1  0.65053309  0.67426131  0.97847769  1
  O  O43  1  0.62218067  0.94331445  0.16204170  1
  O  O44  1  0.02857192  0.40149457  0.82278019  1
  O  O45  1  0.37624253  0.55618528  0.83720921  1
  O  O46  1  0.35772033  0.82175440  0.02238631  1
  O  O47  1  0.64944876  0.67693254  0.72767784  1
  O  O48  1  0.20354629  0.48630584  0.57409766  1
  O  O49  1  0.88661445  0.81230434  0.58678608  1
  O  O50  1  0.64604189  0.67571325  0.47628655  1
  O  O51  1  0.02883686  0.39765427  0.32489491  1
  O  O52  1  0.37551317  0.55370352  0.33875317  1
  O  O53  1  0.10449789  0.19199417  0.90236102  1
  O  O54  1  0.79677950  0.51310911  0.92604089  1
  O  O55  1  0.64319696  0.67342805  0.22599466  1
  O  O56  1  0.35680304  0.32657195  0.77400534  1
  O  O57  1  0.20322050  0.48689089  0.07395911  1
  O  O58  1  0.89550211  0.80800583  0.09763898  1
  O  O59  1  0.62448683  0.44629648  0.66124683  1
  O  O60  1  0.97116314  0.60234573  0.67510509  1
  O  O61  1  0.35395811  0.32428675  0.52371345  1
  O  O62  1  0.11338555  0.18769566  0.41321392  1
  O  O63  1  0.79645371  0.51369416  0.42590234  1
  O  O64  1  0.35055124  0.32306746  0.27232216  1
  O  O65  1  0.64227967  0.17824560  0.97761369  1
  O  O66  1  0.62375747  0.44381472  0.16279079  1
  O  O67  1  0.97142808  0.59850543  0.17721981  1
  O  O68  1  0.37781933  0.05668555  0.83795830  1
  O  O69  1  0.34946691  0.32573869  0.02152231  1
  O  O70  1  0.64799975  0.17826808  0.72649180  1
  O  O71  1  0.89223191  0.31275117  0.58853804  1
  O  O72  1  0.65105093  0.17909249  0.47602821  1
  O  O73  1  0.38258075  0.05124917  0.34786381  1
  O  O74  1  0.80094055  0.01900712  0.92850766  1
  O  O75  1  0.64627348  0.17658124  0.22855031  1
  O  O76  1  0.89172619  0.31069949  0.08958856  1
  O  O77  1  0.97045458  0.10152429  0.67533932  1
  O  O78  1  0.80151925  0.01514518  0.42584223  1
  O  O79  1  0.96465460  0.09921940  0.17821241  1
