# generated using pymatgen
data_Li2MnFe(BO3)2
_symmetry_space_group_name_H-M   'P 1'
_cell_length_a   8.25522897
_cell_length_b   14.29695665
_cell_length_c   3.16563150
_cell_angle_alpha   90.00000000
_cell_angle_beta   90.00000000
_cell_angle_gamma   89.97627629
_symmetry_Int_Tables_number   1
_chemical_formula_structural   Li2MnFe(BO3)2
_chemical_formula_sum   'Li6 Mn3 Fe3 B6 O18'
_cell_volume   373.62252024
_cell_formula_units_Z   3
loop_
 _symmetry_equiv_pos_site_id
 _symmetry_equiv_pos_as_xyz
  1  'x, y, z'
loop_
 _atom_site_type_symbol
 _atom_site_label
 _atom_site_symmetry_multiplicity
 _atom_site_fract_x
 _atom_site_fract_y
 _atom_site_fract_z
 _atom_site_occupancy
  Li  Li0  1  0.29281628  0.98982641  0.50000000  1
  Li  Li1  1  0.33931221  0.35919817  0.50000000  1
  Li  Li2  1  0.36549506  0.65074856  0.50000000  1
  Li  Li3  1  0.79321440  0.49307522  0.50000000  1
  Li  Li4  1  0.84192622  0.85632033  0.50000000  1
  Li  Li5  1  0.86710941  0.15069328  0.50000000  1
  Mn  Mn6  1  0.19135357  0.17982236  0.00000000  1
  Mn  Mn7  1  0.63434620  0.00520109  0.00000000  1
  Mn  Mn8  1  0.67429438  0.31436646  0.00000000  1
  Fe  Fe9  1  0.13643781  0.50489706  0.00000000  1
  Fe  Fe10  1  0.17566322  0.81613506  0.00000000  1
  Fe  Fe11  1  0.68774699  0.67955493  0.00000000  1
  B  B12  1  0.00027762  0.66679539  0.50000000  1
  B  B13  1  0.99949514  0.99876988  0.00000000  1
  B  B14  1  0.00110358  0.33453514  0.50000000  1
  B  B15  1  0.49985813  0.16667840  0.50000000  1
  B  B16  1  0.50015252  0.50114132  0.00000000  1
  B  B17  1  0.49920947  0.83217559  0.50000000  1
  O  O18  1  0.01181691  0.43149673  0.50000000  1
  O  O19  1  0.01921240  0.76356645  0.50000000  1
  O  O20  1  0.13632619  0.60887856  0.50000000  1
  O  O21  1  0.14077451  0.28052146  0.50000000  1
  O  O22  1  0.15333088  0.95837299  0.00000000  1
  O  O23  1  0.34782705  0.12457791  0.50000000  1
  O  O24  1  0.34754613  0.78997525  0.50000000  1
  O  O25  1  0.36128200  0.44546793  0.00000000  1
  O  O26  1  0.48538933  0.59805335  0.00000000  1
  O  O27  1  0.51080376  0.92904952  0.50000000  1
  O  O28  1  0.51286887  0.26374172  0.50000000  1
  O  O29  1  0.63871271  0.11168051  0.50000000  1
  O  O30  1  0.63902000  0.77791018  0.50000000  1
  O  O31  1  0.65304993  0.46042322  0.00000000  1
  O  O32  1  0.84565492  0.62780910  0.50000000  1
  O  O33  1  0.85076392  0.29101121  0.50000000  1
  O  O34  1  0.86327339  0.94171686  0.00000000  1
  O  O35  1  0.98253487  0.09581038  0.00000000  1
