# generated using pymatgen
data_Li3MnFe2(BO3)3
_symmetry_space_group_name_H-M   'P 1'
_cell_length_a   8.26852679
_cell_length_b   8.26740730
_cell_length_c   6.28781614
_cell_angle_alpha   90.00000000
_cell_angle_beta   90.00000000
_cell_angle_gamma   120.04775334
_symmetry_Int_Tables_number   1
_chemical_formula_structural   Li3MnFe2(BO3)3
_chemical_formula_sum   'Li6 Mn2 Fe4 B6 O18'
_cell_volume   372.06494726
_cell_formula_units_Z   2
loop_
 _symmetry_equiv_pos_site_id
 _symmetry_equiv_pos_as_xyz
  1  'x, y, z'
loop_
 _atom_site_type_symbol
 _atom_site_label
 _atom_site_symmetry_multiplicity
 _atom_site_fract_x
 _atom_site_fract_y
 _atom_site_fract_z
 _atom_site_occupancy
  Li  Li0  1  0.28443631  0.98280557  0.25035871  1
  Li  Li1  1  0.28443631  0.98280557  0.74964129  1
  Li  Li2  1  0.01682381  0.30171322  0.25097298  1
  Li  Li3  1  0.01682381  0.30171322  0.74902702  1
  Li  Li4  1  0.69856427  0.71436429  0.75123460  1
  Li  Li5  1  0.69856427  0.71436429  0.24876540  1
  Mn  Mn6  1  0.37336422  0.36109428  0.50000000  1
  Mn  Mn7  1  0.63961416  0.01250199  0.00000000  1
  Fe  Fe8  1  0.36583088  0.35909816  0.00000000  1
  Fe  Fe9  1  0.64114834  0.00693931  0.50000000  1
  Fe  Fe10  1  0.99204081  0.63196231  0.00000000  1
  Fe  Fe11  1  0.99187009  0.63253721  0.50000000  1
  B  B12  1  0.00054874  0.99706490  0.00000000  1
  B  B13  1  0.99832312  0.99994049  0.50000000  1
  B  B14  1  0.33223926  0.66716716  0.25003138  1
  B  B15  1  0.33223926  0.66716716  0.74996862  1
  B  B16  1  0.66811023  0.33423183  0.25003334  1
  B  B17  1  0.66811023  0.33423183  0.74996666  1
  O  O18  1  0.10753133  0.91541856  0.50000000  1
  O  O19  1  0.11160241  0.91463295  0.00000000  1
  O  O20  1  0.13807800  0.58062784  0.25024598  1
  O  O21  1  0.13807800  0.58062784  0.74975402  1
  O  O22  1  0.08507235  0.19253408  0.00000000  1
  O  O23  1  0.08063940  0.19302799  0.50000000  1
  O  O24  1  0.43994266  0.86069932  0.25414060  1
  O  O25  1  0.43994266  0.86069932  0.74585940  1
  O  O26  1  0.41836739  0.55965308  0.24571407  1
  O  O27  1  0.41836739  0.55965308  0.75428593  1
  O  O28  1  0.47421985  0.25358998  0.24717352  1
  O  O29  1  0.47421985  0.25358998  0.75282648  1
  O  O30  1  0.80751040  0.88731363  0.00000000  1
  O  O31  1  0.80335643  0.88827070  0.50000000  1
  O  O32  1  0.78191759  0.52807548  0.24970490  1
  O  O33  1  0.78191759  0.52807548  0.75029510  1
  O  O34  1  0.74807482  0.22090394  0.74678308  1
  O  O35  1  0.74807482  0.22090394  0.25321692  1
