# generated using pymatgen
data_Li5Sc2Fe3(SiO3)10
_symmetry_space_group_name_H-M   'P 1'
_cell_length_a   9.45890684
_cell_length_b   22.76442976
_cell_length_c   5.37983100
_cell_angle_alpha   85.68239110
_cell_angle_beta   78.08937401
_cell_angle_gamma   100.56606160
_symmetry_Int_Tables_number   1
_chemical_formula_structural   Li5Sc2Fe3(SiO3)10
_chemical_formula_sum   'Li10 Sc4 Fe6 Si20 O60'
_cell_volume   1106.52814619
_cell_formula_units_Z   2
loop_
 _symmetry_equiv_pos_site_id
 _symmetry_equiv_pos_as_xyz
  1  'x, y, z'
loop_
 _atom_site_type_symbol
 _atom_site_label
 _atom_site_symmetry_multiplicity
 _atom_site_fract_x
 _atom_site_fract_y
 _atom_site_fract_z
 _atom_site_occupancy
  Li  Li0  1  0.65110492  0.30220984  0.09889508  1
  Li  Li1  1  0.54867788  0.09735676  0.70132212  1
  Li  Li2  1  0.74872498  0.49744995  0.50127502  1
  Li  Li3  1  0.94858255  0.89716511  0.30141745  1
  Li  Li4  1  0.85119849  0.70239598  0.89880151  1
  Li  Li5  1  0.14871500  0.29743000  0.10128500  1
  Li  Li6  1  0.25111250  0.50222499  0.49888750  1
  Li  Li7  1  0.45069518  0.90138935  0.29930482  1
  Li  Li8  1  0.05108355  0.10216810  0.69891645  1
  Li  Li9  1  0.34922284  0.69844667  0.90077716  1
  Sc  Sc10  1  0.82052173  0.64104245  0.42947827  1
  Sc  Sc11  1  0.62032725  0.24065551  0.62967275  1
  Sc  Sc12  1  0.22032722  0.44065443  0.02967278  1
  Sc  Sc13  1  0.02021699  0.04043498  0.22978301  1
  Fe  Fe14  1  0.57866854  0.15733609  0.17133146  1
  Fe  Fe15  1  0.77870688  0.55741277  0.97129312  1
  Fe  Fe16  1  0.97852950  0.95705899  0.77147050  1
  Fe  Fe17  1  0.37912930  0.75825861  0.37087070  1
  Fe  Fe18  1  0.17872138  0.35744177  0.57127862  1
  Fe  Fe19  1  0.42078635  0.84157169  0.82921365  1
  Si  Si20  1  0.71972298  0.03524145  0.00912126  1
  Si  Si21  1  0.87913025  0.16485679  0.38965787  1
  Si  Si22  1  0.88573774  0.36485726  0.34539655  1
  Si  Si23  1  0.91558209  0.23561484  0.85664403  1
  Si  Si24  1  0.92005845  0.43559489  0.80772155  1
  Si  Si25  1  0.51553645  0.43559489  0.25668456  1
  Si  Si26  1  0.31551847  0.03524145  0.45563728  1
  Si  Si27  1  0.71416973  0.83586043  0.05384367  1
  Si  Si28  1  0.51996855  0.63573426  0.20795627  1
  Si  Si29  1  0.32003274  0.23561484  0.40774113  1
  Si  Si30  1  0.47911952  0.36485726  0.78974720  1
  Si  Si31  1  0.67768957  0.76550789  0.59034228  1
  Si  Si32  1  0.48577004  0.56488678  0.74546632  1
  Si  Si33  1  0.68379105  0.96401029  0.54848722  1
  Si  Si34  1  0.28572655  0.16485679  0.94548533  1
  Si  Si35  1  0.07911674  0.56488678  0.18964690  1
  Si  Si36  1  0.08781832  0.76550789  0.14414983  1
  Si  Si37  1  0.11576571  0.63573426  0.65630848  1
  Si  Si38  1  0.12169070  0.83586043  0.61029591  1
  Si  Si39  1  0.28021924  0.96401029  0.98750249  1
  O  O40  1  0.95669715  0.19957264  0.10039972  1
  O  O41  1  0.91715488  0.09882722  0.41905223  1
  O  O42  1  0.95391919  0.20139000  0.59949427  1
  O  O43  1  0.89741646  0.03377453  0.94226793  1
  O  O44  1  0.84743120  0.40137943  0.09896635  1
  O  O45  1  0.64682483  0.00032765  0.30019775  1
  O  O46  1  0.78194855  0.29889375  0.38176508  1
  O  O47  1  0.98362376  0.69928427  0.18261749  1
  O  O48  1  0.70034173  0.16483908  0.44622891  1
  O  O49  1  0.90030246  0.56497435  0.24625100  1
  O  O50  1  0.84287815  0.39957877  0.60007143  1
  O  O51  1  0.88053052  0.50199510  0.78422743  1
  O  O52  1  0.68045522  0.10161537  0.98546007  1
  O  O53  1  0.93637545  0.63399661  0.72416647  1
  O  O54  1  0.73641972  0.23388902  0.92425605  1
  O  O55  1  0.35350282  0.00032765  0.19947360  1
  O  O56  1  0.49746830  0.23388902  0.34185493  1
  O  O57  1  0.69762116  0.63399661  0.14183692  1
  O  O58  1  0.82051689  0.90192884  0.01377165  1
  O  O59  1  0.62146458  0.50199510  0.21377746  1
  O  O60  1  0.42116015  0.10161537  0.41292556  1
  O  O61  1  0.75387465  0.79996366  0.30021145  1
  O  O62  1  0.55670062  0.39957877  0.50034880  1
  O  O63  1  0.66467188  0.56497435  0.68877465  1
  O  O64  1  0.86283133  0.96416576  0.48982244  1
  O  O65  1  0.46449736  0.16483908  0.88893201  1
  O  O66  1  0.51694520  0.29889375  0.81934017  1
  O  O67  1  0.71565951  0.69928427  0.61809824  1
  O  O68  1  0.75500770  0.80142485  0.79830299  1
  O  O69  1  0.55394823  0.40137943  -0.00034578  1
  O  O70  1  0.24287550  0.19957264  0.20002764  1
  O  O71  1  0.44299248  0.59962701  0.00015350  1
  O  O72  1  0.28047540  0.30199159  0.38417565  1
  O  O73  1  0.48056747  0.70214449  0.18577402  1
  O  O74  1  0.53424334  0.83429026  0.11521201  1
  O  O75  1  0.13635707  0.03377453  0.52395754  1
  O  O76  1  0.33640748  0.43392735  0.32428305  1
  O  O77  1  0.44744259  0.60132751  0.49899412  1
  O  O78  1  0.24747081  0.20139000  0.69911573  1
  O  O79  1  0.18167334  0.09882722  0.98212055  1
  O  O80  1  0.38202864  0.49889729  0.78182743  1
  O  O81  1  0.57777927  0.89777228  0.58818069  1
  O  O82  1  0.49910880  0.76675955  0.64938305  1
  O  O83  1  0.30036130  0.36488411  0.84615055  1
  O  O84  1  0.64231702  0.99934376  0.80086903  1
  O  O85  1  0.26765075  0.76675955  0.08385740  1
  O  O86  1  0.06452281  0.36488411  0.28896535  1
  O  O87  1  0.31999301  0.89777228  0.01404604  1
  O  O88  1  0.11686865  0.49889729  0.21927528  1
  O  O89  1  0.15388492  0.60132751  0.39967837  1
  O  O90  1  0.30004691  0.83429026  0.55049773  1
  O  O91  1  0.09751987  0.43392735  0.74178960  1
  O  O92  1  0.02151619  0.30199159  0.81383276  1
  O  O93  1  0.22157702  0.70214449  0.61208249  1
  O  O94  1  0.35702674  0.99934376  0.69978621  1
  O  O95  1  0.15663352  0.59962701  0.90021949  1
  O  O96  1  0.10133343  0.96416576  0.04601180  1
  O  O97  1  0.04608900  0.79996366  0.39982389  1
  O  O98  1  0.08141095  0.90192884  0.58430051  1
  O  O99  1  0.04641715  0.80142485  0.90027216  1
