# generated using pymatgen
data_NaLi3Fe4(SiO3)8
_symmetry_space_group_name_H-M   'P 1'
_cell_length_a   6.60397785
_cell_length_b   25.59012459
_cell_length_c   5.36615771
_cell_angle_alpha   92.86504233
_cell_angle_beta   104.58272399
_cell_angle_gamma   86.41718853
_symmetry_Int_Tables_number   1
_chemical_formula_structural   NaLi3Fe4(SiO3)8
_chemical_formula_sum   'Na2 Li6 Fe8 Si16 O48'
_cell_volume   875.38184201
_cell_formula_units_Z   2
loop_
 _symmetry_equiv_pos_site_id
 _symmetry_equiv_pos_as_xyz
  1  'x, y, z'
loop_
 _atom_site_type_symbol
 _atom_site_label
 _atom_site_symmetry_multiplicity
 _atom_site_fract_x
 _atom_site_fract_y
 _atom_site_fract_z
 _atom_site_occupancy
  Na  Na0  1  0.29091573  0.42761080  0.82245761  1
  Na  Na1  1  0.29113704  0.17705939  0.07263694  1
  Li  Li2  1  0.25998120  0.93453587  0.31478093  1
  Li  Li3  1  0.74041328  0.81468943  0.93486390  1
  Li  Li4  1  0.73904933  0.56511994  0.18510176  1
  Li  Li5  1  0.26023177  0.68473883  0.56464899  1
  Li  Li6  1  0.73886383  0.31550265  0.43491574  1
  Li  Li7  1  0.74023743  0.06507475  0.68465348  1
  Fe  Fe8  1  0.89729983  0.77546201  0.47430590  1
  Fe  Fe9  1  0.10250599  0.97373600  0.77410214  1
  Fe  Fe10  1  0.10265261  0.72440571  0.02530832  1
  Fe  Fe11  1  0.89686156  0.52622936  0.72622857  1
  Fe  Fe12  1  0.10102429  0.47544532  0.27664114  1
  Fe  Fe13  1  0.89675689  0.27596339  0.97426940  1
  Fe  Fe14  1  0.89719223  0.02520771  0.22224560  1
  Fe  Fe15  1  0.10078896  0.22478459  0.52538436  1
  Si  Si16  1  0.79477421  0.90370469  0.33299604  1
  Si  Si17  1  0.61550203  0.94866932  0.78827557  1
  Si  Si18  1  0.61527559  0.69901213  0.03835441  1
  Si  Si19  1  0.38423112  0.80123470  0.46161809  1
  Si  Si20  1  0.79401861  0.65422280  0.58299627  1
  Si  Si21  1  0.20514843  0.84591216  0.91665843  1
  Si  Si22  1  0.20537412  0.59671351  0.16588587  1
  Si  Si23  1  0.61770781  0.44946855  0.29931638  1
  Si  Si24  1  0.38248077  0.55238409  0.70873785  1
  Si  Si25  1  0.79462242  0.40464526  0.84148947  1
  Si  Si26  1  0.79533590  0.15412735  0.09145670  1
  Si  Si27  1  0.20246308  0.34577653  0.40598353  1
  Si  Si28  1  0.61790088  0.19913957  0.54927234  1
  Si  Si29  1  0.38236982  0.30137514  0.95306454  1
  Si  Si30  1  0.38413529  0.05032817  0.20593087  1
  Si  Si31  1  0.20209504  0.09498957  0.65668041  1
  O  O32  1  0.97124498  0.94894745  0.40089817  1
  O  O33  1  0.79611333  0.99292583  0.85740591  1
  O  O34  1  0.64755814  0.91157483  0.03820854  1
  O  O35  1  0.88918530  0.84385218  0.33007068  1
  O  O36  1  0.64597037  0.91203050  0.53750653  1
  O  O37  1  0.37574286  0.97232467  0.70152489  1
  O  O38  1  0.79632558  0.74310953  0.10813095  1
  O  O39  1  0.35198831  0.83864892  0.21212670  1
  O  O40  1  0.97081018  0.69945338  0.65118866  1
  O  O41  1  0.62430577  0.77787047  0.54847447  1
  O  O42  1  0.35395774  0.83815383  0.71218459  1
  O  O43  1  0.11080058  0.90595845  0.91970484  1
  O  O44  1  0.64709733  0.66192862  0.28809858  1
  O  O45  1  0.88727359  0.59432786  0.57962580  1
  O  O46  1  0.20328670  0.75721312  0.39203672  1
  O  O47  1  0.64557777  0.66233979  0.78777029  1
  O  O48  1  0.37536876  0.72258801  0.95153741  1
  O  O49  1  0.02840175  0.80089030  0.84810093  1
  O  O50  1  0.79888575  0.49304651  0.36165087  1
  O  O51  1  0.10919101  0.65653878  0.16856288  1
  O  O52  1  0.35371712  0.59014062  0.46113656  1
  O  O53  1  0.96344342  0.45119129  0.90506914  1
  O  O54  1  0.62111607  0.52795964  0.79672219  1
  O  O55  1  0.35388398  0.58895795  0.96125276  1
  O  O56  1  0.64594047  0.41188314  0.04804381  1
  O  O57  1  0.38041672  0.47453920  0.22226440  1
  O  O58  1  0.02872202  0.55159693  0.09867201  1
  O  O59  1  0.64578964  0.41156739  0.54608120  1
  O  O60  1  0.88935546  0.34476398  0.83409879  1
  O  O61  1  0.19692733  0.50975319  0.63704239  1
  O  O62  1  0.96385978  0.20066980  0.15472331  1
  O  O63  1  0.62121497  0.27749381  0.04380963  1
  O  O64  1  0.35347524  0.33850328  0.20383934  1
  O  O65  1  0.79862525  0.24286997  0.61089941  1
  O  O66  1  0.10183036  0.40501783  0.39845532  1
  O  O67  1  0.35241856  0.33846411  0.70168895  1
  O  O68  1  0.89119323  0.09428120  0.08442661  1
  O  O69  1  0.64636251  0.16156710  0.29785288  1
  O  O70  1  0.38071922  0.22425576  0.47226123  1
  O  O71  1  0.02800897  0.30032483  0.34593302  1
  O  O72  1  0.64618815  0.16119560  0.79614941  1
  O  O73  1  0.19632841  0.25905530  0.88542866  1
  O  O74  1  0.62433591  0.02747612  0.29544362  1
  O  O75  1  0.35349429  0.08773093  0.45481303  1
  O  O76  1  0.10306188  0.15442244  0.64932213  1
  O  O77  1  0.35054704  0.08716810  0.95293146  1
  O  O78  1  0.20281234  0.00658530  0.14029863  1
  O  O79  1  0.02777978  0.04956989  0.59526915  1
