# generated using pymatgen
data_Li4MnV3(P2O7)4
_symmetry_space_group_name_H-M   'P 1'
_cell_length_a   4.87265731
_cell_length_b   8.27904912
_cell_length_c   26.71461865
_cell_angle_alpha   90.00000000
_cell_angle_beta   88.70705623
_cell_angle_gamma   90.00000000
_symmetry_Int_Tables_number   1
_chemical_formula_structural   Li4MnV3(P2O7)4
_chemical_formula_sum   'Li8 Mn2 V6 P16 O56'
_cell_volume   1077.41922235
_cell_formula_units_Z   2
loop_
 _symmetry_equiv_pos_site_id
 _symmetry_equiv_pos_as_xyz
  1  'x, y, z'
loop_
 _atom_site_type_symbol
 _atom_site_label
 _atom_site_symmetry_multiplicity
 _atom_site_fract_x
 _atom_site_fract_y
 _atom_site_fract_z
 _atom_site_occupancy
  Li  Li0  1  0.16198062  0.36261586  0.33092137  1
  Li  Li1  1  0.16190257  0.36269277  0.83054167  1
  Li  Li2  1  0.33802989  0.86276847  0.41934500  1
  Li  Li3  1  0.33678191  0.86249440  0.91871567  1
  Li  Li4  1  0.66197011  0.36276847  0.08065500  1
  Li  Li5  1  0.66321809  0.36249440  0.58128433  1
  Li  Li6  1  0.83801938  0.86261586  0.16907763  1
  Li  Li7  1  0.83809743  0.86269277  0.66945833  1
  Mn  Mn8  1  0.14932145  0.99921162  0.81744553  1
  Mn  Mn9  1  0.85067855  0.49921162  0.68255447  1
  V  V10  1  0.14869085  0.99974100  0.31782861  1
  V  V11  1  0.35123361  0.49975986  0.43222135  1
  V  V12  1  0.35165405  0.49938789  0.93209097  1
  V  V13  1  0.64876639  0.99975986  0.06777865  1
  V  V14  1  0.64834595  0.99938789  0.56790903  1
  V  V15  1  0.85130915  0.49974100  0.18217139  1
  P  P16  1  0.13939280  0.18029211  0.13053061  1
  P  P17  1  0.16976735  0.78336677  0.02142241  1
  P  P18  1  0.13888589  0.18003631  0.62977027  1
  P  P19  1  0.16937609  0.78414617  0.52154244  1
  P  P20  1  0.33041983  0.28385616  0.22853043  1
  P  P21  1  0.36075289  0.68037277  0.11948783  1
  P  P22  1  0.33220278  0.28574950  0.72790803  1
  P  P23  1  0.35951609  0.67869476  0.61967510  1
  P  P24  1  0.63924711  0.18037277  0.38051217  1
  P  P25  1  0.66958017  0.78385616  0.27146957  1
  P  P26  1  0.64048391  0.17869476  0.88032490  1
  P  P27  1  0.66779722  0.78574950  0.77209197  1
  P  P28  1  0.83023265  0.28336677  0.47857759  1
  P  P29  1  0.86060720  0.68029211  0.36946939  1
  P  P30  1  0.83062391  0.28414617  0.97845756  1
  P  P31  1  0.86111411  0.68003631  0.87022973  1
  O  O32  1  0.00503268  0.84384871  0.37345060  1
  O  O33  1  0.05428031  0.53829524  0.37943473  1
  O  O34  1  0.09437399  0.67777031  0.15141213  1
  O  O35  1  0.00232733  0.84235465  0.87564663  1
  O  O36  1  0.05305530  0.53618119  0.87941472  1
  O  O37  1  0.14374952  0.43364476  0.22933769  1
  O  O38  1  0.09320072  0.67716835  0.65191576  1
  O  O39  1  0.12456333  0.32374852  0.46269612  1
  O  O40  1  0.21886519  0.15280101  0.18828872  1
  O  O41  1  0.14357626  0.43545448  0.72881139  1
  O  O42  1  0.18821957  0.69633686  0.47130133  1
  O  O43  1  0.12451286  0.32440623  0.96296366  1
  O  O44  1  0.28120203  0.65261162  0.06191153  1
  O  O45  1  0.21984882  0.15451300  0.68791526  1
  O  O46  1  0.18866764  0.69535943  0.97156989  1
  O  O47  1  0.31196619  0.19621982  0.27862806  1
  O  O48  1  0.35566180  0.93355041  0.02074527  1
  O  O49  1  0.28066768  0.65234428  0.56169612  1
  O  O50  1  0.37538559  0.82410207  0.28713504  1
  O  O51  1  0.31814590  0.20092159  0.77833243  1
  O  O52  1  0.40557507  0.17810642  0.09873913  1
  O  O53  1  0.35668201  0.93332584  0.52065024  1
  O  O54  1  0.36974037  0.82600617  0.78722166  1
  O  O55  1  0.40824029  0.17542189  0.59860645  1
  O  O56  1  0.44571068  0.03811536  0.37045710  1
  O  O57  1  0.50494720  0.84381326  0.12356734  1
  O  O58  1  0.49505280  0.34381326  0.37643266  1
  O  O59  1  0.44600251  0.03677956  0.87039656  1
  O  O60  1  0.55428932  0.53811536  0.12954290  1
  O  O61  1  0.50336738  0.84277055  0.62349804  1
  O  O62  1  0.49663262  0.34277055  0.87650196  1
  O  O63  1  0.55399749  0.53677956  0.62960344  1
  O  O64  1  0.59442493  0.67810642  0.40126087  1
  O  O65  1  0.62461441  0.32410207  0.21286496  1
  O  O66  1  0.64433820  0.43355041  0.47925473  1
  O  O67  1  0.59175971  0.67542189  0.90139355  1
  O  O68  1  0.68803381  0.69621982  0.22137194  1
  O  O69  1  0.63025963  0.32600617  0.71277834  1
  O  O70  1  0.71879797  0.15261162  0.43808847  1
  O  O71  1  0.64331799  0.43332584  0.97934976  1
  O  O72  1  0.68185410  0.70092159  0.72166757  1
  O  O73  1  0.81178043  0.19633686  0.02869867  1
  O  O74  1  0.78113481  0.65280101  0.31171128  1
  O  O75  1  0.71933232  0.15234428  0.93830388  1
  O  O76  1  0.87543667  0.82374852  0.03730388  1
  O  O77  1  0.81133236  0.19535943  0.52843011  1
  O  O78  1  0.85625048  0.93364476  0.27066231  1
  O  O79  1  0.78015118  0.65451300  0.81208474  1
  O  O80  1  0.87548714  0.82440623  0.53703634  1
  O  O81  1  0.90562601  0.17777031  0.34858787  1
  O  O82  1  0.85642374  0.93545448  0.77118861  1
  O  O83  1  0.94571969  0.03829524  0.12056527  1
  O  O84  1  0.99496732  0.34384871  0.12654940  1
  O  O85  1  0.90679928  0.17716835  0.84808424  1
  O  O86  1  0.94694470  0.03618119  0.62058528  1
  O  O87  1  0.99767267  0.34235465  0.62435337  1
