# generated using pymatgen
data_Li2MnFe(BO3)2
_symmetry_space_group_name_H-M   'P 1'
_cell_length_a   8.24376074
_cell_length_b   14.30912621
_cell_length_c   3.16511120
_cell_angle_alpha   90.00000000
_cell_angle_beta   90.00000000
_cell_angle_gamma   90.15147225
_symmetry_Int_Tables_number   1
_chemical_formula_structural   Li2MnFe(BO3)2
_chemical_formula_sum   'Li6 Mn3 Fe3 B6 O18'
_cell_volume   373.35841800
_cell_formula_units_Z   3
loop_
 _symmetry_equiv_pos_site_id
 _symmetry_equiv_pos_as_xyz
  1  'x, y, z'
loop_
 _atom_site_type_symbol
 _atom_site_label
 _atom_site_symmetry_multiplicity
 _atom_site_fract_x
 _atom_site_fract_y
 _atom_site_fract_z
 _atom_site_occupancy
  Li  Li0  1  0.29275699  0.99023843  0.50000000  1
  Li  Li1  1  0.34168839  0.35759373  0.50000000  1
  Li  Li2  1  0.36795732  0.65113315  0.50000000  1
  Li  Li3  1  0.79275959  0.49203672  0.50000000  1
  Li  Li4  1  0.84136439  0.85755304  0.50000000  1
  Li  Li5  1  0.86701711  0.15066616  0.50000000  1
  Mn  Mn6  1  0.13325533  0.50628339  0.00000000  1
  Mn  Mn7  1  0.19181877  0.17976610  0.00000000  1
  Mn  Mn8  1  0.63449982  0.00594502  0.00000000  1
  Fe  Fe9  1  0.17494882  0.81607903  0.00000000  1
  Fe  Fe10  1  0.67552189  0.31664909  0.00000000  1
  Fe  Fe11  1  0.68791923  0.68024023  0.00000000  1
  B  B12  1  0.99920447  0.66808075  0.50000000  1
  B  B13  1  0.99976834  0.99873176  0.00000000  1
  B  B14  1  0.99787052  0.33334534  0.50000000  1
  B  B15  1  0.50182163  0.16759054  0.50000000  1
  B  B16  1  0.50124737  0.49931436  0.00000000  1
  B  B17  1  0.49867947  0.83249653  0.50000000  1
  O  O18  1  0.00899935  0.43008774  0.50000000  1
  O  O19  1  0.01734409  0.76466860  0.50000000  1
  O  O20  1  0.13702759  0.61135449  0.50000000  1
  O  O21  1  0.13810317  0.27981489  0.50000000  1
  O  O22  1  0.15390866  0.95815253  0.00000000  1
  O  O23  1  0.34851984  0.12593213  0.50000000  1
  O  O24  1  0.34663502  0.79011607  0.50000000  1
  O  O25  1  0.36348710  0.44329775  0.00000000  1
  O  O26  1  0.48748151  0.59653420  0.00000000  1
  O  O27  1  0.51097824  0.92909227  0.50000000  1
  O  O28  1  0.51757167  0.26438463  0.50000000  1
  O  O29  1  0.63924035  0.11133067  0.50000000  1
  O  O30  1  0.63837590  0.77789532  0.50000000  1
  O  O31  1  0.65449873  0.45819233  0.00000000  1
  O  O32  1  0.84501358  0.62785858  0.50000000  1
  O  O33  1  0.84648742  0.29022342  0.50000000  1
  O  O34  1  0.86306082  0.94176187  0.00000000  1
  O  O35  1  0.98316851  0.09555914  0.00000000  1
