# generated using pymatgen
data_Li2MnFe(BO3)2
_symmetry_space_group_name_H-M   'P 1'
_cell_length_a   8.26731838
_cell_length_b   14.27712586
_cell_length_c   3.16491290
_cell_angle_alpha   90.00000000
_cell_angle_beta   90.00000000
_cell_angle_gamma   89.96777690
_symmetry_Int_Tables_number   1
_chemical_formula_structural   Li2MnFe(BO3)2
_chemical_formula_sum   'Li6 Mn3 Fe3 B6 O18'
_cell_volume   373.56583009
_cell_formula_units_Z   3
loop_
 _symmetry_equiv_pos_site_id
 _symmetry_equiv_pos_as_xyz
  1  'x, y, z'
loop_
 _atom_site_type_symbol
 _atom_site_label
 _atom_site_symmetry_multiplicity
 _atom_site_fract_x
 _atom_site_fract_y
 _atom_site_fract_z
 _atom_site_occupancy
  Li  Li0  1  0.29198467  0.98996501  0.50000000  1
  Li  Li1  1  0.33999553  0.35845037  0.50000000  1
  Li  Li2  1  0.36498430  0.65081577  0.50000000  1
  Li  Li3  1  0.79293230  0.49187479  0.50000000  1
  Li  Li4  1  0.84097107  0.85760885  0.50000000  1
  Li  Li5  1  0.86594788  0.14996993  0.50000000  1
  Mn  Mn6  1  0.19224117  0.18007658  0.00000000  1
  Mn  Mn7  1  0.67416683  0.31411651  0.00000000  1
  Mn  Mn8  1  0.69227652  0.67998742  0.00000000  1
  Fe  Fe9  1  0.13754282  0.50428424  0.00000000  1
  Fe  Fe10  1  0.17607317  0.81617180  0.00000000  1
  Fe  Fe11  1  0.63554384  0.00386089  0.00000000  1
  B  B12  1  0.00282084  0.66638254  0.50000000  1
  B  B13  1  0.99753853  0.99975943  0.00000000  1
  B  B14  1  0.00118884  0.33445307  0.50000000  1
  B  B15  1  0.50053081  0.16506070  0.50000000  1
  B  B16  1  0.49870462  0.50092786  0.00000000  1
  B  B17  1  0.49932251  0.83431398  0.50000000  1
  O  O18  1  0.01183695  0.43168561  0.50000000  1
  O  O19  1  0.01946458  0.76356940  0.50000000  1
  O  O20  1  0.13858958  0.60884683  0.50000000  1
  O  O21  1  0.14081996  0.28052665  0.50000000  1
  O  O22  1  0.15028960  0.95791667  0.00000000  1
  O  O23  1  0.34749375  0.12412366  0.50000000  1
  O  O24  1  0.34783934  0.79172619  0.50000000  1
  O  O25  1  0.36105422  0.44407530  0.00000000  1
  O  O26  1  0.48132663  0.59777023  0.00000000  1
  O  O27  1  0.51115189  0.93150066  0.50000000  1
  O  O28  1  0.51436813  0.26246802  0.50000000  1
  O  O29  1  0.63805548  0.10901753  0.50000000  1
  O  O30  1  0.63864339  0.78023090  0.50000000  1
  O  O31  1  0.65226047  0.46074798  0.00000000  1
  O  O32  1  0.84899220  0.62614854  0.50000000  1
  O  O33  1  0.85093193  0.29093909  0.50000000  1
  O  O34  1  0.85914323  0.94399855  0.00000000  1
  O  O35  1  0.98297444  0.09662847  0.00000000  1
