# generated using pymatgen
data_Ba14Na8CaN6
_symmetry_space_group_name_H-M   'P 1'
_cell_length_a   11.47277100
_cell_length_b   11.46999398
_cell_length_c   21.67637001
_cell_angle_alpha   90.00279004
_cell_angle_beta   89.99812806
_cell_angle_gamma   120.00683952
_symmetry_Int_Tables_number   1
_chemical_formula_structural   Ba14Na8CaN6
_chemical_formula_sum   'Ba28 Na16 Ca2 N12'
_cell_volume   2470.12406306
_cell_formula_units_Z   2
loop_
 _symmetry_equiv_pos_site_id
 _symmetry_equiv_pos_as_xyz
  1  'x, y, z'
loop_
 _atom_site_type_symbol
 _atom_site_label
 _atom_site_symmetry_multiplicity
 _atom_site_fract_x
 _atom_site_fract_y
 _atom_site_fract_z
 _atom_site_occupancy
  Ba  Ba0  1  0.25461100  0.96421000  0.95017600  1
  Ba  Ba1  1  0.25460800  0.96420400  0.54981700  1
  Ba  Ba2  1  0.32931700  0.95232400  0.36160400  1
  Ba  Ba3  1  0.32931100  0.95233000  0.13840200  1
  Ba  Ba4  1  0.04765900  0.37702500  0.13838400  1
  Ba  Ba5  1  0.04765900  0.37702100  0.36162400  1
  Ba  Ba6  1  0.03575600  0.29042300  0.54980700  1
  Ba  Ba7  1  0.03576300  0.29043000  0.95019400  1
  Ba  Ba8  1  0.99998700  0.99999800  0.15151600  1
  Ba  Ba9  1  0.99999200  0.99999800  0.34849100  1
  Ba  Ba10  1  0.00000000  0.99999900  0.65149100  1
  Ba  Ba11  1  0.00000400  0.99999900  0.84850100  1
  Ba  Ba12  1  0.29038600  0.25462300  0.04981500  1
  Ba  Ba13  1  0.29039200  0.25463100  0.45018800  1
  Ba  Ba14  1  0.37700800  0.32931900  0.86159700  1
  Ba  Ba15  1  0.37701000  0.32932500  0.63839400  1
  Ba  Ba16  1  0.62299900  0.67068300  0.36160900  1
  Ba  Ba17  1  0.62299800  0.67068600  0.13840000  1
  Ba  Ba18  1  0.70960100  0.74536200  0.54982000  1
  Ba  Ba19  1  0.70960300  0.74536900  0.95017500  1
  Ba  Ba20  1  0.96423900  0.70957700  0.04980700  1
  Ba  Ba21  1  0.96424800  0.70958500  0.45019400  1
  Ba  Ba22  1  0.95234600  0.62297100  0.86161100  1
  Ba  Ba23  1  0.95234200  0.62297200  0.63838100  1
  Ba  Ba24  1  0.67068100  0.04767100  0.86158900  1
  Ba  Ba25  1  0.67067100  0.04767300  0.63840600  1
  Ba  Ba26  1  0.74540000  0.03579300  0.04982100  1
  Ba  Ba27  1  0.74540400  0.03579800  0.45018500  1
  Na  Na28  1  0.31416500  0.96101100  0.75000300  1
  Na  Na29  1  0.03898000  0.35314000  0.75000100  1
  Na  Na30  1  0.33327600  0.66667100  0.00911500  1
  Na  Na31  1  0.33329600  0.66668800  0.24999800  1
  Na  Na32  1  0.33334700  0.66666900  0.49088200  1
  Na  Na33  1  0.33341400  0.66671300  0.66462600  1
  Na  Na34  1  0.33343100  0.66672100  0.83537700  1
  Na  Na35  1  0.35315400  0.31416600  0.24999600  1
  Na  Na36  1  0.64684900  0.68583400  0.75000300  1
  Na  Na37  1  0.66659100  0.33329000  0.33537400  1
  Na  Na38  1  0.66664700  0.33332300  0.50911900  1
  Na  Na39  1  0.66659600  0.33330800  0.75000200  1
  Na  Na40  1  0.66664900  0.33332200  0.99088300  1
  Na  Na41  1  0.66667200  0.33328200  0.16462300  1
  Na  Na42  1  0.96102500  0.64685900  0.24999900  1
  Na  Na43  1  0.68583400  0.03898700  0.24999700  1
  Ca  Ca44  1  0.99999900  0.00000300  0.99999800  1
  Ca  Ca45  1  0.99999800  0.00000200  0.50000300  1
  N  N46  1  0.16832000  0.97459800  0.06831200  1
  N  N47  1  0.16831900  0.97459500  0.43168800  1
  N  N48  1  0.02541200  0.19370500  0.06831700  1
  N  N49  1  0.02541100  0.19370400  0.43168700  1
  N  N50  1  0.19370500  0.16830000  0.56832200  1
  N  N51  1  0.19372900  0.16829600  0.93167500  1
  N  N52  1  0.80625400  0.83168800  0.06831800  1
  N  N53  1  0.80628200  0.83168900  0.43168800  1
  N  N54  1  0.97458500  0.80629700  0.93166800  1
  N  N55  1  0.97458800  0.80630000  0.56832700  1
  N  N56  1  0.83168800  0.02542200  0.56832200  1
  N  N57  1  0.83168800  0.02541800  0.93167800  1
