# generated using pymatgen
data_NaCu(PO3)4
_symmetry_space_group_name_H-M   'P 1'
_cell_length_a   8.08155730
_cell_length_b   8.08155662
_cell_length_c   8.01392400
_cell_angle_alpha   86.89771711
_cell_angle_beta   93.10228518
_cell_angle_gamma   71.66336543
_symmetry_Int_Tables_number   1
_chemical_formula_structural   NaCu(PO3)4
_chemical_formula_sum   'Na2 Cu2 P8 O24'
_cell_volume   494.69834681
_cell_formula_units_Z   2
loop_
 _symmetry_equiv_pos_site_id
 _symmetry_equiv_pos_as_xyz
  1  'x, y, z'
loop_
 _atom_site_type_symbol
 _atom_site_label
 _atom_site_symmetry_multiplicity
 _atom_site_fract_x
 _atom_site_fract_y
 _atom_site_fract_z
 _atom_site_occupancy
  Na  Na0  1  0.52205351  0.18982113  0.19618341  1
  Na  Na1  1  0.81017887  0.47794649  0.69618341  1
  Cu  Cu2  1  0.14341252  0.13148074  0.75638993  1
  Cu  Cu3  1  0.86851926  0.85658748  0.25638993  1
  P  P4  1  0.06010222  0.78821191  0.67790459  1
  P  P5  1  0.24691204  0.44639108  0.87495795  1
  P  P6  1  0.44529569  0.24387294  0.62114927  1
  P  P7  1  0.21178809  0.93989778  0.17790459  1
  P  P8  1  0.78682754  0.06078292  0.82504097  1
  P  P9  1  0.55360892  0.75308796  0.37495795  1
  P  P10  1  0.75612706  0.55470431  0.12114927  1
  P  P11  1  0.93921708  0.21317246  0.32504097  1
  O  O12  1  0.12647505  0.12579713  0.25566896  1
  O  O13  1  0.10647206  0.36452921  0.81287248  1
  O  O14  1  0.03717036  0.70172150  0.52394906  1
  O  O15  1  0.15978576  0.65357475  0.83433594  1
  O  O16  1  0.07213404  0.84946634  0.15335370  1
  O  O17  1  0.36511343  0.10425101  0.68436460  1
  O  O18  1  0.15053366  0.92786596  0.65335370  1
  O  O19  1  0.31710290  0.40806308  0.05055392  1
  O  O20  1  0.39789898  0.40089420  0.74477126  1
  O  O21  1  0.41975417  0.30523451  0.44253450  1
  O  O22  1  0.34642525  0.84021424  0.33433594  1
  O  O23  1  0.29827850  0.96282964  0.02394906  1
  O  O24  1  0.69921817  0.04918774  0.98095363  1
  O  O25  1  0.65401533  0.16154586  0.66888691  1
  O  O26  1  0.59193692  0.68289710  0.55055392  1
  O  O27  1  0.59910580  0.60210102  0.24477126  1
  O  O28  1  0.69476549  0.58024583  0.94253450  1
  O  O29  1  0.84433750  0.07477321  0.34005192  1
  O  O30  1  0.63547079  0.89352794  0.31287248  1
  O  O31  1  0.92522679  0.15566250  0.84005192  1
  O  O32  1  0.83845414  0.34598467  0.16888691  1
  O  O33  1  0.95081226  0.30078183  0.48095363  1
  O  O34  1  0.89574899  0.63488657  0.18436460  1
  O  O35  1  0.87420287  0.87352495  0.75566896  1
