# generated using pymatgen
data_Li2Ti3CrO8
_symmetry_space_group_name_H-M   'P 1'
_cell_length_a   8.44069715
_cell_length_b   8.44255237
_cell_length_c   8.44319504
_cell_angle_alpha   89.99803853
_cell_angle_beta   89.99609493
_cell_angle_gamma   89.99897377
_symmetry_Int_Tables_number   1
_chemical_formula_structural   Li2Ti3CrO8
_chemical_formula_sum   'Li8 Ti12 Cr4 O32'
_cell_volume   601.67075424
_cell_formula_units_Z   4
loop_
 _symmetry_equiv_pos_site_id
 _symmetry_equiv_pos_as_xyz
  1  'x, y, z'
loop_
 _atom_site_type_symbol
 _atom_site_label
 _atom_site_symmetry_multiplicity
 _atom_site_fract_x
 _atom_site_fract_y
 _atom_site_fract_z
 _atom_site_occupancy
  Li  Li0  1  0.00267338  0.00257717  0.00285757  1
  Li  Li1  1  0.24747748  0.24741107  0.24735395  1
  Li  Li2  1  0.25249571  0.75290063  0.74741199  1
  Li  Li3  1  0.49753565  0.99720959  0.50263975  1
  Li  Li4  1  0.50259519  0.49753363  0.99706706  1
  Li  Li5  1  0.74749427  0.25268130  0.75282346  1
  Li  Li6  1  0.75266901  0.74716693  0.25264858  1
  Li  Li7  1  0.99724707  0.50257932  0.49737853  1
  Ti  Ti8  1  0.12493693  0.12506486  0.62478528  1
  Ti  Ti9  1  0.12497998  0.37461289  0.87532359  1
  Ti  Ti10  1  0.12514315  0.62502276  0.12500775  1
  Ti  Ti11  1  0.37513407  0.37480219  0.62517894  1
  Ti  Ti12  1  0.37473562  0.62517410  0.37553104  1
  Ti  Ti13  1  0.37518240  0.87480734  0.12502995  1
  Ti  Ti14  1  0.62497937  0.37526040  0.37499725  1
  Ti  Ti15  1  0.62471168  0.12527088  0.12489617  1
  Ti  Ti16  1  0.62509213  0.87510132  0.87486464  1
  Ti  Ti17  1  0.87498985  0.12506241  0.37466714  1
  Ti  Ti18  1  0.87505214  0.87488208  0.62475527  1
  Ti  Ti19  1  0.87517870  0.62503653  0.87502576  1
  Cr  Cr20  1  0.12489969  0.87512222  0.37503289  1
  Cr  Cr21  1  0.37480246  0.12486005  0.87494377  1
  Cr  Cr22  1  0.62511602  0.62509790  0.62511656  1
  Cr  Cr23  1  0.87498049  0.37514205  0.12490632  1
  O  O24  1  0.11111825  0.11432736  0.38835595  1
  O  O25  1  0.11150998  0.88891761  0.61399264  1
  O  O26  1  0.11314029  0.61276254  0.88710718  1
  O  O27  1  0.13567029  0.13868645  0.86139763  1
  O  O28  1  0.11416153  0.38834525  0.11124400  1
  O  O29  1  0.13700115  0.36283833  0.63724051  1
  O  O30  1  0.13836798  0.63585086  0.36122825  1
  O  O31  1  0.13895317  0.86138585  0.13570523  1
  O  O32  1  0.36111834  0.13837314  0.63573059  1
  O  O33  1  0.36148397  0.36399342  0.86121512  1
  O  O34  1  0.36311404  0.63694554  0.13729220  1
  O  O35  1  0.38570682  0.61144259  0.61141319  1
  O  O36  1  0.36425126  0.86115737  0.36158004  1
  O  O37  1  0.38691261  0.38708945  0.38726902  1
  O  O38  1  0.38834444  0.11109537  0.11412094  1
  O  O39  1  0.38893469  0.88563818  0.88851026  1
  O  O40  1  0.61116564  0.38571886  0.61157122  1
  O  O41  1  0.61145456  0.61119615  0.38595774  1
  O  O42  1  0.61318068  0.88718056  0.11288281  1
  O  O43  1  0.63559351  0.36131062  0.13847475  1
  O  O44  1  0.61422107  0.11152931  0.88880660  1
  O  O45  1  0.63694966  0.13719410  0.36284364  1
  O  O46  1  0.63853375  0.86415884  0.63884423  1
  O  O47  1  0.63903805  0.63858118  0.86429127  1
  O  O48  1  0.86101356  0.36154525  0.36420884  1
  O  O49  1  0.86139557  0.13594946  0.13876327  1
  O  O50  1  0.86317184  0.86294438  0.86273164  1
  O  O51  1  0.88571689  0.88857798  0.38866941  1
  O  O52  1  0.86429081  0.63890169  0.63844235  1
  O  O53  1  0.88696399  0.11290435  0.61272603  1
  O  O54  1  0.88851109  0.38891025  0.88582516  1
  O  O55  1  0.88890905  0.61430711  0.11145409  1
