# generated using pymatgen
data_Mn2NbFe3(PO4)6
_symmetry_space_group_name_H-M   'P 1'
_cell_length_a   8.70573325
_cell_length_b   8.70573345
_cell_length_c   8.70573240
_cell_angle_alpha   59.96080683
_cell_angle_beta   59.96080944
_cell_angle_gamma   59.96080653
_symmetry_Int_Tables_number   1
_chemical_formula_structural   Mn2NbFe3(PO4)6
_chemical_formula_sum   'Mn2 Nb1 Fe3 P6 O24'
_cell_volume   466.13837862
_cell_formula_units_Z   1
loop_
 _symmetry_equiv_pos_site_id
 _symmetry_equiv_pos_as_xyz
  1  'x, y, z'
loop_
 _atom_site_type_symbol
 _atom_site_label
 _atom_site_symmetry_multiplicity
 _atom_site_fract_x
 _atom_site_fract_y
 _atom_site_fract_z
 _atom_site_occupancy
  Mn  Mn0  1  0.00474807  0.00474807  0.00474807  1
  Mn  Mn1  1  0.50058540  0.50058540  0.50058540  1
  Nb  Nb2  1  0.85600177  0.85600177  0.85600177  1
  Fe  Fe3  1  0.14698139  0.14698139  0.14698139  1
  Fe  Fe4  1  0.35503540  0.35503540  0.35503540  1
  Fe  Fe5  1  0.64449515  0.64449515  0.64449515  1
  P  P6  1  0.04462548  0.74708873  0.45086006  1
  P  P7  1  0.45086006  0.04462548  0.74708873  1
  P  P8  1  0.74708873  0.45086006  0.04462548  1
  P  P9  1  0.25525764  0.53826772  0.95754759  1
  P  P10  1  0.53826772  0.95754759  0.25525764  1
  P  P11  1  0.95754759  0.25525764  0.53826772  1
  O  O12  1  0.11535447  0.30838550  0.50753817  1
  O  O13  1  0.30838550  0.50753817  0.11535447  1
  O  O14  1  0.06028649  0.91347126  0.26330919  1
  O  O15  1  0.50753817  0.11535447  0.30838550  1
  O  O16  1  0.99419800  0.81245114  0.61621229  1
  O  O17  1  0.23670570  0.58780849  0.44491559  1
  O  O18  1  0.26330919  0.06028649  0.91347126  1
  O  O19  1  0.44491559  0.23670570  0.58780849  1
  O  O20  1  0.18685721  0.38769319  0.99673066  1
  O  O21  1  0.58780849  0.44491559  0.23670570  1
  O  O22  1  0.08846030  0.73656400  0.93664128  1
  O  O23  1  0.38769319  0.99673066  0.18685721  1
  O  O24  1  0.61621229  0.99419800  0.81245114  1
  O  O25  1  0.91347126  0.26330919  0.06028649  1
  O  O26  1  0.41305409  0.55976082  0.76275657  1
  O  O27  1  0.81245114  0.61621229  0.99419800  1
  O  O28  1  0.55976082  0.76275657  0.41305409  1
  O  O29  1  0.73656400  0.93664128  0.08846030  1
  O  O30  1  0.76275657  0.41305409  0.55976082  1
  O  O31  1  0.99673066  0.18685721  0.38769319  1
  O  O32  1  0.49549825  0.88645268  0.68740125  1
  O  O33  1  0.93664128  0.08846030  0.73656400  1
  O  O34  1  0.68740125  0.49549825  0.88645268  1
  O  O35  1  0.88645268  0.68740125  0.49549825  1
