# generated using pymatgen
data_LiFeF4
_symmetry_space_group_name_H-M   'P 1'
_cell_length_a   5.70759303
_cell_length_b   4.85545325
_cell_length_c   10.17691449
_cell_angle_alpha   90.00000000
_cell_angle_beta   95.03643839
_cell_angle_gamma   90.00000000
_symmetry_Int_Tables_number   1
_chemical_formula_structural   LiFeF4
_chemical_formula_sum   'Li4 Fe4 F16'
_cell_volume   280.94342638
_cell_formula_units_Z   4
loop_
 _symmetry_equiv_pos_site_id
 _symmetry_equiv_pos_as_xyz
  1  'x, y, z'
loop_
 _atom_site_type_symbol
 _atom_site_label
 _atom_site_symmetry_multiplicity
 _atom_site_fract_x
 _atom_site_fract_y
 _atom_site_fract_z
 _atom_site_occupancy
  Li  Li0  1  0.42228666  0.53980106  0.62831800  1
  Li  Li1  1  0.42228666  0.96019894  0.12831800  1
  Li  Li2  1  0.57771334  0.03980106  0.87168200  1
  Li  Li3  1  0.57771334  0.46019894  0.37168200  1
  Fe  Fe4  1  0.13634263  0.53260409  0.87450075  1
  Fe  Fe5  1  0.13634263  0.96739591  0.37450075  1
  Fe  Fe6  1  0.86365737  0.03260409  0.62549925  1
  Fe  Fe7  1  0.86365737  0.46739591  0.12549925  1
  F  F8  1  0.08231305  0.73777246  0.70614082  1
  F  F9  1  0.08231305  0.76222754  0.20614082  1
  F  F10  1  0.14823955  0.17808840  0.54414828  1
  F  F11  1  0.14823955  0.32191160  0.04414828  1
  F  F12  1  0.33222441  0.82049067  0.94949489  1
  F  F13  1  0.33222441  0.67950933  0.44949489  1
  F  F14  1  0.39117408  0.35382393  0.79997346  1
  F  F15  1  0.39117408  0.14617607  0.29997346  1
  F  F16  1  0.60882592  0.85382393  0.70002654  1
  F  F17  1  0.60882592  0.64617607  0.20002654  1
  F  F18  1  0.66777559  0.32049067  0.55050511  1
  F  F19  1  0.66777559  0.17950933  0.05050511  1
  F  F20  1  0.85176045  0.67808840  0.95585172  1
  F  F21  1  0.85176045  0.82191160  0.45585172  1
  F  F22  1  0.91768695  0.23777246  0.79385918  1
  F  F23  1  0.91768695  0.26222754  0.29385918  1
