# generated using pymatgen
data_Cr3Ni(SO4)6
_symmetry_space_group_name_H-M   'P 1'
_cell_length_a   8.29455918
_cell_length_b   8.84288553
_cell_length_c   8.29455902
_cell_angle_alpha   117.96915426
_cell_angle_beta   59.99999933
_cell_angle_gamma   117.96915655
_symmetry_Int_Tables_number   1
_chemical_formula_structural   Cr3Ni(SO4)6
_chemical_formula_sum   'Cr3 Ni1 S6 O24'
_cell_volume   442.93091916
_cell_formula_units_Z   1
loop_
 _symmetry_equiv_pos_site_id
 _symmetry_equiv_pos_as_xyz
  1  'x, y, z'
loop_
 _atom_site_type_symbol
 _atom_site_label
 _atom_site_symmetry_multiplicity
 _atom_site_fract_x
 _atom_site_fract_y
 _atom_site_fract_z
 _atom_site_occupancy
  Cr  Cr0  1  0.35590991  0.06772874  0.35590991  1
  Cr  Cr1  1  0.64427161  0.93281482  0.64427161  1
  Cr  Cr2  1  0.84940271  0.54820712  0.84940271  1
  Ni  Ni3  1  0.14996683  0.44990149  0.14996683  1
  S  S4  1  0.04002550  0.25176896  0.46365910  1
  S  S5  1  0.53766736  0.74804589  0.25260255  1
  S  S6  1  0.25260255  0.74804589  0.95777599  1
  S  S7  1  0.74808436  0.25176896  0.04002550  1
  S  S8  1  0.46365910  0.25176896  0.74808436  1
  S  S9  1  0.95777599  0.74804589  0.53766736  1
  O  O10  1  0.29909496  0.92209663  0.10784200  1
  O  O11  1  0.10784200  0.92209663  0.51515967  1
  O  O12  1  0.01044285  0.29206220  0.33026001  1
  O  O13  1  0.02392448  0.39589022  0.65692319  1
  O  O14  1  0.34924037  0.60465517  0.28577814  1
  O  O15  1  0.04679723  0.70530443  0.98384205  1
  O  O16  1  0.51515967  0.92209663  0.29909496  1
  O  O17  1  0.23786181  0.23487088  0.38138854  1
  O  O18  1  0.67466515  0.70530443  0.04679723  1
  O  O19  1  0.38191346  0.76846343  0.75941673  1
  O  O20  1  0.62713324  0.76846343  0.38191346  1
  O  O21  1  0.28577814  0.60465517  0.96963666  1
  O  O22  1  0.71504255  0.39589022  0.02392448  1
  O  O23  1  0.38138854  0.23487088  0.61562053  1
  O  O24  1  0.61562053  0.23487088  0.23786181  1
  O  O25  1  0.33026001  0.29206220  0.95136034  1
  O  O26  1  0.75941673  0.76846343  0.62713324  1
  O  O27  1  0.49141697  0.07729214  0.69329865  1
  O  O28  1  0.95136034  0.29206220  0.01044285  1
  O  O29  1  0.65692319  0.39589022  0.71504255  1
  O  O30  1  0.96963666  0.60465517  0.34924037  1
  O  O31  1  0.98384205  0.70530443  0.67466515  1
  O  O32  1  0.89257753  0.07729214  0.49141697  1
  O  O33  1  0.69329865  0.07729214  0.89257753  1
