# generated using pymatgen
data_Li2Mn3CrO8
_symmetry_space_group_name_H-M   'P 1'
_cell_length_a   8.50183084
_cell_length_b   8.29143265
_cell_length_c   8.32201428
_cell_angle_alpha   89.99897740
_cell_angle_beta   89.99894981
_cell_angle_gamma   90.01249717
_symmetry_Int_Tables_number   1
_chemical_formula_structural   Li2Mn3CrO8
_chemical_formula_sum   'Li8 Mn12 Cr4 O32'
_cell_volume   586.63839429
_cell_formula_units_Z   4
loop_
 _symmetry_equiv_pos_site_id
 _symmetry_equiv_pos_as_xyz
  1  'x, y, z'
loop_
 _atom_site_type_symbol
 _atom_site_label
 _atom_site_symmetry_multiplicity
 _atom_site_fract_x
 _atom_site_fract_y
 _atom_site_fract_z
 _atom_site_occupancy
  Li  Li0  1  0.00200893  0.00167342  0.00084787  1
  Li  Li1  1  0.24770705  0.25000931  0.24852861  1
  Li  Li2  1  0.25234497  0.75006077  0.74861919  1
  Li  Li3  1  0.49801253  0.99831883  0.50091329  1
  Li  Li4  1  0.50201133  0.49861071  0.99931785  1
  Li  Li5  1  0.74771430  0.24999377  0.75128830  1
  Li  Li6  1  0.75228743  0.74992818  0.25136193  1
  Li  Li7  1  0.99789103  0.50145647  0.49920990  1
  Mn  Mn8  1  0.12760201  0.12626097  0.62298251  1
  Mn  Mn9  1  0.12482445  0.37703311  0.87308307  1
  Mn  Mn10  1  0.12246514  0.62611883  0.12402270  1
  Mn  Mn11  1  0.37750091  0.37393057  0.62410448  1
  Mn  Mn12  1  0.37513681  0.62298517  0.37317566  1
  Mn  Mn13  1  0.37243744  0.87374904  0.12300293  1
  Mn  Mn14  1  0.62753878  0.37363645  0.37708881  1
  Mn  Mn15  1  0.62472658  0.12298222  0.12693257  1
  Mn  Mn16  1  0.62276728  0.87399350  0.87595916  1
  Mn  Mn17  1  0.87726638  0.12600620  0.37590850  1
  Mn  Mn18  1  0.87528810  0.87700441  0.62692080  1
  Mn  Mn19  1  0.87246370  0.62635283  0.87705547  1
  Cr  Cr20  1  0.12485192  0.87585925  0.37344694  1
  Cr  Cr21  1  0.37517613  0.12418217  0.87347568  1
  Cr  Cr22  1  0.62514451  0.62408018  0.62649125  1
  Cr  Cr23  1  0.87479184  0.37581176  0.12632508  1
  O  O24  1  0.10711713  0.12001425  0.39055907  1
  O  O25  1  0.12794409  0.89750954  0.61223403  1
  O  O26  1  0.10493215  0.61509589  0.88660386  1
  O  O27  1  0.13756885  0.14052958  0.85609968  1
  O  O28  1  0.11162247  0.39310042  0.11146015  1
  O  O29  1  0.14573306  0.36417630  0.63326273  1
  O  O30  1  0.12173712  0.63655834  0.35124805  1
  O  O31  1  0.14310040  0.85958112  0.13000577  1
  O  O32  1  0.35692896  0.14049321  0.63002520  1
  O  O33  1  0.37822061  0.36349088  0.85133163  1
  O  O34  1  0.35421467  0.63587252  0.13323948  1
  O  O35  1  0.38836494  0.60689654  0.61166330  1
  O  O36  1  0.36247467  0.85942476  0.35614070  1
  O  O37  1  0.39501416  0.38499484  0.38668369  1
  O  O38  1  0.37213694  0.10252674  0.11227579  1
  O  O39  1  0.39292575  0.88004144  0.89061529  1
  O  O40  1  0.60730590  0.37995865  0.60939835  1
  O  O41  1  0.62814684  0.60236894  0.38776166  1
  O  O42  1  0.60501871  0.88514212  0.11343719  1
  O  O43  1  0.63717848  0.35929824  0.14397843  1
  O  O44  1  0.61194696  0.10689659  0.88817606  1
  O  O45  1  0.64559783  0.13580215  0.36708858  1
  O  O46  1  0.62223219  0.86337833  0.64868311  1
  O  O47  1  0.64320666  0.64055267  0.87003271  1
  O  O48  1  0.85680613  0.35943058  0.36989936  1
  O  O49  1  0.87775355  0.13654668  0.14860982  1
  O  O50  1  0.85443620  0.86419105  0.86706185  1
  O  O51  1  0.88810025  0.89310249  0.38819279  1
  O  O52  1  0.86278896  0.64067310  0.64398089  1
  O  O53  1  0.89502263  0.11486316  0.61337812  1
  O  O54  1  0.87181821  0.39761386  0.88761194  1
  O  O55  1  0.89264394  0.61997890  0.10933816  1
