# generated using pymatgen
data_LiVFeP2(O4F)2
_symmetry_space_group_name_H-M   'P 1'
_cell_length_a   5.16155005
_cell_length_b   5.34790218
_cell_length_c   7.38730704
_cell_angle_alpha   109.53899734
_cell_angle_beta   105.74723713
_cell_angle_gamma   97.52654568
_symmetry_Int_Tables_number   1
_chemical_formula_structural   LiVFeP2(O4F)2
_chemical_formula_sum   'Li1 V1 Fe1 P2 O8 F2'
_cell_volume   179.34738640
_cell_formula_units_Z   1
loop_
 _symmetry_equiv_pos_site_id
 _symmetry_equiv_pos_as_xyz
  1  'x, y, z'
loop_
 _atom_site_type_symbol
 _atom_site_label
 _atom_site_symmetry_multiplicity
 _atom_site_fract_x
 _atom_site_fract_y
 _atom_site_fract_z
 _atom_site_occupancy
  Li  Li0  1  0.92479020  0.56728068  0.18007579  1
  V  V1  1  0.99905961  0.99893316  0.99507712  1
  Fe  Fe2  1  0.50629307  0.50006378  0.50573227  1
  P  P3  1  0.43553515  0.11666277  0.75933928  1
  P  P4  1  0.55980344  0.88451026  0.23970113  1
  O  O5  1  0.26786732  0.13253021  0.91153009  1
  O  O6  1  0.35620087  0.82189085  0.60435490  1
  O  O7  1  0.36038359  0.32114337  0.66373682  1
  O  O8  1  0.24154544  0.79363834  0.12284418  1
  O  O9  1  0.74695860  0.21170992  0.89985834  1
  O  O10  1  0.65019223  0.67962099  0.33517002  1
  O  O11  1  0.64771313  0.18328890  0.38833408  1
  O  O12  1  0.72494071  0.85237830  0.08479560  1
  F  F13  1  0.13515493  0.32354693  0.25672949  1
  F  F14  1  0.86195972  0.68596954  0.74131589  1
