# generated using pymatgen
data_Cr(Mo3Se4)2
_symmetry_space_group_name_H-M   'P 1'
_cell_length_a   6.74097575
_cell_length_b   6.72398841
_cell_length_c   6.75221941
_cell_angle_alpha   91.65696001
_cell_angle_beta   91.63815140
_cell_angle_gamma   91.64671664
_symmetry_Int_Tables_number   1
_chemical_formula_structural   Cr(Mo3Se4)2
_chemical_formula_sum   'Cr1 Mo6 Se8'
_cell_volume   305.66585055
_cell_formula_units_Z   1
loop_
 _symmetry_equiv_pos_site_id
 _symmetry_equiv_pos_as_xyz
  1  'x, y, z'
loop_
 _atom_site_type_symbol
 _atom_site_label
 _atom_site_symmetry_multiplicity
 _atom_site_fract_x
 _atom_site_fract_y
 _atom_site_fract_z
 _atom_site_occupancy
  Cr  Cr0  1  -0.00000000  0.00000000  -0.00000000  1
  Mo  Mo1  1  0.58014578  0.77115292  0.44964455  1
  Mo  Mo2  1  0.41985422  0.22884708  0.55035545  1
  Mo  Mo3  1  0.44973001  0.58077496  0.77272584  1
  Mo  Mo4  1  0.55026999  0.41922504  0.22727416  1
  Mo  Mo5  1  0.77116012  0.44986347  0.57935475  1
  Mo  Mo6  1  0.22883988  0.55013653  0.42064525  1
  Se  Se7  1  0.25278132  0.87218416  0.63451619  1
  Se  Se8  1  0.74721868  0.12781584  0.36548381  1
  Se  Se9  1  0.77677351  0.77888015  0.77854016  1
  Se  Se10  1  0.22322649  0.22111985  0.22145984  1
  Se  Se11  1  0.87188498  0.63192511  0.25140619  1
  Se  Se12  1  0.12811502  0.36807489  0.74859381  1
  Se  Se13  1  0.63347425  0.25359753  0.87158839  1
  Se  Se14  1  0.36652575  0.74640247  0.12841161  1
