# generated using pymatgen
data_Ba3SiO5
_symmetry_space_group_name_H-M   'P 1'
_cell_length_a   7.41091727
_cell_length_b   7.41091727
_cell_length_c   7.73640546
_cell_angle_alpha   118.61775206
_cell_angle_beta   118.61775205
_cell_angle_gamma   89.99999997
_symmetry_Int_Tables_number   1
_chemical_formula_structural   Ba3SiO5
_chemical_formula_sum   'Ba6 Si2 O10'
_cell_volume   312.57693379
_cell_formula_units_Z   2
loop_
 _symmetry_equiv_pos_site_id
 _symmetry_equiv_pos_as_xyz
  1  'x, y, z'
loop_
 _atom_site_type_symbol
 _atom_site_label
 _atom_site_symmetry_multiplicity
 _atom_site_fract_x
 _atom_site_fract_y
 _atom_site_fract_z
 _atom_site_occupancy
  O  O0  1  0.21102903  0.71102903  0.67510997  1
  O  O1  1  0.53591907  0.03591907  0.32489003  1
  O  O2  1  0.78897097  0.28897097  0.32489003  1
  O  O3  1  0.03591907  0.78897097  0.32489003  1
  O  O4  1  0.28897097  0.53591907  0.32489003  1
  O  O5  1  0.96408093  0.21102903  0.67510997  1
  O  O6  1  0.71102903  0.46408093  0.67510997  1
  O  O7  1  0.46408093  0.96408093  0.67510997  1
  O  O8  1  0.00000000  0.00000000  0.00000000  1
  O  O9  1  0.50000000  0.50000000  0.00000000  1
  Si  Si10  1  0.75000000  0.25000000  0.50000000  1
  Si  Si11  1  0.25000000  0.75000000  0.50000000  1
  Ba  Ba12  1  0.81689098  0.31689098  0.00000000  1
  Ba  Ba13  1  0.68310902  0.81689098  0.00000000  1
  Ba  Ba14  1  0.31689098  0.18310902  0.00000000  1
  Ba  Ba15  1  0.18310902  0.68310902  0.00000000  1
  Ba  Ba16  1  0.75000000  0.75000000  0.50000000  1
  Ba  Ba17  1  0.25000000  0.25000000  0.50000000  1
