# generated using pymatgen
data_Li2MnFe(BO3)2
_symmetry_space_group_name_H-M   'P 1'
_cell_length_a   8.25987388
_cell_length_b   14.30769804
_cell_length_c   3.16164602
_cell_angle_alpha   90.00000000
_cell_angle_beta   90.00000000
_cell_angle_gamma   89.97790197
_symmetry_Int_Tables_number   1
_chemical_formula_structural   Li2MnFe(BO3)2
_chemical_formula_sum   'Li6 Mn3 Fe3 B6 O18'
_cell_volume   373.64260749
_cell_formula_units_Z   3
loop_
 _symmetry_equiv_pos_site_id
 _symmetry_equiv_pos_as_xyz
  1  'x, y, z'
loop_
 _atom_site_type_symbol
 _atom_site_label
 _atom_site_symmetry_multiplicity
 _atom_site_fract_x
 _atom_site_fract_y
 _atom_site_fract_z
 _atom_site_occupancy
  Li  Li0  1  0.29236415  0.99144919  0.50000000  1
  Li  Li1  1  0.33895148  0.35856463  0.50000000  1
  Li  Li2  1  0.36477647  0.65028520  0.50000000  1
  Li  Li3  1  0.79358586  0.49164546  0.50000000  1
  Li  Li4  1  0.84245980  0.85697777  0.50000000  1
  Li  Li5  1  0.86769044  0.15118400  0.50000000  1
  Mn  Mn6  1  0.63300008  0.00583036  0.00000000  1
  Mn  Mn7  1  0.67382274  0.31461081  0.00000000  1
  Mn  Mn8  1  0.69185027  0.67976031  0.00000000  1
  Fe  Fe9  1  0.13766569  0.50402950  0.00000000  1
  Fe  Fe10  1  0.17601938  0.81598579  0.00000000  1
  Fe  Fe11  1  0.18721005  0.17967184  0.00000000  1
  B  B12  1  0.00272743  0.66609517  0.50000000  1
  B  B13  1  0.00122600  0.99917807  0.00000000  1
  B  B14  1  0.00207813  0.33325857  0.50000000  1
  B  B15  1  0.49747294  0.16725652  0.50000000  1
  B  B16  1  0.49889695  0.50086940  0.00000000  1
  B  B17  1  0.49798388  0.83328137  0.50000000  1
  O  O18  1  0.01371404  0.43038747  0.50000000  1
  O  O19  1  0.01930010  0.76306491  0.50000000  1
  O  O20  1  0.13834062  0.60851764  0.50000000  1
  O  O21  1  0.14119135  0.27842865  0.50000000  1
  O  O22  1  0.15372165  0.95780167  0.00000000  1
  O  O23  1  0.34454864  0.12645865  0.50000000  1
  O  O24  1  0.34711255  0.78998742  0.50000000  1
  O  O25  1  0.36132124  0.44418606  0.00000000  1
  O  O26  1  0.48150958  0.59748399  0.00000000  1
  O  O27  1  0.50829015  0.93022625  0.50000000  1
  O  O28  1  0.51290233  0.26420083  0.50000000  1
  O  O29  1  0.63649789  0.11183455  0.50000000  1
  O  O30  1  0.63863833  0.78021115  0.50000000  1
  O  O31  1  0.65273475  0.46080171  0.00000000  1
  O  O32  1  0.84881245  0.62599814  0.50000000  1
  O  O33  1  0.85098485  0.29074898  0.50000000  1
  O  O34  1  0.86324914  0.94332521  0.00000000  1
  O  O35  1  0.98734759  0.09640176  0.00000000  1
