# generated using pymatgen
data_V2O3F
_symmetry_space_group_name_H-M   'P 1'
_cell_length_a   8.82273164
_cell_length_b   5.58429056
_cell_length_c   5.58429056
_cell_angle_alpha   75.57468605
_cell_angle_beta   87.38602909
_cell_angle_gamma   87.38602909
_symmetry_Int_Tables_number   1
_chemical_formula_structural   V2O3F
_chemical_formula_sum   'V8 O12 F4'
_cell_volume   266.01266757
_cell_formula_units_Z   4
loop_
 _symmetry_equiv_pos_site_id
 _symmetry_equiv_pos_as_xyz
  1  'x, y, z'
loop_
 _atom_site_type_symbol
 _atom_site_label
 _atom_site_symmetry_multiplicity
 _atom_site_fract_x
 _atom_site_fract_y
 _atom_site_fract_z
 _atom_site_occupancy
  V  V0  1  0.87475534  0.62098812  0.62916518  1
  V  V1  1  0.62489456  0.86667447  0.88373241  1
  V  V2  1  0.75077409  0.28719886  0.21202919  1
  V  V3  1  0.50000000  0.53453502  0.46546498  1
  V  V4  1  0.24922591  0.78797081  0.71280114  1
  V  V5  1  0.37510544  0.11626759  0.13332553  1
  V  V6  1  0.12524466  0.37083482  0.37901188  1
  V  V7  1  0.00000000  0.95374852  0.04625148  1
  O  O8  1  0.75081666  0.55200086  0.95013846  1
  O  O9  1  0.22079138  0.97137686  0.97186737  1
  O  O10  1  0.97169186  0.21705172  0.22421935  1
  O  O11  1  0.47120102  0.72216709  0.72252558  1
  O  O12  1  0.72139922  0.46688125  0.47505493  1
  O  O13  1  0.77920862  0.02813263  0.02862314  1
  O  O14  1  0.02830814  0.77578065  0.78294828  1
  O  O15  1  0.52879898  0.27747442  0.27783291  1
  O  O16  1  0.27860078  0.52494507  0.53311875  1
  O  O17  1  0.50000000  0.79687043  0.20312957  1
  O  O18  1  0.24918334  0.04986154  0.44799914  1
  O  O19  1  0.00000000  0.69124233  0.30875767  1
  F  F20  1  0.50000000  0.19673098  0.80326902  1
  F  F21  1  0.74882103  0.94780153  0.55163263  1
  F  F22  1  0.00000000  0.29509705  0.70490295  1
  F  F23  1  0.25117897  0.44836737  0.05219847  1
