# generated using pymatgen
data_Li4Mn3Fe(BO3)4
_symmetry_space_group_name_H-M   'P 1'
_cell_length_a   5.25672394
_cell_length_b   9.09541767
_cell_length_c   10.50100118
_cell_angle_alpha   91.48925278
_cell_angle_beta   91.09778873
_cell_angle_gamma   89.80844646
_symmetry_Int_Tables_number   1
_chemical_formula_structural   Li4Mn3Fe(BO3)4
_chemical_formula_sum   'Li8 Mn6 Fe2 B8 O24'
_cell_volume   501.81116801
_cell_formula_units_Z   2
loop_
 _symmetry_equiv_pos_site_id
 _symmetry_equiv_pos_as_xyz
  1  'x, y, z'
loop_
 _atom_site_type_symbol
 _atom_site_label
 _atom_site_symmetry_multiplicity
 _atom_site_fract_x
 _atom_site_fract_y
 _atom_site_fract_z
 _atom_site_occupancy
  Li  Li0  1  0.85368119  0.82515453  0.66843640  1
  Li  Li1  1  0.81374398  0.83918501  0.16774952  1
  Li  Li2  1  0.67735987  0.66942222  0.41697328  1
  Li  Li3  1  0.66315563  0.67435882  0.91702332  1
  Li  Li4  1  0.35203776  0.32612394  0.66716769  1
  Li  Li5  1  0.31161626  0.33975904  0.16790956  1
  Li  Li6  1  0.18084354  0.16747845  0.41787885  1
  Li  Li7  1  0.16411099  0.17431280  0.91814594  1
  Mn  Mn8  1  0.82258637  0.50178077  0.13251698  1
  Mn  Mn9  1  0.84123467  0.16076274  0.63376828  1
  Mn  Mn10  1  0.66885610  0.33603548  0.38299924  1
  Mn  Mn11  1  0.66839065  0.00117860  0.88384021  1
  Mn  Mn12  1  0.32088357  0.99998382  0.13533656  1
  Mn  Mn13  1  0.17037380  0.50373953  0.88128853  1
  Fe  Fe14  1  0.34602442  0.66106568  0.63054288  1
  Fe  Fe15  1  0.16152629  0.83513862  0.38521919  1
  B  B16  1  0.82621956  0.17048339  0.12632871  1
  B  B17  1  0.84027688  0.49997973  0.62522275  1
  B  B18  1  0.66532847  0.00107042  0.37727820  1
  B  B19  1  0.67211310  0.33308257  0.87515498  1
  B  B20  1  0.32617118  0.67060322  0.12661756  1
  B  B21  1  0.34233183  0.99651321  0.62505774  1
  B  B22  1  0.16344666  0.50424829  0.37620432  1
  B  B23  1  0.17276070  0.83293477  0.87464560  1
  O  O24  1  0.90349935  0.51938329  0.34643682  1
  O  O25  1  0.91095919  0.82058186  0.86072772  1
  O  O26  1  0.82602440  0.21083737  0.84497502  1
  O  O27  1  0.80564246  0.12428651  0.41747300  1
  O  O28  1  0.78555491  0.86532305  0.36291215  1
  O  O29  1  0.78406747  0.46500531  0.91724145  1
  O  O30  1  0.72345661  0.63668266  0.61230546  1
  O  O31  1  0.71012332  0.03499953  0.09644794  1
  O  O32  1  0.69807579  0.37299315  0.59635741  1
  O  O33  1  0.67761339  0.28979373  0.16738820  1
  O  O34  1  0.58634465  0.68563009  0.11161086  1
  O  O35  1  0.59531129  0.98264567  0.66593453  1
  O  O36  1  0.40570663  0.01247358  0.34802738  1
  O  O37  1  0.41057814  0.32136788  0.86029820  1
  O  O38  1  0.32695346  0.71177675  0.84317134  1
  O  O39  1  0.30504911  0.62724681  0.41695076  1
  O  O40  1  0.27734211  0.36724411  0.36225125  1
  O  O41  1  0.28252751  0.96508534  0.91796681  1
  O  O42  1  0.21163780  0.53476632  0.09558527  1
  O  O43  1  0.23305699  0.13435399  0.61060899  1
  O  O44  1  0.19752115  0.87020091  0.59570363  1
  O  O45  1  0.17743544  0.78881835  0.16835575  1
  O  O46  1  0.08635897  0.18482198  0.11199132  1
  O  O47  1  0.09468338  0.48988909  0.66356944  1
