# generated using pymatgen
data_Ba2Ga6O11
_symmetry_space_group_name_H-M   'P 1'
_cell_length_a   23.22310128
_cell_length_b   5.16121101
_cell_length_c   8.93236349
_cell_angle_alpha   90.00000000
_cell_angle_beta   90.00000000
_cell_angle_gamma   90.00000000
_symmetry_Int_Tables_number   1
_chemical_formula_structural   Ba2Ga6O11
_chemical_formula_sum   'Ba8 Ga24 O44'
_cell_volume   1070.62706761
_cell_formula_units_Z   4
loop_
 _symmetry_equiv_pos_site_id
 _symmetry_equiv_pos_as_xyz
  1  'x, y, z'
loop_
 _atom_site_type_symbol
 _atom_site_label
 _atom_site_symmetry_multiplicity
 _atom_site_fract_x
 _atom_site_fract_y
 _atom_site_fract_z
 _atom_site_occupancy
  Ba  Ba0  1  0.14065138  0.39771063  0.00000000  1
  Ba  Ba1  1  0.15516883  0.47360606  0.50000000  1
  Ba  Ba2  1  0.34483117  0.97360606  0.00000000  1
  Ba  Ba3  1  0.35934862  0.89771063  0.50000000  1
  Ba  Ba4  1  0.64065138  0.10228937  0.50000000  1
  Ba  Ba5  1  0.65516883  0.02639394  0.00000000  1
  Ba  Ba6  1  0.84483117  0.52639394  0.50000000  1
  Ba  Ba7  1  0.85934862  0.60228937  0.00000000  1
  Ga  Ga8  1  0.00000000  0.00000000  0.00000000  1
  Ga  Ga9  1  0.00000000  0.50000000  0.16702669  1
  Ga  Ga10  1  0.00000000  0.50000000  0.50000000  1
  Ga  Ga11  1  0.00000000  0.50000000  0.83297331  1
  Ga  Ga12  1  0.07318426  0.99449577  0.32058653  1
  Ga  Ga13  1  0.07318426  0.99449577  0.67941347  1
  Ga  Ga14  1  0.21351413  0.88893297  0.79386693  1
  Ga  Ga15  1  0.21351413  0.88893297  0.20613307  1
  Ga  Ga16  1  0.28648587  0.38893297  0.29386693  1
  Ga  Ga17  1  0.28648587  0.38893297  0.70613307  1
  Ga  Ga18  1  0.42681574  0.49449577  0.17941347  1
  Ga  Ga19  1  0.42681574  0.49449577  0.82058653  1
  Ga  Ga20  1  0.50000000  0.00000000  0.00000000  1
  Ga  Ga21  1  0.50000000  0.00000000  0.33297331  1
  Ga  Ga22  1  0.50000000  0.00000000  0.66702669  1
  Ga  Ga23  1  0.50000000  0.50000000  0.50000000  1
  Ga  Ga24  1  0.57318426  0.50550423  0.82058653  1
  Ga  Ga25  1  0.57318426  0.50550423  0.17941347  1
  Ga  Ga26  1  0.71351413  0.61106703  0.29386693  1
  Ga  Ga27  1  0.71351413  0.61106703  0.70613307  1
  Ga  Ga28  1  0.78648587  0.11106703  0.20613307  1
  Ga  Ga29  1  0.78648587  0.11106703  0.79386693  1
  Ga  Ga30  1  0.92681574  0.00550423  0.32058653  1
  Ga  Ga31  1  0.92681574  0.00550423  0.67941347  1
  O  O32  1  0.04395936  0.67373008  0.00000000  1
  O  O33  1  0.04922136  0.17965969  0.15646580  1
  O  O34  1  0.04922136  0.17965969  0.84353420  1
  O  O35  1  0.04837108  0.65023368  0.33654928  1
  O  O36  1  0.04837108  0.65023368  0.66345072  1
  O  O37  1  0.05620711  0.17951826  0.50000000  1
  O  O38  1  0.15366561  0.00754526  0.67650372  1
  O  O39  1  0.15366561  0.00754526  0.32349628  1
  O  O40  1  0.20234208  0.95034119  0.00000000  1
  O  O41  1  0.21574735  0.52919514  0.76417465  1
  O  O42  1  0.21574735  0.52919514  0.23582535  1
  O  O43  1  0.28425265  0.02919514  0.26417465  1
  O  O44  1  0.28425265  0.02919514  0.73582535  1
  O  O45  1  0.29765792  0.45034119  0.50000000  1
  O  O46  1  0.34633439  0.50754526  0.17650372  1
  O  O47  1  0.34633439  0.50754526  0.82349628  1
  O  O48  1  0.44379289  0.67951826  0.00000000  1
  O  O49  1  0.45162892  0.15023368  0.16345072  1
  O  O50  1  0.45162892  0.15023368  0.83654928  1
  O  O51  1  0.45077864  0.67965969  0.65646580  1
  O  O52  1  0.45077864  0.67965969  0.34353420  1
  O  O53  1  0.45604064  0.17373008  0.50000000  1
  O  O54  1  0.54395936  0.82626992  0.50000000  1
  O  O55  1  0.54922136  0.32034031  0.34353420  1
  O  O56  1  0.54922136  0.32034031  0.65646580  1
  O  O57  1  0.54837108  0.84976632  0.16345072  1
  O  O58  1  0.54837108  0.84976632  0.83654928  1
  O  O59  1  0.55620711  0.32048174  0.00000000  1
  O  O60  1  0.65366561  0.49245474  0.82349628  1
  O  O61  1  0.65366561  0.49245474  0.17650372  1
  O  O62  1  0.70234208  0.54965881  0.50000000  1
  O  O63  1  0.71574735  0.97080486  0.73582535  1
  O  O64  1  0.71574735  0.97080486  0.26417465  1
  O  O65  1  0.78425265  0.47080486  0.23582535  1
  O  O66  1  0.78425265  0.47080486  0.76417465  1
  O  O67  1  0.79765792  0.04965881  0.00000000  1
  O  O68  1  0.84633439  0.99245474  0.67650372  1
  O  O69  1  0.84633439  0.99245474  0.32349628  1
  O  O70  1  0.94379289  0.82048174  0.50000000  1
  O  O71  1  0.95162892  0.34976632  0.33654928  1
  O  O72  1  0.95162892  0.34976632  0.66345072  1
  O  O73  1  0.95077864  0.82034031  0.15646580  1
  O  O74  1  0.95077864  0.82034031  0.84353420  1
  O  O75  1  0.95604064  0.32626992  0.00000000  1
