# generated using pymatgen
data_Li4Mn3Fe(BO3)4
_symmetry_space_group_name_H-M   'P 1'
_cell_length_a   5.24650923
_cell_length_b   5.24967041
_cell_length_c   20.95165765
_cell_angle_alpha   89.14433263
_cell_angle_beta   90.77882588
_cell_angle_gamma   60.20242276
_symmetry_Int_Tables_number   1
_chemical_formula_structural   Li4Mn3Fe(BO3)4
_chemical_formula_sum   'Li8 Mn6 Fe2 B8 O24'
_cell_volume   500.56204005
_cell_formula_units_Z   2
loop_
 _symmetry_equiv_pos_site_id
 _symmetry_equiv_pos_as_xyz
  1  'x, y, z'
loop_
 _atom_site_type_symbol
 _atom_site_label
 _atom_site_symmetry_multiplicity
 _atom_site_fract_x
 _atom_site_fract_y
 _atom_site_fract_z
 _atom_site_occupancy
  Li  Li0  1  0.32183514  0.65204208  0.66596573  1
  Li  Li1  1  0.34751680  0.67863223  0.91574181  1
  Li  Li2  1  0.32094402  0.65139975  0.16586286  1
  Li  Li3  1  0.34917910  0.67907882  0.41607970  1
  Li  Li4  1  0.65317099  0.33786321  0.79175049  1
  Li  Li5  1  0.66197319  0.34844175  0.54151363  1
  Li  Li6  1  0.65185876  0.33807392  0.29114508  1
  Li  Li7  1  0.66214212  0.34637793  0.04138915  1
  Mn  Mn8  1  0.32453579  0.00657737  0.55912089  1
  Mn  Mn9  1  0.33117605  0.00362624  0.05721728  1
  Mn  Mn10  1  0.67730723  0.00296926  0.43392243  1
  Mn  Mn11  1  0.99675921  0.32282325  0.18312375  1
  Mn  Mn12  1  0.99283203  0.67314409  0.80794756  1
  Mn  Mn13  1  0.99691116  0.67069669  0.30836150  1
  Fe  Fe14  1  0.68373078  0.00329295  0.93348000  1
  Fe  Fe15  1  0.99590221  0.31772332  0.68395468  1
  B  B16  1  0.00267006  0.33877977  0.93677986  1
  B  B17  1  0.00258076  0.34181588  0.43721293  1
  B  B18  1  0.33392631  0.00503118  0.81238227  1
  B  B19  1  0.33492768  0.00447129  0.31209771  1
  B  B20  1  0.66152826  0.99715320  0.68698354  1
  B  B21  1  0.65812811  0.99739398  0.18695271  1
  B  B22  1  0.99399663  0.66575774  0.56305086  1
  B  B23  1  0.99676897  0.66519059  0.06141081  1
  O  O24  1  0.07118583  0.24803381  0.79101861  1
  O  O25  1  0.07080047  0.24707889  0.29101637  1
  O  O26  1  0.25876797  0.07122571  0.95033383  1
  O  O27  1  0.02008479  0.58506874  0.91804339  1
  O  O28  1  0.25303070  0.07068529  0.45224806  1
  O  O29  1  0.03292995  0.57913148  0.41663410  1
  O  O30  1  0.57759860  0.03710790  0.82779737  1
  O  O31  1  0.26808558  0.64216426  0.56997960  1
  O  O32  1  0.57826717  0.03734392  0.32739829  1
  O  O33  1  0.27020310  0.64184138  0.06886401  1
  O  O34  1  0.35675644  0.73158656  0.81941141  1
  O  O35  1  0.35883840  0.73121157  0.31936126  1
  O  O36  1  0.64067962  0.27019310  0.69394803  1
  O  O37  1  0.62897325  0.27224683  0.19427260  1
  O  O38  1  0.72895571  0.35945403  0.94356948  1
  O  O39  1  0.41446422  0.97984486  0.66819979  1
  O  O40  1  0.72729507  0.37102271  0.44471252  1
  O  O41  1  0.42066570  0.96715670  0.16623351  1
  O  O42  1  0.96165697  0.42274221  0.57842806  1
  O  O43  1  0.96382657  0.42175843  0.07657194  1
  O  O44  1  0.75097796  0.92924435  0.54176586  1
  O  O45  1  0.75445066  0.92881314  0.04040463  1
  O  O46  1  0.92869964  0.74138110  0.70067285  1
  O  O47  1  0.92930725  0.74650556  0.20186319  1
