# generated using pymatgen
data_Li4Mn3Fe(BO3)4
_symmetry_space_group_name_H-M   'P 1'
_cell_length_a   5.24788884
_cell_length_b   5.25102502
_cell_length_c   20.87713517
_cell_angle_alpha   89.22677696
_cell_angle_beta   90.88309845
_cell_angle_gamma   60.15640444
_symmetry_Int_Tables_number   1
_chemical_formula_structural   Li4Mn3Fe(BO3)4
_chemical_formula_sum   'Li8 Mn6 Fe2 B8 O24'
_cell_volume   498.80593905
_cell_formula_units_Z   2
loop_
 _symmetry_equiv_pos_site_id
 _symmetry_equiv_pos_as_xyz
  1  'x, y, z'
loop_
 _atom_site_type_symbol
 _atom_site_label
 _atom_site_symmetry_multiplicity
 _atom_site_fract_x
 _atom_site_fract_y
 _atom_site_fract_z
 _atom_site_occupancy
  Li  Li0  1  0.32126296  0.65163969  0.66620787  1
  Li  Li1  1  0.34723507  0.67872920  0.91644373  1
  Li  Li2  1  0.32134077  0.65080104  0.16619386  1
  Li  Li3  1  0.34833071  0.67765093  0.41606023  1
  Li  Li4  1  0.65228660  0.33491175  0.79120828  1
  Li  Li5  1  0.66224645  0.34611700  0.54176507  1
  Li  Li6  1  0.65118783  0.33781502  0.29154243  1
  Li  Li7  1  0.66213167  0.34760813  0.04108352  1
  Mn  Mn8  1  0.33135322  0.00359995  0.55740566  1
  Mn  Mn9  1  0.32954523  0.00313065  0.05811507  1
  Mn  Mn10  1  0.67951882  0.00032308  0.93234764  1
  Mn  Mn11  1  0.99814396  0.32561858  0.68425805  1
  Mn  Mn12  1  0.99689028  0.32345225  0.18370063  1
  Mn  Mn13  1  0.99356498  0.67431449  0.30919830  1
  Fe  Fe14  1  0.68242871  0.00472236  0.43368709  1
  Fe  Fe15  1  0.99979962  0.67565423  0.80851925  1
  B  B16  1  0.00337793  0.34041852  0.93622239  1
  B  B17  1  0.00316001  0.33834606  0.43688056  1
  B  B18  1  0.33027859  0.00597732  0.81175237  1
  B  B19  1  0.33330956  0.00614456  0.31310288  1
  B  B20  1  0.65925299  0.99798697  0.68787703  1
  B  B21  1  0.65828104  0.99752333  0.18722026  1
  B  B22  1  0.99668015  0.66542123  0.56144910  1
  B  B23  1  0.99556260  0.66558478  0.06199247  1
  O  O24  1  0.06814929  0.25522361  0.79308041  1
  O  O25  1  0.06996849  0.24923695  0.29184026  1
  O  O26  1  0.25442153  0.06996561  0.95138265  1
  O  O27  1  0.03346734  0.57785956  0.91583006  1
  O  O28  1  0.25861527  0.07074286  0.45028669  1
  O  O29  1  0.02138679  0.58476090  0.41839271  1
  O  O30  1  0.58236600  0.02543229  0.82576877  1
  O  O31  1  0.26939262  0.64270206  0.56903513  1
  O  O32  1  0.57698515  0.03821352  0.32842279  1
  O  O33  1  0.26889616  0.64159244  0.06920573  1
  O  O34  1  0.34690141  0.73426711  0.81783460  1
  O  O35  1  0.35690471  0.73288720  0.31994692  1
  O  O36  1  0.63110355  0.27256027  0.69463890  1
  O  O37  1  0.62920546  0.27216914  0.19454502  1
  O  O38  1  0.72859895  0.36918932  0.94350120  1
  O  O39  1  0.42158382  0.96817394  0.66707659  1
  O  O40  1  0.73014675  0.35829528  0.44377114  1
  O  O41  1  0.42079583  0.96696745  0.16662607  1
  O  O42  1  0.96431511  0.42218240  0.57681303  1
  O  O43  1  0.96271309  0.42239457  0.07718247  1
  O  O44  1  0.75387518  0.92878373  0.54044758  1
  O  O45  1  0.75283323  0.92965089  0.04093109  1
  O  O46  1  0.92963333  0.74747819  0.70315950  1
  O  O47  1  0.92937220  0.74697861  0.20224596  1
