# generated using pymatgen
data_Li8Mn5Fe3(BO3)8
_symmetry_space_group_name_H-M   'P 1'
_cell_length_a   5.24084283
_cell_length_b   5.24244173
_cell_length_c   20.93569446
_cell_angle_alpha   89.24662955
_cell_angle_beta   90.97066092
_cell_angle_gamma   60.14228369
_symmetry_Int_Tables_number   1
_chemical_formula_structural   Li8Mn5Fe3(BO3)8
_chemical_formula_sum   'Li8 Mn5 Fe3 B8 O24'
_cell_volume   498.62810469
_cell_formula_units_Z   1
loop_
 _symmetry_equiv_pos_site_id
 _symmetry_equiv_pos_as_xyz
  1  'x, y, z'
loop_
 _atom_site_type_symbol
 _atom_site_label
 _atom_site_symmetry_multiplicity
 _atom_site_fract_x
 _atom_site_fract_y
 _atom_site_fract_z
 _atom_site_occupancy
  Li  Li0  1  0.32134066  0.65199669  0.66636324  1
  Li  Li1  1  0.34652593  0.67822170  0.91552753  1
  Li  Li2  1  0.32083517  0.65138284  0.16592867  1
  Li  Li3  1  0.34910660  0.67883226  0.41618439  1
  Li  Li4  1  0.65116508  0.33779041  0.79162731  1
  Li  Li5  1  0.66209200  0.34879643  0.54150892  1
  Li  Li6  1  0.65166172  0.33814940  0.29120909  1
  Li  Li7  1  0.66180439  0.34691633  0.04139164  1
  Mn  Mn8  1  0.32591430  0.00588197  0.55934487  1
  Mn  Mn9  1  0.33087962  0.00337710  0.05759610  1
  Mn  Mn10  1  0.67665265  0.00322422  0.43384402  1
  Mn  Mn11  1  0.99670982  0.32296637  0.18341973  1
  Mn  Mn12  1  0.99699446  0.67102347  0.30858578  1
  Fe  Fe13  1  0.68385892  0.00215730  0.93303022  1
  Fe  Fe14  1  0.99583426  0.32086187  0.68465502  1
  Fe  Fe15  1  0.99269069  0.66643619  0.80871217  1
  B  B16  1  0.00395270  0.33844422  0.93627534  1
  B  B17  1  0.00305918  0.34131774  0.43710401  1
  B  B18  1  0.33410000  0.00474756  0.81202442  1
  B  B19  1  0.33444968  0.00479071  0.31204358  1
  B  B20  1  0.66229597  0.99643064  0.68752646  1
  B  B21  1  0.65862823  0.99717078  0.18693873  1
  B  B22  1  0.99408970  0.66582100  0.56287848  1
  B  B23  1  0.99566772  0.66575927  0.06141570  1
  O  O24  1  0.07112949  0.25615424  0.79217193  1
  O  O25  1  0.06946511  0.24711939  0.29094180  1
  O  O26  1  0.25947663  0.07080209  0.95037272  1
  O  O27  1  0.02297860  0.58413199  0.91730510  1
  O  O28  1  0.25325585  0.06959394  0.45226685  1
  O  O29  1  0.03392633  0.57861864  0.41651736  1
  O  O30  1  0.58340496  0.02947338  0.82675748  1
  O  O31  1  0.26897855  0.64113950  0.56983051  1
  O  O32  1  0.57749446  0.03867699  0.32732379  1
  O  O33  1  0.27009703  0.64100547  0.06882964  1
  O  O34  1  0.34697708  0.73639983  0.81857483  1
  O  O35  1  0.35978674  0.73050999  0.31934445  1
  O  O36  1  0.64113003  0.27075394  0.69415364  1
  O  O37  1  0.62843393  0.27293679  0.19403836  1
  O  O38  1  0.72957961  0.35981029  0.94285550  1
  O  O39  1  0.41499155  0.97896400  0.66842797  1
  O  O40  1  0.72722750  0.37155767  0.44439348  1
  O  O41  1  0.42107864  0.96611962  0.16626349  1
  O  O42  1  0.96112320  0.42318155  0.57854415  1
  O  O43  1  0.96217114  0.42270801  0.07677223  1
  O  O44  1  0.75143266  0.93007226  0.54148167  1
  O  O45  1  0.75356150  0.92994611  0.04017096  1
  O  O46  1  0.93026926  0.74226890  0.70171921  1
  O  O47  1  0.93052367  0.74676091  0.20200845  1
