# generated using pymatgen
data_V4(OF3)3
_symmetry_space_group_name_H-M   'P 1'
_cell_length_a   5.25278750
_cell_length_b   5.41787676
_cell_length_c   17.52894159
_cell_angle_alpha   91.47375942
_cell_angle_beta   99.30551902
_cell_angle_gamma   60.61287620
_symmetry_Int_Tables_number   1
_chemical_formula_structural   V4(OF3)3
_chemical_formula_sum   'V8 O6 F18'
_cell_volume   428.10951661
_cell_formula_units_Z   2
loop_
 _symmetry_equiv_pos_site_id
 _symmetry_equiv_pos_as_xyz
  1  'x, y, z'
loop_
 _atom_site_type_symbol
 _atom_site_label
 _atom_site_symmetry_multiplicity
 _atom_site_fract_x
 _atom_site_fract_y
 _atom_site_fract_z
 _atom_site_occupancy
  V  V0  1  0.74831407  0.63333846  0.12527525  1
  V  V1  1  0.78197861  0.09486882  0.62988128  1
  V  V2  1  0.45833139  0.28374200  0.24877400  1
  V  V3  1  0.49198497  0.74168859  0.75049421  1
  V  V4  1  0.25721648  0.86405377  0.37071900  1
  V  V5  1  0.26982904  0.38695642  0.87258410  1
  V  V6  1  0.03772569  0.98828686  0.00209244  1
  V  V7  1  0.00616403  0.51476684  0.50513801  1
  O  O8  1  0.95701863  0.78767404  0.56087543  1
  O  O9  1  0.40033919  0.80332636  0.04244653  1
  O  O10  1  0.42790698  0.59226707  0.31410227  1
  O  O11  1  0.39925007  0.57110391  0.83260933  1
  O  O12  1  0.09649285  0.45870111  0.20724958  1
  O  O13  1  0.07818824  0.95283476  0.70258356  1
  F  F14  1  0.90674040  0.86277737  0.08365679  1
  F  F15  1  0.96049263  0.33076818  0.05803158  1
  F  F16  1  0.54161063  0.93287527  0.19333477  1
  F  F17  1  0.89686775  0.07298533  0.29297551  1
  F  F18  1  0.92660851  0.31790489  0.58255871  1
  F  F19  1  0.91859274  0.51931641  0.78965103  1
  F  F20  1  0.59000853  0.40303735  0.16647788  1
  F  F21  1  0.58142680  0.90919231  0.66401567  1
  F  F22  1  0.57753619  0.69883440  0.46037073  1
  F  F23  1  0.53254990  0.42688036  0.68473997  1
  F  F24  1  0.41858295  0.09688229  0.33824864  1
  F  F25  1  0.43343945  0.27823996  0.54073383  1
  F  F26  1  0.59362500  0.20820934  0.96061938  1
  F  F27  1  0.06448167  0.67769739  0.41456638  1
  F  F28  1  0.47769562  0.04699406  0.81564350  1
  F  F29  1  0.02973953  0.68923664  0.93729766  1
  F  F30  1  0.05022594  0.18766897  0.43830598  1
  F  F31  1  0.08903551  0.16688946  0.91394702  1
