# generated using pymatgen
data_Li4MnFe3(BO3)4
_symmetry_space_group_name_H-M   'P 1'
_cell_length_a   9.36348768
_cell_length_b   5.23226119
_cell_length_c   6.21758623
_cell_angle_alpha   64.51496235
_cell_angle_beta   80.11811990
_cell_angle_gamma   104.55525069
_symmetry_Int_Tables_number   1
_chemical_formula_structural   Li4MnFe3(BO3)4
_chemical_formula_sum   'Li4 Mn1 Fe3 B4 O12'
_cell_volume   252.13752223
_cell_formula_units_Z   1
loop_
 _symmetry_equiv_pos_site_id
 _symmetry_equiv_pos_as_xyz
  1  'x, y, z'
loop_
 _atom_site_type_symbol
 _atom_site_label
 _atom_site_symmetry_multiplicity
 _atom_site_fract_x
 _atom_site_fract_y
 _atom_site_fract_z
 _atom_site_occupancy
  Li  Li0  1  0.11830073  0.62903739  0.55446608  1
  Li  Li1  1  0.61613265  0.62630551  0.05752784  1
  Li  Li2  1  0.38172072  0.36783247  0.94810842  1
  Li  Li3  1  0.88265557  0.37104040  0.44457007  1
  Mn  Mn4  1  0.69668870  0.74993674  0.53265221  1
  Fe  Fe5  1  0.19991111  0.74505926  0.03222959  1
  Fe  Fe6  1  0.30009073  0.25460967  0.46750614  1
  Fe  Fe7  1  0.80202542  0.25827085  0.96240509  1
  B  B8  1  0.03615846  0.07907439  0.22146082  1
  B  B9  1  0.46488665  0.92447104  0.27400801  1
  B  B10  1  0.53420716  0.07362553  0.72770508  1
  B  B11  1  0.96557442  0.92357260  0.77645982  1
  O  O12  1  0.03198519  0.79535237  0.26302963  1
  O  O13  1  0.17839568  0.31458416  0.13840951  1
  O  O14  1  0.10475741  0.87521972  0.71932719  1
  O  O15  1  0.32318430  0.68627342  0.36085555  1
  O  O16  1  0.46852852  0.20557882  0.23685461  1
  O  O17  1  0.60358080  0.87622523  0.21637932  1
  O  O18  1  0.39594644  0.12775520  0.77932254  1
  O  O19  1  0.52626039  0.78703317  0.77137820  1
  O  O20  1  0.67711977  0.30425372  0.64346103  1
  O  O21  1  0.89855764  0.13125406  0.27348188  1
  O  O22  1  0.82372664  0.68696438  0.86306912  1
  O  O23  1  0.96960492  0.20667192  0.73533527  1
