# generated using pymatgen
data_Li4Mn3Fe(BO3)4
_symmetry_space_group_name_H-M   'P 1'
_cell_length_a   5.25101068
_cell_length_b   5.23854252
_cell_length_c   20.93088882
_cell_angle_alpha   89.23970710
_cell_angle_beta   91.11298575
_cell_angle_gamma   60.20589173
_symmetry_Int_Tables_number   1
_chemical_formula_structural   Li4Mn3Fe(BO3)4
_chemical_formula_sum   'Li8 Mn6 Fe2 B8 O24'
_cell_volume   499.38493991
_cell_formula_units_Z   2
loop_
 _symmetry_equiv_pos_site_id
 _symmetry_equiv_pos_as_xyz
  1  'x, y, z'
loop_
 _atom_site_type_symbol
 _atom_site_label
 _atom_site_symmetry_multiplicity
 _atom_site_fract_x
 _atom_site_fract_y
 _atom_site_fract_z
 _atom_site_occupancy
  Li  Li0  1  0.32119411  0.65098630  0.66628344  1
  Li  Li1  1  0.34740360  0.67869009  0.91637367  1
  Li  Li2  1  0.32167349  0.65197305  0.16596038  1
  Li  Li3  1  0.34875366  0.67866031  0.41592452  1
  Li  Li4  1  0.65218238  0.33529066  0.79115932  1
  Li  Li5  1  0.66177302  0.34866719  0.54125851  1
  Li  Li6  1  0.65316293  0.33821981  0.29155757  1
  Li  Li7  1  0.66208490  0.34872624  0.04124351  1
  Mn  Mn8  1  0.32932781  0.00388449  0.55857412  1
  Mn  Mn9  1  0.32653232  0.00652588  0.05889311  1
  Mn  Mn10  1  0.67837743  0.00046977  0.93293382  1
  Mn  Mn11  1  0.67665071  0.00242799  0.43335908  1
  Mn  Mn12  1  0.99802483  0.32462115  0.68432761  1
  Mn  Mn13  1  0.99606911  0.66958786  0.30750393  1
  Fe  Fe14  1  0.99489667  0.31772876  0.18373352  1
  Fe  Fe15  1  0.99969691  0.67575040  0.80862175  1
  B  B16  1  0.00349937  0.34052273  0.93643546  1
  B  B17  1  0.00279468  0.34141115  0.43699633  1
  B  B18  1  0.33189951  0.00591220  0.81184322  1
  B  B19  1  0.33465150  0.00357657  0.31148054  1
  B  B20  1  0.65938215  0.99766971  0.68780422  1
  B  B21  1  0.66080717  0.99662869  0.18683932  1
  B  B22  1  0.99529035  0.66557383  0.56216083  1
  B  B23  1  0.99413938  0.66632511  0.06281406  1
  O  O24  1  0.06819219  0.25458066  0.79271845  1
  O  O25  1  0.07023105  0.24598331  0.29032384  1
  O  O26  1  0.25378244  0.06951293  0.95183815  1
  O  O27  1  0.03375907  0.57845705  0.91586898  1
  O  O28  1  0.25327011  0.06958501  0.45208493  1
  O  O29  1  0.03373896  0.57879186  0.41630784  1
  O  O30  1  0.58146092  0.02684187  0.82621479  1
  O  O31  1  0.26914012  0.64067272  0.56944054  1
  O  O32  1  0.57750372  0.03755176  0.32679202  1
  O  O33  1  0.26847907  0.64133126  0.06963478  1
  O  O34  1  0.34914370  0.73222989  0.81817212  1
  O  O35  1  0.35891077  0.72965466  0.31906189  1
  O  O36  1  0.62997225  0.27325671  0.69469306  1
  O  O37  1  0.63969883  0.27142765  0.19371703  1
  O  O38  1  0.72835833  0.37054864  0.94378765  1
  O  O39  1  0.42204148  0.96648729  0.66700163  1
  O  O40  1  0.72783180  0.37131842  0.44421632  1
  O  O41  1  0.41527365  0.97779283  0.16801700  1
  O  O42  1  0.96181642  0.42251710  0.57759273  1
  O  O43  1  0.96142266  0.42276415  0.07833273  1
  O  O44  1  0.75266750  0.93045268  0.54105693  1
  O  O45  1  0.75167881  0.93024052  0.04143204  1
  O  O46  1  0.93074627  0.74738166  0.70319840  1
  O  O47  1  0.92940893  0.74198741  0.20061533  1
