# generated using pymatgen
data_Na4Fe2C4SO16
_symmetry_space_group_name_H-M   'P 1'
_cell_length_a   9.93187787
_cell_length_b   9.73036046
_cell_length_c   9.93187753
_cell_angle_alpha   60.86342666
_cell_angle_beta   92.63492245
_cell_angle_gamma   60.86342195
_symmetry_Int_Tables_number   1
_chemical_formula_structural   Na4Fe2C4SO16
_chemical_formula_sum   'Na8 Fe4 C8 S2 O32'
_cell_volume   680.02724796
_cell_formula_units_Z   2
loop_
 _symmetry_equiv_pos_site_id
 _symmetry_equiv_pos_as_xyz
  1  'x, y, z'
loop_
 _atom_site_type_symbol
 _atom_site_label
 _atom_site_symmetry_multiplicity
 _atom_site_fract_x
 _atom_site_fract_y
 _atom_site_fract_z
 _atom_site_occupancy
  Na  Na0  1  0.08363385  0.83273130  0.83363385  1
  Na  Na1  1  0.08398556  0.25000000  0.83398556  1
  Na  Na2  1  0.33398556  0.75000000  0.58398556  1
  Na  Na3  1  0.33363385  0.33273130  0.58363385  1
  Na  Na4  1  0.66636615  0.66726870  0.41636615  1
  Na  Na5  1  0.66601444  0.25000000  0.41601444  1
  Na  Na6  1  0.91601444  0.75000000  0.16601444  1
  Na  Na7  1  0.91636615  0.16726870  0.16636615  1
  Fe  Fe8  1  0.00000000  0.50000000  0.00000000  1
  Fe  Fe9  1  0.50000000  0.00000000  0.50000000  1
  Fe  Fe10  1  0.50000000  0.50000000  0.00000000  1
  Fe  Fe11  1  0.50000000  0.00000000  0.00000000  1
  C  C12  1  0.35703573  0.93108519  0.77786969  1
  C  C13  1  0.27786969  0.43108519  0.85703573  1
  C  C14  1  0.71187908  0.93108519  0.79104512  1
  C  C15  1  0.70895488  0.56891481  0.78812092  1
  C  C16  1  0.29104512  0.43108519  0.21187908  1
  C  C17  1  0.28812092  0.06891481  0.20895488  1
  C  C18  1  0.72213031  0.56891481  0.14296427  1
  C  C19  1  0.64296427  0.06891481  0.22213031  1
  S  S20  1  0.12500000  0.75000000  0.37500000  1
  S  S21  1  0.87500000  0.25000000  0.62500000  1
  O  O22  1  0.35253735  0.79107897  0.88987888  1
  O  O23  1  0.06643451  0.87692753  0.43402328  1
  O  O24  1  0.36294897  0.95292240  0.63928572  1
  O  O25  1  0.13928572  0.45292240  0.86294897  1
  O  O26  1  0.68412863  0.95292240  0.90779188  1
  O  O27  1  0.30368596  0.55228717  0.85172782  1
  O  O28  1  0.05663796  0.87692753  0.18904919  1
  O  O29  1  0.06597672  0.62307247  0.43356549  1
  O  O30  1  0.40401599  0.94771283  0.35597413  1
  O  O31  1  0.59220812  0.54707760  0.81587137  1
  O  O32  1  0.38987888  0.29107897  0.85253735  1
  O  O33  1  0.31095081  0.62307247  0.44336204  1
  O  O34  1  0.85638369  0.79107897  0.81904215  1
  O  O35  1  0.68095785  0.70892103  0.64361631  1
  O  O36  1  0.35172782  0.05228717  0.80368596  1
  O  O37  1  0.14402587  0.55228717  0.09598401  1
  O  O38  1  0.85597413  0.44771283  0.90401599  1
  O  O39  1  0.64827218  0.94771283  0.19631404  1
  O  O40  1  0.31904215  0.29107897  0.35638369  1
  O  O41  1  0.14361631  0.20892103  0.18095785  1
  O  O42  1  0.68904919  0.37692753  0.55663796  1
  O  O43  1  0.61012112  0.70892103  0.14746265  1
  O  O44  1  0.40779188  0.45292240  0.18412863  1
  O  O45  1  0.59598401  0.05228717  0.64402587  1
  O  O46  1  0.93402328  0.37692753  0.56643451  1
  O  O47  1  0.94336204  0.12307247  0.81095081  1
  O  O48  1  0.69631404  0.44771283  0.14827218  1
  O  O49  1  0.31587137  0.04707760  0.09220812  1
  O  O50  1  0.86071428  0.54707760  0.13705103  1
  O  O51  1  0.63705103  0.04707760  0.36071428  1
  O  O52  1  0.93356549  0.12307247  0.56597672  1
  O  O53  1  0.64746265  0.20892103  0.11012112  1
