# generated using pymatgen
data_Hf2N2O
_symmetry_space_group_name_H-M   'P 1'
_cell_length_a   8.72698142
_cell_length_b   8.72707336
_cell_length_c   8.75722188
_cell_angle_alpha   109.63913020
_cell_angle_beta   109.48781358
_cell_angle_gamma   109.38089045
_symmetry_Int_Tables_number   1
_chemical_formula_structural   Hf2N2O
_chemical_formula_sum   'Hf16 N16 O8'
_cell_volume   512.82560313
_cell_formula_units_Z   8
loop_
 _symmetry_equiv_pos_site_id
 _symmetry_equiv_pos_as_xyz
  1  'x, y, z'
loop_
 _atom_site_type_symbol
 _atom_site_label
 _atom_site_symmetry_multiplicity
 _atom_site_fract_x
 _atom_site_fract_y
 _atom_site_fract_z
 _atom_site_occupancy
  Hf  Hf0  1  0.50736975  0.00558817  0.99652926  1
  Hf  Hf1  1  0.96067484  0.24891024  0.21887006  1
  Hf  Hf2  1  0.77951621  0.03052566  0.75391802  1
  Hf  Hf3  1  0.71214144  0.46187369  0.24364472  1
  Hf  Hf4  1  0.75071155  0.77912859  0.03275828  1
  Hf  Hf5  1  0.74729372  0.28410267  0.53448479  1
  Hf  Hf6  1  0.53591258  0.74914611  0.29091742  1
  Hf  Hf7  1  0.46558494  0.24933282  0.71386494  1
  Hf  Hf8  1  0.99715842  0.50583418  0.98607979  1
  Hf  Hf9  1  0.49223835  0.49697484  0.51028416  1
  Hf  Hf10  1  0.00740276  0.99668371  0.50737158  1
  Hf  Hf11  1  0.25791292  0.71724903  0.46800543  1
  Hf  Hf12  1  0.24657807  0.21341209  0.95305380  1
  Hf  Hf13  1  0.22006967  0.95973739  0.25732845  1
  Hf  Hf14  1  0.28013733  0.53460989  0.74372040  1
  Hf  Hf15  1  0.03940601  0.75363370  0.78625653  1
  N  N16  1  0.74333438  0.22985438  0.27656281  1
  N  N17  1  0.77063695  0.72554970  0.26005824  1
  N  N18  1  0.46549452  0.22778902  0.44896775  1
  N  N19  1  0.72855179  0.25688049  0.77454218  1
  N  N20  1  0.22515383  0.45200887  0.46291857  1
  N  N21  1  0.27378354  0.73476780  0.22308104  1
  N  N22  1  0.98810459  0.95597535  0.72835064  1
  N  N23  1  0.50990804  0.24034048  0.97038958  1
  N  N24  1  0.54420498  0.53644597  0.77357621  1
  N  N25  1  0.95833127  0.73275699  0.99188944  1
  N  N26  1  0.53690152  0.77186152  0.54248872  1
  N  N27  1  0.22238464  0.27307333  0.73940525  1
  N  N28  1  0.02937123  0.48919909  0.75761581  1
  N  N29  1  0.73107724  0.98899067  0.95843658  1
  N  N30  1  0.26553277  0.77801915  0.73083229  1
  N  N31  1  0.23381176  0.96345312  0.50704950  1
  O  O32  1  0.75683246  0.03253138  0.48185692  1
  O  O33  1  0.27262112  0.01054938  0.04479406  1
  O  O34  1  0.96304009  0.50674700  0.23473957  1
  O  O35  1  0.45390819  0.46440608  0.22725441  1
  O  O36  1  0.05503952  0.27999782  0.02154634  1
  O  O37  1  0.77190444  0.54766601  0.53182865  1
  O  O38  1  0.01219883  0.04947047  0.27699777  1
  O  O39  1  0.48776272  0.76492414  0.03773106  1
