# generated using pymatgen
data_Zr5Sn3O
_symmetry_space_group_name_H-M   'P 1'
_cell_length_a   8.49706150
_cell_length_b   8.49704993
_cell_length_c   5.79385393
_cell_angle_alpha   89.98769426
_cell_angle_beta   90.01175969
_cell_angle_gamma   120.00038304
_symmetry_Int_Tables_number   1
_chemical_formula_structural   Zr5Sn3O
_chemical_formula_sum   'Zr10 Sn6 O2'
_cell_volume   362.27087172
_cell_formula_units_Z   2
loop_
 _symmetry_equiv_pos_site_id
 _symmetry_equiv_pos_as_xyz
  1  'x, y, z'
loop_
 _atom_site_type_symbol
 _atom_site_label
 _atom_site_symmetry_multiplicity
 _atom_site_fract_x
 _atom_site_fract_y
 _atom_site_fract_z
 _atom_site_occupancy
  Zr  Zr0  1  -0.00000365  0.77079722  0.74972935  1
  Zr  Zr1  1  0.00000089  0.22933585  0.25026692  1
  Zr  Zr2  1  0.33340584  0.66673765  0.99987638  1
  Zr  Zr3  1  0.33328049  0.66659797  0.50011761  1
  Zr  Zr4  1  0.22921036  0.22921768  0.74995972  1
  Zr  Zr5  1  0.22933085  0.00000557  0.24983780  1
  Zr  Zr6  1  0.77066227  0.77066584  0.25004764  1
  Zr  Zr7  1  0.66658672  0.33327629  0.99988223  1
  Zr  Zr8  1  0.66672840  0.33342134  0.50012240  1
  Zr  Zr9  1  0.77079519  0.00000366  0.75015403  1
  Sn  Sn10  1  0.00000710  0.59742109  0.24994325  1
  Sn  Sn11  1  0.99998945  0.40250742  0.75005310  1
  Sn  Sn12  1  0.40256597  0.40256754  0.25000762  1
  Sn  Sn13  1  0.59751298  0.59751947  0.74999543  1
  Sn  Sn14  1  0.40250622  0.99999807  0.74995457  1
  Sn  Sn15  1  0.59741549  0.00001130  0.25004783  1
  O  O16  1  0.00000769  0.00000947  -0.00000207  1
  O  O17  1  0.99999774  0.00000459  0.50000519  1
