# generated using pymatgen
data_Li8Mn5Fe3(BO3)8
_symmetry_space_group_name_H-M   'P 1'
_cell_length_a   5.23663675
_cell_length_b   5.23061310
_cell_length_c   20.89838415
_cell_angle_alpha   89.40471805
_cell_angle_beta   91.19688970
_cell_angle_gamma   60.14140403
_symmetry_Int_Tables_number   1
_chemical_formula_structural   Li8Mn5Fe3(BO3)8
_chemical_formula_sum   'Li8 Mn5 Fe3 B8 O24'
_cell_volume   496.18749396
_cell_formula_units_Z   1
loop_
 _symmetry_equiv_pos_site_id
 _symmetry_equiv_pos_as_xyz
  1  'x, y, z'
loop_
 _atom_site_type_symbol
 _atom_site_label
 _atom_site_symmetry_multiplicity
 _atom_site_fract_x
 _atom_site_fract_y
 _atom_site_fract_z
 _atom_site_occupancy
  Li  Li0  1  0.32306320  0.65339352  0.66625614  1
  Li  Li1  1  0.34674156  0.67824213  0.91537831  1
  Li  Li2  1  0.32141779  0.65150632  0.16639517  1
  Li  Li3  1  0.34746505  0.67850644  0.41627434  1
  Li  Li4  1  0.65086706  0.33623019  0.79171893  1
  Li  Li5  1  0.66239965  0.34895162  0.54147710  1
  Li  Li6  1  0.65178977  0.33465280  0.29135026  1
  Li  Li7  1  0.66242821  0.34837139  0.04101397  1
  Mn  Mn8  1  0.32596548  0.00714976  0.55899392  1
  Mn  Mn9  1  0.32978530  0.00365227  0.05833528  1
  Mn  Mn10  1  0.67830232  0.00064227  0.93269440  1
  Mn  Mn11  1  0.67875431  0.00058338  0.43282940  1
  Mn  Mn12  1  0.99746165  0.32564087  0.18448034  1
  Fe  Fe13  1  0.99872057  0.31986082  0.68426842  1
  Fe  Fe14  1  -0.01095455  0.66407162  0.80731210  1
  Fe  Fe15  1  -0.00025709  0.67522553  0.30851738  1
  B  B16  1  0.00323309  0.34121090  0.93623299  1
  B  B17  1  0.00348029  0.34116688  0.43636054  1
  B  B18  1  0.33454596  -0.00004029  0.81098135  1
  B  B19  1  0.33064610  0.00540123  0.31190502  1
  B  B20  1  0.66219687  0.99963553  0.68758997  1
  B  B21  1  0.65912095  0.99842401  0.18809426  1
  B  B22  1  0.99391337  0.66685989  0.56317828  1
  B  B23  1  0.99568341  0.66557099  0.06216234  1
  O  O24  1  0.07151188  0.25179378  0.79178786  1
  O  O25  1  0.06768381  0.25386674  0.29265275  1
  O  O26  1  0.25439100  0.06966621  0.95162743  1
  O  O27  1  0.03487358  0.57747201  0.91554093  1
  O  O28  1  0.25431926  0.06979792  0.45192276  1
  O  O29  1  0.03349028  0.57836457  0.41557888  1
  O  O30  1  0.58569915  0.02436119  0.82477686  1
  O  O31  1  0.26864362  0.64266260  0.56993942  1
  O  O32  1  0.58154747  0.02640092  0.32626263  1
  O  O33  1  0.26988383  0.64100756  0.06961646  1
  O  O34  1  0.35008250  0.73072390  0.81837329  1
  O  O35  1  0.34838807  0.73248980  0.31830843  1
  O  O36  1  0.63975915  0.27449505  0.69426069  1
  O  O37  1  0.62938225  0.27430697  0.19513336  1
  O  O38  1  0.72782853  0.37045740  0.94361044  1
  O  O39  1  0.41498904  0.98098566  0.66888464  1
  O  O40  1  0.72803339  0.37069072  0.44390327  1
  O  O41  1  0.42157825  0.96741724  0.16706973  1
  O  O42  1  0.96149423  0.42370548  0.57888125  1
  O  O43  1  0.96226774  0.42291180  0.07777541  1
  O  O44  1  0.75094618  0.93026098  0.54137702  1
  O  O45  1  0.75313936  0.92994006  0.04065787  1
  O  O46  1  0.93135516  0.74451875  0.70096303  1
  O  O47  1  0.93074194  0.74799364  0.20349638  1
