# generated using pymatgen
data_Ho2P4O13
_symmetry_space_group_name_H-M   'P 1'
_cell_length_a   9.46645896
_cell_length_b   9.46645896
_cell_length_c   8.60552172
_cell_angle_alpha   90.00000000
_cell_angle_beta   90.00000000
_cell_angle_gamma   136.26050696
_symmetry_Int_Tables_number   1
_chemical_formula_structural   Ho2P4O13
_chemical_formula_sum   'Ho4 P8 O26'
_cell_volume   533.17465002
_cell_formula_units_Z   2
loop_
 _symmetry_equiv_pos_site_id
 _symmetry_equiv_pos_as_xyz
  1  'x, y, z'
loop_
 _atom_site_type_symbol
 _atom_site_label
 _atom_site_symmetry_multiplicity
 _atom_site_fract_x
 _atom_site_fract_y
 _atom_site_fract_z
 _atom_site_occupancy
  Ho  Ho0  1  0.10665619  0.40063589  0.10275831  1
  Ho  Ho1  1  0.59936411  0.89334381  0.89724169  1
  Ho  Ho2  1  0.40063589  0.10665619  0.39724169  1
  Ho  Ho3  1  0.89334381  0.59936411  0.60275831  1
  P  P4  1  0.58461150  0.90447670  0.25257244  1
  P  P5  1  0.09552330  0.41538850  0.74742756  1
  P  P6  1  0.72021526  0.83652511  0.52454487  1
  P  P7  1  0.16347489  0.27978474  0.47545513  1
  P  P8  1  0.27978474  0.16347489  0.02454487  1
  P  P9  1  0.83652511  0.72021526  0.97545513  1
  P  P10  1  0.90447670  0.58461150  0.24742756  1
  P  P11  1  0.41538850  0.09552330  0.75257244  1
  O  O12  1  0.06181496  0.93818504  0.00000000  1
  O  O13  1  0.06830446  0.77761689  0.34842519  1
  O  O14  1  0.22238311  0.93169554  0.65157481  1
  O  O15  1  0.52709273  0.98340825  0.35852993  1
  O  O16  1  0.01659175  0.47290727  0.64147007  1
  O  O17  1  0.41840504  0.73995546  0.13592036  1
  O  O18  1  0.26004454  0.58159496  0.86407964  1
  O  O19  1  0.15865790  0.38714370  0.35112359  1
  O  O20  1  0.61285630  0.84134210  0.64887641  1
  O  O21  1  0.61696726  0.78731592  0.35848297  1
  O  O22  1  0.21268408  0.38303274  0.64151703  1
  O  O23  1  0.69710129  0.74340911  0.95356317  1
  O  O24  1  0.25659089  0.30289871  0.04643683  1
  O  O25  1  0.74340911  0.69710129  0.54643683  1
  O  O26  1  0.30289871  0.25659089  0.45356317  1
  O  O27  1  0.78731592  0.61696726  0.14151703  1
  O  O28  1  0.38303274  0.21268408  0.85848297  1
  O  O29  1  0.84134210  0.61285630  0.85112359  1
  O  O30  1  0.38714370  0.15865790  0.14887641  1
  O  O31  1  0.73995546  0.41840504  0.36407964  1
  O  O32  1  0.58159496  0.26004454  0.63592036  1
  O  O33  1  0.47290727  0.01659175  0.85852993  1
  O  O34  1  0.98340825  0.52709273  0.14147007  1
  O  O35  1  0.93169554  0.22238311  0.84842519  1
  O  O36  1  0.77761689  0.06830446  0.15157481  1
  O  O37  1  0.93818504  0.06181496  0.50000000  1
