# generated using pymatgen
data_Li2MnFe(BO3)2
_symmetry_space_group_name_H-M   'P 1'
_cell_length_a   8.26431623
_cell_length_b   14.31362723
_cell_length_c   3.16191536
_cell_angle_alpha   90.00000000
_cell_angle_beta   90.00000000
_cell_angle_gamma   89.98522851
_symmetry_Int_Tables_number   1
_chemical_formula_structural   Li2MnFe(BO3)2
_chemical_formula_sum   'Li6 Mn3 Fe3 B6 O18'
_cell_volume   374.03036003
_cell_formula_units_Z   3
loop_
 _symmetry_equiv_pos_site_id
 _symmetry_equiv_pos_as_xyz
  1  'x, y, z'
loop_
 _atom_site_type_symbol
 _atom_site_label
 _atom_site_symmetry_multiplicity
 _atom_site_fract_x
 _atom_site_fract_y
 _atom_site_fract_z
 _atom_site_occupancy
  Li  Li0  1  0.29256145  0.98948734  0.50000000  1
  Li  Li1  1  0.34198413  0.35798132  0.50000000  1
  Li  Li2  1  0.36731138  0.65190871  0.50000000  1
  Li  Li3  1  0.79295267  0.49344633  0.50000000  1
  Li  Li4  1  0.83986858  0.85771933  0.50000000  1
  Li  Li5  1  0.86546600  0.14949727  0.50000000  1
  Mn  Mn6  1  0.13416473  0.50636840  0.00000000  1
  Mn  Mn7  1  0.19197808  0.17984007  0.00000000  1
  Mn  Mn8  1  0.67433739  0.31408567  0.00000000  1
  Fe  Fe9  1  0.17573383  0.81630249  0.00000000  1
  Fe  Fe10  1  0.63644664  0.00339902  0.00000000  1
  Fe  Fe11  1  0.68692126  0.67994159  0.00000000  1
  B  B12  1  0.99965243  0.66860547  0.50000000  1
  B  B13  1  0.99804169  0.99944180  0.00000000  1
  B  B14  1  0.00019806  0.33332603  0.50000000  1
  B  B15  1  0.50031538  0.16461214  0.50000000  1
  B  B16  1  0.50187978  0.50048591  0.00000000  1
  B  B17  1  0.49996519  0.83353128  0.50000000  1
  O  O18  1  0.00898942  0.43030861  0.50000000  1
  O  O19  1  0.01797279  0.76533663  0.50000000  1
  O  O20  1  0.13685584  0.61171264  0.50000000  1
  O  O21  1  0.14131893  0.28051900  0.50000000  1
  O  O22  1  0.15065922  0.95757803  0.00000000  1
  O  O23  1  0.34721236  0.12396258  0.50000000  1
  O  O24  1  0.34760916  0.79170226  0.50000000  1
  O  O25  1  0.36465955  0.44381024  0.00000000  1
  O  O26  1  0.48607381  0.59761755  0.00000000  1
  O  O27  1  0.51294988  0.93044138  0.50000000  1
  O  O28  1  0.51459024  0.26180266  0.50000000  1
  O  O29  1  0.63772656  0.10840679  0.50000000  1
  O  O30  1  0.63880911  0.77833698  0.50000000  1
  O  O31  1  0.65534139  0.46045967  0.00000000  1
  O  O32  1  0.84572715  0.62868830  0.50000000  1
  O  O33  1  0.85061486  0.28910359  0.50000000  1
  O  O34  1  0.85954819  0.94398565  0.00000000  1
  O  O35  1  0.98356187  0.09624825  0.00000000  1
