# generated using pymatgen
data_Li24Ti11CrO36
_symmetry_space_group_name_H-M   'P 1'
_cell_length_a   5.10238888
_cell_length_b   13.47766175
_cell_length_c   9.81253154
_cell_angle_alpha   91.83838215
_cell_angle_beta   99.75941138
_cell_angle_gamma   79.08892424
_symmetry_Int_Tables_number   1
_chemical_formula_structural   Li24Ti11CrO36
_chemical_formula_sum   'Li24 Ti11 Cr1 O36'
_cell_volume   653.00317793
_cell_formula_units_Z   1
loop_
 _symmetry_equiv_pos_site_id
 _symmetry_equiv_pos_as_xyz
  1  'x, y, z'
loop_
 _atom_site_type_symbol
 _atom_site_label
 _atom_site_symmetry_multiplicity
 _atom_site_fract_x
 _atom_site_fract_y
 _atom_site_fract_z
 _atom_site_occupancy
  Li  Li0  1  0.21532979  0.05888297  0.99982913  1
  Li  Li1  1  0.16602013  0.16611207  0.49940250  1
  Li  Li2  1  0.72579569  0.05888612  0.50017083  1
  Li  Li3  1  0.41691152  0.16617991  0.25000320  1
  Li  Li4  1  0.11524378  0.27452021  0.00012550  1
  Li  Li5  1  0.66787081  0.16611211  0.00059482  1
  Li  Li6  1  0.91665315  0.16669035  0.75000142  1
  Li  Li7  1  0.61023698  0.27452111  0.49987633  1
  Li  Li8  1  0.05546534  0.39212754  0.50039633  1
  Li  Li9  1  0.55242066  0.39212720  0.99960423  1
  Li  Li10  1  0.00006655  0.49996522  -0.00000099  1
  Li  Li11  1  0.24997869  0.50004165  0.75000025  1
  Li  Li12  1  0.49996802  0.49996520  0.50000145  1
  Li  Li13  1  0.75010339  0.49979448  0.24999995  1
  Li  Li14  1  0.44775755  0.60776743  0.00048964  1
  Li  Li15  1  0.94446308  0.60776714  0.49951050  1
  Li  Li16  1  0.38893107  0.72559992  0.50051232  1
  Li  Li17  1  0.08271817  0.83456790  0.24999793  1
  Li  Li18  1  0.88547146  0.72560186  0.99948353  1
  Li  Li19  1  0.33310183  0.83318121  0.99981080  1
  Li  Li20  1  0.58329469  0.83341332  0.74999807  1
  Li  Li21  1  0.27506885  0.94161428  0.49855587  1
  Li  Li22  1  0.83370722  0.83318095  0.50019168  1
  Li  Li23  1  0.78331614  0.94161609  0.00143848  1
  Ti  Ti24  1  0.47258317  0.05483193  0.74999646  1
  Ti  Ti25  1  0.36099922  0.27799708  0.74999912  1
  Ti  Ti26  1  0.30588379  0.38823866  0.25000126  1
  Ti  Ti27  1  0.86116976  0.27764666  0.25000701  1
  Ti  Ti28  1  0.80589196  0.38822707  0.75000078  1
  Ti  Ti29  1  0.19409370  0.61180236  0.24999925  1
  Ti  Ti30  1  0.13918859  0.72162560  0.75000047  1
  Ti  Ti31  1  0.69425516  0.61147869  0.74999929  1
  Ti  Ti32  1  0.63898482  0.72203089  0.25000043  1
  Ti  Ti33  1  0.02756727  0.94487561  0.75000143  1
  Ti  Ti34  1  0.52734972  0.94530998  0.24999954  1
  Cr  Cr35  1  0.97181700  0.05638804  0.25000219  1
  O  O36  1  0.11649565  0.04797580  0.63670308  1
  O  O37  1  0.32667651  0.04881822  0.36164891  1
  O  O38  1  0.83553322  0.04797221  0.86329762  1
  O  O39  1  0.02310418  0.16572244  0.13545099  1
  O  O40  1  0.62449450  0.04881875  0.13835005  1
  O  O41  1  0.31209036  0.16661219  0.86567273  1
  O  O42  1  0.52131766  0.16660763  0.63432230  1
  O  O43  1  0.21709062  0.28507522  0.36367478  1
  O  O44  1  0.81116957  0.16573050  0.36454143  1
  O  O45  1  0.16889891  0.38129354  0.86339476  1
  O  O46  1  0.71689290  0.28524912  0.86341246  1
  O  O47  1  0.49784339  0.28507388  0.13632459  1
  O  O48  1  0.44981814  0.38129664  0.63660703  1
  O  O49  1  0.99787190  0.28524713  0.63658873  1
  O  O50  1  0.66890388  0.38061150  0.36349703  1
  O  O51  1  0.14523313  0.49988921  0.36542173  1
  O  O52  1  0.35487973  0.49989301  0.13457757  1
  O  O53  1  0.95048831  0.38061399  0.13650562  1
  O  O54  1  0.05002995  0.61864177  0.86336639  1
  O  O55  1  0.64535122  0.49995196  0.86555934  1
  O  O56  1  0.85469999  0.49995514  0.63444191  1
  O  O57  1  0.33131991  0.61864362  0.63663547  1
  O  O58  1  0.00205050  0.71467917  0.36329109  1
  O  O59  1  0.55017805  0.61878030  0.36342664  1
  O  O60  1  0.50218356  0.71462355  0.86346031  1
  O  O61  1  0.28325608  0.71467710  0.13670910  1
  O  O62  1  0.83103242  0.61878277  0.13657057  1
  O  O63  1  0.18806685  0.83329544  0.63446713  1
  O  O64  1  0.78318434  0.71462117  0.63653907  1
  O  O65  1  0.48040886  0.83382842  0.36600976  1
  O  O66  1  0.68573542  0.83382511  0.13399535  1
  O  O67  1  0.38326285  0.95212338  0.86362542  1
  O  O68  1  0.97862106  0.83329727  0.86553800  1
  O  O69  1  0.16485174  0.95247607  0.13735988  1
  O  O70  1  0.66461073  0.95212569  0.63637783  1
  O  O71  1  0.88267517  0.95248327  0.36263432  1
