# generated using pymatgen
data_Li8Mn5Fe3(BO3)8
_symmetry_space_group_name_H-M   'P 1'
_cell_length_a   5.25034177
_cell_length_b   5.24049211
_cell_length_c   20.93706419
_cell_angle_alpha   89.36501036
_cell_angle_beta   90.90966522
_cell_angle_gamma   60.23388145
_symmetry_Int_Tables_number   1
_chemical_formula_structural   Li8Mn5Fe3(BO3)8
_chemical_formula_sum   'Li8 Mn5 Fe3 B8 O24'
_cell_volume   499.88066373
_cell_formula_units_Z   1
loop_
 _symmetry_equiv_pos_site_id
 _symmetry_equiv_pos_as_xyz
  1  'x, y, z'
loop_
 _atom_site_type_symbol
 _atom_site_label
 _atom_site_symmetry_multiplicity
 _atom_site_fract_x
 _atom_site_fract_y
 _atom_site_fract_z
 _atom_site_occupancy
  Li  Li0  1  0.32510877  0.65031265  0.66645437  1
  Li  Li1  1  0.34697120  0.67868571  0.91569393  1
  Li  Li2  1  0.32092583  0.65090098  0.16596409  1
  Li  Li3  1  0.34918016  0.67794321  0.41646829  1
  Li  Li4  1  0.65573662  0.33368606  0.79042442  1
  Li  Li5  1  0.66349136  0.34886278  0.54189761  1
  Li  Li6  1  0.65148195  0.33776800  0.29132101  1
  Li  Li7  1  0.66210975  0.34810997  0.04088661  1
  Mn  Mn8  1  0.32963536  0.00339546  0.05800214  1
  Mn  Mn9  1  0.67942270  0.00045906  0.93233568  1
  Mn  Mn10  1  0.67401703  0.00200041  0.43465880  1
  Mn  Mn11  1  0.99652552  0.32263057  0.18343347  1
  Mn  Mn12  1  0.99605217  0.67134240  0.30869716  1
  Fe  Fe13  1  0.32161881  0.00464108  0.55982587  1
  Fe  Fe14  1  0.01018505  0.32379408  0.68311596  1
  Fe  Fe15  1  0.99765973  0.67407535  0.80773664  1
  B  B16  1  0.00362954  0.34144401  0.93611934  1
  B  B17  1  0.00263690  0.34027961  0.43820763  1
  B  B18  1  0.33041569  0.00450234  0.81093722  1
  B  B19  1  0.33416677  0.00415748  0.31239252  1
  B  B20  1  0.66230251  0.99816442  0.68694489  1
  B  B21  1  0.65790412  0.99816864  0.18727529  1
  B  B22  1  0.99138025  0.67080232  0.56256111  1
  B  B23  1  0.99511333  0.66549117  0.06198960  1
  O  O24  1  0.06981659  0.25241561  0.79191024  1
  O  O25  1  0.07056698  0.24653302  0.29114731  1
  O  O26  1  0.25418729  0.07047149  0.95148278  1
  O  O27  1  0.03339661  0.57814422  0.91547253  1
  O  O28  1  0.25225546  0.07039587  0.45375008  1
  O  O29  1  0.03220292  0.57809609  0.41722171  1
  O  O30  1  0.58265002  0.02390752  0.82538350  1
  O  O31  1  0.26468274  0.65441485  0.56892077  1
  O  O32  1  0.57746043  0.03802125  0.32782913  1
  O  O33  1  0.26905620  0.64123730  0.06922555  1
  O  O34  1  0.34732591  0.73178917  0.81728826  1
  O  O35  1  0.35835387  0.73104806  0.31984813  1
  O  O36  1  0.64373648  0.26767459  0.69310335  1
  O  O37  1  0.62814782  0.27322431  0.19464297  1
  O  O38  1  0.72775844  0.37050476  0.94355602  1
  O  O39  1  0.41575481  0.97546224  0.66781174  1
  O  O40  1  0.72688933  0.36951940  0.44534622  1
  O  O41  1  0.42056606  0.96674237  0.16640790  1
  O  O42  1  0.97158265  0.41983637  0.57708753  1
  O  O43  1  0.96208920  0.42217859  0.07734066  1
  O  O44  1  0.74322410  0.93137613  0.54350268  1
  O  O45  1  0.75335372  0.92923903  0.04076271  1
  O  O46  1  0.92725022  0.73986497  0.70153754  1
  O  O47  1  0.92882503  0.74748502  0.20227604  1
