# generated using pymatgen
data_HgH10N2Cl4O
_symmetry_space_group_name_H-M   'P 1'
_cell_length_a   8.62160486
_cell_length_b   11.96480259
_cell_length_c   9.29965167
_cell_angle_alpha   90.00000000
_cell_angle_beta   90.00000000
_cell_angle_gamma   90.00000000
_symmetry_Int_Tables_number   1
_chemical_formula_structural   HgH10N2Cl4O
_chemical_formula_sum   'Hg4 H40 N8 Cl16 O4'
_cell_volume   959.31300922
_cell_formula_units_Z   4
loop_
 _symmetry_equiv_pos_site_id
 _symmetry_equiv_pos_as_xyz
  1  'x, y, z'
loop_
 _atom_site_type_symbol
 _atom_site_label
 _atom_site_symmetry_multiplicity
 _atom_site_fract_x
 _atom_site_fract_y
 _atom_site_fract_z
 _atom_site_occupancy
  Hg  Hg0  1  0.00000000  0.00000000  0.27857854  1
  Hg  Hg1  1  0.00000000  0.00000000  0.72142146  1
  Hg  Hg2  1  0.50000000  0.50000000  0.72142146  1
  Hg  Hg3  1  0.50000000  0.50000000  0.27857854  1
  H  H4  1  0.03951877  0.67575989  0.50000000  1
  H  H5  1  0.03397343  0.29841967  0.08952419  1
  H  H6  1  0.03397343  0.29841967  0.91047581  1
  H  H7  1  0.08548863  0.52195315  0.19675426  1
  H  H8  1  0.08548863  0.52195315  0.80324574  1
  H  H9  1  0.09858241  0.38996522  0.40941465  1
  H  H10  1  0.09858241  0.38996522  0.59058535  1
  H  H11  1  0.14039008  0.26809981  0.50000000  1
  H  H12  1  0.16697760  0.37812985  0.00000000  1
  H  H13  1  0.17659352  0.23371356  0.00000000  1
  H  H14  1  0.32340648  0.73371356  0.00000000  1
  H  H15  1  0.33302240  0.87812985  0.00000000  1
  H  H16  1  0.35960992  0.76809981  0.50000000  1
  H  H17  1  0.40141759  0.88996522  0.40941465  1
  H  H18  1  0.40141759  0.88996522  0.59058535  1
  H  H19  1  0.41451137  0.02195315  0.19675426  1
  H  H20  1  0.41451137  0.02195315  0.80324574  1
  H  H21  1  0.46602657  0.79841967  0.08952419  1
  H  H22  1  0.46602657  0.79841967  0.91047581  1
  H  H23  1  0.46048123  0.17575989  0.50000000  1
  H  H24  1  0.53951877  0.82424011  0.50000000  1
  H  H25  1  0.53397343  0.20158033  0.08952419  1
  H  H26  1  0.53397343  0.20158033  0.91047581  1
  H  H27  1  0.58548863  0.97804685  0.19675426  1
  H  H28  1  0.58548863  0.97804685  0.80324574  1
  H  H29  1  0.59858241  0.11003478  0.40941465  1
  H  H30  1  0.59858241  0.11003478  0.59058535  1
  H  H31  1  0.64039008  0.23190019  0.50000000  1
  H  H32  1  0.66697760  0.12187015  0.00000000  1
  H  H33  1  0.67659352  0.26628644  0.00000000  1
  H  H34  1  0.82340648  0.76628644  0.00000000  1
  H  H35  1  0.83302240  0.62187015  0.00000000  1
  H  H36  1  0.85960992  0.73190019  0.50000000  1
  H  H37  1  0.90141759  0.61003478  0.40941465  1
  H  H38  1  0.90141759  0.61003478  0.59058535  1
  H  H39  1  0.91451137  0.47804685  0.19675426  1
  H  H40  1  0.91451137  0.47804685  0.80324574  1
  H  H41  1  0.96602657  0.70158033  0.08952419  1
  H  H42  1  0.96602657  0.70158033  0.91047581  1
  H  H43  1  0.96048123  0.32424011  0.50000000  1
  N  N44  1  0.07716499  0.34244696  0.50000000  1
  N  N45  1  0.10424754  0.30357605  0.00000000  1
  N  N46  1  0.39575246  0.80357605  0.00000000  1
  N  N47  1  0.42283501  0.84244696  0.50000000  1
  N  N48  1  0.57716499  0.15755304  0.50000000  1
  N  N49  1  0.60424754  0.19642395  0.00000000  1
  N  N50  1  0.89575246  0.69642395  0.00000000  1
  N  N51  1  0.92283501  0.65755304  0.50000000  1
  Cl  Cl52  1  0.11733427  0.81897744  0.24931825  1
  Cl  Cl53  1  0.11733427  0.81897744  0.75068175  1
  Cl  Cl54  1  0.20171495  0.07975612  0.50000000  1
  Cl  Cl55  1  0.24174775  0.55795810  0.00000000  1
  Cl  Cl56  1  0.25825225  0.05795810  0.00000000  1
  Cl  Cl57  1  0.29828505  0.57975612  0.50000000  1
  Cl  Cl58  1  0.38266573  0.31897744  0.24931825  1
  Cl  Cl59  1  0.38266573  0.31897744  0.75068175  1
  Cl  Cl60  1  0.61733427  0.68102256  0.24931825  1
  Cl  Cl61  1  0.61733427  0.68102256  0.75068175  1
  Cl  Cl62  1  0.70171495  0.42024388  0.50000000  1
  Cl  Cl63  1  0.74174775  0.94204190  0.00000000  1
  Cl  Cl64  1  0.75825225  0.44204190  0.00000000  1
  Cl  Cl65  1  0.79828505  0.92024388  0.50000000  1
  Cl  Cl66  1  0.88266573  0.18102256  0.24931825  1
  Cl  Cl67  1  0.88266573  0.18102256  0.75068175  1
  O  O68  1  0.00000000  0.50000000  0.26171788  1
  O  O69  1  0.00000000  0.50000000  0.73828212  1
  O  O70  1  0.50000000  0.00000000  0.73828212  1
  O  O71  1  0.50000000  0.00000000  0.26171788  1
