# generated using pymatgen
data_Li2MnFe(BO3)2
_symmetry_space_group_name_H-M   'P 1'
_cell_length_a   8.26232603
_cell_length_b   14.29922662
_cell_length_c   3.16248497
_cell_angle_alpha   90.00000000
_cell_angle_beta   90.00000000
_cell_angle_gamma   90.17938776
_symmetry_Int_Tables_number   1
_chemical_formula_structural   Li2MnFe(BO3)2
_chemical_formula_sum   'Li6 Mn3 Fe3 B6 O18'
_cell_volume   373.62955177
_cell_formula_units_Z   3
loop_
 _symmetry_equiv_pos_site_id
 _symmetry_equiv_pos_as_xyz
  1  'x, y, z'
loop_
 _atom_site_type_symbol
 _atom_site_label
 _atom_site_symmetry_multiplicity
 _atom_site_fract_x
 _atom_site_fract_y
 _atom_site_fract_z
 _atom_site_occupancy
  Li  Li0  1  0.29255147  0.99089096  0.50000000  1
  Li  Li1  1  0.34031513  0.35822610  0.50000000  1
  Li  Li2  1  0.36554182  0.64991401  0.50000000  1
  Li  Li3  1  0.79240438  0.49090915  0.50000000  1
  Li  Li4  1  0.84252938  0.85672090  0.50000000  1
  Li  Li5  1  0.86717965  0.15113472  0.50000000  1
  Mn  Mn6  1  0.19186231  0.18014411  0.00000000  1
  Mn  Mn7  1  0.63449406  0.00585322  0.00000000  1
  Mn  Mn8  1  0.69261761  0.68031635  0.00000000  1
  Fe  Fe9  1  0.13588446  0.50424231  0.00000000  1
  Fe  Fe10  1  0.17578454  0.81628847  0.00000000  1
  Fe  Fe11  1  0.67589299  0.31703671  0.00000000  1
  B  B12  1  0.00267386  0.66597168  0.50000000  1
  B  B13  1  0.99934785  0.99867589  0.00000000  1
  B  B14  1  0.99898966  0.33448451  0.50000000  1
  B  B15  1  0.50209594  0.16803339  0.50000000  1
  B  B16  1  0.49775777  0.49984502  0.00000000  1
  B  B17  1  0.49780469  0.83330851  0.50000000  1
  O  O18  1  0.01100928  0.43142007  0.50000000  1
  O  O19  1  0.01935045  0.76291693  0.50000000  1
  O  O20  1  0.13820020  0.60859896  0.50000000  1
  O  O21  1  0.13800677  0.28026485  0.50000000  1
  O  O22  1  0.15313456  0.95816167  0.00000000  1
  O  O23  1  0.34900992  0.12643049  0.50000000  1
  O  O24  1  0.34689770  0.78984544  0.50000000  1
  O  O25  1  0.35911515  0.44413284  0.00000000  1
  O  O26  1  0.48342221  0.59653829  0.00000000  1
  O  O27  1  0.50855659  0.93010387  0.50000000  1
  O  O28  1  0.51790036  0.26493091  0.50000000  1
  O  O29  1  0.63934999  0.11180548  0.50000000  1
  O  O30  1  0.63806183  0.77999017  0.50000000  1
  O  O31  1  0.65055244  0.45822789  0.00000000  1
  O  O32  1  0.84828598  0.62570121  0.50000000  1
  O  O33  1  0.84736212  0.29168408  0.50000000  1
  O  O34  1  0.86285548  0.94162039  0.00000000  1
  O  O35  1  0.98320341  0.09562945  0.00000000  1
