# generated using pymatgen
data_Li8MnFe7(BO3)8
_symmetry_space_group_name_H-M   'P 1'
_cell_length_a   5.96811319
_cell_length_b   5.23984785
_cell_length_c   17.75445452
_cell_angle_alpha   98.98657484
_cell_angle_beta   83.33731228
_cell_angle_gamma   114.28704594
_symmetry_Int_Tables_number   1
_chemical_formula_structural   Li8MnFe7(BO3)8
_chemical_formula_sum   'Li8 Mn1 Fe7 B8 O24'
_cell_volume   499.03916146
_cell_formula_units_Z   1
loop_
 _symmetry_equiv_pos_site_id
 _symmetry_equiv_pos_as_xyz
  1  'x, y, z'
loop_
 _atom_site_type_symbol
 _atom_site_label
 _atom_site_symmetry_multiplicity
 _atom_site_fract_x
 _atom_site_fract_y
 _atom_site_fract_z
 _atom_site_occupancy
  Li  Li0  1  0.91247412  0.91470185  0.76825306  1
  Li  Li1  1  0.58881757  0.08827180  0.73338964  1
  Li  Li2  1  0.83393336  0.58223178  0.48172972  1
  Li  Li3  1  0.66203157  0.41490018  0.01716118  1
  Li  Li4  1  0.33663237  0.58379002  0.98362725  1
  Li  Li5  1  0.16307117  0.41329372  0.51697550  1
  Li  Li6  1  0.41274493  0.91525278  0.26643708  1
  Li  Li7  1  0.08763670  0.08449637  0.23293611  1
  Mn  Mn8  1  0.16683132  0.96082314  0.60312048  1
  Fe  Fe9  1  0.90837019  0.45340805  0.85504871  1
  Fe  Fe10  1  0.84111374  0.04285959  0.39442632  1
  Fe  Fe11  1  0.33809379  0.03931101  0.89500318  1
  Fe  Fe12  1  0.59415256  0.55354148  0.64718631  1
  Fe  Fe13  1  0.40977603  0.45709799  0.35472295  1
  Fe  Fe14  1  0.65922327  0.95448905  0.10505630  1
  Fe  Fe15  1  0.08917930  0.54093681  0.14444225  1
  B  B16  1  0.69486419  0.05257139  0.56480218  1
  B  B17  1  0.94185473  0.55041886  0.31505934  1
  B  B18  1  0.80861166  0.94956587  0.93488462  1
  B  B19  1  0.44025011  0.54993524  0.81646337  1
  B  B20  1  0.55893952  0.44900268  0.18435655  1
  B  B21  1  0.19181935  0.05038944  0.06565359  1
  B  B22  1  0.05478303  0.45129514  0.68559138  1
  B  B23  1  0.30894443  0.94776134  0.43304384  1
  O  O24  1  0.96114447  0.28430738  0.74419019  1
  O  O25  1  0.76056655  0.18831088  0.93337525  1
  O  O26  1  0.00062056  0.68533819  0.68474153  1
  O  O27  1  0.94751611  0.87104661  0.87349296  1
  O  O28  1  0.79001800  0.21520202  0.50595377  1
  O  O29  1  0.71085300  0.78743105  0.99392670  1
  O  O30  1  0.55770627  0.13064284  0.62689728  1
  O  O31  1  0.80167497  0.62785648  0.37632866  1
  O  O32  1  0.48958014  0.31247018  0.81788932  1
  O  O33  1  0.73841638  0.81012082  0.56562124  1
  O  O34  1  0.69767377  0.37138831  0.12255390  1
  O  O35  1  0.53598056  0.71345592  0.75752125  1
  O  O36  1  0.46135305  0.28651715  0.24313076  1
  O  O37  1  0.30027304  0.62631746  0.87790058  1
  O  O38  1  0.26006806  0.18613333  0.43232108  1
  O  O39  1  0.51217954  0.68910686  0.18335150  1
  O  O40  1  0.19858554  0.38131687  0.62440657  1
  O  O41  1  0.45054621  0.87342828  0.37192681  1
  O  O42  1  0.28891824  0.21298474  0.00654919  1
  O  O43  1  0.21054099  0.78095758  0.49144874  1
  O  O44  1  0.05257275  0.12810668  0.12715062  1
  O  O45  1  0.99140498  0.31326424  0.31706779  1
  O  O46  1  0.23897576  0.81130536  0.06702477  1
  O  O47  1  0.03868104  0.71264419  0.25586063  1
