# generated using pymatgen
data_Cs2Mo(SO)2
_symmetry_space_group_name_H-M   'P 1'
_cell_length_a   7.22304248
_cell_length_b   7.22304248
_cell_length_c   9.87308207
_cell_angle_alpha   98.31839972
_cell_angle_beta   106.94925538
_cell_angle_gamma   113.81381269
_symmetry_Int_Tables_number   1
_chemical_formula_structural   Cs2Mo(SO)2
_chemical_formula_sum   'Cs4 Mo2 S4 O4'
_cell_volume   430.03983965
_cell_formula_units_Z   2
loop_
 _symmetry_equiv_pos_site_id
 _symmetry_equiv_pos_as_xyz
  1  'x, y, z'
loop_
 _atom_site_type_symbol
 _atom_site_label
 _atom_site_symmetry_multiplicity
 _atom_site_fract_x
 _atom_site_fract_y
 _atom_site_fract_z
 _atom_site_occupancy
  Cs  Cs0  1  0.42584972  0.35069195  0.66441941  1
  Cs  Cs1  1  0.18627254  0.76143031  0.83558059  1
  Cs  Cs2  1  0.57415028  0.64930805  0.33558059  1
  Cs  Cs3  1  0.81372746  0.23856969  0.16441941  1
  Mo  Mo4  1  0.83174823  0.08174823  0.75000000  1
  Mo  Mo5  1  0.16825177  0.91825177  0.25000000  1
  S  S6  1  0.16686292  0.26091434  0.93206955  1
  S  S7  1  0.82884479  0.23479337  0.56793045  1
  S  S8  1  0.83313708  0.73908566  0.06793045  1
  S  S9  1  0.17115521  0.76520663  0.43206955  1
  O  O10  1  0.77303137  0.81442057  0.67983029  1
  O  O11  1  0.63459029  0.09320109  0.82016971  1
  O  O12  1  0.22696863  0.18557943  0.32016971  1
  O  O13  1  0.36540971  0.90679891  0.17983029  1
