# generated using pymatgen
data_Hf2N2O
_symmetry_space_group_name_H-M   'P 1'
_cell_length_a   8.74780747
_cell_length_b   8.70763685
_cell_length_c   8.73707941
_cell_angle_alpha   109.32722371
_cell_angle_beta   109.56865186
_cell_angle_gamma   109.52184959
_symmetry_Int_Tables_number   1
_chemical_formula_structural   Hf2N2O
_chemical_formula_sum   'Hf16 N16 O8'
_cell_volume   512.29546479
_cell_formula_units_Z   8
loop_
 _symmetry_equiv_pos_site_id
 _symmetry_equiv_pos_as_xyz
  1  'x, y, z'
loop_
 _atom_site_type_symbol
 _atom_site_label
 _atom_site_symmetry_multiplicity
 _atom_site_fract_x
 _atom_site_fract_y
 _atom_site_fract_z
 _atom_site_occupancy
  Hf  Hf0  1  0.49629952  0.98860860  0.98718406  1
  Hf  Hf1  1  0.75720546  0.29257375  0.54495252  1
  Hf  Hf2  1  0.21068352  0.95526712  0.24964017  1
  Hf  Hf3  1  0.71978345  0.46482344  0.25026979  1
  Hf  Hf4  1  0.25145341  0.21437507  0.95818368  1
  Hf  Hf5  1  0.46752096  0.24899680  0.72202492  1
  Hf  Hf6  1  0.99598866  0.50740991  0.99543022  1
  Hf  Hf7  1  0.96751632  0.26000820  0.21717897  1
  Hf  Hf8  1  0.01608108  0.00808101  0.51664214  1
  Hf  Hf9  1  0.50214678  0.50875491  0.51219279  1
  Hf  Hf10  1  0.02793724  0.74259858  0.77670654  1
  Hf  Hf11  1  0.52814337  0.75062413  0.28332578  1
  Hf  Hf12  1  0.74245715  0.78311262  0.02786959  1
  Hf  Hf13  1  0.77881528  0.02811807  0.75066594  1
  Hf  Hf14  1  0.28546103  0.53674118  0.74953273  1
  Hf  Hf15  1  0.24984562  0.71330503  0.46448912  1
  N  N16  1  0.73195302  0.99321311  0.95912046  1
  N  N17  1  0.51169127  0.24067103  0.97267795  1
  N  N18  1  0.76777839  0.53863375  0.52740151  1
  N  N19  1  0.72621868  0.25452950  0.76663503  1
  N  N20  1  0.23554205  0.96778193  0.50805784  1
  N  N21  1  0.49179671  0.76299441  0.03599688  1
  N  N22  1  0.27313876  0.73968757  0.22576629  1
  N  N23  1  0.96059785  0.50657085  0.23464488  1
  N  N24  1  0.22659661  0.44769776  0.46099641  1
  N  N25  1  0.54896850  0.53281794  0.77113489  1
  N  N26  1  0.95826458  0.73238642  0.99220035  1
  N  N27  1  0.53673528  0.77227833  0.54373579  1
  N  N28  1  0.99050253  0.95930675  0.73080406  1
  N  N29  1  0.22614705  0.27276771  0.74107006  1
  N  N30  1  0.03179599  0.48417774  0.75881205  1
  N  N31  1  0.26200723  0.77687628  0.72867038  1
  O  O32  1  0.27880275  0.01647405  0.05372801  1
  O  O33  1  0.75923455  0.03186486  0.47633586  1
  O  O34  1  0.74129434  0.22496095  0.27642158  1
  O  O35  1  0.00431930  0.04241559  0.27477419  1
  O  O36  1  0.45057861  0.46990169  0.22224944  1
  O  O37  1  0.77148934  0.72673642  0.26468543  1
  O  O38  1  0.46134730  0.22400903  0.44601410  1
  O  O39  1  0.05586045  0.27784889  0.02177760  1
