# generated using pymatgen
data_Li4MnFe3(BO3)4
_symmetry_space_group_name_H-M   'P 1'
_cell_length_a   6.01034266
_cell_length_b   5.24124043
_cell_length_c   8.99625307
_cell_angle_alpha   90.84473010
_cell_angle_beta   102.49577288
_cell_angle_gamma   113.84009058
_symmetry_Int_Tables_number   1
_chemical_formula_structural   Li4MnFe3(BO3)4
_chemical_formula_sum   'Li4 Mn1 Fe3 B4 O12'
_cell_volume   251.41360167
_cell_formula_units_Z   1
loop_
 _symmetry_equiv_pos_site_id
 _symmetry_equiv_pos_as_xyz
  1  'x, y, z'
loop_
 _atom_site_type_symbol
 _atom_site_label
 _atom_site_symmetry_multiplicity
 _atom_site_fract_x
 _atom_site_fract_y
 _atom_site_fract_z
 _atom_site_occupancy
  Li  Li0  1  0.67619317  0.40735450  0.03283001  1
  Li  Li1  1  0.67438551  0.90777009  0.53375739  1
  Li  Li2  1  0.32734560  0.09327000  0.46684987  1
  Li  Li3  1  0.32123000  0.58798845  0.96507867  1
  Mn  Mn4  1  0.77193050  0.95960026  0.20771776  1
  Fe  Fe5  1  0.77092104  0.46369527  0.70979930  1
  Fe  Fe6  1  0.23857366  0.04982109  0.79178114  1
  Fe  Fe7  1  0.23917177  0.55300524  0.29409865  1
  B  B8  1  0.73870050  0.44621302  0.36989818  1
  B  B9  1  0.26003843  0.05325102  0.13161204  1
  B  B10  1  0.73889350  0.94360283  0.86589974  1
  B  B11  1  0.25611412  0.55158190  0.63288207  1
  O  O12  1  0.82537698  0.38021399  0.24779045  1
  O  O13  1  0.70401830  0.27794564  0.48733132  1
  O  O14  1  0.68494191  0.17825349  0.86128299  1
  O  O15  1  0.67964410  0.67752392  0.36720313  1
  O  O16  1  0.82451333  0.87103942  0.74517019  1
  O  O17  1  0.29590318  0.21639981  0.01254915  1
  O  O18  1  0.70070159  0.77663677  0.98362692  1
  O  O19  1  0.18228902  0.13093743  0.25427739  1
  O  O20  1  0.30857028  0.31514699  0.63459441  1
  O  O21  1  0.30924904  0.81455797  0.13379803  1
  O  O22  1  0.29458972  0.71668410  0.51477337  1
  O  O23  1  0.17670474  0.62750781  0.75539685  1
