# generated using pymatgen
data_Hf2N2O
_symmetry_space_group_name_H-M   'P 1'
_cell_length_a   8.73829808
_cell_length_b   8.74948141
_cell_length_c   8.71977818
_cell_angle_alpha   109.37744212
_cell_angle_beta   109.48809066
_cell_angle_gamma   109.58563092
_symmetry_Int_Tables_number   1
_chemical_formula_structural   Hf2N2O
_chemical_formula_sum   'Hf16 N16 O8'
_cell_volume   512.96823676
_cell_formula_units_Z   8
loop_
 _symmetry_equiv_pos_site_id
 _symmetry_equiv_pos_as_xyz
  1  'x, y, z'
loop_
 _atom_site_type_symbol
 _atom_site_label
 _atom_site_symmetry_multiplicity
 _atom_site_fract_x
 _atom_site_fract_y
 _atom_site_fract_z
 _atom_site_occupancy
  Hf  Hf0  1  0.49634831  0.98773637  0.98672272  1
  Hf  Hf1  1  0.75663675  0.29465873  0.53889654  1
  Hf  Hf2  1  0.21308509  0.95696186  0.25097516  1
  Hf  Hf3  1  0.72074077  0.47312818  0.24881896  1
  Hf  Hf4  1  0.25065169  0.21359597  0.95757833  1
  Hf  Hf5  1  0.96659818  0.25900552  0.21544517  1
  Hf  Hf6  1  0.50159001  0.50950015  0.51197114  1
  Hf  Hf7  1  0.00771625  0.99647585  0.50661451  1
  Hf  Hf8  1  0.02689314  0.74196485  0.77591445  1
  Hf  Hf9  1  0.00830074  0.51830388  0.00575645  1
  Hf  Hf10  1  0.53667762  0.74995799  0.28303330  1
  Hf  Hf11  1  0.45855638  0.25028073  0.72254767  1
  Hf  Hf12  1  0.74341155  0.78169068  0.03192536  1
  Hf  Hf13  1  0.28430178  0.53580008  0.74962282  1
  Hf  Hf14  1  0.78085927  0.02516766  0.74961110  1
  Hf  Hf15  1  0.24962011  0.71200547  0.46442861  1
  N  N16  1  0.73170908  0.99530573  0.95890602  1
  N  N17  1  0.51257547  0.24010421  0.97043805  1
  N  N18  1  0.77164134  0.72945330  0.26469026  1
  N  N19  1  0.23646329  0.96778218  0.50902279  1
  N  N20  1  0.76760873  0.53817551  0.52577128  1
  N  N21  1  0.48792421  0.76383973  0.03474946  1
  N  N22  1  0.96157200  0.50377233  0.23251201  1
  N  N23  1  0.22700163  0.44859015  0.46121602  1
  N  N24  1  0.53804124  0.77154352  0.54430151  1
  N  N25  1  0.54890798  0.53223723  0.77223073  1
  N  N26  1  0.95996533  0.73304652  0.99300264  1
  N  N27  1  0.27282363  0.73951684  0.22586520  1
  N  N28  1  0.98820101  0.95760284  0.73166128  1
  N  N29  1  0.22559640  0.27171629  0.74032569  1
  N  N30  1  0.25985422  0.77569425  0.72797317  1
  N  N31  1  0.02856687  0.48147319  0.75814800  1
  O  O32  1  0.74396654  0.22196594  0.27931574  1
  O  O33  1  0.28097051  0.01940018  0.05617011  1
  O  O34  1  0.75851639  0.03639266  0.48538679  1
  O  O35  1  0.72421288  0.25337709  0.76500031  1
  O  O36  1  0.05019036  0.27683157  0.01413128  1
  O  O37  1  0.44434879  0.46446064  0.22179334  1
  O  O38  1  0.01058901  0.04727024  0.27516451  1
  O  O39  1  0.46676645  0.22421389  0.45236250  1
