# generated using pymatgen
data_Hf2N2O
_symmetry_space_group_name_H-M   'P 1'
_cell_length_a   8.73383017
_cell_length_b   8.74593802
_cell_length_c   8.73677080
_cell_angle_alpha   109.47647352
_cell_angle_beta   109.50610408
_cell_angle_gamma   109.50061501
_symmetry_Int_Tables_number   1
_chemical_formula_structural   Hf2N2O
_chemical_formula_sum   'Hf16 N16 O8'
_cell_volume   513.29488458
_cell_formula_units_Z   8
loop_
 _symmetry_equiv_pos_site_id
 _symmetry_equiv_pos_as_xyz
  1  'x, y, z'
loop_
 _atom_site_type_symbol
 _atom_site_label
 _atom_site_symmetry_multiplicity
 _atom_site_fract_x
 _atom_site_fract_y
 _atom_site_fract_z
 _atom_site_occupancy
  Hf  Hf0  1  0.49310215  0.01189716  0.00286001  1
  Hf  Hf1  1  0.96979900  0.25456735  0.22125640  1
  Hf  Hf2  1  0.78446059  0.03698782  0.75117190  1
  Hf  Hf3  1  0.71536375  0.46604530  0.25217844  1
  Hf  Hf4  1  0.75744290  0.29776831  0.53848789  1
  Hf  Hf5  1  0.74263361  0.77632373  0.03498339  1
  Hf  Hf6  1  0.99997240  0.48788748  0.98846495  1
  Hf  Hf7  1  0.50515751  0.50922899  0.51273042  1
  Hf  Hf8  1  0.00992946  0.99799676  0.50858842  1
  Hf  Hf9  1  0.46315679  0.24958789  0.72091377  1
  Hf  Hf10  1  0.53527471  0.74964465  0.29113111  1
  Hf  Hf11  1  0.23931231  0.20854764  0.95624679  1
  Hf  Hf12  1  0.25747661  0.71910412  0.46902190  1
  Hf  Hf13  1  0.21790902  0.95689777  0.24847206  1
  Hf  Hf14  1  0.28151449  0.53209523  0.74217192  1
  Hf  Hf15  1  0.04232380  0.75206856  0.78181378  1
  N  N16  1  0.74362771  0.22434049  0.27367290  1
  N  N17  1  0.76935975  0.72536192  0.25701994  1
  N  N18  1  0.72603147  0.25860654  0.76764777  1
  N  N19  1  0.76766817  0.54283143  0.53188737  1
  N  N20  1  0.22522756  0.45031371  0.46261286  1
  N  N21  1  0.51147841  0.24195950  0.96964027  1
  N  N22  1  0.27407659  0.73691733  0.22126146  1
  N  N23  1  0.53673951  0.77234614  0.54545706  1
  N  N24  1  0.22122621  0.27130436  0.73460457  1
  N  N25  1  0.27252851  0.01099074  0.04827913  1
  N  N26  1  0.54945273  0.53728911  0.77539886  1
  N  N27  1  0.04548206  0.27460378  0.01620767  1
  N  N28  1  0.23739632  0.96673621  0.50792845  1
  N  N29  1  0.26541759  0.77665065  0.72905780  1
  N  N30  1  0.03431092  0.49181957  0.76341237  1
  N  N31  1  0.98558596  0.95320388  0.72291590  1
  O  O32  1  0.00787568  0.04119684  0.26404417  1
  O  O33  1  0.96485470  0.51266651  0.23880375  1
  O  O34  1  0.95446353  0.72917615  0.99681618  1
  O  O35  1  0.75704636  0.03115798  0.48478894  1
  O  O36  1  0.45339709  0.46761396  0.22754996  1
  O  O37  1  0.72779946  0.98308964  0.95338490  1
  O  O38  1  0.46064989  0.22669856  0.45070682  1
  O  O39  1  0.49347370  0.76647423  0.03640677  1
