# generated using pymatgen
data_Li3MnFe2(BO3)3
_symmetry_space_group_name_H-M   'P 1'
_cell_length_a   8.26038176
_cell_length_b   8.26746528
_cell_length_c   6.28434299
_cell_angle_alpha   90.00000000
_cell_angle_beta   90.00000000
_cell_angle_gamma   120.02500005
_symmetry_Int_Tables_number   1
_chemical_formula_structural   Li3MnFe2(BO3)3
_chemical_formula_sum   'Li6 Mn2 Fe4 B6 O18'
_cell_volume   371.58104263
_cell_formula_units_Z   2
loop_
 _symmetry_equiv_pos_site_id
 _symmetry_equiv_pos_as_xyz
  1  'x, y, z'
loop_
 _atom_site_type_symbol
 _atom_site_label
 _atom_site_symmetry_multiplicity
 _atom_site_fract_x
 _atom_site_fract_y
 _atom_site_fract_z
 _atom_site_occupancy
  Li  Li0  1  0.28502722  0.98379129  0.25118945  1
  Li  Li1  1  0.28502722  0.98379129  0.74881055  1
  Li  Li2  1  0.01626582  0.30145544  0.25006836  1
  Li  Li3  1  0.01626582  0.30145544  0.74993164  1
  Li  Li4  1  0.69862226  0.71372214  0.74952263  1
  Li  Li5  1  0.69862226  0.71372214  0.25047737  1
  Mn  Mn6  1  0.37187142  0.35991855  0.00000000  1
  Mn  Mn7  1  0.64051356  0.01202442  0.00000000  1
  Fe  Fe8  1  0.36680719  0.36055840  0.50000000  1
  Fe  Fe9  1  0.63946440  0.00685959  0.50000000  1
  Fe  Fe10  1  0.99265893  0.63386573  0.00000000  1
  Fe  Fe11  1  0.99272606  0.63252758  0.50000000  1
  B  B12  1  0.99784856  0.99696392  0.00000000  1
  B  B13  1  0.00057084  0.00033298  0.50000000  1
  B  B14  1  0.33233388  0.66711816  0.25350587  1
  B  B15  1  0.33233388  0.66711816  0.74649413  1
  B  B16  1  0.66818426  0.33409544  0.25346241  1
  B  B17  1  0.66818426  0.33409544  0.74653759  1
  O  O18  1  0.10775425  0.91430628  0.50000000  1
  O  O19  1  0.11078276  0.91595570  0.00000000  1
  O  O20  1  0.13839202  0.58030583  0.25016173  1
  O  O21  1  0.13839202  0.58030583  0.74983827  1
  O  O22  1  0.07892267  0.19010557  0.00000000  1
  O  O23  1  0.08695330  0.19430816  0.50000000  1
  O  O24  1  0.43908621  0.86003610  0.25412977  1
  O  O25  1  0.43908621  0.86003610  0.74587023  1
  O  O26  1  0.41866155  0.56020879  0.25346247  1
  O  O27  1  0.41866155  0.56020879  0.74653753  1
  O  O28  1  0.47480412  0.25429927  0.25408127  1
  O  O29  1  0.47480412  0.25429927  0.74591873  1
  O  O30  1  0.80489474  0.88370457  0.00000000  1
  O  O31  1  0.80656506  0.89305963  0.50000000  1
  O  O32  1  0.78215604  0.52728614  0.25104637  1
  O  O33  1  0.78215604  0.52728614  0.74895363  1
  O  O34  1  0.74730074  0.22043635  0.74656479  1
  O  O35  1  0.74730074  0.22043635  0.25343521  1
