# generated using pymatgen
data_Li4MnFe3(BO3)4
_symmetry_space_group_name_H-M   'P 1'
_cell_length_a   5.98771360
_cell_length_b   5.25080355
_cell_length_c   16.14557317
_cell_angle_alpha   90.56217007
_cell_angle_beta   98.57789272
_cell_angle_gamma   88.81591239
_symmetry_Int_Tables_number   1
_chemical_formula_structural   Li4MnFe3(BO3)4
_chemical_formula_sum   'Li8 Mn2 Fe6 B8 O24'
_cell_volume   501.82472546
_cell_formula_units_Z   2
loop_
 _symmetry_equiv_pos_site_id
 _symmetry_equiv_pos_as_xyz
  1  'x, y, z'
loop_
 _atom_site_type_symbol
 _atom_site_label
 _atom_site_symmetry_multiplicity
 _atom_site_fract_x
 _atom_site_fract_y
 _atom_site_fract_z
 _atom_site_occupancy
  Li  Li0  1  0.06662104  0.84558368  0.61113807  1
  Li  Li1  1  0.42983562  0.15507694  0.88628572  1
  Li  Li2  1  0.18356469  0.65601634  0.13882088  1
  Li  Li3  1  0.32016438  0.34492306  0.36371428  1
  Li  Li4  1  0.68337896  0.65441632  0.63886193  1
  Li  Li5  1  0.81403933  0.34603787  0.85814875  1
  Li  Li6  1  0.56643531  0.84398366  0.11117912  1
  Li  Li7  1  0.93596067  0.15396213  0.39185125  1
  Mn  Mn8  1  0.02813312  0.16935616  0.21114413  1
  Mn  Mn9  1  0.72186688  0.33064384  0.03885587  1
  Fe  Fe10  1  0.27594808  0.66464402  0.95871046  1
  Fe  Fe11  1  0.22394188  0.33793198  0.54226100  1
  Fe  Fe12  1  0.52605812  0.16206802  0.70773900  1
  Fe  Fe13  1  0.47405192  0.83535598  0.29128954  1
  Fe  Fe14  1  0.77856819  0.66253443  0.45801100  1
  Fe  Fe15  1  0.97143181  0.83746557  0.79198900  1
  B  B16  1  0.03839035  0.33039065  0.70319905  1
  B  B17  1  0.29069842  0.82893528  0.45435335  1
  B  B18  1  0.45930158  0.67106472  0.79564665  1
  B  B19  1  0.21286400  0.17246199  0.04534199  1
  B  B20  1  0.78456286  0.83090256  0.95174025  1
  B  B21  1  0.53713600  0.32753801  0.20465801  1
  B  B22  1  0.71160965  0.16960935  0.54680095  1
  B  B23  1  0.96543714  0.66909744  0.29825975  1
  O  O24  1  0.01230301  0.58921378  0.69238450  1
  O  O25  1  0.16850760  0.18353479  0.65397645  1
  O  O26  1  0.17830191  0.70505970  0.51192931  1
  O  O27  1  0.32426495  0.29577219  0.98716755  1
  O  O28  1  0.07713904  0.78499512  0.23932313  1
  O  O29  1  0.32944817  0.81718099  0.84510584  1
  O  O30  1  0.08321370  0.31993493  0.09415805  1
  O  O31  1  0.26442054  0.08776695  0.44354723  1
  O  O32  1  0.48557946  0.41223305  0.80645277  1
  O  O33  1  0.23830495  0.91387024  0.05675741  1
  O  O34  1  0.42055183  0.68281901  0.40489416  1
  O  O35  1  0.42573505  0.20422781  0.26283245  1
  O  O36  1  0.57169809  0.79494030  0.73807069  1
  O  O37  1  0.58149240  0.31646521  0.59602355  1
  O  O38  1  0.76192705  0.08987301  0.93803994  1
  O  O39  1  0.51169505  0.58612976  0.19324259  1
  O  O40  1  0.73769699  0.91078622  0.55761550  1
  O  O41  1  0.91573512  0.68090968  0.90376144  1
  O  O42  1  0.66678630  0.18006507  0.15584195  1
  O  O43  1  0.92692159  0.20518413  0.76069672  1
  O  O44  1  0.67286096  0.71500488  0.01067687  1
  O  O45  1  0.82307841  0.29481587  0.48930328  1
  O  O46  1  0.83426488  0.81909032  0.34623856  1
  O  O47  1  0.98807295  0.41012699  0.31196006  1
