# generated using pymatgen
data_Na2Zn2O3
_symmetry_space_group_name_H-M   'P 1'
_cell_length_a   5.90670303
_cell_length_b   6.03576738
_cell_length_c   5.96587332
_cell_angle_alpha   90.00000000
_cell_angle_beta   90.00000000
_cell_angle_gamma   118.33724641
_symmetry_Int_Tables_number   1
_chemical_formula_structural   Na2Zn2O3
_chemical_formula_sum   'Na4 Zn4 O6'
_cell_volume   187.20511619
_cell_formula_units_Z   2
loop_
 _symmetry_equiv_pos_site_id
 _symmetry_equiv_pos_as_xyz
  1  'x, y, z'
loop_
 _atom_site_type_symbol
 _atom_site_label
 _atom_site_symmetry_multiplicity
 _atom_site_fract_x
 _atom_site_fract_y
 _atom_site_fract_z
 _atom_site_occupancy
  O  O0  1  0.00000000  0.50000000  0.50000000  1
  O  O1  1  0.64222078  0.75361569  0.58956926  1
  O  O2  1  0.35777922  0.74638431  0.08956926  1
  O  O3  1  0.35777922  0.24638431  0.41043074  1
  O  O4  1  0.00000000  0.00000000  0.00000000  1
  O  O5  1  0.64222078  0.25361569  0.91043074  1
  Na  Na6  1  0.86380853  0.09630354  0.34509437  1
  Na  Na7  1  0.86380853  0.59630354  0.15490563  1
  Na  Na8  1  0.13619147  0.90369646  0.65490563  1
  Na  Na9  1  0.13619147  0.40369646  0.84509437  1
  Zn  Zn10  1  0.34108727  0.08006566  0.12164935  1
  Zn  Zn11  1  0.34108727  0.58006566  0.37835065  1
  Zn  Zn12  1  0.65891273  0.91993434  0.87835065  1
  Zn  Zn13  1  0.65891273  0.41993434  0.62164935  1
