# generated using pymatgen
data_Li2MnV(P2O7)2
_symmetry_space_group_name_H-M   'P 1'
_cell_length_a   4.86700345
_cell_length_b   8.34328126
_cell_length_c   20.10676155
_cell_angle_alpha   90.41838265
_cell_angle_beta   95.58208454
_cell_angle_gamma   89.77318864
_symmetry_Int_Tables_number   1
_chemical_formula_structural   Li2MnV(P2O7)2
_chemical_formula_sum   'Li6 Mn3 V3 P12 O42'
_cell_volume   812.57300663
_cell_formula_units_Z   3
loop_
 _symmetry_equiv_pos_site_id
 _symmetry_equiv_pos_as_xyz
  1  'x, y, z'
loop_
 _atom_site_type_symbol
 _atom_site_label
 _atom_site_symmetry_multiplicity
 _atom_site_fract_x
 _atom_site_fract_y
 _atom_site_fract_z
 _atom_site_occupancy
  Li  Li0  1  0.04670338  0.35852636  0.77564871  1
  Li  Li1  1  0.28487242  0.85951494  0.89089073  1
  Li  Li2  1  0.38061296  0.35966834  0.44201249  1
  Li  Li3  1  0.61734752  0.85972961  0.55779308  1
  Li  Li4  1  0.71444590  0.35836417  0.10935483  1
  Li  Li5  1  0.95254408  0.86023138  0.22447472  1
  Mn  Mn6  1  0.02883482  0.99838099  0.75589945  1
  Mn  Mn7  1  0.36140017  0.00107920  0.42417267  1
  Mn  Mn8  1  0.97165652  0.50081144  0.24280643  1
  V  V9  1  0.30540200  0.49741503  0.90948962  1
  V  V10  1  0.63810409  0.49966246  0.57531492  1
  V  V11  1  0.69545159  0.99805393  0.09053074  1
  P  P12  1  0.15023711  0.28775412  0.63769539  1
  P  P13  1  0.10732549  0.68112332  0.49380204  1
  P  P14  1  0.22533734  0.17951117  0.17278431  1
  P  P15  1  0.18664672  0.78273328  0.02883233  1
  P  P16  1  0.55977859  0.17683061  0.84006806  1
  P  P17  1  0.51899659  0.78365804  0.69626041  1
  P  P18  1  0.48384847  0.28936851  0.30348889  1
  P  P19  1  0.44067062  0.67876249  0.15978148  1
  P  P20  1  0.81471117  0.28240746  0.97125902  1
  P  P21  1  0.77570272  0.67967789  0.82794933  1
  P  P22  1  0.89402198  0.17833209  0.50746775  1
  P  P23  1  0.84945609  0.79035444  0.36345992  1
  O  O24  1  0.09793526  0.32404561  0.95052877  1
  O  O25  1  0.01420862  0.15344428  0.58434497  1
  O  O26  1  0.17398803  0.69497141  0.96193648  1
  O  O27  1  0.16853399  0.20534728  0.70508552  1
  O  O28  1  0.03646210  0.93867624  0.36403412  1
  O  O29  1  0.22770117  0.82542234  0.71432230  1
  O  O30  1  0.13858603  0.17518298  0.46401734  1
  O  O31  1  0.02836268  0.03658089  0.16148565  1
  O  O32  1  0.07949774  0.34140954  0.16470745  1
  O  O33  1  0.35986496  0.03544029  0.82650953  1
  O  O34  1  0.25192750  0.84181572  0.50247283  1
  O  O35  1  0.41304680  0.33947803  0.83507505  1
  O  O36  1  0.30497717  0.53731322  0.50481488  1
  O  O37  1  0.19512723  0.67632197  0.20285442  1
  O  O38  1  0.29454914  0.43868127  0.30304406  1
  O  O39  1  0.52547982  0.67298901  0.86885359  1
  O  O40  1  0.43114093  0.32726201  0.61491227  1
  O  O41  1  0.34560276  0.15814843  0.25042828  1
  O  O42  1  0.62714192  0.43102830  0.97168386  1
  O  O43  1  0.50605536  0.69467783  0.62955800  1
  O  O44  1  0.32215953  0.65131066  0.08273105  1
  O  O45  1  0.67992907  0.15105989  0.91692728  1
  O  O46  1  0.50120592  0.20657144  0.37068096  1
  O  O47  1  0.37228159  0.93089774  0.02837132  1
  O  O48  1  0.65632421  0.65631365  0.75018984  1
  O  O49  1  0.56090135  0.83071902  0.38344382  1
  O  O50  1  0.47496712  0.17341844  0.13153749  1
  O  O51  1  0.70287744  0.93311349  0.69490251  1
  O  O52  1  0.80460008  0.17387924  0.79663114  1
  O  O53  1  0.69292940  0.03758435  0.49404187  1
  O  O54  1  0.58719798  0.84072926  0.16500338  1
  O  O55  1  0.74718254  0.34117028  0.50150148  1
  O  O56  1  0.64268477  0.53732973  0.17341790  1
  O  O57  1  0.92006267  0.84075131  0.83544243  1
  O  O58  1  0.97341333  0.53578387  0.83906504  1
  O  O59  1  0.85680049  0.67481875  0.53484834  1
  O  O60  1  0.77168607  0.32985929  0.28326463  1
  O  O61  1  0.96071587  0.43561904  0.63697024  1
  O  O62  1  0.83178695  0.70725484  0.29562075  1
  O  O63  1  0.82601782  0.19518871  0.03778826  1
  O  O64  1  0.98751475  0.65935325  0.41607410  1
  O  O65  1  0.90246556  0.82382785  0.04964350  1
