# generated using pymatgen
data_Li8MnFe7(BO3)8
_symmetry_space_group_name_H-M   'P 1'
_cell_length_a   11.11687848
_cell_length_b   5.23980932
_cell_length_c   9.01622687
_cell_angle_alpha   90.81095448
_cell_angle_beta   72.18829382
_cell_angle_gamma   89.24000173
_symmetry_Int_Tables_number   1
_chemical_formula_structural   Li8MnFe7(BO3)8
_chemical_formula_sum   'Li8 Mn1 Fe7 B8 O24'
_cell_volume   499.88829088
_cell_formula_units_Z   1
loop_
 _symmetry_equiv_pos_site_id
 _symmetry_equiv_pos_as_xyz
  1  'x, y, z'
loop_
 _atom_site_type_symbol
 _atom_site_label
 _atom_site_symmetry_multiplicity
 _atom_site_fract_x
 _atom_site_fract_y
 _atom_site_fract_z
 _atom_site_occupancy
  Li  Li0  1  0.16359640  0.15164317  0.61859459  1
  Li  Li1  1  0.33804318  0.84673127  0.88233645  1
  Li  Li2  1  0.16064871  0.65375159  0.11727050  1
  Li  Li3  1  0.34034681  0.34726562  0.38345203  1
  Li  Li4  1  0.66105394  0.65346248  0.61797718  1
  Li  Li5  1  0.83801563  0.34650919  0.88194723  1
  Li  Li6  1  0.66112988  0.15393516  0.11801733  1
  Li  Li7  1  0.83718389  0.84675448  0.38337772  1
  Mn  Mn8  1  0.11657501  0.17041200  0.30196657  1
  Fe  Fe9  1  0.11677712  0.66395745  0.79948876  1
  Fe  Fe10  1  0.38231393  0.33727515  0.69986589  1
  Fe  Fe11  1  0.61732908  0.16323659  0.79863918  1
  Fe  Fe12  1  0.38105819  0.83104687  0.19709397  1
  Fe  Fe13  1  0.61612281  0.67217078  0.29866305  1
  Fe  Fe14  1  0.88247853  0.83677686  0.69987210  1
  Fe  Fe15  1  0.87852629  0.33773369  0.20030964  1
  B  B16  1  0.12871223  0.17216310  0.96278578  1
  B  B17  1  0.13128367  0.66900751  0.46479734  1
  B  B18  1  0.37203652  0.82963076  0.53594773  1
  B  B19  1  0.62985528  0.66926909  0.96302313  1
  B  B20  1  0.37186388  0.32690319  0.03635390  1
  B  B21  1  0.62957292  0.16978804  0.46348828  1
  B  B22  1  0.86871947  0.32969707  0.53670944  1
  B  B23  1  0.87049486  0.83013753  0.03575439  1
  O  O24  1  0.14763098  0.91157916  0.96750465  1
  O  O25  1  0.15821154  0.29586238  0.82029077  1
  O  O26  1  0.08854300  0.81836570  0.60267623  1
  O  O27  1  0.14907315  0.40887327  0.47295834  1
  O  O28  1  0.41149690  0.18165520  0.89718345  1
  O  O29  1  0.34440660  0.70623977  0.67878452  1
  O  O30  1  0.15989738  0.78750714  0.32087661  1
  O  O31  1  0.08600519  0.31941171  0.10067240  1
  O  O32  1  0.35379807  0.08975122  0.53211170  1
  O  O33  1  0.64737149  0.40883392  0.96697559  1
  O  O34  1  0.41236458  0.68285970  0.39752573  1
  O  O35  1  0.34517232  0.20373647  0.17912962  1
  O  O36  1  0.65668327  0.79489335  0.82142654  1
  O  O37  1  0.58861229  0.31627138  0.60275889  1
  O  O38  1  0.35334623  0.58728617  0.03253587  1
  O  O39  1  0.64687857  0.90873595  0.46924428  1
  O  O40  1  0.91102980  0.68268155  0.89719814  1
  O  O41  1  0.84265940  0.20490771  0.67856337  1
  O  O42  1  0.65806534  0.29478315  0.32154685  1
  O  O43  1  0.58907041  0.81465192  0.10235719  1
  O  O44  1  0.85190716  0.59028194  0.53286418  1
  O  O45  1  0.90857539  0.18335955  0.39767768  1
  O  O46  1  0.84338264  0.70770766  0.17858053  1
  O  O47  1  0.85208106  0.09050740  0.03082371  1
