# generated using pymatgen
data_Li4Mn3Fe(BO3)4
_symmetry_space_group_name_H-M   'P 1'
_cell_length_a   5.24898675
_cell_length_b   5.24094392
_cell_length_c   10.49698527
_cell_angle_alpha   89.30827346
_cell_angle_beta   91.18185820
_cell_angle_gamma   60.14114496
_symmetry_Int_Tables_number   1
_chemical_formula_structural   Li4Mn3Fe(BO3)4
_chemical_formula_sum   'Li4 Mn3 Fe1 B4 O12'
_cell_volume   250.29923432
_cell_formula_units_Z   1
loop_
 _symmetry_equiv_pos_site_id
 _symmetry_equiv_pos_as_xyz
  1  'x, y, z'
loop_
 _atom_site_type_symbol
 _atom_site_label
 _atom_site_symmetry_multiplicity
 _atom_site_fract_x
 _atom_site_fract_y
 _atom_site_fract_z
 _atom_site_occupancy
  Li  Li0  1  0.32126434  0.65096763  0.33229285  1
  Li  Li1  1  0.34718739  0.67869013  0.83236183  1
  Li  Li2  1  0.65193256  0.33502222  0.58205217  1
  Li  Li3  1  0.66208402  0.34825153  0.08200394  1
  Mn  Mn4  1  0.32942575  0.00419273  0.11673205  1
  Mn  Mn5  1  0.67870267  0.00044390  0.86523413  1
  Mn  Mn6  1  0.99818014  0.32501139  0.36857581  1
  Fe  Fe7  1  0.99939426  0.67541077  0.61686463  1
  B  B8  1  0.00369118  0.34064476  0.87269712  1
  B  B9  1  0.33115585  0.00596747  0.62364696  1
  B  B10  1  0.65962342  0.99757637  0.37596015  1
  B  B11  1  0.99510902  0.66598257  0.12431594  1
  O  O12  1  0.06839547  0.25508152  0.58538026  1
  O  O13  1  0.25465128  0.06999010  0.90340873  1
  O  O14  1  0.03297068  0.57836319  0.83149247  1
  O  O15  1  0.58222003  0.02564801  0.65227728  1
  O  O16  1  0.26906245  0.64148990  0.13904059  1
  O  O17  1  0.34789501  0.73321166  0.63642147  1
  O  O18  1  0.63084567  0.27290444  0.38979183  1
  O  O19  1  0.72833836  0.36986798  0.88742379  1
  O  O20  1  0.42145859  0.96747097  0.33427313  1
  O  O21  1  0.96271440  0.42210438  0.15544543  1
  O  O22  1  0.75261339  0.92936809  0.08178355  1
  O  O23  1  0.93048607  0.74693729  0.40672289  1
