# generated using pymatgen
data_Li12Mg3Si4
_symmetry_space_group_name_H-M   'P 1'
_cell_length_a   9.25340482
_cell_length_b   9.25340482
_cell_length_c   9.25340482
_cell_angle_alpha   109.47122062
_cell_angle_beta   109.47122061
_cell_angle_gamma   109.47122062
_symmetry_Int_Tables_number   1
_chemical_formula_structural   Li12Mg3Si4
_chemical_formula_sum   'Li24 Mg6 Si8'
_cell_volume   609.93393366
_cell_formula_units_Z   2
loop_
 _symmetry_equiv_pos_site_id
 _symmetry_equiv_pos_as_xyz
  1  'x, y, z'
loop_
 _atom_site_type_symbol
 _atom_site_label
 _atom_site_symmetry_multiplicity
 _atom_site_fract_x
 _atom_site_fract_y
 _atom_site_fract_z
 _atom_site_occupancy
  Li  Li0  1  0.11331124  0.08234636  0.26975582  1
  Li  Li1  1  0.91765364  0.68740946  0.03096488  1
  Li  Li2  1  0.15644458  0.88668876  0.46903512  1
  Li  Li3  1  0.46903512  0.15644458  0.88668876  1
  Li  Li4  1  0.73024418  0.34355542  0.81259054  1
  Li  Li5  1  0.81259054  0.73024418  0.34355542  1
  Li  Li6  1  0.68740946  0.03096488  0.91765364  1
  Li  Li7  1  0.84355542  0.23024418  0.31259054  1
  Li  Li8  1  0.53096488  0.18740946  0.41765364  1
  Li  Li9  1  0.65644458  0.96903512  0.38668876  1
  Li  Li10  1  0.23024418  0.31259054  0.84355542  1
  Li  Li11  1  0.41765364  0.53096488  0.18740946  1
  Li  Li12  1  0.96903512  0.38668876  0.65644458  1
  Li  Li13  1  0.26975582  0.11331124  0.08234636  1
  Li  Li14  1  0.08234636  0.26975582  0.11331124  1
  Li  Li15  1  0.31259054  0.84355542  0.23024418  1
  Li  Li16  1  0.18740946  0.41765364  0.53096488  1
  Li  Li17  1  0.38668876  0.65644458  0.96903512  1
  Li  Li18  1  0.58234636  0.61331124  0.76975582  1
  Li  Li19  1  0.76975582  0.58234636  0.61331124  1
  Li  Li20  1  0.61331124  0.76975582  0.58234636  1
  Li  Li21  1  0.34355542  0.81259054  0.73024418  1
  Li  Li22  1  0.03096488  0.91765364  0.68740946  1
  Li  Li23  1  0.88668876  0.46903512  0.15644458  1
  Mg  Mg24  1  0.25000000  0.62500000  0.37500000  1
  Mg  Mg25  1  0.37500000  0.25000000  0.62500000  1
  Mg  Mg26  1  0.12500000  0.75000000  0.87500000  1
  Mg  Mg27  1  0.87500000  0.12500000  0.75000000  1
  Mg  Mg28  1  0.62500000  0.37500000  0.25000000  1
  Mg  Mg29  1  0.75000000  0.87500000  0.12500000  1
  Si  Si30  1  0.40644760  0.40644760  0.40644760  1
  Si  Si31  1  0.59355240  0.50000000  0.00000000  1
  Si  Si32  1  0.00000000  0.59355240  0.50000000  1
  Si  Si33  1  0.50000000  0.00000000  0.59355240  1
  Si  Si34  1  0.00000000  0.09355240  0.50000000  1
  Si  Si35  1  0.50000000  0.00000000  0.09355240  1
  Si  Si36  1  0.09355240  0.50000000  0.00000000  1
  Si  Si37  1  0.90644760  0.90644760  0.90644760  1
