# generated using pymatgen
data_Sb(Mo3S4)2
_symmetry_space_group_name_H-M   'P 1'
_cell_length_a   6.54880161
_cell_length_b   6.54880198
_cell_length_c   6.54880161
_cell_angle_alpha   90.28538715
_cell_angle_beta   89.71461043
_cell_angle_gamma   89.71461285
_symmetry_Int_Tables_number   1
_chemical_formula_structural   Sb(Mo3S4)2
_chemical_formula_sum   'Sb1 Mo6 S8'
_cell_volume   280.84669045
_cell_formula_units_Z   1
loop_
 _symmetry_equiv_pos_site_id
 _symmetry_equiv_pos_as_xyz
  1  'x, y, z'
loop_
 _atom_site_type_symbol
 _atom_site_label
 _atom_site_symmetry_multiplicity
 _atom_site_fract_x
 _atom_site_fract_y
 _atom_site_fract_z
 _atom_site_occupancy
  Sb  Sb0  1  -0.00000000  0.00000000  0.00000000  1
  Mo  Mo1  1  0.41470770  0.43985779  0.77623952  1
  Mo  Mo2  1  0.22376048  0.58529230  0.43985779  1
  Mo  Mo3  1  0.56014221  0.77623952  0.58529230  1
  Mo  Mo4  1  0.58529230  0.56014221  0.22376048  1
  Mo  Mo5  1  0.77623952  0.41470770  0.56014221  1
  Mo  Mo6  1  0.43985779  0.22376048  0.41470770  1
  S  S7  1  0.23721741  0.76278259  0.76278259  1
  S  S8  1  0.76278259  0.23721741  0.23721741  1
  S  S9  1  0.37409022  0.87260706  0.25885119  1
  S  S10  1  0.74114881  0.62590978  0.87260706  1
  S  S11  1  0.12739294  0.25885119  0.62590978  1
  S  S12  1  0.62590978  0.12739294  0.74114881  1
  S  S13  1  0.25885119  0.37409022  0.12739294  1
  S  S14  1  0.87260706  0.74114881  0.37409022  1
