# generated using pymatgen
data_NaIn3
_symmetry_space_group_name_H-M   'P 1'
_cell_length_a   6.66630494
_cell_length_b   6.66630438
_cell_length_c   5.55408330
_cell_angle_alpha   90.00000000
_cell_angle_beta   90.00000000
_cell_angle_gamma   120.00000278
_symmetry_Int_Tables_number   1
_chemical_formula_structural   NaIn3
_chemical_formula_sum   'Na2 In6'
_cell_volume   213.75354392
_cell_formula_units_Z   2
loop_
 _symmetry_equiv_pos_site_id
 _symmetry_equiv_pos_as_xyz
  1  'x, y, z'
loop_
 _atom_site_type_symbol
 _atom_site_label
 _atom_site_symmetry_multiplicity
 _atom_site_fract_x
 _atom_site_fract_y
 _atom_site_fract_z
 _atom_site_occupancy
  Na  Na0  1  0.66666700  0.33333400  0.25000200  1
  Na  Na1  1  0.33333400  0.66666800  0.75000200  1
  In  In2  1  0.83724464  0.16275636  0.75000200  1
  In  In3  1  0.32551071  0.16275636  0.75000200  1
  In  In4  1  0.83724364  0.67448729  0.75000200  1
  In  In5  1  0.16275536  0.83724364  0.25000200  1
  In  In6  1  0.67448929  0.83724364  0.25000200  1
  In  In7  1  0.16275636  0.32551271  0.25000200  1
