# generated using pymatgen
data_Li4Mn3Fe(BO3)4
_symmetry_space_group_name_H-M   'P 1'
_cell_length_a   5.25489010
_cell_length_b   5.24963469
_cell_length_c   21.00431291
_cell_angle_alpha   89.39092824
_cell_angle_beta   91.16627250
_cell_angle_gamma   60.17878397
_symmetry_Int_Tables_number   1
_chemical_formula_structural   Li4Mn3Fe(BO3)4
_chemical_formula_sum   'Li8 Mn6 Fe2 B8 O24'
_cell_volume   502.45493237
_cell_formula_units_Z   2
loop_
 _symmetry_equiv_pos_site_id
 _symmetry_equiv_pos_as_xyz
  1  'x, y, z'
loop_
 _atom_site_type_symbol
 _atom_site_label
 _atom_site_symmetry_multiplicity
 _atom_site_fract_x
 _atom_site_fract_y
 _atom_site_fract_z
 _atom_site_occupancy
  Li  Li0  1  0.32303717  0.65242057  0.66612232  1
  Li  Li1  1  0.34743636  0.67807683  0.91607952  1
  Li  Li2  1  0.32120675  0.65071674  0.16609318  1
  Li  Li3  1  0.34929099  0.67830312  0.41616539  1
  Li  Li4  1  0.65250651  0.33536597  0.79097798  1
  Li  Li5  1  0.66223732  0.34850978  0.54188503  1
  Li  Li6  1  0.65169826  0.33774973  0.29124289  1
  Li  Li7  1  0.66199011  0.34818807  0.04109936  1
  Mn  Mn8  1  0.32568013  0.00674504  0.55923041  1
  Mn  Mn9  1  0.32936418  0.00368802  0.05818980  1
  Mn  Mn10  1  0.67871944  0.00023487  0.93254374  1
  Mn  Mn11  1  0.67638781  0.00254509  0.43376016  1
  Mn  Mn12  1  0.99693100  0.32301929  0.18337613  1
  Mn  Mn13  1  0.99601748  0.67094129  0.30839502  1
  Fe  Fe14  1  0.99364490  0.32420387  0.68472426  1
  Fe  Fe15  1  0.00320737  0.66417691  0.80708269  1
  B  B16  1  0.00348887  0.34113583  0.93653370  1
  B  B17  1  0.00260361  0.34165946  0.43720712  1
  B  B18  1  0.33272232  0.00454242  0.81118115  1
  B  B19  1  0.33389079  0.00522717  0.31204020  1
  B  B20  1  0.66245549  0.99709731  0.68744713  1
  B  B21  1  0.65831421  0.99707324  0.18713204  1
  B  B22  1  0.99363271  0.66632143  0.56302819  1
  B  B23  1  0.99508951  0.66598996  0.06203814  1
  O  O24  1  0.06978921  0.25265513  0.79192340  1
  O  O25  1  0.07068259  0.24648925  0.29092825  1
  O  O26  1  0.25420799  0.07075890  0.95169702  1
  O  O27  1  0.03346033  0.57845168  0.91580143  1
  O  O28  1  0.25297602  0.07126415  0.45238909  1
  O  O29  1  0.03268122  0.57907102  0.41643502  1
  O  O30  1  0.58262997  0.02557054  0.82530268  1
  O  O31  1  0.26786671  0.64248834  0.56997708  1
  O  O32  1  0.57766841  0.03782382  0.32733369  1
  O  O33  1  0.26892984  0.64140713  0.06921621  1
  O  O34  1  0.34573082  0.73448680  0.81808630  1
  O  O35  1  0.35834183  0.73087460  0.31955814  1
  O  O36  1  0.64292102  0.27069227  0.69375209  1
  O  O37  1  0.62903852  0.27269590  0.19430023  1
  O  O38  1  0.72845688  0.37003272  0.94373623  1
  O  O39  1  0.41585770  0.98026126  0.66873083  1
  O  O40  1  0.72787819  0.37086022  0.44467525  1
  O  O41  1  0.42070147  0.96663612  0.16647932  1
  O  O42  1  0.96189896  0.42287207  0.57877387  1
  O  O43  1  0.96236680  0.42237108  0.07739603  1
  O  O44  1  0.75123173  0.92882539  0.54167973  1
  O  O45  1  0.75278978  0.92931999  0.04092705  1
  O  O46  1  0.93006531  0.74410437  0.70131313  1
  O  O47  1  0.92907242  0.74725622  0.20221439  1
