# generated using pymatgen
data_BaSb2F12
_symmetry_space_group_name_H-M   'P 1'
_cell_length_a   5.70952970
_cell_length_b   5.34953026
_cell_length_c   9.71680997
_cell_angle_alpha   92.04102219
_cell_angle_beta   107.77664584
_cell_angle_gamma   117.55709616
_symmetry_Int_Tables_number   1
_chemical_formula_structural   BaSb2F12
_chemical_formula_sum   'Ba1 Sb2 F12'
_cell_volume   244.99102701
_cell_formula_units_Z   1
loop_
 _symmetry_equiv_pos_site_id
 _symmetry_equiv_pos_as_xyz
  1  'x, y, z'
loop_
 _atom_site_type_symbol
 _atom_site_label
 _atom_site_symmetry_multiplicity
 _atom_site_fract_x
 _atom_site_fract_y
 _atom_site_fract_z
 _atom_site_occupancy
  Ba  Ba0  1  0.07909469  0.14220544  0.10348632  1
  Sb  Sb1  1  0.92643300  0.54826327  0.42487448  1
  Sb  Sb2  1  0.53129651  0.31250400  0.84387518  1
  F  F3  1  0.54378339  0.14921564  0.02365823  1
  F  F4  1  0.94556492  0.67380964  0.23745194  1
  F  F5  1  0.56032760  0.21130023  0.30989084  1
  F  F6  1  0.08683498  0.32592345  0.37093779  1
  F  F7  1  0.71409906  0.73468323  0.42813227  1
  F  F8  1  0.28158196  0.88591447  0.52013551  1
  F  F9  1  0.93138924  0.41808696  0.60344262  1
  F  F10  1  0.52283309  0.48792156  0.67962028  1
  F  F11  1  0.14013393  0.03582795  0.76893051  1
  F  F12  1  0.68289660  0.07785669  0.80463933  1
  F  F13  1  0.93059066  0.60176846  0.95258542  1
  F  F14  1  0.45513635  0.56471403  0.95033928  1
