# generated using pymatgen
data_NaSbO2
_symmetry_space_group_name_H-M   'P 1'
_cell_length_a   16.61708271
_cell_length_b   6.76966926
_cell_length_c   5.50822310
_cell_angle_alpha   90.00000000
_cell_angle_beta   90.00000000
_cell_angle_gamma   90.00000000
_symmetry_Int_Tables_number   1
_chemical_formula_structural   NaSbO2
_chemical_formula_sum   'Na8 Sb8 O16'
_cell_volume   619.63188130
_cell_formula_units_Z   8
loop_
 _symmetry_equiv_pos_site_id
 _symmetry_equiv_pos_as_xyz
  1  'x, y, z'
loop_
 _atom_site_type_symbol
 _atom_site_label
 _atom_site_symmetry_multiplicity
 _atom_site_fract_x
 _atom_site_fract_y
 _atom_site_fract_z
 _atom_site_occupancy
  Na  Na0  1  0.20400351  0.59290909  0.23919516  1
  Na  Na1  1  0.20400351  0.90709091  0.73919516  1
  Na  Na2  1  0.29599649  0.09290909  0.23919516  1
  Na  Na3  1  0.29599649  0.40709091  0.73919516  1
  Na  Na4  1  0.70400351  0.59290909  0.26080484  1
  Na  Na5  1  0.70400351  0.90709091  0.76080484  1
  Na  Na6  1  0.79599649  0.09290909  0.26080484  1
  Na  Na7  1  0.79599649  0.40709091  0.76080484  1
  Sb  Sb8  1  0.08316697  0.08325001  0.24909879  1
  Sb  Sb9  1  0.08316697  0.41674999  0.74909879  1
  Sb  Sb10  1  0.41683303  0.58325001  0.24909879  1
  Sb  Sb11  1  0.41683303  0.91674999  0.74909879  1
  Sb  Sb12  1  0.58316697  0.08325001  0.25090121  1
  Sb  Sb13  1  0.58316697  0.41674999  0.75090121  1
  Sb  Sb14  1  0.91683303  0.58325001  0.25090121  1
  Sb  Sb15  1  0.91683303  0.91674999  0.75090121  1
  O  O16  1  0.12459875  0.17224671  0.92234245  1
  O  O17  1  0.12459875  0.32775329  0.42234245  1
  O  O18  1  0.17404410  0.91957213  0.31866861  1
  O  O19  1  0.17404410  0.58042787  0.81866861  1
  O  O20  1  0.32595590  0.08042787  0.81866861  1
  O  O21  1  0.32595590  0.41957213  0.31866861  1
  O  O22  1  0.37540125  0.67224671  0.92234245  1
  O  O23  1  0.37540125  0.82775329  0.42234245  1
  O  O24  1  0.62459875  0.17224671  0.57765755  1
  O  O25  1  0.62459875  0.32775329  0.07765755  1
  O  O26  1  0.67404410  0.58042787  0.68133139  1
  O  O27  1  0.67404410  0.91957213  0.18133139  1
  O  O28  1  0.82595590  0.08042787  0.68133139  1
  O  O29  1  0.82595590  0.41957213  0.18133139  1
  O  O30  1  0.87540125  0.67224671  0.57765755  1
  O  O31  1  0.87540125  0.82775329  0.07765755  1
