# generated using pymatgen
data_KTl
_symmetry_space_group_name_H-M   'P 1'
_cell_length_a   11.00800276
_cell_length_b   11.00800276
_cell_length_c   8.25427133
_cell_angle_alpha   90.00000000
_cell_angle_beta   90.00000000
_cell_angle_gamma   90.71516851
_symmetry_Int_Tables_number   1
_chemical_formula_structural   KTl
_chemical_formula_sum   'K12 Tl12'
_cell_volume   1000.14269489
_cell_formula_units_Z   12
loop_
 _symmetry_equiv_pos_site_id
 _symmetry_equiv_pos_as_xyz
  1  'x, y, z'
loop_
 _atom_site_type_symbol
 _atom_site_label
 _atom_site_symmetry_multiplicity
 _atom_site_fract_x
 _atom_site_fract_y
 _atom_site_fract_z
 _atom_site_occupancy
  K  K0  1  0.96307779  0.46307979  0.24999900  1
  K  K1  1  0.53692121  0.03692121  0.75000000  1
  K  K2  1  0.03692121  0.53692121  0.75000000  1
  K  K3  1  0.46307979  0.96307779  0.24999900  1
  K  K4  1  0.32496487  0.67503413  0.49999900  1
  K  K5  1  0.17503513  0.82496487  0.00000000  1
  K  K6  1  0.67503413  0.32496487  0.49999900  1
  K  K7  1  0.82496487  0.17503513  0.00000000  1
  K  K8  1  0.70196028  0.70196028  0.56873023  1
  K  K9  1  0.79803872  0.79803872  0.06873123  1
  K  K10  1  0.20196028  0.20196028  0.93126877  1
  K  K11  1  0.29803972  0.29803972  0.43126977  1
  Tl  Tl12  1  0.04620484  0.04620484  0.29286332  1
  Tl  Tl13  1  0.45379516  0.45379516  0.79286332  1
  Tl  Tl14  1  0.95379516  0.95379516  0.70713668  1
  Tl  Tl15  1  0.54620484  0.54620484  0.20713768  1
  Tl  Tl16  1  0.22373070  0.98899126  0.58112105  1
  Tl  Tl17  1  0.27627130  0.51100874  0.08112305  1
  Tl  Tl18  1  0.01100874  0.77627130  0.41887695  1
  Tl  Tl19  1  0.48899226  0.72372970  0.91887895  1
  Tl  Tl20  1  0.77627130  0.01100874  0.41887695  1
  Tl  Tl21  1  0.72372970  0.48899226  0.91887895  1
  Tl  Tl22  1  0.98899126  0.22373070  0.58112105  1
  Tl  Tl23  1  0.51100874  0.27627130  0.08112305  1
