# generated using pymatgen
data_Zn2AsO5
_symmetry_space_group_name_H-M   'P 1'
_cell_length_a   5.72268348
_cell_length_b   5.88934620
_cell_length_c   6.83204667
_cell_angle_alpha   104.94894879
_cell_angle_beta   104.06769178
_cell_angle_gamma   88.33116877
_symmetry_Int_Tables_number   1
_chemical_formula_structural   Zn2AsO5
_chemical_formula_sum   'Zn4 As2 O10'
_cell_volume   215.65614375
_cell_formula_units_Z   2
loop_
 _symmetry_equiv_pos_site_id
 _symmetry_equiv_pos_as_xyz
  1  'x, y, z'
loop_
 _atom_site_type_symbol
 _atom_site_label
 _atom_site_symmetry_multiplicity
 _atom_site_fract_x
 _atom_site_fract_y
 _atom_site_fract_z
 _atom_site_occupancy
  Zn  Zn0  1  0.39410451  0.24522117  0.50047065  1
  Zn  Zn1  1  0.60589549  0.75477883  0.49952935  1
  Zn  Zn2  1  0.02885826  0.73747610  0.18924429  1
  Zn  Zn3  1  0.97114174  0.26252390  0.81075571  1
  As  As4  1  0.82784879  0.24534532  0.27013658  1
  As  As5  1  0.17215121  0.75465468  0.72986342  1
  O  O6  1  0.76585652  0.95777086  0.13822422  1
  O  O7  1  0.23414348  0.04222914  0.86177578  1
  O  O8  1  0.94163335  0.38999269  0.12087490  1
  O  O9  1  0.05836665  0.61000731  0.87912510  1
  O  O10  1  0.57679987  0.38685379  0.33443318  1
  O  O11  1  0.42320013  0.61314621  0.66556682  1
  O  O12  1  0.95365451  0.74350768  0.49812767  1
  O  O13  1  0.04634549  0.25649232  0.50187233  1
  O  O14  1  0.34912859  0.89835512  0.32127379  1
  O  O15  1  0.65087141  0.10164488  0.67872621  1
