# generated using pymatgen
data_DySnRu2
_symmetry_space_group_name_H-M   'P 1'
_cell_length_a   4.67527719
_cell_length_b   4.67528367
_cell_length_c   4.67529548
_cell_angle_alpha   59.99999265
_cell_angle_beta   60.00002737
_cell_angle_gamma   60.00009886
_symmetry_Int_Tables_number   1
_chemical_formula_structural   DySnRu2
_chemical_formula_sum   'Dy1 Sn1 Ru2'
_cell_volume   72.26196834
_cell_formula_units_Z   1
loop_
 _symmetry_equiv_pos_site_id
 _symmetry_equiv_pos_as_xyz
  1  'x, y, z'
loop_
 _atom_site_type_symbol
 _atom_site_label
 _atom_site_symmetry_multiplicity
 _atom_site_fract_x
 _atom_site_fract_y
 _atom_site_fract_z
 _atom_site_occupancy
  Dy  Dy0  1  0.24999986  0.24999989  0.24999984  1
  Sn  Sn1  1  0.74999970  0.74999990  0.74999995  1
  Ru  Ru2  1  0.00000008  0.00000024  0.99999990  1
  Ru  Ru3  1  0.49999937  0.49999897  0.49999931  1
