# generated using pymatgen
data_SmZn2Ag
_symmetry_space_group_name_H-M   'P 1'
_cell_length_a   4.80846062
_cell_length_b   4.80846170
_cell_length_c   4.80846068
_cell_angle_alpha   59.99997587
_cell_angle_beta   60.00007846
_cell_angle_gamma   60.00000365
_symmetry_Int_Tables_number   1
_chemical_formula_structural   SmZn2Ag
_chemical_formula_sum   'Sm1 Zn2 Ag1'
_cell_volume   78.61465019
_cell_formula_units_Z   1
loop_
 _symmetry_equiv_pos_site_id
 _symmetry_equiv_pos_as_xyz
  1  'x, y, z'
loop_
 _atom_site_type_symbol
 _atom_site_label
 _atom_site_symmetry_multiplicity
 _atom_site_fract_x
 _atom_site_fract_y
 _atom_site_fract_z
 _atom_site_occupancy
  Sm  Sm0  1  0.75000014  0.75000027  0.74999999  1
  Zn  Zn1  1  0.99999997  0.99999998  0.00000006  1
  Zn  Zn2  1  0.50000093  0.50000080  0.50000093  1
  Ag  Ag3  1  0.25000096  0.25000095  0.25000102  1
