# generated using pymatgen
data_Dy2Ni7
_symmetry_space_group_name_H-M   'P 1'
_cell_length_a   4.92204746
_cell_length_b   4.92166359
_cell_length_c   12.35686840
_cell_angle_alpha   101.45915093
_cell_angle_beta   78.54067494
_cell_angle_gamma   119.90761314
_symmetry_Int_Tables_number   1
_chemical_formula_structural   Dy2Ni7
_chemical_formula_sum   'Dy4 Ni14'
_cell_volume   252.55132070
_cell_formula_units_Z   2
loop_
 _symmetry_equiv_pos_site_id
 _symmetry_equiv_pos_as_xyz
  1  'x, y, z'
loop_
 _atom_site_type_symbol
 _atom_site_label
 _atom_site_symmetry_multiplicity
 _atom_site_fract_x
 _atom_site_fract_y
 _atom_site_fract_z
 _atom_site_occupancy
  Dy  Dy0  1  0.94928923  0.05071269  0.15217144  1
  Dy  Dy1  1  0.85268864  0.14730989  0.44188832  1
  Dy  Dy2  1  0.14735371  0.85264383  0.55795538  1
  Dy  Dy3  1  0.05069477  0.94930335  0.84787885  1
  Ni  Ni4  1  0.50000118  0.00001612  0.00001522  1
  Ni  Ni5  1  -0.00001608  0.49999829  0.00001524  1
  Ni  Ni6  1  0.50000059  0.49999839  0.00001506  1
  Ni  Ni7  1  0.61174424  0.38826222  0.16496446  1
  Ni  Ni8  1  0.27807204  0.72192348  0.16563617  1
  Ni  Ni9  1  0.38987966  0.10889194  0.32923181  1
  Ni  Ni10  1  0.38972571  0.61027480  0.32922753  1
  Ni  Ni11  1  0.89111264  0.61012249  0.32923212  1
  Ni  Ni12  1  0.50000465  0.49999456  0.49998238  1
  Ni  Ni13  1  0.10889326  0.38988071  0.67077358  1
  Ni  Ni14  1  0.61027088  0.38972954  0.67077112  1
  Ni  Ni15  1  0.61011898  0.89110609  0.67077338  1
  Ni  Ni16  1  0.72191916  0.27808770  0.83439788  1
  Ni  Ni17  1  0.38825074  0.61174589  0.83507006  1
