# generated using pymatgen
data_YSnF7
_symmetry_space_group_name_H-M   'P 1'
_cell_length_a   5.78755376
_cell_length_b   6.04903075
_cell_length_c   8.27261476
_cell_angle_alpha   103.19092792
_cell_angle_beta   90.00000000
_cell_angle_gamma   90.00000000
_symmetry_Int_Tables_number   1
_chemical_formula_structural   YSnF7
_chemical_formula_sum   'Y2 Sn2 F14'
_cell_volume   281.97519660
_cell_formula_units_Z   2
loop_
 _symmetry_equiv_pos_site_id
 _symmetry_equiv_pos_as_xyz
  1  'x, y, z'
loop_
 _atom_site_type_symbol
 _atom_site_label
 _atom_site_symmetry_multiplicity
 _atom_site_fract_x
 _atom_site_fract_y
 _atom_site_fract_z
 _atom_site_occupancy
  F  F0  1  0.47165141  0.97237595  0.98720344  1
  F  F1  1  0.97165141  0.02762405  0.01279656  1
  F  F2  1  0.49214881  0.56344513  0.73596650  1
  F  F3  1  0.99214881  0.43655487  0.26403350  1
  F  F4  1  0.75556197  0.72781182  0.51979412  1
  F  F5  1  0.25556197  0.27218818  0.48020588  1
  F  F6  1  0.01673813  0.55718829  0.74291822  1
  F  F7  1  0.51673813  0.44281171  0.25708178  1
  F  F8  1  0.52693770  0.09755744  0.70514435  1
  F  F9  1  0.02693770  0.90244256  0.29485565  1
  F  F10  1  0.52382080  0.93185765  0.29637904  1
  F  F11  1  0.02382080  0.06814235  0.70362096  1
  F  F12  1  0.76146420  0.63069128  0.02749138  1
  F  F13  1  0.26146420  0.36930872  0.97250862  1
  Y  Y14  1  0.75363121  0.84573986  0.81101821  1
  Y  Y15  1  0.25363121  0.15426014  0.18898179  1
  Sn  Sn16  1  0.75994576  0.68519528  0.27410324  1
  Sn  Sn17  1  0.25994576  0.31480472  0.72589676  1
