# generated using pymatgen
data_Na5InO4
_symmetry_space_group_name_H-M   'P 1'
_cell_length_a   5.53437023
_cell_length_b   7.46468523
_cell_length_c   7.70607860
_cell_angle_alpha   90.00000000
_cell_angle_beta   90.00000000
_cell_angle_gamma   90.00000000
_symmetry_Int_Tables_number   1
_chemical_formula_structural   Na5InO4
_chemical_formula_sum   'Na10 In2 O8'
_cell_volume   318.35607533
_cell_formula_units_Z   2
loop_
 _symmetry_equiv_pos_site_id
 _symmetry_equiv_pos_as_xyz
  1  'x, y, z'
loop_
 _atom_site_type_symbol
 _atom_site_label
 _atom_site_symmetry_multiplicity
 _atom_site_fract_x
 _atom_site_fract_y
 _atom_site_fract_z
 _atom_site_occupancy
  O  O0  1  0.01811078  0.25000000  0.48266807  1
  O  O1  1  0.01811078  0.25000000  0.01733193  1
  O  O2  1  0.42217670  0.01168007  0.25000000  1
  O  O3  1  0.42217670  0.48831993  0.25000000  1
  O  O4  1  0.57782330  0.51168007  0.75000000  1
  O  O5  1  0.57782330  0.98831993  0.75000000  1
  O  O6  1  0.98188922  0.75000000  0.51733193  1
  O  O7  1  0.98188922  0.75000000  0.98266807  1
  Na  Na8  1  0.25533613  0.98956772  0.94419558  1
  Na  Na9  1  0.74466387  0.48956772  0.05580442  1
  Na  Na10  1  0.80356851  0.25000000  0.75000000  1
  Na  Na11  1  0.19643149  0.75000000  0.25000000  1
  Na  Na12  1  0.25533613  0.51043228  0.94419558  1
  Na  Na13  1  0.25533613  0.98956772  0.55580442  1
  Na  Na14  1  0.74466387  0.01043228  0.05580442  1
  Na  Na15  1  0.74466387  0.48956772  0.44419558  1
  Na  Na16  1  0.74466387  0.01043228  0.44419558  1
  Na  Na17  1  0.25533613  0.51043228  0.55580442  1
  In  In18  1  0.22161641  0.25000000  0.25000000  1
  In  In19  1  0.77838359  0.75000000  0.75000000  1
