# generated using pymatgen
data_LuAlB4
_symmetry_space_group_name_H-M   'P 1'
_cell_length_a   3.50862706
_cell_length_b   5.89290028
_cell_length_c   5.89290028
_cell_angle_alpha   103.71956928
_cell_angle_beta   90.00000000
_cell_angle_gamma   90.00000000
_symmetry_Int_Tables_number   1
_chemical_formula_structural   LuAlB4
_chemical_formula_sum   'Lu2 Al2 B8'
_cell_volume   118.36518144
_cell_formula_units_Z   2
loop_
 _symmetry_equiv_pos_site_id
 _symmetry_equiv_pos_as_xyz
  1  'x, y, z'
loop_
 _atom_site_type_symbol
 _atom_site_label
 _atom_site_symmetry_multiplicity
 _atom_site_fract_x
 _atom_site_fract_y
 _atom_site_fract_z
 _atom_site_occupancy
  Lu  Lu0  1  0.00000000  0.69932610  0.30067290  1
  Lu  Lu1  1  0.00000000  0.30067290  0.69932610  1
  Al  Al2  1  0.00000000  0.18091851  0.18091851  1
  Al  Al3  1  0.00000000  0.81908249  0.81908249  1
  B  B4  1  0.49999900  0.38273850  0.06328289  1
  B  B5  1  0.49999900  0.90725115  0.09274785  1
  B  B6  1  0.49999900  0.37904695  0.37904695  1
  B  B7  1  0.49999900  0.06328289  0.38273850  1
  B  B8  1  0.49999900  0.93671811  0.61726150  1
  B  B9  1  0.49999900  0.62095405  0.62095405  1
  B  B10  1  0.49999900  0.09274785  0.90725115  1
  B  B11  1  0.49999900  0.61726150  0.93671811  1
