# generated using pymatgen
data_SbPH4(O2F3)2
_symmetry_space_group_name_H-M   'P 1'
_cell_length_a   5.17117055
_cell_length_b   5.17117055
_cell_length_c   14.31610681
_cell_angle_alpha   86.27012990
_cell_angle_beta   93.72987010
_cell_angle_gamma   81.91123716
_symmetry_Int_Tables_number   1
_chemical_formula_structural   SbPH4(O2F3)2
_chemical_formula_sum   'Sb2 P2 H8 O8 F12'
_cell_volume   377.14723529
_cell_formula_units_Z   2
loop_
 _symmetry_equiv_pos_site_id
 _symmetry_equiv_pos_as_xyz
  1  'x, y, z'
loop_
 _atom_site_type_symbol
 _atom_site_label
 _atom_site_symmetry_multiplicity
 _atom_site_fract_x
 _atom_site_fract_y
 _atom_site_fract_z
 _atom_site_occupancy
  Sb  Sb0  1  0.50000000  0.50000000  0.00000000  1
  Sb  Sb1  1  0.50000100  0.49999900  0.50000000  1
  P  P2  1  0.12501294  0.12501294  0.25000000  1
  P  P3  1  0.87498706  0.87498606  0.75000000  1
  H  H4  1  0.08631307  0.00239523  0.10647824  1
  H  H5  1  0.00239323  0.08631507  0.39352176  1
  H  H6  1  0.91368593  0.99760677  0.89352176  1
  H  H7  1  0.99760577  0.91368693  0.60647824  1
  H  H8  1  0.50413778  0.90288371  0.30312706  1
  H  H9  1  0.90288271  0.50413778  0.19687294  1
  H  H10  1  0.49586022  0.09711629  0.69687394  1
  H  H11  1  0.09711629  0.49586122  0.80312706  1
  O  O12  1  0.00725157  0.98738733  0.16699631  1
  O  O13  1  0.98738433  0.00725457  0.33300369  1
  O  O14  1  0.99274743  0.01261467  0.83300369  1
  O  O15  1  0.01261467  0.99274743  0.66699631  1
  O  O16  1  0.42812353  0.06902231  0.26602538  1
  O  O17  1  0.06902331  0.42812253  0.23397462  1
  O  O18  1  0.57187547  0.93097669  0.73397462  1
  O  O19  1  0.93097569  0.57187647  0.76602538  1
  F  F20  1  0.62431417  0.58921518  0.12315692  1
  F  F21  1  0.58921418  0.62431517  0.37684308  1
  F  F22  1  0.37568483  0.41078382  0.87684208  1
  F  F23  1  0.41078382  0.37568483  0.62315792  1
  F  F24  1  0.37794105  0.20000707  0.05747036  1
  F  F25  1  0.20000807  0.37794005  0.44252864  1
  F  F26  1  0.62205895  0.79999293  0.94252864  1
  F  F27  1  0.79999393  0.62205895  0.55747036  1
  F  F28  1  0.83096357  0.29226655  0.98596695  1
  F  F29  1  0.29226755  0.83096257  0.51403205  1
  F  F30  1  0.16903543  0.70773245  0.01403305  1
  F  F31  1  0.70773145  0.16903643  0.48596695  1
