# generated using pymatgen
data_PrSmTl2
_symmetry_space_group_name_H-M   'P 1'
_cell_length_a   5.52595435
_cell_length_b   5.52595339
_cell_length_c   5.52595546
_cell_angle_alpha   60.00005452
_cell_angle_beta   60.00000017
_cell_angle_gamma   60.00008838
_symmetry_Int_Tables_number   1
_chemical_formula_structural   PrSmTl2
_chemical_formula_sum   'Pr1 Sm1 Tl2'
_cell_volume   119.31838379
_cell_formula_units_Z   1
loop_
 _symmetry_equiv_pos_site_id
 _symmetry_equiv_pos_as_xyz
  1  'x, y, z'
loop_
 _atom_site_type_symbol
 _atom_site_label
 _atom_site_symmetry_multiplicity
 _atom_site_fract_x
 _atom_site_fract_y
 _atom_site_fract_z
 _atom_site_occupancy
  Pr  Pr0  1  0.24999999  0.24999985  0.24999974  1
  Sm  Sm1  1  0.74999898  0.74999918  0.74999917  1
  Tl  Tl2  1  0.99999996  0.99999981  0.00000004  1
  Tl  Tl3  1  0.49999907  0.49999916  0.49999905  1
