# generated using pymatgen
data_NaTl2Pd
_symmetry_space_group_name_H-M   'P 1'
_cell_length_a   5.02793823
_cell_length_b   5.02795489
_cell_length_c   5.02794335
_cell_angle_alpha   59.99993110
_cell_angle_beta   60.00007983
_cell_angle_gamma   59.99982010
_symmetry_Int_Tables_number   1
_chemical_formula_structural   NaTl2Pd
_chemical_formula_sum   'Na1 Tl2 Pd1'
_cell_volume   89.87856484
_cell_formula_units_Z   1
loop_
 _symmetry_equiv_pos_site_id
 _symmetry_equiv_pos_as_xyz
  1  'x, y, z'
loop_
 _atom_site_type_symbol
 _atom_site_label
 _atom_site_symmetry_multiplicity
 _atom_site_fract_x
 _atom_site_fract_y
 _atom_site_fract_z
 _atom_site_occupancy
  Na  Na0  1  0.25000036  0.24999993  0.25000088  1
  Tl  Tl1  1  0.00000013  0.00000001  -0.00000000  1
  Tl  Tl2  1  0.50000025  0.50000077  0.50000025  1
  Pd  Pd3  1  0.75000025  0.75000029  0.74999988  1
