# generated using pymatgen
data_Ho2Co7B3
_symmetry_space_group_name_H-M   'P 1'
_cell_length_a   4.99846311
_cell_length_b   4.99937774
_cell_length_c   12.80229103
_cell_angle_alpha   89.99959152
_cell_angle_beta   90.00045824
_cell_angle_gamma   120.01164338
_symmetry_Int_Tables_number   1
_chemical_formula_structural   Ho2Co7B3
_chemical_formula_sum   'Ho4 Co14 B6'
_cell_volume   277.02553667
_cell_formula_units_Z   2
loop_
 _symmetry_equiv_pos_site_id
 _symmetry_equiv_pos_as_xyz
  1  'x, y, z'
loop_
 _atom_site_type_symbol
 _atom_site_label
 _atom_site_symmetry_multiplicity
 _atom_site_fract_x
 _atom_site_fract_y
 _atom_site_fract_z
 _atom_site_occupancy
  Ho  Ho0  1  0.99997956  0.00007548  0.50000993  1
  Ho  Ho1  1  0.00004274  0.99993438  0.26066816  1
  Ho  Ho2  1  0.99997039  0.99999713  0.73936997  1
  Ho  Ho3  1  0.99998713  0.99997762  0.99998773  1
  Co  Co4  1  0.33329207  0.66671917  0.99999795  1
  Co  Co5  1  0.66668413  0.33326831  0.99999779  1
  Co  Co6  1  0.50000249  0.00000137  0.38371400  1
  Co  Co7  1  0.99998577  0.49999876  0.38373078  1
  Co  Co8  1  0.50000915  0.50001195  0.38373040  1
  Co  Co9  1  0.49999744  0.00001003  0.61630786  1
  Co  Co10  1  0.49998607  0.50001115  0.61622156  1
  Co  Co11  1  0.99999613  0.50003570  0.61625130  1
  Co  Co12  1  0.50003572  0.00005479  0.15392663  1
  Co  Co13  1  0.99996017  0.49993459  0.15398652  1
  Co  Co14  1  0.50002829  0.49995884  0.15390405  1
  Co  Co15  1  0.49999986  0.00004147  0.84603833  1
  Co  Co16  1  0.50000014  0.49996861  0.84606141  1
  Co  Co17  1  0.99995216  0.49998821  0.84606883  1
  B  B18  1  0.33342721  0.66664778  0.26797328  1
  B  B19  1  0.66658892  0.33331879  0.26798289  1
  B  B20  1  0.66684149  0.33338413  0.73202333  1
  B  B21  1  0.33314522  0.66661132  0.73203463  1
  B  B22  1  0.33334244  0.66667081  0.50000528  1
  B  B23  1  0.66664634  0.33338162  0.50000638  1
