# generated using pymatgen
data_KH4O2F
_symmetry_space_group_name_H-M   'P 1'
_cell_length_a   4.12651843
_cell_length_b   5.19357518
_cell_length_c   8.85596846
_cell_angle_alpha   90.00000000
_cell_angle_beta   90.00000000
_cell_angle_gamma   90.00000000
_symmetry_Int_Tables_number   1
_chemical_formula_structural   KH4O2F
_chemical_formula_sum   'K2 H8 O4 F2'
_cell_volume   189.79565808
_cell_formula_units_Z   2
loop_
 _symmetry_equiv_pos_site_id
 _symmetry_equiv_pos_as_xyz
  1  'x, y, z'
loop_
 _atom_site_type_symbol
 _atom_site_label
 _atom_site_symmetry_multiplicity
 _atom_site_fract_x
 _atom_site_fract_y
 _atom_site_fract_z
 _atom_site_occupancy
  K  K0  1  0.50000000  0.60827842  0.49995697  1
  K  K1  1  0.50000000  0.39172158  -0.00004303  1
  H  H2  1  0.31013526  0.90081548  0.18006655  1
  H  H3  1  0.68986474  0.90081548  0.18006655  1
  H  H4  1  0.00000000  0.22592601  0.29184556  1
  H  H5  1  0.00000000  0.13925610  0.46273282  1
  H  H6  1  0.31013526  0.09918352  0.68006655  1
  H  H7  1  0.68986474  0.09918352  0.68006655  1
  H  H8  1  0.00000000  0.77407399  0.79184556  1
  H  H9  1  0.00000000  0.86074390  0.96273082  1
  O  O10  1  0.50000000  0.79714262  0.21147617  1
  O  O11  1  0.00000000  0.29209699  0.39630410  1
  O  O12  1  0.50000000  0.20285738  0.71147617  1
  O  O13  1  0.00000000  0.70790301  0.89630410  1
  F  F14  1  0.00000000  0.09241573  0.11095027  1
  F  F15  1  0.00000000  0.90758627  0.61095127  1
