# generated using pymatgen
data_WSCl4
_symmetry_space_group_name_H-M   'P 1'
_cell_length_a   8.10862219
_cell_length_b   6.98898828
_cell_length_c   8.00985787
_cell_angle_alpha   79.45205392
_cell_angle_beta   103.34151453
_cell_angle_gamma   101.61223210
_symmetry_Int_Tables_number   1
_chemical_formula_structural   WSCl4
_chemical_formula_sum   'W2 S2 Cl8'
_cell_volume   428.16927060
_cell_formula_units_Z   2
loop_
 _symmetry_equiv_pos_site_id
 _symmetry_equiv_pos_as_xyz
  1  'x, y, z'
loop_
 _atom_site_type_symbol
 _atom_site_label
 _atom_site_symmetry_multiplicity
 _atom_site_fract_x
 _atom_site_fract_y
 _atom_site_fract_z
 _atom_site_occupancy
  W  W0  1  0.80209395  0.14080665  0.24853379  1
  W  W1  1  0.19790705  0.85919335  0.75146621  1
  S  S2  1  0.76064005  0.34217564  0.01956043  1
  S  S3  1  0.23935895  0.65782436  0.98043957  1
  Cl  Cl4  1  0.82981392  0.86021264  0.15138745  1
  Cl  Cl5  1  0.53114529  0.98299577  0.28081202  1
  Cl  Cl6  1  0.09928769  0.19099906  0.33559030  1
  Cl  Cl7  1  0.79852995  0.31958937  0.46130502  1
  Cl  Cl8  1  0.20147105  0.68041263  0.53869398  1
  Cl  Cl9  1  0.90071331  0.80900094  0.66440970  1
  Cl  Cl10  1  0.46885571  0.01700523  0.71918798  1
  Cl  Cl11  1  0.17018608  0.13978936  0.84861255  1
