# generated using pymatgen
data_CaCrP2O7
_symmetry_space_group_name_H-M   'P 1'
_cell_length_a   6.48466900
_cell_length_b   6.54037377
_cell_length_c   7.10267709
_cell_angle_alpha   68.08132210
_cell_angle_beta   84.87601997
_cell_angle_gamma   82.35360285
_symmetry_Int_Tables_number   1
_chemical_formula_structural   CaCrP2O7
_chemical_formula_sum   'Ca2 Cr2 P4 O14'
_cell_volume   276.72212002
_cell_formula_units_Z   2
loop_
 _symmetry_equiv_pos_site_id
 _symmetry_equiv_pos_as_xyz
  1  'x, y, z'
loop_
 _atom_site_type_symbol
 _atom_site_label
 _atom_site_symmetry_multiplicity
 _atom_site_fract_x
 _atom_site_fract_y
 _atom_site_fract_z
 _atom_site_occupancy
  Ca  Ca0  1  0.85500797  0.27436603  0.15231693  1
  Ca  Ca1  1  0.14499203  0.72563397  0.84768307  1
  Cr  Cr2  1  0.66228910  0.10255547  0.76136851  1
  Cr  Cr3  1  0.33771090  0.89744453  0.23863149  1
  P  P4  1  0.15765192  0.23349104  0.73714129  1
  P  P5  1  0.84234808  0.76650896  0.26285871  1
  P  P6  1  0.63310337  0.63592520  0.67638440  1
  P  P7  1  0.36689663  0.36407480  0.32361560  1
  O  O8  1  0.77803230  0.60556192  0.48601837  1
  O  O9  1  0.22196770  0.39443808  0.51398163  1
  O  O10  1  0.98483674  0.09802125  0.72418246  1
  O  O11  1  0.01516326  0.90197875  0.27581754  1
  O  O12  1  0.58554568  0.26717242  0.39800049  1
  O  O13  1  0.41445432  0.73282758  0.60199951  1
  O  O14  1  0.35957814  0.60449224  0.16867693  1
  O  O15  1  0.64042186  0.39550776  0.83132207  1
  O  O16  1  0.91432481  0.61740502  0.14482534  1
  O  O17  1  0.08567519  0.38259498  0.85517466  1
  O  O18  1  0.65459572  0.93923185  0.17498998  1
  O  O19  1  0.34540428  0.06076815  0.82501002  1
  O  O20  1  0.25794595  0.21444760  0.25126987  1
  O  O21  1  0.74205405  0.78555240  0.74873013  1
