# generated using pymatgen
data_Ca2TaTiO6
_symmetry_space_group_name_H-M   'P 1'
_cell_length_a   5.47684807
_cell_length_b   5.63533213
_cell_length_c   7.82282816
_cell_angle_alpha   90.00000000
_cell_angle_beta   90.00000000
_cell_angle_gamma   89.95226530
_symmetry_Int_Tables_number   1
_chemical_formula_structural   Ca2TaTiO6
_chemical_formula_sum   'Ca4 Ta2 Ti2 O12'
_cell_volume   241.44257323
_cell_formula_units_Z   2
loop_
 _symmetry_equiv_pos_site_id
 _symmetry_equiv_pos_as_xyz
  1  'x, y, z'
loop_
 _atom_site_type_symbol
 _atom_site_label
 _atom_site_symmetry_multiplicity
 _atom_site_fract_x
 _atom_site_fract_y
 _atom_site_fract_z
 _atom_site_occupancy
  Ca  Ca0  1  0.01041127  0.95665520  0.25000000  1
  Ca  Ca1  1  0.48821987  0.43920101  0.25000000  1
  Ca  Ca2  1  0.51178013  0.56079899  0.75000000  1
  Ca  Ca3  1  0.98958873  0.04334480  0.75000000  1
  Ta  Ta4  1  0.00000000  0.50000000  0.00000000  1
  Ta  Ta5  1  0.00000000  0.50000000  0.50000000  1
  Ti  Ti6  1  0.50000000  0.00000000  0.00000000  1
  Ti  Ti7  1  0.50000000  0.00000000  0.50000000  1
  O  O8  1  0.79817316  0.79046290  0.54594321  1
  O  O9  1  0.29398840  0.70438303  0.45602829  1
  O  O10  1  0.20182684  0.20953710  0.45405679  1
  O  O11  1  0.70601160  0.29561697  0.95602829  1
  O  O12  1  0.08785503  0.47408864  0.75000000  1
  O  O13  1  0.70601160  0.29561697  0.54397171  1
  O  O14  1  0.29398840  0.70438303  0.04397171  1
  O  O15  1  0.79817316  0.79046290  0.95405679  1
  O  O16  1  0.58349447  0.02335103  0.25000000  1
  O  O17  1  0.20182684  0.20953710  0.04594321  1
  O  O18  1  0.41650553  0.97664897  0.75000000  1
  O  O19  1  0.91214497  0.52591136  0.25000000  1
