# generated using pymatgen
data_NaMo3P3O13
_symmetry_space_group_name_H-M   'P 1'
_cell_length_a   6.68194426
_cell_length_b   7.63028694
_cell_length_c   10.90770123
_cell_angle_alpha   99.02003624
_cell_angle_beta   90.00000000
_cell_angle_gamma   90.00000000
_symmetry_Int_Tables_number   1
_chemical_formula_structural   NaMo3P3O13
_chemical_formula_sum   'Na2 Mo6 P6 O26'
_cell_volume   549.25345569
_cell_formula_units_Z   2
loop_
 _symmetry_equiv_pos_site_id
 _symmetry_equiv_pos_as_xyz
  1  'x, y, z'
loop_
 _atom_site_type_symbol
 _atom_site_label
 _atom_site_symmetry_multiplicity
 _atom_site_fract_x
 _atom_site_fract_y
 _atom_site_fract_z
 _atom_site_occupancy
  Na  Na0  1  0.75000000  0.65447764  0.19015962  1
  Na  Na1  1  0.25000000  0.34552236  0.80984038  1
  Mo  Mo2  1  0.25000000  0.35390310  0.20602854  1
  Mo  Mo3  1  0.75000000  0.64609690  0.79397146  1
  Mo  Mo4  1  0.25000000  0.76648998  0.44816732  1
  Mo  Mo5  1  0.50000000  0.00000000  0.00000000  1
  Mo  Mo6  1  0.75000000  0.23351002  0.55183268  1
  Mo  Mo7  1  0.00000000  -0.00000000  -0.00000000  1
  P  P8  1  0.25000000  0.21619684  0.48745831  1
  P  P9  1  0.75000000  0.78380316  0.51254169  1
  P  P10  1  0.25000000  0.74778122  0.76887039  1
  P  P11  1  0.75000000  0.25221878  0.23112961  1
  P  P12  1  0.75000000  0.31514134  0.88063416  1
  P  P13  1  0.25000000  0.68485866  0.11936584  1
  O  O14  1  0.75000000  0.35582231  0.74290187  1
  O  O15  1  0.56543267  0.74418722  0.42827255  1
  O  O16  1  0.25000000  0.81526252  0.64496795  1
  O  O17  1  0.55667738  0.21645308  0.90280243  1
  O  O18  1  0.75000000  0.64979855  0.60926301  1
  O  O19  1  0.75000000  0.87105536  0.90126884  1
  O  O20  1  0.25000000  0.35020145  0.39073699  1
  O  O21  1  0.05667738  0.78354692  0.09719757  1
  O  O22  1  0.25000000  0.02714760  0.41172806  1
  O  O23  1  0.75000000  0.97285240  0.58827194  1
  O  O24  1  0.06642034  0.63428778  0.79080132  1
  O  O25  1  0.25000000  0.12894464  0.09873116  1
  O  O26  1  0.56642034  0.36571222  0.20919868  1
  O  O27  1  0.75000000  0.51019218  0.94923762  1
  O  O28  1  0.75000000  0.18473748  0.35503205  1
  O  O29  1  0.44332262  0.78354692  0.09719757  1
  O  O30  1  0.93456733  0.74418722  0.42827255  1
  O  O31  1  0.43456733  0.25581278  0.57172745  1
  O  O32  1  0.43357966  0.63428778  0.79080132  1
  O  O33  1  0.25000000  0.64417769  0.25709813  1
  O  O34  1  0.75000000  0.08195407  0.12486232  1
  O  O35  1  0.25000000  0.91804593  0.87513768  1
  O  O36  1  0.93357966  0.36571222  0.20919868  1
  O  O37  1  0.94332262  0.21645308  0.90280243  1
  O  O38  1  0.06543267  0.25581278  0.57172745  1
  O  O39  1  0.25000000  0.48980782  0.05076238  1
