# generated using pymatgen
data_CaCrF5
_symmetry_space_group_name_H-M   'P 1'
_cell_length_a   5.55485016
_cell_length_b   7.64830589
_cell_length_c   10.23796168
_cell_angle_alpha   90.00000000
_cell_angle_beta   90.00000000
_cell_angle_gamma   109.83926004
_symmetry_Int_Tables_number   1
_chemical_formula_structural   CaCrF5
_chemical_formula_sum   'Ca4 Cr4 F20'
_cell_volume   409.14611905
_cell_formula_units_Z   4
loop_
 _symmetry_equiv_pos_site_id
 _symmetry_equiv_pos_as_xyz
  1  'x, y, z'
loop_
 _atom_site_type_symbol
 _atom_site_label
 _atom_site_symmetry_multiplicity
 _atom_site_fract_x
 _atom_site_fract_y
 _atom_site_fract_z
 _atom_site_occupancy
  Ca  Ca0  1  0.47162180  0.74589591  0.01929457  1
  Ca  Ca1  1  0.52837820  0.75410409  0.51929457  1
  Ca  Ca2  1  0.52837820  0.25410409  0.98070543  1
  Ca  Ca3  1  0.47162180  0.24589591  0.48070543  1
  Cr  Cr4  1  0.89167254  0.59911726  0.75384745  1
  Cr  Cr5  1  0.10832746  0.90088274  0.25384745  1
  Cr  Cr6  1  0.10832746  0.40088274  0.24615255  1
  Cr  Cr7  1  0.89167254  0.09911726  0.74615255  1
  F  F8  1  0.61203174  0.55594925  0.88187632  1
  F  F9  1  0.38796826  0.94405075  0.38187632  1
  F  F10  1  0.38796826  0.44405075  0.11812368  1
  F  F11  1  0.61203174  0.05594925  0.61812368  1
  F  F12  1  0.64369248  0.50560065  0.61201842  1
  F  F13  1  0.35630752  0.99439935  0.11201842  1
  F  F14  1  0.35630752  0.49439935  0.38798158  1
  F  F15  1  0.64369248  0.00560065  0.88798158  1
  F  F16  1  0.87792541  0.81129906  0.39539446  1
  F  F17  1  0.12207459  0.68870094  0.89539446  1
  F  F18  1  0.12207459  0.18870094  0.60460554  1
  F  F19  1  0.87792541  0.31129906  0.10460554  1
  F  F20  1  0.82972445  0.85913951  0.13664208  1
  F  F21  1  0.17027555  0.64086049  0.63664208  1
  F  F22  1  0.17027555  0.14086049  0.86335792  1
  F  F23  1  0.82972445  0.35913951  0.36335792  1
  F  F24  1  0.85176687  0.83837168  0.70390211  1
  F  F25  1  0.14823313  0.66162832  0.20390211  1
  F  F26  1  0.14823313  0.16162832  0.29609789  1
  F  F27  1  0.85176687  0.33837168  0.79609789  1
