# generated using pymatgen
data_CaMnF5
_symmetry_space_group_name_H-M   'P 1'
_cell_length_a   5.53962437
_cell_length_b   8.04973117
_cell_length_c   10.06684144
_cell_angle_alpha   90.00000000
_cell_angle_beta   90.00000000
_cell_angle_gamma   111.01330864
_symmetry_Int_Tables_number   1
_chemical_formula_structural   CaMnF5
_chemical_formula_sum   'Ca4 Mn4 F20'
_cell_volume   419.05200471
_cell_formula_units_Z   4
loop_
 _symmetry_equiv_pos_site_id
 _symmetry_equiv_pos_as_xyz
  1  'x, y, z'
loop_
 _atom_site_type_symbol
 _atom_site_label
 _atom_site_symmetry_multiplicity
 _atom_site_fract_x
 _atom_site_fract_y
 _atom_site_fract_z
 _atom_site_occupancy
  Ca  Ca0  1  0.46920188  0.74434824  0.02074606  1
  Ca  Ca1  1  0.53079812  0.75565176  0.52074606  1
  Ca  Ca2  1  0.53079812  0.25565176  0.97925394  1
  Ca  Ca3  1  0.46920188  0.24434824  0.47925394  1
  Mn  Mn4  1  0.88617735  0.59796044  0.75317729  1
  Mn  Mn5  1  0.11382265  0.90203956  0.25317729  1
  Mn  Mn6  1  0.11382265  0.40203956  0.24682271  1
  Mn  Mn7  1  0.88617735  0.09796044  0.74682271  1
  F  F8  1  0.61043810  0.55855578  0.88193297  1
  F  F9  1  0.38956190  0.94144422  0.38193297  1
  F  F10  1  0.38956190  0.44144422  0.11806703  1
  F  F11  1  0.61043810  0.05855578  0.61806703  1
  F  F12  1  0.64305317  0.50335894  0.61166675  1
  F  F13  1  0.35694683  0.99664106  0.11166675  1
  F  F14  1  0.35694683  0.49664106  0.38833325  1
  F  F15  1  0.64305317  0.00335894  0.88833325  1
  F  F16  1  0.87991480  0.80923285  0.39109126  1
  F  F17  1  0.12008520  0.69076715  0.89109126  1
  F  F18  1  0.12008520  0.19076715  0.60890874  1
  F  F19  1  0.87991480  0.30923285  0.10890874  1
  F  F20  1  0.83653195  0.86200929  0.13589717  1
  F  F21  1  0.16346805  0.63799071  0.63589717  1
  F  F22  1  0.16346805  0.13799071  0.86410283  1
  F  F23  1  0.83653195  0.36200929  0.36410283  1
  F  F24  1  0.82769016  0.83277478  0.69301564  1
  F  F25  1  0.17230984  0.66722522  0.19301564  1
  F  F26  1  0.17230984  0.16722522  0.30698436  1
  F  F27  1  0.82769016  0.33277478  0.80698436  1
