# generated using pymatgen
data_Sm6GaCo2
_symmetry_space_group_name_H-M   'P 1'
_cell_length_a   8.44403970
_cell_length_b   8.44403970
_cell_length_c   8.44403970
_cell_angle_alpha   109.15890521
_cell_angle_beta   107.15125051
_cell_angle_gamma   112.14275985
_symmetry_Int_Tables_number   1
_chemical_formula_structural   Sm6GaCo2
_chemical_formula_sum   'Sm12 Ga2 Co4'
_cell_volume   462.58288557
_cell_formula_units_Z   2
loop_
 _symmetry_equiv_pos_site_id
 _symmetry_equiv_pos_as_xyz
  1  'x, y, z'
loop_
 _atom_site_type_symbol
 _atom_site_label
 _atom_site_symmetry_multiplicity
 _atom_site_fract_x
 _atom_site_fract_y
 _atom_site_fract_z
 _atom_site_occupancy
  Sm  Sm0  1  0.73749860  0.30396713  0.04146573  1
  Sm  Sm1  1  0.78119316  0.96132523  0.18013207  1
  Sm  Sm2  1  0.21880684  0.39893891  0.18013207  1
  Sm  Sm3  1  0.51237599  0.18689149  0.32548549  1
  Sm  Sm4  1  0.13859400  0.81310751  0.32548549  1
  Sm  Sm5  1  0.73749860  0.69603387  0.43353147  1
  Sm  Sm6  1  0.26250140  0.30396713  0.56646853  1
  Sm  Sm7  1  0.48762201  0.81310751  0.67451451  1
  Sm  Sm8  1  0.86140600  0.18689149  0.67451451  1
  Sm  Sm9  1  0.78119316  0.60106009  0.81986793  1
  Sm  Sm10  1  0.21880784  0.03867477  0.81986793  1
  Sm  Sm11  1  0.26250140  0.69603287  0.95853427  1
  Ga  Ga12  1  0.50000000  0.50000000  -0.00000000  1
  Ga  Ga13  1  -0.00000000  0.50000000  0.50000000  1
  Co  Co14  1  0.11317377  -0.00000000  0.11317377  1
  Co  Co15  1  0.50000000  0.83464525  0.33464425  1
  Co  Co16  1  0.50000000  0.16535575  0.66535675  1
  Co  Co17  1  0.88682623  0.00000000  0.88682623  1
