# generated using pymatgen
data_CsLi4(BO2)5
_symmetry_space_group_name_H-M   'P 1'
_cell_length_a   7.02004043
_cell_length_b   9.49721990
_cell_length_c   16.29024124
_cell_angle_alpha   90.00000000
_cell_angle_beta   98.05099826
_cell_angle_gamma   90.00000000
_symmetry_Int_Tables_number   1
_chemical_formula_structural   CsLi4(BO2)5
_chemical_formula_sum   'Cs4 Li16 B20 O40'
_cell_volume   1075.37985282
_cell_formula_units_Z   4
loop_
 _symmetry_equiv_pos_site_id
 _symmetry_equiv_pos_as_xyz
  1  'x, y, z'
loop_
 _atom_site_type_symbol
 _atom_site_label
 _atom_site_symmetry_multiplicity
 _atom_site_fract_x
 _atom_site_fract_y
 _atom_site_fract_z
 _atom_site_occupancy
  Cs  Cs0  1  0.40524224  0.79750168  0.86802208  1
  Cs  Cs1  1  0.59475776  0.29750168  0.63197792  1
  Cs  Cs2  1  0.59475776  0.20249832  0.13197792  1
  Cs  Cs3  1  0.40524224  0.70249832  0.36802208  1
  Li  Li4  1  0.03883748  0.27747316  0.81982396  1
  Li  Li5  1  0.96116252  0.77747316  0.68017604  1
  Li  Li6  1  0.96116252  0.72252684  0.18017604  1
  Li  Li7  1  0.03883748  0.22252684  0.31982396  1
  Li  Li8  1  0.95120876  0.85544075  0.03166999  1
  Li  Li9  1  0.04879124  0.35544075  0.46833001  1
  Li  Li10  1  0.04879124  0.14455925  0.96833001  1
  Li  Li11  1  0.95120876  0.64455925  0.53166999  1
  Li  Li12  1  0.99758764  0.58010358  0.92739438  1
  Li  Li13  1  0.00241236  0.08010358  0.57260562  1
  Li  Li14  1  0.00241236  0.41989642  0.07260562  1
  Li  Li15  1  0.99758764  0.91989642  0.42739438  1
  Li  Li16  1  0.27694749  0.40742295  0.94389907  1
  Li  Li17  1  0.72305251  0.90742295  0.55610093  1
  Li  Li18  1  0.72305251  0.59257705  0.05610093  1
  Li  Li19  1  0.27694749  0.09257705  0.44389907  1
  B  B20  1  0.42961240  0.19887505  0.89466085  1
  B  B21  1  0.57038760  0.69887505  0.60533915  1
  B  B22  1  0.57038760  0.80112495  0.10533915  1
  B  B23  1  0.42961240  0.30112495  0.39466085  1
  B  B24  1  0.25215099  0.62580299  0.64412821  1
  B  B25  1  0.74784901  0.12580299  0.85587179  1
  B  B26  1  0.74784901  0.37419701  0.35587179  1
  B  B27  1  0.25215099  0.87419701  0.14412821  1
  B  B28  1  0.90843861  0.88540640  0.87378559  1
  B  B29  1  0.09156139  0.38540640  0.62621441  1
  B  B30  1  0.09156139  0.11459360  0.12621441  1
  B  B31  1  0.90843861  0.61459360  0.37378559  1
  B  B32  1  0.28108320  0.64436424  0.06528609  1
  B  B33  1  0.71891680  0.14436424  0.43471391  1
  B  B34  1  0.71891680  0.35563576  0.93471391  1
  B  B35  1  0.28108320  0.85563576  0.56528609  1
  B  B36  1  0.14314246  0.50089526  0.76541385  1
  B  B37  1  0.85685754  0.00089526  0.73458615  1
  B  B38  1  0.85685754  0.49910474  0.23458615  1
  B  B39  1  0.14314246  0.99910474  0.26541385  1
  O  O40  1  0.24163885  0.18579977  0.89947049  1
  O  O41  1  0.75836115  0.68579977  0.60052951  1
  O  O42  1  0.75836115  0.81420023  0.10052951  1
  O  O43  1  0.24163885  0.31420023  0.39947049  1
  O  O44  1  0.97229394  0.77886752  0.92290841  1
  O  O45  1  0.02770606  0.27886752  0.57709159  1
  O  O46  1  0.02770606  0.22113248  0.07709159  1
  O  O47  1  0.97229394  0.72113248  0.42290841  1
  O  O48  1  0.19339959  0.62441859  0.72798436  1
  O  O49  1  0.80660041  0.12441859  0.77201564  1
  O  O50  1  0.80660041  0.37558141  0.27201564  1
  O  O51  1  0.19339959  0.87558141  0.22798436  1
  O  O52  1  0.47493745  0.68363254  0.06129950  1
  O  O53  1  0.52506255  0.18363254  0.43870050  1
  O  O54  1  0.52506255  0.31636746  0.93870050  1
  O  O55  1  0.47493745  0.81636746  0.56129950  1
  O  O56  1  0.20786439  0.52627848  0.02971170  1
  O  O57  1  0.79213561  0.02627848  0.47028830  1
  O  O58  1  0.79213561  0.47372152  0.97028830  1
  O  O59  1  0.20786439  0.97372152  0.52971170  1
  O  O60  1  0.17524048  0.73934399  0.10653881  1
  O  O61  1  0.82475952  0.23934399  0.39346119  1
  O  O62  1  0.82475952  0.26065601  0.89346119  1
  O  O63  1  0.17524048  0.76065601  0.60653881  1
  O  O64  1  0.53833218  0.11256390  0.85127752  1
  O  O65  1  0.46166782  0.61256390  0.64872248  1
  O  O66  1  0.46166782  0.88743610  0.14872248  1
  O  O67  1  0.53833218  0.38743610  0.35127752  1
  O  O68  1  0.84555050  0.01033748  0.90783554  1
  O  O69  1  0.15444950  0.51033748  0.59216446  1
  O  O70  1  0.15444950  0.98966252  0.09216446  1
  O  O71  1  0.84555050  0.48966252  0.40783554  1
  O  O72  1  0.09925087  0.38019401  0.71377670  1
  O  O73  1  0.90074913  0.88019401  0.78622330  1
  O  O74  1  0.90074913  0.61980599  0.28622330  1
  O  O75  1  0.09925087  0.11980599  0.21377670  1
  O  O76  1  0.13181301  0.48654429  0.84596173  1
  O  O77  1  0.86818699  0.98654429  0.65403827  1
  O  O78  1  0.86818699  0.51345571  0.15403827  1
  O  O79  1  0.13181301  0.01345571  0.34596173  1
