# generated using pymatgen
data_BaNaEu(SiO3)3
_symmetry_space_group_name_H-M   'P 1'
_cell_length_a   5.73980303
_cell_length_b   11.67480512
_cell_length_c   12.71041907
_cell_angle_alpha   90.00000000
_cell_angle_beta   90.00000000
_cell_angle_gamma   90.00000000
_symmetry_Int_Tables_number   1
_chemical_formula_structural   BaNaEu(SiO3)3
_chemical_formula_sum   'Ba4 Na4 Eu4 Si12 O36'
_cell_volume   851.73893204
_cell_formula_units_Z   4
loop_
 _symmetry_equiv_pos_site_id
 _symmetry_equiv_pos_as_xyz
  1  'x, y, z'
loop_
 _atom_site_type_symbol
 _atom_site_label
 _atom_site_symmetry_multiplicity
 _atom_site_fract_x
 _atom_site_fract_y
 _atom_site_fract_z
 _atom_site_occupancy
  Eu  Eu0  1  0.11173143  0.96963362  0.36226068  1
  Eu  Eu1  1  0.38826857  0.03036638  0.86226068  1
  Eu  Eu2  1  0.61173143  0.53036638  0.63773932  1
  Eu  Eu3  1  0.88826857  0.46963362  0.13773932  1
  Ba  Ba4  1  0.10298298  0.61729760  0.41890037  1
  Ba  Ba5  1  0.39701702  0.38270240  0.91890037  1
  Ba  Ba6  1  0.60298298  0.88270240  0.58109963  1
  Ba  Ba7  1  0.89701702  0.11729760  0.08109963  1
  Na  Na8  1  0.06995255  0.28540146  0.39395584  1
  Na  Na9  1  0.43004745  0.71459854  0.89395584  1
  Na  Na10  1  0.56995255  0.21459854  0.60604416  1
  Na  Na11  1  0.93004745  0.78540146  0.10604416  1
  Si  Si12  1  0.59906233  0.80381550  0.31297949  1
  Si  Si13  1  0.90093767  0.19618450  0.81297949  1
  Si  Si14  1  0.09906233  0.69618450  0.68702051  1
  Si  Si15  1  0.40093767  0.30381550  0.18702051  1
  Si  Si16  1  0.59661777  0.15253106  0.35728711  1
  Si  Si17  1  0.90338223  0.84746894  0.85728711  1
  Si  Si18  1  0.09661777  0.34746894  0.64271289  1
  Si  Si19  1  0.40338223  0.65253106  0.14271289  1
  Si  Si20  1  0.10427295  0.08777178  0.62374227  1
  Si  Si21  1  0.39572705  0.91222822  0.12374227  1
  Si  Si22  1  0.60427295  0.41222822  0.37625773  1
  Si  Si23  1  0.89572705  0.58777178  0.87625773  1
  O  O24  1  0.37182489  0.81401413  0.38869006  1
  O  O25  1  0.12817511  0.18598587  0.88869006  1
  O  O26  1  0.87182489  0.68598587  0.61130994  1
  O  O27  1  0.62817511  0.31401413  0.11130994  1
  O  O28  1  0.84159921  0.81419092  0.37654850  1
  O  O29  1  0.65840079  0.18580908  0.87654850  1
  O  O30  1  0.34159921  0.68580908  0.62345150  1
  O  O31  1  0.15840079  0.31419092  0.12345150  1
  O  O32  1  0.86018643  0.12373272  0.31828365  1
  O  O33  1  0.63981357  0.87626728  0.81828365  1
  O  O34  1  0.36018643  0.37626728  0.68171635  1
  O  O35  1  0.13981357  0.62373272  0.18171635  1
  O  O36  1  0.61094048  0.27771557  0.42569508  1
  O  O37  1  0.88905952  0.72228443  0.92569508  1
  O  O38  1  0.11094048  0.22228443  0.57430492  1
  O  O39  1  0.38905952  0.77771557  0.07430492  1
  O  O40  1  0.35448755  0.05959442  0.67754083  1
  O  O41  1  0.14551245  0.94040558  0.17754083  1
  O  O42  1  0.85448755  0.44040558  0.32245917  1
  O  O43  1  0.64551245  0.55959442  0.82245917  1
  O  O44  1  0.90044825  0.09661435  0.71777836  1
  O  O45  1  0.59955175  0.90338565  0.21777836  1
  O  O46  1  0.40044825  0.40338565  0.28222164  1
  O  O47  1  0.09955175  0.59661435  0.78222164  1
  O  O48  1  0.41812021  0.18117922  0.25548188  1
  O  O49  1  0.08187979  0.81882078  0.75548188  1
  O  O50  1  0.91812021  0.31882078  0.74451812  1
  O  O51  1  0.58187979  0.68117922  0.24451812  1
  O  O52  1  0.46414552  0.06008060  0.43006311  1
  O  O53  1  0.03585448  0.93991940  0.93006311  1
  O  O54  1  0.96414552  0.43991940  0.56993689  1
  O  O55  1  0.53585448  0.56008060  0.06993689  1
  O  O56  1  0.01189632  0.99744052  0.53741764  1
  O  O57  1  0.48810368  0.00255948  0.03741764  1
  O  O58  1  0.51189632  0.50255948  0.46258236  1
  O  O59  1  0.98810368  0.49744052  0.96258236  1
