# generated using pymatgen
data_EuZn(BO2)5
_symmetry_space_group_name_H-M   'P 1'
_cell_length_a   8.78295510
_cell_length_b   7.67388636
_cell_length_c   9.51067471
_cell_angle_alpha   90.00000000
_cell_angle_beta   92.55825227
_cell_angle_gamma   90.00000000
_symmetry_Int_Tables_number   1
_chemical_formula_structural   EuZn(BO2)5
_chemical_formula_sum   'Eu4 Zn4 B20 O40'
_cell_volume   640.37490109
_cell_formula_units_Z   4
loop_
 _symmetry_equiv_pos_site_id
 _symmetry_equiv_pos_as_xyz
  1  'x, y, z'
loop_
 _atom_site_type_symbol
 _atom_site_label
 _atom_site_symmetry_multiplicity
 _atom_site_fract_x
 _atom_site_fract_y
 _atom_site_fract_z
 _atom_site_occupancy
  Eu  Eu0  1  0.31067963  0.68350672  0.26115991  1
  Eu  Eu1  1  0.81067963  0.81649328  0.76115991  1
  Eu  Eu2  1  0.68932037  0.31649328  0.73884009  1
  Eu  Eu3  1  0.18932037  0.18350672  0.23884009  1
  Zn  Zn4  1  0.39253438  0.58899541  0.87512703  1
  Zn  Zn5  1  0.89253438  0.91100459  0.37512703  1
  Zn  Zn6  1  0.60746562  0.41100459  0.12487297  1
  Zn  Zn7  1  0.10746562  0.08899541  0.62487297  1
  B  B8  1  0.01501050  0.82517364  0.10506501  1
  B  B9  1  0.51501050  0.67482636  0.60506501  1
  B  B10  1  0.98498950  0.17482636  0.89493499  1
  B  B11  1  0.48498950  0.32517364  0.39493499  1
  B  B12  1  0.84524934  0.60012452  0.99816503  1
  B  B13  1  0.34524934  0.89987548  0.49816503  1
  B  B14  1  0.15475066  0.39987548  0.00183497  1
  B  B15  1  0.65475066  0.10012452  0.50183497  1
  B  B16  1  0.91333848  0.57660713  0.25943422  1
  B  B17  1  0.41333848  0.92339287  0.75943422  1
  B  B18  1  0.08666152  0.42339287  0.74056578  1
  B  B19  1  0.58666152  0.07660713  0.24056578  1
  B  B20  1  0.93141630  0.31431147  0.41328715  1
  B  B21  1  0.43141630  0.18568853  0.91328715  1
  B  B22  1  0.06858370  0.68568853  0.58671285  1
  B  B23  1  0.56858370  0.81431147  0.08671285  1
  B  B24  1  0.71981575  0.53121587  0.44523288  1
  B  B25  1  0.21981575  0.96878413  0.94523288  1
  B  B26  1  0.28018425  0.46878413  0.55476712  1
  B  B27  1  0.78018425  0.03121587  0.05476712  1
  O  O28  1  0.16938795  0.89351579  0.08023886  1
  O  O29  1  0.66938795  0.60648421  0.58023886  1
  O  O30  1  0.83061205  0.10648421  0.91976114  1
  O  O31  1  0.33061205  0.39351579  0.41976114  1
  O  O32  1  0.91256839  0.97006140  0.14706706  1
  O  O33  1  0.41256839  0.52993860  0.64706706  1
  O  O34  1  0.08743161  0.02993860  0.85293294  1
  O  O35  1  0.58743161  0.47006140  0.35293294  1
  O  O36  1  0.95662811  0.72622996  0.98263478  1
  O  O37  1  0.45662811  0.77377004  0.48263478  1
  O  O38  1  0.04337189  0.27377004  0.01736522  1
  O  O39  1  0.54337189  0.22622996  0.51736522  1
  O  O40  1  0.76436712  0.54955998  0.88063137  1
  O  O41  1  0.26436712  0.95044002  0.38063137  1
  O  O42  1  0.23563288  0.45044002  0.11936863  1
  O  O43  1  0.73563288  0.04955998  0.61936863  1
  O  O44  1  0.81654878  0.53413531  0.12904605  1
  O  O45  1  0.31654878  0.96586469  0.62904605  1
  O  O46  1  0.18345122  0.46586469  0.87095395  1
  O  O47  1  0.68345122  0.03413531  0.37095395  1
  O  O48  1  0.02952742  0.71024054  0.23072092  1
  O  O49  1  0.52952742  0.78975946  0.73072092  1
  O  O50  1  0.97047258  0.28975946  0.76927908  1
  O  O51  1  0.47047258  0.21024054  0.26927908  1
  O  O52  1  0.98667643  0.41301791  0.30587875  1
  O  O53  1  0.48667643  0.08698209  0.80587875  1
  O  O54  1  0.01332357  0.58698209  0.69412125  1
  O  O55  1  0.51332357  0.91301791  0.19412125  1
  O  O56  1  0.00171326  0.15366132  0.43247783  1
  O  O57  1  0.50171326  0.34633868  0.93247783  1
  O  O58  1  0.99828674  0.84633868  0.56752217  1
  O  O59  1  0.49828674  0.65366132  0.06752217  1
  O  O60  1  0.81407244  0.37462468  0.49058544  1
  O  O61  1  0.31407244  0.12537532  0.99058544  1
  O  O62  1  0.18592756  0.62537532  0.50941456  1
  O  O63  1  0.68592756  0.87462468  0.00941456  1
  O  O64  1  0.81451369  0.64972618  0.36548056  1
  O  O65  1  0.31451369  0.85027382  0.86548056  1
  O  O66  1  0.18548631  0.35027382  0.63451944  1
  O  O67  1  0.68548631  0.14972618  0.13451944  1
