# generated using pymatgen
data_Mg30ZnNiO32
_symmetry_space_group_name_H-M   'P 1'
_cell_length_a   8.51479022
_cell_length_b   8.51474111
_cell_length_c   8.51474111
_cell_angle_alpha   90.00000000
_cell_angle_beta   90.00000000
_cell_angle_gamma   90.00000000
_symmetry_Int_Tables_number   1
_chemical_formula_structural   Mg30ZnNiO32
_chemical_formula_sum   'Mg30 Zn1 Ni1 O32'
_cell_volume   617.32924047
_cell_formula_units_Z   1
loop_
 _symmetry_equiv_pos_site_id
 _symmetry_equiv_pos_as_xyz
  1  'x, y, z'
loop_
 _atom_site_type_symbol
 _atom_site_label
 _atom_site_symmetry_multiplicity
 _atom_site_fract_x
 _atom_site_fract_y
 _atom_site_fract_z
 _atom_site_occupancy
  Mg  Mg0  1  0.00000000  0.00000000  0.50000000  1
  Mg  Mg1  1  0.00000000  0.50000000  0.00000000  1
  Mg  Mg2  1  0.50000000  0.00000000  0.00000000  1
  Mg  Mg3  1  0.50000000  0.00000000  0.50000000  1
  Mg  Mg4  1  0.50000000  0.50000000  0.00000000  1
  Mg  Mg5  1  0.50000000  0.50000000  0.50000000  1
  Mg  Mg6  1  0.00000000  0.25044252  0.25044252  1
  Mg  Mg7  1  0.00000000  0.25044252  0.74955748  1
  Mg  Mg8  1  0.00000000  0.74955748  0.25044252  1
  Mg  Mg9  1  0.00000000  0.74955748  0.74955748  1
  Mg  Mg10  1  0.50000000  0.25003695  0.25003695  1
  Mg  Mg11  1  0.50000000  0.25003695  0.74996305  1
  Mg  Mg12  1  0.50000000  0.74996305  0.25003695  1
  Mg  Mg13  1  0.50000000  0.74996305  0.74996305  1
  Mg  Mg14  1  0.24979474  0.00000000  0.24999885  1
  Mg  Mg15  1  0.24979474  0.00000000  0.75000115  1
  Mg  Mg16  1  0.24941098  0.50000000  0.25046674  1
  Mg  Mg17  1  0.24941098  0.50000000  0.74953326  1
  Mg  Mg18  1  0.75020526  0.00000000  0.24999885  1
  Mg  Mg19  1  0.75020526  0.00000000  0.75000115  1
  Mg  Mg20  1  0.75058902  0.50000000  0.25046674  1
  Mg  Mg21  1  0.75058902  0.50000000  0.74953326  1
  Mg  Mg22  1  0.24979474  0.24999885  0.00000000  1
  Mg  Mg23  1  0.24941098  0.25046674  0.50000000  1
  Mg  Mg24  1  0.24979474  0.75000115  0.00000000  1
  Mg  Mg25  1  0.24941098  0.74953326  0.50000000  1
  Mg  Mg26  1  0.75020526  0.24999885  0.00000000  1
  Mg  Mg27  1  0.75058902  0.25046674  0.50000000  1
  Mg  Mg28  1  0.75020526  0.75000115  0.00000000  1
  Mg  Mg29  1  0.75058902  0.74953326  0.50000000  1
  Zn  Zn30  1  0.00000000  0.00000000  0.00000000  1
  Ni  Ni31  1  0.00000000  0.50000000  0.50000000  1
  O  O32  1  0.25324533  0.00000000  0.00000000  1
  O  O33  1  0.24990922  0.00000000  0.50000000  1
  O  O34  1  0.24990922  0.50000000  0.00000000  1
  O  O35  1  0.25095544  0.50000000  0.50000000  1
  O  O36  1  0.74675467  0.00000000  0.00000000  1
  O  O37  1  0.75009078  0.00000000  0.50000000  1
  O  O38  1  0.75009078  0.50000000  0.00000000  1
  O  O39  1  0.74904456  0.50000000  0.50000000  1
  O  O40  1  0.24961523  0.25000930  0.25000930  1
  O  O41  1  0.24961523  0.25000930  0.74999070  1
  O  O42  1  0.24961523  0.74999070  0.25000930  1
  O  O43  1  0.24961523  0.74999070  0.74999070  1
  O  O44  1  0.75038477  0.25000930  0.25000930  1
  O  O45  1  0.75038477  0.25000930  0.74999070  1
  O  O46  1  0.75038477  0.74999070  0.25000930  1
  O  O47  1  0.75038477  0.74999070  0.74999070  1
  O  O48  1  0.00000000  0.00000000  0.25341294  1
  O  O49  1  0.00000000  0.00000000  0.74658706  1
  O  O50  1  0.00000000  0.50000000  0.24920617  1
  O  O51  1  0.00000000  0.50000000  0.75079383  1
  O  O52  1  0.50000000  0.00000000  0.25010649  1
  O  O53  1  0.50000000  0.00000000  0.74989351  1
  O  O54  1  0.50000000  0.50000000  0.25024642  1
  O  O55  1  0.50000000  0.50000000  0.74975358  1
  O  O56  1  0.00000000  0.25341294  0.00000000  1
  O  O57  1  0.00000000  0.24920617  0.50000000  1
  O  O58  1  0.00000000  0.74658706  0.00000000  1
  O  O59  1  0.00000000  0.75079383  0.50000000  1
  O  O60  1  0.50000000  0.25010649  0.00000000  1
  O  O61  1  0.50000000  0.25024642  0.50000000  1
  O  O62  1  0.50000000  0.74989351  0.00000000  1
  O  O63  1  0.50000000  0.74975358  0.50000000  1
