# generated using pymatgen
data_MgTiFe(PO4)3
_symmetry_space_group_name_H-M   'P 1'
_cell_length_a   8.50781773
_cell_length_b   8.50781723
_cell_length_c   8.50781754
_cell_angle_alpha   60.88489752
_cell_angle_beta   60.88489993
_cell_angle_gamma   60.88490061
_symmetry_Int_Tables_number   1
_chemical_formula_structural   MgTiFe(PO4)3
_chemical_formula_sum   'Mg2 Ti2 Fe2 P6 O24'
_cell_volume   444.13746403
_cell_formula_units_Z   2
loop_
 _symmetry_equiv_pos_site_id
 _symmetry_equiv_pos_as_xyz
  1  'x, y, z'
loop_
 _atom_site_type_symbol
 _atom_site_label
 _atom_site_symmetry_multiplicity
 _atom_site_fract_x
 _atom_site_fract_y
 _atom_site_fract_z
 _atom_site_occupancy
  Mg  Mg0  1  0.99798056  0.99798056  0.99798056  1
  Mg  Mg1  1  0.49798056  0.49798056  0.49798056  1
  Ti  Ti2  1  0.14446238  0.14446238  0.14446238  1
  Ti  Ti3  1  0.64446238  0.64446238  0.64446238  1
  Fe  Fe4  1  0.35537981  0.35537981  0.35537981  1
  Fe  Fe5  1  0.85537981  0.85537981  0.85537981  1
  P  P6  1  0.04602377  0.45537998  0.75087001  1
  P  P7  1  0.45537998  0.75087001  0.04602377  1
  P  P8  1  0.75087001  0.04602377  0.45537998  1
  P  P9  1  0.25087001  0.95537998  0.54602377  1
  P  P10  1  0.54602377  0.25087001  0.95537998  1
  P  P11  1  0.95537998  0.54602377  0.25087001  1
  O  O12  1  0.11065605  0.50336797  0.31940786  1
  O  O13  1  0.31940786  0.11065605  0.50336797  1
  O  O14  1  0.05388325  0.25829441  0.91200099  1
  O  O15  1  0.50336797  0.31940786  0.11065605  1
  O  O16  1  0.00336797  0.61065605  0.81940786  1
  O  O17  1  0.24121573  0.44004280  0.59152919  1
  O  O18  1  0.25829440  0.91200099  0.05388325  1
  O  O19  1  0.44004280  0.59152919  0.24121573  1
  O  O20  1  0.18568567  0.00379293  0.38002264  1
  O  O21  1  0.59152919  0.24121573  0.44004280  1
  O  O22  1  0.09152919  0.94004280  0.74121573  1
  O  O23  1  0.38002264  0.18568567  0.00379293  1
  O  O24  1  0.61065605  0.81940786  0.00336797  1
  O  O25  1  0.91200099  0.05388325  0.25829440  1
  O  O26  1  0.41200099  0.75829441  0.55388325  1
  O  O27  1  0.81940786  0.00336797  0.61065605  1
  O  O28  1  0.55388325  0.41200099  0.75829441  1
  O  O29  1  0.74121573  0.09152919  0.94004280  1
  O  O30  1  0.75829440  0.55388325  0.41200099  1
  O  O31  1  0.00379293  0.38002264  0.18568567  1
  O  O32  1  0.50379293  0.68568567  0.88002264  1
  O  O33  1  0.94004280  0.74121573  0.09152919  1
  O  O34  1  0.68568567  0.88002264  0.50379293  1
  O  O35  1  0.88002264  0.50379293  0.68568567  1
