# generated using pymatgen
data_Y(AlSi)2
_symmetry_space_group_name_H-M   'P 1'
_cell_length_a   4.20575201
_cell_length_b   4.20897741
_cell_length_c   6.58898341
_cell_angle_alpha   89.99999999
_cell_angle_beta   89.94125118
_cell_angle_gamma   120.02538763
_symmetry_Int_Tables_number   1
_chemical_formula_structural   Y(AlSi)2
_chemical_formula_sum   'Y1 Al2 Si2'
_cell_volume   100.98522523
_cell_formula_units_Z   1
loop_
 _symmetry_equiv_pos_site_id
 _symmetry_equiv_pos_as_xyz
  1  'x, y, z'
loop_
 _atom_site_type_symbol
 _atom_site_label
 _atom_site_symmetry_multiplicity
 _atom_site_fract_x
 _atom_site_fract_y
 _atom_site_fract_z
 _atom_site_occupancy
  Y  Y0  1  -0.00000000  -0.00000000  -0.00000000  1
  Al  Al1  1  0.33317385  0.66658692  0.64475314  1
  Al  Al2  1  0.66682615  0.33341308  0.35524686  1
  Si  Si3  1  0.33311274  0.66655637  0.26015483  1
  Si  Si4  1  0.66688726  0.33344363  0.73984517  1
