# generated using pymatgen
data_NaCr2P2O9
_symmetry_space_group_name_H-M   'P 1'
_cell_length_a   6.40171729
_cell_length_b   7.67685516
_cell_length_c   13.98679755
_cell_angle_alpha   90.00000000
_cell_angle_beta   90.00000000
_cell_angle_gamma   90.00000000
_symmetry_Int_Tables_number   1
_chemical_formula_structural   NaCr2P2O9
_chemical_formula_sum   'Na4 Cr8 P8 O36'
_cell_volume   687.38195460
_cell_formula_units_Z   4
loop_
 _symmetry_equiv_pos_site_id
 _symmetry_equiv_pos_as_xyz
  1  'x, y, z'
loop_
 _atom_site_type_symbol
 _atom_site_label
 _atom_site_symmetry_multiplicity
 _atom_site_fract_x
 _atom_site_fract_y
 _atom_site_fract_z
 _atom_site_occupancy
  Na  Na0  1  0.75000000  0.85465489  0.77857536  1
  Na  Na1  1  0.75000000  0.64534511  0.27857536  1
  Na  Na2  1  0.25000100  0.35465389  0.72142464  1
  Na  Na3  1  0.25000100  0.14534511  0.22142464  1
  Cr  Cr4  1  0.75000000  0.34688533  0.88230869  1
  Cr  Cr5  1  0.25000100  0.65311467  0.11769131  1
  Cr  Cr6  1  0.25000100  0.84688533  0.61769131  1
  Cr  Cr7  1  0.75000000  0.15311467  0.38230869  1
  Cr  Cr8  1  0.50000000  -0.00000000  0.00000000  1
  Cr  Cr9  1  0.50000000  0.50000000  0.50000000  1
  Cr  Cr10  1  -0.00000000  0.50000000  0.50000000  1
  Cr  Cr11  1  0.00000000  -0.00000000  0.00000000  1
  P  P12  1  0.25000100  0.34857535  0.93997060  1
  P  P13  1  0.75000000  0.65142465  0.06003040  1
  P  P14  1  0.75000000  0.84857535  0.56002940  1
  P  P15  1  0.25000100  0.15142565  0.43997060  1
  P  P16  1  0.75000000  0.39903978  0.69464855  1
  P  P17  1  0.75000000  0.10096022  0.19464855  1
  P  P18  1  0.25000100  0.89903978  0.80535145  1
  P  P19  1  0.25000100  0.60095922  0.30535145  1
  O  O20  1  0.05171461  0.58851597  0.36808003  1
  O  O21  1  0.55171361  0.41148303  0.63191997  1
  O  O22  1  0.94828539  0.08851597  0.13191997  1
  O  O23  1  0.44828539  0.91148403  0.86808003  1
  O  O24  1  0.94828539  0.41148303  0.63191997  1
  O  O25  1  0.44828539  0.58851597  0.36808003  1
  O  O26  1  0.05171461  0.91148403  0.86808003  1
  O  O27  1  0.55171361  0.08851597  0.13191997  1
  O  O28  1  0.25000100  0.33522965  0.49173224  1
  O  O29  1  0.75000000  0.66477135  0.50826776  1
  O  O30  1  0.75000000  0.83522865  0.00826676  1
  O  O31  1  0.25000100  0.16477135  0.99173224  1
  O  O32  1  0.75000000  0.14463929  0.95220602  1
  O  O33  1  0.25000100  0.85536071  0.04779298  1
  O  O34  1  0.25000100  0.64463929  0.54779298  1
  O  O35  1  0.75000000  0.35536171  0.45220702  1
  O  O36  1  0.75000000  0.22755298  0.75566426  1
  O  O37  1  0.25000100  0.77244702  0.24433674  1
  O  O38  1  0.25000100  0.72755298  0.74433574  1
  O  O39  1  0.75000000  0.27244802  0.25566326  1
  O  O40  1  0.44107310  0.14400664  0.37434470  1
  O  O41  1  0.94107310  0.85599336  0.62565530  1
  O  O42  1  0.55892690  0.64400564  0.12565530  1
  O  O43  1  0.05892690  0.35599336  0.87434470  1
  O  O44  1  0.55892690  0.85599336  0.62565530  1
  O  O45  1  0.05892690  0.14400664  0.37434470  1
  O  O46  1  0.44107310  0.35599336  0.87434470  1
  O  O47  1  0.94107310  0.64400564  0.12565530  1
  O  O48  1  0.75000000  0.51217850  0.98238536  1
  O  O49  1  0.25000100  0.03482630  0.72231224  1
  O  O50  1  0.25000100  0.46517270  0.22231224  1
  O  O51  1  0.75000000  0.53482630  0.77768776  1
  O  O52  1  0.75000000  0.98782150  0.48238536  1
  O  O53  1  0.25000100  0.01217850  0.51761464  1
  O  O54  1  0.25000100  0.48782050  0.01761364  1
  O  O55  1  0.75000000  0.96517370  0.27768776  1
