# generated using pymatgen
data_LuCd2
_symmetry_space_group_name_H-M   'P 1'
_cell_length_a   3.43068122
_cell_length_b   5.99591004
_cell_length_c   4.92124049
_cell_angle_alpha   114.22889968
_cell_angle_beta   89.99999734
_cell_angle_gamma   55.11271612
_symmetry_Int_Tables_number   1
_chemical_formula_structural   LuCd2
_chemical_formula_sum   'Lu1 Cd2'
_cell_volume   71.89789158
_cell_formula_units_Z   1
loop_
 _symmetry_equiv_pos_site_id
 _symmetry_equiv_pos_as_xyz
  1  'x, y, z'
loop_
 _atom_site_type_symbol
 _atom_site_label
 _atom_site_symmetry_multiplicity
 _atom_site_fract_x
 _atom_site_fract_y
 _atom_site_fract_z
 _atom_site_occupancy
  Lu  Lu0  1  0.00000000  -0.00000000  -0.00000000  1
  Cd  Cd1  1  0.14754561  0.33420881  0.66710440  1
  Cd  Cd2  1  0.85245439  0.66579119  0.33289560  1
