# generated using pymatgen
data_BaZnNiF7
_symmetry_space_group_name_H-M   'P 1'
_cell_length_a   5.61615456
_cell_length_b   9.57620589
_cell_length_c   10.00391112
_cell_angle_alpha   90.00000000
_cell_angle_beta   90.00000000
_cell_angle_gamma   92.68530975
_symmetry_Int_Tables_number   1
_chemical_formula_structural   BaZnNiF7
_chemical_formula_sum   'Ba4 Zn4 Ni4 F28'
_cell_volume   537.43407541
_cell_formula_units_Z   4
loop_
 _symmetry_equiv_pos_site_id
 _symmetry_equiv_pos_as_xyz
  1  'x, y, z'
loop_
 _atom_site_type_symbol
 _atom_site_label
 _atom_site_symmetry_multiplicity
 _atom_site_fract_x
 _atom_site_fract_y
 _atom_site_fract_z
 _atom_site_occupancy
  Ba  Ba0  1  0.25978668  0.50026668  0.31467846  1
  Ba  Ba1  1  0.74021332  0.99973332  0.81467846  1
  Ba  Ba2  1  0.74021332  0.49973332  0.68532154  1
  Ba  Ba3  1  0.25978668  0.00026668  0.18532154  1
  Zn  Zn4  1  0.69801419  0.80967548  0.39926916  1
  Zn  Zn5  1  0.30198581  0.69032452  0.89926916  1
  Zn  Zn6  1  0.69801419  0.30967548  0.10073084  1
  Zn  Zn7  1  0.30198581  0.19032452  0.60073084  1
  Ni  Ni8  1  0.19521464  0.81125309  0.61247980  1
  Ni  Ni9  1  0.80478536  0.18874691  0.38752020  1
  Ni  Ni10  1  0.19521464  0.31125309  0.88752020  1
  Ni  Ni11  1  0.80478536  0.68874691  0.11247980  1
  F  F12  1  0.10555319  0.12238399  0.44258920  1
  F  F13  1  0.36499914  0.37090744  0.05180342  1
  F  F14  1  0.47294274  0.74999877  0.70537146  1
  F  F15  1  0.52705726  0.25000223  0.29462854  1
  F  F16  1  0.88337989  0.36336817  0.45516687  1
  F  F17  1  0.25788247  0.49198769  0.80998297  1
  F  F18  1  0.01968262  0.75012866  0.77962456  1
  F  F19  1  0.11662011  0.13663183  0.95516687  1
  F  F20  1  0.36499914  0.87090744  0.44819658  1
  F  F21  1  0.52705726  0.75000123  0.20537146  1
  F  F22  1  0.10555319  0.62238399  0.05741080  1
  F  F23  1  0.89444681  0.87761601  0.55741080  1
  F  F24  1  0.98031738  0.74987134  0.27962456  1
  F  F25  1  0.38214125  0.88075956  0.95728172  1
  F  F26  1  0.11662011  0.63663183  0.54483313  1
  F  F27  1  0.88337989  0.86336817  0.04483313  1
  F  F28  1  0.98031738  0.24987134  0.22037544  1
  F  F29  1  0.89444681  0.37761601  0.94258920  1
  F  F30  1  0.61785875  0.61924044  0.45728172  1
  F  F31  1  0.63500086  0.62909256  0.94819658  1
  F  F32  1  0.61785875  0.11924044  0.04271828  1
  F  F33  1  0.01968262  0.25012866  0.72037544  1
  F  F34  1  0.38214125  0.38075956  0.54271828  1
  F  F35  1  0.74211753  0.00801231  0.30998297  1
  F  F36  1  0.74211753  0.50801231  0.19001703  1
  F  F37  1  0.25788247  0.99198769  0.69001703  1
  F  F38  1  0.63500086  0.12909256  0.55180342  1
  F  F39  1  0.47294274  0.24999877  0.79462854  1
