# generated using pymatgen
data_BaMoF7
_symmetry_space_group_name_H-M   'P 1'
_cell_length_a   5.69711922
_cell_length_b   10.64108012
_cell_length_c   10.13988002
_cell_angle_alpha   90.00000000
_cell_angle_beta   90.00000000
_cell_angle_gamma   92.61814803
_symmetry_Int_Tables_number   1
_chemical_formula_structural   BaMoF7
_chemical_formula_sum   'Ba4 Mo4 F28'
_cell_volume   614.07336732
_cell_formula_units_Z   4
loop_
 _symmetry_equiv_pos_site_id
 _symmetry_equiv_pos_as_xyz
  1  'x, y, z'
loop_
 _atom_site_type_symbol
 _atom_site_label
 _atom_site_symmetry_multiplicity
 _atom_site_fract_x
 _atom_site_fract_y
 _atom_site_fract_z
 _atom_site_occupancy
  Ba  Ba0  1  0.30185910  0.49349636  0.33321535  1
  Ba  Ba1  1  0.69814090  0.00650364  0.83321535  1
  Ba  Ba2  1  0.69814090  0.50650364  0.66678465  1
  Ba  Ba3  1  0.30185910  0.99349636  0.16678465  1
  Mo  Mo4  1  0.18477260  0.81322252  0.61044934  1
  Mo  Mo5  1  0.81522740  0.18677748  0.38955066  1
  Mo  Mo6  1  0.18477260  0.31322252  0.88955066  1
  Mo  Mo7  1  0.81522740  0.68677748  0.11044934  1
  F  F8  1  0.09886964  0.12408193  0.45559051  1
  F  F9  1  0.32618002  0.36828944  0.05129396  1
  F  F10  1  0.46269654  0.75762298  0.69451492  1
  F  F11  1  0.53730346  0.24237702  0.30548508  1
  F  F12  1  0.88365982  0.35841523  0.45430720  1
  F  F13  1  0.25704300  0.47521170  0.80547908  1
  F  F14  1  0.00086975  0.76020514  0.76300437  1
  F  F15  1  0.11634018  0.14158477  0.95430720  1
  F  F16  1  0.32618002  0.86828944  0.44870604  1
  F  F17  1  0.53730346  0.74237702  0.19451492  1
  F  F18  1  0.09886964  0.62408193  0.04440949  1
  F  F19  1  0.90113036  0.87591807  0.54440949  1
  F  F20  1  0.99913025  0.73979486  0.26300437  1
  F  F21  1  0.38712988  0.88731624  0.95819179  1
  F  F22  1  0.11634018  0.64158477  0.54569280  1
  F  F23  1  0.88365982  0.85841523  0.04569280  1
  F  F24  1  0.99913025  0.23979486  0.23699563  1
  F  F25  1  0.90113036  0.37591807  0.95559051  1
  F  F26  1  0.61287012  0.61268376  0.45819179  1
  F  F27  1  0.67381998  0.63171056  0.94870604  1
  F  F28  1  0.61287012  0.11268376  0.04180821  1
  F  F29  1  0.00086975  0.26020514  0.73699563  1
  F  F30  1  0.38712988  0.38731624  0.54180821  1
  F  F31  1  0.74295700  0.02478830  0.30547908  1
  F  F32  1  0.74295700  0.52478830  0.19452092  1
  F  F33  1  0.25704300  0.97521170  0.69452092  1
  F  F34  1  0.67381998  0.13171056  0.55129396  1
  F  F35  1  0.46269654  0.25762298  0.80548508  1
