# generated using pymatgen
data_Sr2TiMoO6
_symmetry_space_group_name_H-M   'P 1'
_cell_length_a   5.65087110
_cell_length_b   5.71328951
_cell_length_c   5.63498419
_cell_angle_alpha   90.24057387
_cell_angle_beta   119.75288902
_cell_angle_gamma   120.25452327
_symmetry_Int_Tables_number   1
_chemical_formula_structural   Sr2TiMoO6
_chemical_formula_sum   'Sr2 Ti1 Mo1 O6'
_cell_volume   128.35139937
_cell_formula_units_Z   1
loop_
 _symmetry_equiv_pos_site_id
 _symmetry_equiv_pos_as_xyz
  1  'x, y, z'
loop_
 _atom_site_type_symbol
 _atom_site_label
 _atom_site_symmetry_multiplicity
 _atom_site_fract_x
 _atom_site_fract_y
 _atom_site_fract_z
 _atom_site_occupancy
  Sr  Sr0  1  0.49891752  0.74943666  0.24955255  1
  Sr  Sr1  1  0.50108248  0.25056334  0.75044745  1
  Ti  Ti2  1  -0.00000000  0.50000000  0.50000000  1
  Mo  Mo3  1  -0.00000000  0.00000000  0.00000000  1
  O  O4  1  0.99990026  0.76427294  0.27918442  1
  O  O5  1  0.00009974  0.23572706  0.72081558  1
  O  O6  1  0.99618790  0.27811276  0.22806332  1
  O  O7  1  0.00381210  0.72188724  0.77193668  1
  O  O8  1  0.50517654  0.25435838  0.25464633  1
  O  O9  1  0.49482346  0.74564162  0.74535367  1
