# generated using pymatgen
data_As2W
_symmetry_space_group_name_H-M   'P 1'
_cell_length_a   3.34627611
_cell_length_b   4.87814594
_cell_length_c   7.04342601
_cell_angle_alpha   79.52094469
_cell_angle_beta   76.25825323
_cell_angle_gamma   69.94107647
_symmetry_Int_Tables_number   1
_chemical_formula_structural   As2W
_chemical_formula_sum   'As4 W2'
_cell_volume   104.27155576
_cell_formula_units_Z   2
loop_
 _symmetry_equiv_pos_site_id
 _symmetry_equiv_pos_as_xyz
  1  'x, y, z'
loop_
 _atom_site_type_symbol
 _atom_site_label
 _atom_site_symmetry_multiplicity
 _atom_site_fract_x
 _atom_site_fract_y
 _atom_site_fract_z
 _atom_site_occupancy
  As  As0  1  0.40395404  0.30254843  0.88954348  1
  As  As1  1  0.59604596  0.69745157  0.11045652  1
  As  As2  1  0.85454050  0.75930554  0.53161346  1
  As  As3  1  0.14545950  0.24069446  0.46838654  1
  W  W4  1  0.15182591  0.89766242  0.79868576  1
  W  W5  1  0.84817409  0.10233758  0.20131424  1
