# generated using pymatgen
data_TaS2
_symmetry_space_group_name_H-M   'P 1'
_cell_length_a   3.34463127
_cell_length_b   3.34462429
_cell_length_c   17.69102205
_cell_angle_alpha   90.00000000
_cell_angle_beta   90.00000000
_cell_angle_gamma   120.00008244
_symmetry_Int_Tables_number   1
_chemical_formula_structural   TaS2
_chemical_formula_sum   'Ta2 S4'
_cell_volume   171.38735618
_cell_formula_units_Z   2
loop_
 _symmetry_equiv_pos_site_id
 _symmetry_equiv_pos_as_xyz
  1  'x, y, z'
loop_
 _atom_site_type_symbol
 _atom_site_label
 _atom_site_symmetry_multiplicity
 _atom_site_fract_x
 _atom_site_fract_y
 _atom_site_fract_z
 _atom_site_occupancy
  Ta  Ta0  1  0.66667908  0.33332192  0.25000000  1
  Ta  Ta1  1  0.33335716  0.66667808  0.75000000  1
  S  S2  1  0.00001045  0.99998902  0.16165672  1
  S  S3  1  0.00001045  0.99998902  0.33834328  1
  S  S4  1  0.00002143  0.00001098  0.66165672  1
  S  S5  1  0.00002143  0.00001098  0.83834328  1
