# generated using pymatgen
data_NaYPO4F
_symmetry_space_group_name_H-M   'P 1'
_cell_length_a   5.71600286
_cell_length_b   5.71600286
_cell_length_c   6.54622004
_cell_angle_alpha   77.42381156
_cell_angle_beta   77.42381156
_cell_angle_gamma   75.63819779
_symmetry_Int_Tables_number   1
_chemical_formula_structural   NaYPO4F
_chemical_formula_sum   'Na2 Y2 P2 O8 F2'
_cell_volume   199.17216069
_cell_formula_units_Z   2
loop_
 _symmetry_equiv_pos_site_id
 _symmetry_equiv_pos_as_xyz
  1  'x, y, z'
loop_
 _atom_site_type_symbol
 _atom_site_label
 _atom_site_symmetry_multiplicity
 _atom_site_fract_x
 _atom_site_fract_y
 _atom_site_fract_z
 _atom_site_occupancy
  O  O0  1  0.01719416  0.01719416  0.27203572  1
  O  O1  1  0.98280584  0.98280584  0.72796428  1
  O  O2  1  0.25708085  0.25708085  0.49190706  1
  O  O3  1  0.74291915  0.74291915  0.50809294  1
  O  O4  1  0.37055335  0.02016619  0.84480596  1
  O  O5  1  0.62944665  0.97983381  0.15519404  1
  O  O6  1  0.97983381  0.62944665  0.15519404  1
  O  O7  1  0.02016619  0.37055335  0.84480596  1
  F  F8  1  0.48204757  0.48204757  0.81020657  1
  F  F9  1  0.51795243  0.51795243  0.18979343  1
  Na  Na10  1  0.70689377  0.29310623  0.50000000  1
  Na  Na11  1  0.29310623  0.70689377  0.50000000  1
  P  P12  1  0.15439892  0.15439892  0.72348303  1
  P  P13  1  0.84560108  0.84560108  0.27651697  1
  Y  Y14  1  0.28234345  0.28234345  0.11724519  1
  Y  Y15  1  0.71765655  0.71765655  0.88275481  1
