# generated using pymatgen
data_NdGe2Rh
_symmetry_space_group_name_H-M   'P 1'
_cell_length_a   4.39846304
_cell_length_b   4.33336478
_cell_length_c   8.81987144
_cell_angle_alpha   104.22079546
_cell_angle_beta   90.00000000
_cell_angle_gamma   90.00000000
_symmetry_Int_Tables_number   1
_chemical_formula_structural   NdGe2Rh
_chemical_formula_sum   'Nd2 Ge4 Rh2'
_cell_volume   162.95656701
_cell_formula_units_Z   2
loop_
 _symmetry_equiv_pos_site_id
 _symmetry_equiv_pos_as_xyz
  1  'x, y, z'
loop_
 _atom_site_type_symbol
 _atom_site_label
 _atom_site_symmetry_multiplicity
 _atom_site_fract_x
 _atom_site_fract_y
 _atom_site_fract_z
 _atom_site_occupancy
  Nd  Nd0  1  0.75000000  0.10674585  0.21349170  1
  Nd  Nd1  1  0.25000000  0.89325415  0.78650830  1
  Ge  Ge2  1  0.75000000  0.45995162  0.91990324  1
  Ge  Ge3  1  0.25000000  0.54004838  0.08009676  1
  Ge  Ge4  1  0.75000000  0.74835672  0.49671344  1
  Ge  Ge5  1  0.25000000  0.25164328  0.50328656  1
  Rh  Rh6  1  0.75000000  0.31949340  0.63898679  1
  Rh  Rh7  1  0.25000000  0.68050660  0.36101321  1
