# generated using pymatgen
data_Sr2ZnWO6
_symmetry_space_group_name_H-M   'P 1'
_cell_length_a   5.66233959
_cell_length_b   5.66233959
_cell_length_c   5.71701549
_cell_angle_alpha   119.68414154
_cell_angle_beta   119.68414154
_cell_angle_gamma   90.00000000
_symmetry_Int_Tables_number   1
_chemical_formula_structural   Sr2ZnWO6
_chemical_formula_sum   'Sr2 Zn1 W1 O6'
_cell_volume   130.84010364
_cell_formula_units_Z   1
loop_
 _symmetry_equiv_pos_site_id
 _symmetry_equiv_pos_as_xyz
  1  'x, y, z'
loop_
 _atom_site_type_symbol
 _atom_site_label
 _atom_site_symmetry_multiplicity
 _atom_site_fract_x
 _atom_site_fract_y
 _atom_site_fract_z
 _atom_site_occupancy
  Sr  Sr0  1  0.75000000  0.25000000  0.50000000  1
  Sr  Sr1  1  0.25000000  0.75000000  0.50000000  1
  Zn  Zn2  1  0.50000000  0.50000000  0.00000000  1
  W  W3  1  -0.00000000  -0.00000000  -0.00000000  1
  O  O4  1  0.28481041  0.19470015  1.00000000  1
  O  O5  1  0.71518959  0.80529985  0.00000000  1
  O  O6  1  0.80529985  0.28481041  1.00000000  1
  O  O7  1  0.19470015  0.71518959  0.00000000  1
  O  O8  1  0.23937577  0.23937577  0.47875153  1
  O  O9  1  0.76062423  0.76062423  0.52124847  1
