# generated using pymatgen
data_HfGeRh
_symmetry_space_group_name_H-M   'P 1'
_cell_length_a   3.91140064
_cell_length_b   6.64259700
_cell_length_c   6.64267120
_cell_angle_alpha   119.99961922
_cell_angle_beta   90.00000000
_cell_angle_gamma   90.00000000
_symmetry_Int_Tables_number   1
_chemical_formula_structural   HfGeRh
_chemical_formula_sum   'Hf3 Ge3 Rh3'
_cell_volume   149.46698064
_cell_formula_units_Z   3
loop_
 _symmetry_equiv_pos_site_id
 _symmetry_equiv_pos_as_xyz
  1  'x, y, z'
loop_
 _atom_site_type_symbol
 _atom_site_label
 _atom_site_symmetry_multiplicity
 _atom_site_fract_x
 _atom_site_fract_y
 _atom_site_fract_z
 _atom_site_occupancy
  Hf  Hf0  1  0.50000000  0.57819365  1.00000000  1
  Hf  Hf1  1  0.50000000  0.42180522  0.42181160  1
  Hf  Hf2  1  0.50000000  0.99999362  0.57818840  1
  Ge  Ge3  1  -0.00000000  0.33332946  0.66667119  1
  Ge  Ge4  1  -0.00000000  0.66665828  0.33332881  1
  Ge  Ge5  1  0.50000000  0.99999055  1.00000000  1
  Rh  Rh6  1  -0.00000000  0.24860515  1.00000000  1
  Rh  Rh7  1  0.00000000  0.75133702  0.75134996  1
  Rh  Rh8  1  0.00000000  -0.00001294  0.24865004  1
