# generated using pymatgen
data_CaHg3
_symmetry_space_group_name_H-M   'P 1'
_cell_length_a   5.21592977
_cell_length_b   6.83650487
_cell_length_c   6.83650487
_cell_angle_alpha   122.86809497
_cell_angle_beta   90.00000000
_cell_angle_gamma   90.00000000
_symmetry_Int_Tables_number   1
_chemical_formula_structural   CaHg3
_chemical_formula_sum   'Ca2 Hg6'
_cell_volume   204.75713810
_cell_formula_units_Z   2
loop_
 _symmetry_equiv_pos_site_id
 _symmetry_equiv_pos_as_xyz
  1  'x, y, z'
loop_
 _atom_site_type_symbol
 _atom_site_label
 _atom_site_symmetry_multiplicity
 _atom_site_fract_x
 _atom_site_fract_y
 _atom_site_fract_z
 _atom_site_occupancy
  Ca  Ca0  1  0.75000000  0.66691110  0.33308890  1
  Ca  Ca1  1  0.25000000  0.33308890  0.66691110  1
  Hg  Hg2  1  0.75000000  0.16465846  0.32763581  1
  Hg  Hg3  1  0.75000000  0.16566826  0.83433174  1
  Hg  Hg4  1  0.75000000  0.67236419  0.83534154  1
  Hg  Hg5  1  0.25000000  0.83534154  0.67236419  1
  Hg  Hg6  1  0.25000000  0.83433174  0.16566826  1
  Hg  Hg7  1  0.25000000  0.32763581  0.16465846  1
