# generated using pymatgen
data_PrCu
_symmetry_space_group_name_H-M   'P 1'
_cell_length_a   4.44026622
_cell_length_b   6.14281222
_cell_length_c   7.09650158
_cell_angle_alpha   90.00000000
_cell_angle_beta   90.00000000
_cell_angle_gamma   90.00000000
_symmetry_Int_Tables_number   1
_chemical_formula_structural   PrCu
_chemical_formula_sum   'Pr4 Cu4'
_cell_volume   193.56220140
_cell_formula_units_Z   4
loop_
 _symmetry_equiv_pos_site_id
 _symmetry_equiv_pos_as_xyz
  1  'x, y, z'
loop_
 _atom_site_type_symbol
 _atom_site_label
 _atom_site_symmetry_multiplicity
 _atom_site_fract_x
 _atom_site_fract_y
 _atom_site_fract_z
 _atom_site_occupancy
  Pr  Pr0  1  0.25000000  0.35872234  0.67275034  1
  Pr  Pr1  1  0.25000000  0.14127766  0.17275034  1
  Pr  Pr2  1  0.75000000  0.64127766  0.32724966  1
  Pr  Pr3  1  0.75000000  0.85872234  0.82724966  1
  Cu  Cu4  1  0.25000000  0.88888856  0.53643391  1
  Cu  Cu5  1  0.25000000  0.61111144  0.03643391  1
  Cu  Cu6  1  0.75000000  0.11111144  0.46356609  1
  Cu  Cu7  1  0.75000000  0.38888856  0.96356609  1
