# generated using pymatgen
data_SmAu
_symmetry_space_group_name_H-M   'P 1'
_cell_length_a   4.76447053
_cell_length_b   5.77708705
_cell_length_c   7.45630067
_cell_angle_alpha   90.00000000
_cell_angle_beta   90.00000000
_cell_angle_gamma   90.00000000
_symmetry_Int_Tables_number   1
_chemical_formula_structural   SmAu
_chemical_formula_sum   'Sm4 Au4'
_cell_volume   205.23289388
_cell_formula_units_Z   4
loop_
 _symmetry_equiv_pos_site_id
 _symmetry_equiv_pos_as_xyz
  1  'x, y, z'
loop_
 _atom_site_type_symbol
 _atom_site_label
 _atom_site_symmetry_multiplicity
 _atom_site_fract_x
 _atom_site_fract_y
 _atom_site_fract_z
 _atom_site_occupancy
  Sm  Sm0  1  0.25000000  0.35063923  0.68755361  1
  Sm  Sm1  1  0.25000000  0.14936077  0.18755361  1
  Sm  Sm2  1  0.75000000  0.64936077  0.31244639  1
  Sm  Sm3  1  0.75000000  0.85063923  0.81244639  1
  Au  Au4  1  0.25000000  0.84423135  0.54238732  1
  Au  Au5  1  0.25000000  0.65576865  0.04238732  1
  Au  Au6  1  0.75000000  0.15576865  0.45761268  1
  Au  Au7  1  0.75000000  0.34423135  0.95761268  1
