# generated using pymatgen
data_Ba
_symmetry_space_group_name_H-M   'P 1'
_cell_length_a   4.90869056
_cell_length_b   7.26506361
_cell_length_c   8.78968396
_cell_angle_alpha   90.00000000
_cell_angle_beta   55.89673678
_cell_angle_gamma   90.00000000
_symmetry_Int_Tables_number   1
_chemical_formula_structural   Ba
_chemical_formula_sum   Ba4
_cell_volume   259.55151638
_cell_formula_units_Z   4
loop_
 _symmetry_equiv_pos_site_id
 _symmetry_equiv_pos_as_xyz
  1  'x, y, z'
loop_
 _atom_site_type_symbol
 _atom_site_label
 _atom_site_symmetry_multiplicity
 _atom_site_fract_x
 _atom_site_fract_y
 _atom_site_fract_z
 _atom_site_occupancy
  Ba  Ba0  1  0.49365198  0.49981228  0.75047845  1
  Ba  Ba1  1  0.00634802  0.99981228  0.24952155  1
  Ba  Ba2  1  0.50634802  0.50018772  0.24952155  1
  Ba  Ba3  1  0.99365198  0.00018772  0.75047845  1
