# generated using pymatgen
data_Sr2Cu(PO4)2
_symmetry_space_group_name_H-M   'P 1'
_cell_length_a   5.13289316
_cell_length_b   6.36598750
_cell_length_c   6.67946129
_cell_angle_alpha   104.95213020
_cell_angle_beta   90.00000000
_cell_angle_gamma   113.77523588
_symmetry_Int_Tables_number   1
_chemical_formula_structural   Sr2Cu(PO4)2
_chemical_formula_sum   'Sr2 Cu1 P2 O8'
_cell_volume   191.63220141
_cell_formula_units_Z   1
loop_
 _symmetry_equiv_pos_site_id
 _symmetry_equiv_pos_as_xyz
  1  'x, y, z'
loop_
 _atom_site_type_symbol
 _atom_site_label
 _atom_site_symmetry_multiplicity
 _atom_site_fract_x
 _atom_site_fract_y
 _atom_site_fract_z
 _atom_site_occupancy
  O  O0  1  0.37585238  0.26144821  0.56350439  1
  O  O1  1  0.11440417  0.73855179  0.43649561  1
  O  O2  1  0.62414762  0.73855179  0.43649561  1
  O  O3  1  0.88559583  0.26144821  0.56350439  1
  O  O4  1  0.72870296  0.45740593  0.14154299  1
  O  O5  1  0.04968204  0.09936409  0.83234896  1
  O  O6  1  0.95031796  0.90063591  0.16765104  1
  O  O7  1  0.27129704  0.54259407  0.85845701  1
  P  P8  1  0.85750695  0.71501389  0.28987228  1
  P  P9  1  0.14249305  0.28498611  0.71012772  1
  Cu  Cu10  1  0.50000000  0.00000000  0.50000000  1
  Sr  Sr11  1  0.17056816  0.34113632  0.21669894  1
  Sr  Sr12  1  0.82943184  0.65886368  0.78330106  1
