# generated using pymatgen
data_HoSeF
_symmetry_space_group_name_H-M   'P 1'
_cell_length_a   4.10104994
_cell_length_b   6.32835656
_cell_length_c   9.97674706
_cell_angle_alpha   90.00000000
_cell_angle_beta   90.00000000
_cell_angle_gamma   90.00000000
_symmetry_Int_Tables_number   1
_chemical_formula_structural   HoSeF
_chemical_formula_sum   'Ho4 Se4 F4'
_cell_volume   258.92558153
_cell_formula_units_Z   4
loop_
 _symmetry_equiv_pos_site_id
 _symmetry_equiv_pos_as_xyz
  1  'x, y, z'
loop_
 _atom_site_type_symbol
 _atom_site_label
 _atom_site_symmetry_multiplicity
 _atom_site_fract_x
 _atom_site_fract_y
 _atom_site_fract_z
 _atom_site_occupancy
  Ho  Ho0  1  0.25000000  0.26458649  0.92131173  1
  Ho  Ho1  1  0.25000000  0.23541351  0.42131173  1
  Ho  Ho2  1  0.75000000  0.73541351  0.07868827  1
  Ho  Ho3  1  0.75000000  0.76458649  0.57868827  1
  Se  Se4  1  0.25000000  0.46496897  0.66641084  1
  Se  Se5  1  0.25000000  0.03503103  0.16641084  1
  Se  Se6  1  0.75000000  0.53503103  0.33358916  1
  Se  Se7  1  0.75000000  0.96496897  0.83358916  1
  F  F8  1  0.25000000  0.90807649  0.53403346  1
  F  F9  1  0.25000000  0.59192351  0.03403346  1
  F  F10  1  0.75000000  0.09192351  0.46596654  1
  F  F11  1  0.75000000  0.40807649  0.96596654  1
