# generated using pymatgen
data_CeLuS3
_symmetry_space_group_name_H-M   'P 1'
_cell_length_a   3.86268305
_cell_length_b   6.58230803
_cell_length_c   9.48585774
_cell_angle_alpha   90.00000000
_cell_angle_beta   90.00000000
_cell_angle_gamma   107.06246483
_symmetry_Int_Tables_number   1
_chemical_formula_structural   CeLuS3
_chemical_formula_sum   'Ce2 Lu2 S6'
_cell_volume   230.56594449
_cell_formula_units_Z   2
loop_
 _symmetry_equiv_pos_site_id
 _symmetry_equiv_pos_as_xyz
  1  'x, y, z'
loop_
 _atom_site_type_symbol
 _atom_site_label
 _atom_site_symmetry_multiplicity
 _atom_site_fract_x
 _atom_site_fract_y
 _atom_site_fract_z
 _atom_site_occupancy
  Ce  Ce0  1  0.25197096  0.50394192  0.50000000  1
  Ce  Ce1  1  0.74802904  0.49605808  0.00000000  1
  Lu  Lu2  1  0.99492274  1.00000000  0.75000000  1
  Lu  Lu3  1  0.00507726  0.00000000  0.25000000  1
  S  S4  1  0.35540887  0.71656329  0.81423837  1
  S  S5  1  0.36115442  0.71656329  0.18576163  1
  S  S6  1  0.64459113  0.28343671  0.31423837  1
  S  S7  1  0.63884558  0.28343671  0.68576163  1
  S  S8  1  0.91246447  0.82492894  0.50000000  1
  S  S9  1  0.08753553  0.17507106  0.00000000  1
