# generated using pymatgen
data_SbSI
_symmetry_space_group_name_H-M   'P 1'
_cell_length_a   4.14321999
_cell_length_b   9.15054899
_cell_length_c   10.70290245
_cell_angle_alpha   90.00000000
_cell_angle_beta   90.00000000
_cell_angle_gamma   90.00000000
_symmetry_Int_Tables_number   1
_chemical_formula_structural   SbSI
_chemical_formula_sum   'Sb4 S4 I4'
_cell_volume   405.77633102
_cell_formula_units_Z   4
loop_
 _symmetry_equiv_pos_site_id
 _symmetry_equiv_pos_as_xyz
  1  'x, y, z'
loop_
 _atom_site_type_symbol
 _atom_site_label
 _atom_site_symmetry_multiplicity
 _atom_site_fract_x
 _atom_site_fract_y
 _atom_site_fract_z
 _atom_site_occupancy
  Sb  Sb0  1  0.28101634  0.60437639  0.37781649  1
  Sb  Sb1  1  0.78101634  0.39562361  0.62218351  1
  Sb  Sb2  1  0.78101634  0.89562361  0.87781649  1
  Sb  Sb3  1  0.28101634  0.10437639  0.12218351  1
  S  S4  1  0.26732605  0.35002331  0.45980266  1
  S  S5  1  0.76732605  0.64997669  0.54019734  1
  S  S6  1  0.76732605  0.14997669  0.95980266  1
  S  S7  1  0.26732605  0.85002331  0.04019734  1
  I  I8  1  0.26095762  0.00984827  0.68223021  1
  I  I9  1  0.76095762  0.99015173  0.31776979  1
  I  I10  1  0.76095762  0.49015173  0.18223021  1
  I  I11  1  0.26095762  0.50984827  0.81776979  1
