# generated using pymatgen
data_BaSr7(FeO3)8
_symmetry_space_group_name_H-M   'P 1'
_cell_length_a   7.86423431
_cell_length_b   7.86423431
_cell_length_c   7.86423431
_cell_angle_alpha   90.00000000
_cell_angle_beta   90.00000000
_cell_angle_gamma   90.00000000
_symmetry_Int_Tables_number   1
_chemical_formula_structural   BaSr7(FeO3)8
_chemical_formula_sum   'Ba1 Sr7 Fe8 O24'
_cell_volume   486.37286078
_cell_formula_units_Z   1
loop_
 _symmetry_equiv_pos_site_id
 _symmetry_equiv_pos_as_xyz
  1  'x, y, z'
loop_
 _atom_site_type_symbol
 _atom_site_label
 _atom_site_symmetry_multiplicity
 _atom_site_fract_x
 _atom_site_fract_y
 _atom_site_fract_z
 _atom_site_occupancy
  Ba  Ba0  1  0.25000000  0.75000000  0.25000000  1
  Sr  Sr1  1  0.25000000  0.25000000  0.25000000  1
  Sr  Sr2  1  0.25000000  0.25000000  0.75000000  1
  Sr  Sr3  1  0.25000000  0.75000000  0.75000000  1
  Sr  Sr4  1  0.75000000  0.25000000  0.25000000  1
  Sr  Sr5  1  0.75000000  0.25000000  0.75000000  1
  Sr  Sr6  1  0.75000000  0.75000000  0.25000000  1
  Sr  Sr7  1  0.75000000  0.75000000  0.75000000  1
  Fe  Fe8  1  0.99887144  0.00112856  0.99887144  1
  Fe  Fe9  1  0.99887144  0.00112856  0.50112856  1
  Fe  Fe10  1  0.99887144  0.49887144  0.99887144  1
  Fe  Fe11  1  0.99887144  0.49887144  0.50112856  1
  Fe  Fe12  1  0.50112856  0.00112856  0.99887144  1
  Fe  Fe13  1  0.50112856  0.00112856  0.50112856  1
  Fe  Fe14  1  0.50112856  0.49887144  0.99887144  1
  Fe  Fe15  1  0.50112856  0.49887144  0.50112856  1
  O  O16  1  0.25000000  0.00452031  0.99547969  1
  O  O17  1  0.25000000  0.00452031  0.50452031  1
  O  O18  1  0.25000000  0.49547969  0.99547969  1
  O  O19  1  0.25000000  0.49547969  0.50452031  1
  O  O20  1  0.75000000  0.00098553  0.99901447  1
  O  O21  1  0.75000000  0.00098553  0.50098553  1
  O  O22  1  0.75000000  0.49901447  0.99901447  1
  O  O23  1  0.75000000  0.49901447  0.50098553  1
  O  O24  1  0.99901447  0.25000000  0.99901447  1
  O  O25  1  0.99901447  0.25000000  0.50098553  1
  O  O26  1  0.99547969  0.75000000  0.99547969  1
  O  O27  1  0.99547969  0.75000000  0.50452031  1
  O  O28  1  0.50098553  0.25000000  0.99901447  1
  O  O29  1  0.50098553  0.25000000  0.50098553  1
  O  O30  1  0.50452031  0.75000000  0.99547969  1
  O  O31  1  0.50452031  0.75000000  0.50452031  1
  O  O32  1  0.99547969  0.00452031  0.25000000  1
  O  O33  1  0.99901447  0.00098553  0.75000000  1
  O  O34  1  0.99547969  0.49547969  0.25000000  1
  O  O35  1  0.99901447  0.49901447  0.75000000  1
  O  O36  1  0.50452031  0.00452031  0.25000000  1
  O  O37  1  0.50098553  0.00098553  0.75000000  1
  O  O38  1  0.50452031  0.49547969  0.25000000  1
  O  O39  1  0.50098553  0.49901447  0.75000000  1
