# generated using pymatgen
data_V2OF5
_symmetry_space_group_name_H-M   'P 1'
_cell_length_a   5.27210679
_cell_length_b   5.42093734
_cell_length_c   17.40399995
_cell_angle_alpha   91.72061939
_cell_angle_beta   98.45996870
_cell_angle_gamma   60.90718464
_symmetry_Int_Tables_number   1
_chemical_formula_structural   V2OF5
_chemical_formula_sum   'V8 O4 F20'
_cell_volume   429.42107014
_cell_formula_units_Z   4
loop_
 _symmetry_equiv_pos_site_id
 _symmetry_equiv_pos_as_xyz
  1  'x, y, z'
loop_
 _atom_site_type_symbol
 _atom_site_label
 _atom_site_symmetry_multiplicity
 _atom_site_fract_x
 _atom_site_fract_y
 _atom_site_fract_z
 _atom_site_occupancy
  V  V0  1  0.76787614  0.60653006  0.12087067  1
  V  V1  1  0.75283091  0.10928263  0.62382321  1
  V  V2  1  0.49999465  0.25500227  0.25094457  1
  V  V3  1  0.49588019  0.73277284  0.75675035  1
  V  V4  1  0.26881896  0.85171462  0.37094328  1
  V  V5  1  0.25319399  0.38209967  0.87365966  1
  V  V6  1  0.99946144  0.01272905  0.00156630  1
  V  V7  1  0.99994226  0.51662110  0.50376945  1
  O  O8  1  0.94985111  0.33047979  0.06608291  1
  O  O9  1  0.95861062  0.78875000  0.55947368  1
  O  O10  1  0.44530438  0.58031053  0.31555173  1
  O  O11  1  0.42383713  0.59128045  0.82976808  1
  F  F12  1  0.92728993  0.84066818  0.09039189  1
  F  F13  1  0.54075078  0.92741127  0.18640680  1
  F  F14  1  0.92171972  0.05038412  0.28942727  1
  F  F15  1  0.93204742  0.31740869  0.58445375  1
  F  F16  1  0.92495244  0.53762902  0.78597956  1
  F  F17  1  0.42423299  0.80085203  0.03858266  1
  F  F18  1  0.56431571  0.42559510  0.16294567  1
  F  F19  1  0.57763765  0.90621422  0.66769533  1
  F  F20  1  0.57427575  0.70040230  0.46253134  1
  F  F21  1  0.52135519  0.44415339  0.68422155  1
  F  F22  1  0.42760746  0.08790348  0.33857755  1
  F  F23  1  0.42672737  0.28135977  0.53656090  1
  F  F24  1  0.57509594  0.21731856  0.96288205  1
  F  F25  1  0.06403968  0.67243307  0.41223273  1
  F  F26  1  0.07261434  0.46259820  0.21296390  1
  F  F27  1  0.07723470  0.96607006  0.71132924  1
  F  F28  1  0.48457516  0.05940389  0.81250108  1
  F  F29  1  0.02656236  0.69128544  0.93838822  1
  F  F30  1  0.04577647  0.18615631  0.43705763  1
  F  F31  1  0.07558518  0.16717888  0.91166900  1
