# generated using pymatgen
data_Na6MnNi3(SbO6)2
_symmetry_space_group_name_H-M   'P 1'
_cell_length_a   5.41612477
_cell_length_b   9.37044854
_cell_length_c   5.71684056
_cell_angle_alpha   90.00000000
_cell_angle_beta   108.39437556
_cell_angle_gamma   90.00000000
_symmetry_Int_Tables_number   1
_chemical_formula_structural   Na6MnNi3(SbO6)2
_chemical_formula_sum   'Na6 Mn1 Ni3 Sb2 O12'
_cell_volume   275.31429906
_cell_formula_units_Z   1
loop_
 _symmetry_equiv_pos_site_id
 _symmetry_equiv_pos_as_xyz
  1  'x, y, z'
loop_
 _atom_site_type_symbol
 _atom_site_label
 _atom_site_symmetry_multiplicity
 _atom_site_fract_x
 _atom_site_fract_y
 _atom_site_fract_z
 _atom_site_occupancy
  Na  Na0  1  0.50000000  0.00131702  0.50000000  1
  Na  Na1  1  -0.00000000  0.17434322  0.50000000  1
  Na  Na2  1  -0.00000000  0.82774222  0.50000000  1
  Na  Na3  1  -0.00000000  0.49823823  0.50000000  1
  Na  Na4  1  0.50000000  0.67416115  0.50000000  1
  Na  Na5  1  0.50000000  0.32521068  0.50000000  1
  Mn  Mn6  1  -0.00000000  0.66602804  -0.00000000  1
  Ni  Ni7  1  0.50000000  0.83502966  -0.00000000  1
  Ni  Ni8  1  0.50000000  0.16607983  -0.00000000  1
  Ni  Ni9  1  -0.00000000  0.33224402  -0.00000000  1
  Sb  Sb10  1  -0.00000000  0.00299776  -0.00000000  1
  Sb  Sb11  1  0.50000000  0.49681062  -0.00000000  1
  O  O12  1  0.76930798  0.84750065  0.79227167  1
  O  O13  1  0.75044907  0.00015519  0.20163827  1
  O  O14  1  0.24955093  0.00015519  0.79836173  1
  O  O15  1  0.77357151  0.16033849  0.79764084  1
  O  O16  1  0.23069202  0.84750065  0.20772833  1
  O  O17  1  0.22642849  0.16033849  0.20235916  1
  O  O18  1  0.27122512  0.34009066  0.79755917  1
  O  O19  1  0.25730026  0.49437691  0.20704383  1
  O  O20  1  0.74269974  0.49437691  0.79295617  1
  O  O21  1  0.28286334  0.65743686  0.79157228  1
  O  O22  1  0.72877488  0.34009066  0.20244083  1
  O  O23  1  0.71713666  0.65743686  0.20842772  1
