# generated using pymatgen
data_K3Hg11
_symmetry_space_group_name_H-M   'P 1'
_cell_length_a   5.32016435
_cell_length_b   9.86504506
_cell_length_c   9.86504505
_cell_angle_alpha   67.55970730
_cell_angle_beta   74.35672332
_cell_angle_gamma   74.35672330
_symmetry_Int_Tables_number   1
_chemical_formula_structural   K3Hg11
_chemical_formula_sum   'K3 Hg11'
_cell_volume   452.66589664
_cell_formula_units_Z   1
loop_
 _symmetry_equiv_pos_site_id
 _symmetry_equiv_pos_as_xyz
  1  'x, y, z'
loop_
 _atom_site_type_symbol
 _atom_site_label
 _atom_site_symmetry_multiplicity
 _atom_site_fract_x
 _atom_site_fract_y
 _atom_site_fract_z
 _atom_site_occupancy
  K  K0  1  0.69311286  0.30688714  0.30688714  1
  K  K1  1  0.30688714  0.69311286  0.69311286  1
  K  K2  1  0.00000000  0.00000000  0.00000000  1
  Hg  Hg3  1  0.86617033  0.41862544  0.84903390  1
  Hg  Hg4  1  0.66939173  0.97021576  0.69100077  1
  Hg  Hg5  1  0.33060827  0.02978424  0.30899923  1
  Hg  Hg6  1  0.33060827  0.30899923  0.02978424  1
  Hg  Hg7  1  0.66939173  0.69100077  0.97021576  1
  Hg  Hg8  1  0.50000000  0.70009195  0.29990805  1
  Hg  Hg9  1  0.50000000  0.29990805  0.70009195  1
  Hg  Hg10  1  0.00000000  0.50000000  0.50000000  1
  Hg  Hg11  1  0.13382967  0.58137456  0.15096610  1
  Hg  Hg12  1  0.13382967  0.15096610  0.58137456  1
  Hg  Hg13  1  0.86617033  0.84903390  0.41862544  1
