# generated using pymatgen
data_Li9Co3P8O29
_symmetry_space_group_name_H-M   'P 1'
_cell_length_a   9.83481363
_cell_length_b   9.83270425
_cell_length_c   13.74438773
_cell_angle_alpha   90.13334994
_cell_angle_beta   89.86060578
_cell_angle_gamma   120.20412438
_symmetry_Int_Tables_number   1
_chemical_formula_structural   Li9Co3P8O29
_chemical_formula_sum   'Li18 Co6 P16 O58'
_cell_volume   1148.67329467
_cell_formula_units_Z   2
loop_
 _symmetry_equiv_pos_site_id
 _symmetry_equiv_pos_as_xyz
  1  'x, y, z'
loop_
 _atom_site_type_symbol
 _atom_site_label
 _atom_site_symmetry_multiplicity
 _atom_site_fract_x
 _atom_site_fract_y
 _atom_site_fract_z
 _atom_site_occupancy
  Li  Li0  1  0.10057527  0.76169345  0.93706004  1
  Li  Li1  1  0.23825900  0.89944628  0.43715974  1
  Li  Li2  1  0.09420906  0.32439500  0.43504199  1
  Li  Li3  1  0.33475426  0.66737049  0.61970381  1
  Li  Li4  1  0.33271053  0.66542955  0.11968242  1
  Li  Li5  1  0.00141646  0.97424667  0.50087679  1
  Li  Li6  1  0.23691976  0.33651862  0.93629388  1
  Li  Li7  1  0.67556785  0.90573490  0.93508043  1
  Li  Li8  1  0.32767178  0.23070272  0.56427911  1
  Li  Li9  1  0.66320427  0.76285961  0.43621894  1
  Li  Li10  1  0.33921573  0.09958615  0.06402096  1
  Li  Li11  1  0.76915220  0.67199297  0.06418494  1
  Li  Li12  1  0.66797704  0.33472908  0.38027504  1
  Li  Li13  1  0.66517278  0.33210734  0.88023589  1
  Li  Li14  1  0.90033545  0.66066556  0.56393940  1
  Li  Li15  1  0.76445491  0.09780458  0.56279531  1
  Li  Li16  1  0.90234452  0.23553335  0.06276235  1
  Li  Li17  1  0.02511630  0.99765884  0.00120814  1
  Co  Co18  1  0.00058079  0.56351650  0.74982804  1
  Co  Co19  1  0.43805850  0.43885264  0.74875292  1
  Co  Co20  1  0.56121135  0.56194258  0.24869519  1
  Co  Co21  1  0.43668757  0.99954242  0.24995929  1
  Co  Co22  1  0.56367233  0.00140584  0.75086362  1
  Co  Co23  1  0.99866650  0.43633260  0.25075810  1
  P  P24  1  0.09270468  0.77493601  0.15672054  1
  P  P25  1  0.22504065  0.90725742  0.65679145  1
  P  P26  1  0.09141853  0.32084698  0.65441935  1
  P  P27  1  0.33145311  0.66612696  0.37317135  1
  P  P28  1  0.33401240  0.66854116  0.87320268  1
  P  P29  1  0.22408327  0.31383384  0.15610146  1
  P  P30  1  0.31674612  0.22391743  0.34446899  1
  P  P31  1  0.67927482  0.90861232  0.15443138  1
  P  P32  1  0.31618339  0.09136436  0.84432195  1
  P  P33  1  0.68617171  0.77590543  0.65602644  1
  P  P34  1  0.77599518  0.68321440  0.84441156  1
  P  P35  1  0.66640952  0.33415622  0.62669037  1
  P  P36  1  0.66600106  0.33362571  0.12669203  1
  P  P37  1  0.90861502  0.68369284  0.34428874  1
  P  P38  1  0.76943314  0.08960150  0.34429479  1
  P  P39  1  0.91042895  0.23078499  0.84429945  1
  O  O40  1  0.00339345  0.78803649  0.25139292  1
  O  O41  1  0.00280322  0.77451469  0.43421622  1
  O  O42  1  0.07520956  0.74599162  0.65462461  1
  O  O43  1  0.22547331  0.99711241  0.93428067  1
  O  O44  1  0.25380654  0.92477106  0.15458398  1
  O  O45  1  0.11036295  0.62873848  0.16714304  1
  O  O46  1  0.18890647  0.67548828  0.83263088  1
  O  O47  1  0.11308112  0.48702038  0.66540353  1
  O  O48  1  0.00697690  0.23906162  0.93283252  1
  O  O49  1  0.00070846  0.21886491  0.74939194  1
  O  O50  1  0.07486454  0.32526543  0.15678815  1
  O  O51  1  0.32444097  0.81132941  0.33269474  1
  O  O52  1  0.37133180  0.88982377  0.66704438  1
  O  O53  1  0.18316034  0.51136089  0.33719145  1
  O  O54  1  0.32632545  0.66498071  0.98317961  1
  O  O55  1  0.33522694  0.67376459  0.48314952  1
  O  O56  1  0.33117467  0.51709412  0.83461560  1
  O  O57  1  0.51337296  0.88759224  0.16508133  1
  O  O58  1  0.48885294  0.81677020  0.83718266  1
  O  O59  1  0.25239505  0.33247821  0.65268589  1
  O  O60  1  0.21512656  0.21130882  0.24950409  1
  O  O61  1  0.22403846  0.22588370  0.43298500  1
  O  O62  1  0.22698512  0.22249787  0.06647320  1
  O  O63  1  0.37014777  0.47949151  0.16520670  1
  O  O64  1  0.48276273  0.66898330  0.33441012  1
  O  O65  1  0.52056335  0.62976626  0.66504956  1
  O  O66  1  0.32688461  0.25160608  0.84373275  1
  O  O67  1  0.67480135  0.92516629  0.65677340  1
  O  O68  1  0.21183103  0.99650747  0.75144325  1
  O  O69  1  0.22767958  0.00177557  0.56794388  1
  O  O70  1  0.76110540  0.99297798  0.43282594  1
  O  O71  1  0.32862988  0.07469310  0.34592019  1
  O  O72  1  0.66725323  0.74739124  0.15268063  1
  O  O73  1  0.48121615  0.37136811  0.33422782  1
  O  O74  1  0.51186669  0.32694392  0.66338657  1
  O  O75  1  0.62873135  0.51866165  0.83402675  1
  O  O76  1  0.77378475  0.77574043  0.93296946  1
  O  O77  1  0.77753624  0.77297405  0.56640595  1
  O  O78  1  0.78865405  0.78489328  0.74945415  1
  O  O79  1  0.74837819  0.67292085  0.34366495  1
  O  O80  1  0.51309795  0.18780688  0.16692421  1
  O  O81  1  0.48077152  0.11040392  0.83441053  1
  O  O82  1  0.67338219  0.48820113  0.16353686  1
  O  O83  1  0.67182477  0.33716958  0.51668755  1
  O  O84  1  0.66252534  0.32841205  0.01670360  1
  O  O85  1  0.81209558  0.48718583  0.66681210  1
  O  O86  1  0.62500309  0.11115194  0.33406886  1
  O  O87  1  0.67006223  0.18606292  0.66496852  1
  O  O88  1  0.92530840  0.67153709  0.84586184  1
  O  O89  1  0.99801294  0.77207164  0.06791386  1
  O  O90  1  0.88981574  0.51913163  0.33452704  1
  O  O91  1  0.81402011  0.32971643  0.16474696  1
  O  O92  1  0.88927970  0.37550399  0.83422764  1
  O  O93  1  0.74925635  0.08104552  0.84603287  1
  O  O94  1  0.76892357  0.00515301  0.06602118  1
  O  O95  1  0.78122990  0.99915478  0.24941349  1
  O  O96  1  0.91920912  0.25068615  0.34594149  1
  O  O97  1  0.99473658  0.23151325  0.56600654  1
