# generated using pymatgen
data_Ba2U(PO5)2
_symmetry_space_group_name_H-M   'P 1'
_cell_length_a   5.53334701
_cell_length_b   7.00171824
_cell_length_c   7.14410131
_cell_angle_alpha   101.47412574
_cell_angle_beta   90.00000000
_cell_angle_gamma   113.27483553
_symmetry_Int_Tables_number   1
_chemical_formula_structural   Ba2U(PO5)2
_chemical_formula_sum   'Ba2 U1 P2 O10'
_cell_volume   248.22576673
_cell_formula_units_Z   1
loop_
 _symmetry_equiv_pos_site_id
 _symmetry_equiv_pos_as_xyz
  1  'x, y, z'
loop_
 _atom_site_type_symbol
 _atom_site_label
 _atom_site_symmetry_multiplicity
 _atom_site_fract_x
 _atom_site_fract_y
 _atom_site_fract_z
 _atom_site_occupancy
  Ba  Ba0  1  0.16113582  0.32227164  0.20293678  1
  Ba  Ba1  1  0.83886418  0.67772836  0.79706322  1
  U  U2  1  0.50000000  -0.00000000  0.50000000  1
  P  P3  1  0.14370115  0.28740230  0.72263826  1
  P  P4  1  0.85629885  0.71259770  0.27736174  1
  O  O5  1  0.46777596  0.93555192  0.73610786  1
  O  O6  1  0.53222404  0.06444808  0.26389214  1
  O  O7  1  0.91209758  0.27408039  0.58352378  1
  O  O8  1  0.36198281  0.27408039  0.58352378  1
  O  O9  1  0.08790242  0.72591961  0.41647622  1
  O  O10  1  0.63801719  0.72591961  0.41647622  1
  O  O11  1  0.25161546  0.50323092  0.86542416  1
  O  O12  1  0.74838454  0.49676908  0.13457584  1
  O  O13  1  0.05006410  0.10012819  0.82238546  1
  O  O14  1  0.94993590  0.89987181  0.17761454  1
