# generated using pymatgen
data_Yb(P2Rh3)2
_symmetry_space_group_name_H-M   'P 1'
_cell_length_a   3.71474583
_cell_length_b   7.01851079
_cell_length_c   7.01637211
_cell_angle_alpha   120.00902590
_cell_angle_beta   90.00736815
_cell_angle_gamma   89.99572332
_symmetry_Int_Tables_number   1
_chemical_formula_structural   Yb(P2Rh3)2
_chemical_formula_sum   'Yb1 P4 Rh6'
_cell_volume   158.40825534
_cell_formula_units_Z   1
loop_
 _symmetry_equiv_pos_site_id
 _symmetry_equiv_pos_as_xyz
  1  'x, y, z'
loop_
 _atom_site_type_symbol
 _atom_site_label
 _atom_site_symmetry_multiplicity
 _atom_site_fract_x
 _atom_site_fract_y
 _atom_site_fract_z
 _atom_site_occupancy
  Yb  Yb0  1  0.00291056  0.00002275  0.00000928  1
  P  P1  1  0.00391714  0.66665175  0.33333469  1
  P  P2  1  0.50334391  0.62417037  0.80725856  1
  P  P3  1  0.50334142  0.19269788  0.81685082  1
  P  P4  1  0.50338604  0.18312425  0.37587675  1
  Rh  Rh5  1  0.00375057  0.06766776  0.51955168  1
  Rh  Rh6  1  0.00342726  0.48042001  0.54816939  1
  Rh  Rh7  1  0.00361393  0.45180812  0.93218522  1
  Rh  Rh8  1  0.50347522  0.39579936  0.20636938  1
  Rh  Rh9  1  0.50326012  0.79379000  0.18970157  1
  Rh  Rh10  1  0.50345382  0.81044775  0.60399266  1
