# generated using pymatgen
data_Pr2Te5
_symmetry_space_group_name_H-M   'P 1'
_cell_length_a   4.46517983
_cell_length_b   4.46476581
_cell_length_c   22.65240916
_cell_angle_alpha   90.00000000
_cell_angle_beta   95.65617475
_cell_angle_gamma   90.00000000
_symmetry_Int_Tables_number   1
_chemical_formula_structural   Pr2Te5
_chemical_formula_sum   'Pr4 Te10'
_cell_volume   449.39930797
_cell_formula_units_Z   2
loop_
 _symmetry_equiv_pos_site_id
 _symmetry_equiv_pos_as_xyz
  1  'x, y, z'
loop_
 _atom_site_type_symbol
 _atom_site_label
 _atom_site_symmetry_multiplicity
 _atom_site_fract_x
 _atom_site_fract_y
 _atom_site_fract_z
 _atom_site_occupancy
  Pr  Pr0  1  0.09771388  0.75000000  0.19542776  1
  Pr  Pr1  1  0.90228612  0.25000000  0.80457224  1
  Pr  Pr2  1  0.30675595  0.75000000  0.61351191  1
  Pr  Pr3  1  0.69324405  0.25000000  0.38648809  1
  Te  Te4  1  0.95861601  0.75000000  0.91723202  1
  Te  Te5  1  0.04138399  0.25000000  0.08276798  1
  Te  Te6  1  0.54183902  0.75000000  0.08367805  1
  Te  Te7  1  0.45816098  0.25000000  0.91632195  1
  Te  Te8  1  0.74998636  0.75000000  0.49997271  1
  Te  Te9  1  0.25001364  0.25000000  0.50002729  1
  Te  Te10  1  0.17258569  0.75000000  0.34517137  1
  Te  Te11  1  0.82741431  0.25000000  0.65482863  1
  Te  Te12  1  0.38019339  0.75000000  0.76038678  1
  Te  Te13  1  0.61980661  0.25000000  0.23961322  1
