# generated using pymatgen
data_MoPO5
_symmetry_space_group_name_H-M   'P 1'
_cell_length_a   5.30272296
_cell_length_b   5.30272296
_cell_length_c   7.46640163
_cell_angle_alpha   70.18945987
_cell_angle_beta   70.18945987
_cell_angle_gamma   89.30727083
_symmetry_Int_Tables_number   1
_chemical_formula_structural   MoPO5
_chemical_formula_sum   'Mo2 P2 O10'
_cell_volume   184.57532679
_cell_formula_units_Z   2
loop_
 _symmetry_equiv_pos_site_id
 _symmetry_equiv_pos_as_xyz
  1  'x, y, z'
loop_
 _atom_site_type_symbol
 _atom_site_label
 _atom_site_symmetry_multiplicity
 _atom_site_fract_x
 _atom_site_fract_y
 _atom_site_fract_z
 _atom_site_occupancy
  Mo  Mo0  1  0.24083915  0.76720013  0.99535554  1
  Mo  Mo1  1  0.76720013  0.24083915  0.49535554  1
  P  P2  1  0.59595373  0.84369318  0.27858637  1
  P  P3  1  0.84369318  0.59595373  0.77858637  1
  O  O4  1  0.39855467  0.04651894  0.77326520  1
  O  O5  1  0.04651894  0.39855467  0.27326520  1
  O  O6  1  0.87678639  0.88706913  0.10966131  1
  O  O7  1  0.88706913  0.87678639  0.60966131  1
  O  O8  1  0.57005693  0.06848706  0.36981980  1
  O  O9  1  0.06848706  0.57005693  0.86981980  1
  O  O10  1  0.36888692  0.87079974  0.19006589  1
  O  O11  1  0.87079974  0.36888692  0.69006589  1
  O  O12  1  0.55661090  0.56214313  0.44557588  1
  O  O13  1  0.56214313  0.55661090  0.94557588  1
