# generated using pymatgen
data_La2Te5
_symmetry_space_group_name_H-M   'P 1'
_cell_length_a   4.48239847
_cell_length_b   4.47844728
_cell_length_c   22.80714459
_cell_angle_alpha   90.00000000
_cell_angle_beta   95.63941078
_cell_angle_gamma   90.00000000
_symmetry_Int_Tables_number   1
_chemical_formula_structural   La2Te5
_chemical_formula_sum   'La4 Te10'
_cell_volume   455.61894402
_cell_formula_units_Z   2
loop_
 _symmetry_equiv_pos_site_id
 _symmetry_equiv_pos_as_xyz
  1  'x, y, z'
loop_
 _atom_site_type_symbol
 _atom_site_label
 _atom_site_symmetry_multiplicity
 _atom_site_fract_x
 _atom_site_fract_y
 _atom_site_fract_z
 _atom_site_occupancy
  La  La0  1  0.90198210  0.75000000  0.80396419  1
  La  La1  1  0.09801790  0.25000000  0.19603581  1
  La  La2  1  0.69286904  0.75000000  0.38573807  1
  La  La3  1  0.30713096  0.25000000  0.61426193  1
  Te  Te4  1  0.04137607  0.75000000  0.08275215  1
  Te  Te5  1  0.95862393  0.25000000  0.91724785  1
  Te  Te6  1  0.45811402  0.75000000  0.91622803  1
  Te  Te7  1  0.54188598  0.25000000  0.08377197  1
  Te  Te8  1  0.24996004  0.75000000  0.49992007  1
  Te  Te9  1  0.75003996  0.25000000  0.50007993  1
  Te  Te10  1  0.82647203  0.75000000  0.65294405  1
  Te  Te11  1  0.17352797  0.25000000  0.34705595  1
  Te  Te12  1  0.61925704  0.75000000  0.23851407  1
  Te  Te13  1  0.38074296  0.25000000  0.76148593  1
