# generated using pymatgen
data_Ba5P4
_symmetry_space_group_name_H-M   'P 1'
_cell_length_a   8.43617927
_cell_length_b   8.52067332
_cell_length_c   9.36516896
_cell_angle_alpha   90.00000000
_cell_angle_beta   116.76947056
_cell_angle_gamma   90.00000000
_symmetry_Int_Tables_number   1
_chemical_formula_structural   Ba5P4
_chemical_formula_sum   'Ba10 P8'
_cell_volume   601.03827591
_cell_formula_units_Z   2
loop_
 _symmetry_equiv_pos_site_id
 _symmetry_equiv_pos_as_xyz
  1  'x, y, z'
loop_
 _atom_site_type_symbol
 _atom_site_label
 _atom_site_symmetry_multiplicity
 _atom_site_fract_x
 _atom_site_fract_y
 _atom_site_fract_z
 _atom_site_occupancy
  Ba  Ba0  1  0.02046736  0.66212102  0.70545424  1
  Ba  Ba1  1  0.68498687  0.33787898  0.70545424  1
  Ba  Ba2  1  0.18498687  0.16212102  0.70545424  1
  Ba  Ba3  1  0.52046736  0.83787898  0.70545424  1
  Ba  Ba4  1  0.97953264  0.33787898  0.29454576  1
  Ba  Ba5  1  0.31501313  0.66212102  0.29454576  1
  Ba  Ba6  1  0.81501313  0.83787898  0.29454576  1
  Ba  Ba7  1  0.47953264  0.16212102  0.29454576  1
  Ba  Ba8  1  0.50000000  0.50000000  -0.00000000  1
  Ba  Ba9  1  0.00000000  -0.00000000  -0.00000000  1
  P  P10  1  0.30327989  0.50000000  0.60655977  1
  P  P11  1  0.80327989  0.00000000  0.60655977  1
  P  P12  1  0.69672011  0.50000000  0.39344023  1
  P  P13  1  0.19672011  0.00000000  0.39344023  1
  P  P14  1  0.40298116  0.90476179  -0.00000000  1
  P  P15  1  0.59701884  0.09523821  -0.00000000  1
  P  P16  1  0.09701884  0.40476179  -0.00000000  1
  P  P17  1  0.90298116  0.59523821  -0.00000000  1
