# generated using pymatgen
data_ZnCu2GeS4
_symmetry_space_group_name_H-M   'P 1'
_cell_length_a   6.20884273
_cell_length_b   6.53823855
_cell_length_c   7.46987094
_cell_angle_alpha   90.00000000
_cell_angle_beta   90.00000000
_cell_angle_gamma   90.00000000
_symmetry_Int_Tables_number   1
_chemical_formula_structural   ZnCu2GeS4
_chemical_formula_sum   'Zn2 Cu4 Ge2 S8'
_cell_volume   303.23862564
_cell_formula_units_Z   2
loop_
 _symmetry_equiv_pos_site_id
 _symmetry_equiv_pos_as_xyz
  1  'x, y, z'
loop_
 _atom_site_type_symbol
 _atom_site_label
 _atom_site_symmetry_multiplicity
 _atom_site_fract_x
 _atom_site_fract_y
 _atom_site_fract_z
 _atom_site_occupancy
  Zn  Zn0  1  0.99857053  0.15310181  0.50000000  1
  Zn  Zn1  1  0.49857053  0.84689819  0.00000000  1
  Cu  Cu2  1  0.50726605  0.32752845  0.25232617  1
  Cu  Cu3  1  0.50726605  0.32752845  0.74767383  1
  Cu  Cu4  1  0.00726605  0.67247155  0.24767383  1
  Cu  Cu5  1  0.00726605  0.67247155  0.75232617  1
  Ge  Ge6  1  0.49916377  0.82941218  0.50000000  1
  Ge  Ge7  1  0.99916377  0.17058782  -0.00000000  1
  S  S8  1  0.86486664  0.81963229  0.50000000  1
  S  S9  1  0.36486664  0.18036771  0.00000000  1
  S  S10  1  0.37866870  0.15544669  0.50000000  1
  S  S11  1  0.87866870  0.84455331  -0.00000000  1
  S  S12  1  0.87659913  0.33959087  0.24539277  1
  S  S13  1  0.87659913  0.33959087  0.75460723  1
  S  S14  1  0.37659913  0.66040913  0.25460723  1
  S  S15  1  0.37659913  0.66040913  0.74539277  1
