# generated using pymatgen
data_Tl(TeMo)3
_symmetry_space_group_name_H-M   'P 1'
_cell_length_a   4.61173022
_cell_length_b   9.77111550
_cell_length_c   9.68046646
_cell_angle_alpha   119.44189371
_cell_angle_beta   90.00000000
_cell_angle_gamma   90.00000000
_symmetry_Int_Tables_number   1
_chemical_formula_structural   Tl(TeMo)3
_chemical_formula_sum   'Tl2 Te6 Mo6'
_cell_volume   379.88311836
_cell_formula_units_Z   2
loop_
 _symmetry_equiv_pos_site_id
 _symmetry_equiv_pos_as_xyz
  1  'x, y, z'
loop_
 _atom_site_type_symbol
 _atom_site_label
 _atom_site_symmetry_multiplicity
 _atom_site_fract_x
 _atom_site_fract_y
 _atom_site_fract_z
 _atom_site_occupancy
  Tl  Tl0  1  0.75000000  0.66439978  0.33105604  1
  Tl  Tl1  1  0.25000000  0.33560022  0.66894396  1
  Te  Te2  1  0.75000000  0.64781319  0.68960570  1
  Te  Te3  1  0.75000000  0.30990087  -0.04736209  1
  Te  Te4  1  0.75000000  0.04297725  0.35787775  1
  Te  Te5  1  0.25000000  0.35218681  0.31039430  1
  Te  Te6  1  0.25000000  0.69009913  0.04736209  1
  Te  Te7  1  0.25000000  -0.04297725  0.64212225  1
  Mo  Mo8  1  0.75000000  -0.01974168  0.83202360  1
  Mo  Mo9  1  0.75000000  0.16547563  0.14615798  1
  Mo  Mo10  1  0.75000000  0.85440327  0.02192065  1
  Mo  Mo11  1  0.25000000  0.01974168  0.16797640  1
  Mo  Mo12  1  0.25000000  0.83452437  0.85384202  1
  Mo  Mo13  1  0.25000000  0.14559673  -0.02192065  1
