# generated using pymatgen
data_Ho3Ni13B2
_symmetry_space_group_name_H-M   'P 1'
_cell_length_a   4.91262503
_cell_length_b   4.90637895
_cell_length_c   10.86537298
_cell_angle_alpha   90.00008310
_cell_angle_beta   89.99983402
_cell_angle_gamma   120.04211900
_symmetry_Int_Tables_number   1
_chemical_formula_structural   Ho3Ni13B2
_chemical_formula_sum   'Ho3 Ni13 B2'
_cell_volume   226.70729602
_cell_formula_units_Z   1
loop_
 _symmetry_equiv_pos_site_id
 _symmetry_equiv_pos_as_xyz
  1  'x, y, z'
loop_
 _atom_site_type_symbol
 _atom_site_label
 _atom_site_symmetry_multiplicity
 _atom_site_fract_x
 _atom_site_fract_y
 _atom_site_fract_z
 _atom_site_occupancy
  Ho  Ho0  1  -0.00000755  0.00000000  0.99997603  1
  Ho  Ho1  1  0.99999086  -0.00000000  0.32945752  1
  Ho  Ho2  1  0.00000481  1.00000000  0.67054945  1
  Ni  Ni3  1  0.50000981  0.00000000  0.50003266  1
  Ni  Ni4  1  0.50000634  0.50000718  0.50002813  1
  Ni  Ni5  1  -0.00000084  0.49999282  0.50002813  1
  Ni  Ni6  1  0.33339314  0.66678737  0.31914616  1
  Ni  Ni7  1  0.66660577  0.33321263  0.31914616  1
  Ni  Ni8  1  0.66659553  0.33317082  0.68081117  1
  Ni  Ni9  1  0.33342472  0.66682918  0.68081117  1
  Ni  Ni10  1  0.49998410  -0.00000000  0.13416106  1
  Ni  Ni11  1  0.49997411  0.50000151  0.13413827  1
  Ni  Ni12  1  0.99997260  0.49999849  0.13413827  1
  Ni  Ni13  1  0.50000221  0.00000000  0.86587292  1
  Ni  Ni14  1  0.49998900  0.50000932  0.86586928  1
  Ni  Ni15  1  0.99997968  0.49999068  0.86586928  1
  B  B16  1  0.33329983  0.66662394  -0.00001782  1
  B  B17  1  0.66667589  0.33337606  -0.00001782  1
