# generated using pymatgen
data_KAu(IO3)4
_symmetry_space_group_name_H-M   'P 1'
_cell_length_a   5.68732401
_cell_length_b   7.43188023
_cell_length_c   8.51493381
_cell_angle_alpha   107.49540510
_cell_angle_beta   90.00000000
_cell_angle_gamma   112.49670303
_symmetry_Int_Tables_number   1
_chemical_formula_structural   KAu(IO3)4
_chemical_formula_sum   'K1 Au1 I4 O12'
_cell_volume   314.42111922
_cell_formula_units_Z   1
loop_
 _symmetry_equiv_pos_site_id
 _symmetry_equiv_pos_as_xyz
  1  'x, y, z'
loop_
 _atom_site_type_symbol
 _atom_site_label
 _atom_site_symmetry_multiplicity
 _atom_site_fract_x
 _atom_site_fract_y
 _atom_site_fract_z
 _atom_site_occupancy
  K  K0  1  0.01186911  1.00000000  1.00000000  1
  Au  Au1  1  0.20264791  0.00000000  0.50000000  1
  I  I2  1  0.35847437  0.69982733  0.65934322  1
  I  I3  1  0.65864704  0.30017267  0.34065678  1
  I  I4  1  0.27071372  0.63799008  0.16565150  1
  I  I5  1  0.63272364  0.36200992  0.83434850  1
  O  O6  1  0.51415373  0.69988815  0.47210533  1
  O  O7  1  0.81426558  0.30011185  0.52789467  1
  O  O8  1  0.55932101  0.95221217  0.80367412  1
  O  O9  1  0.60710885  0.04778783  0.19632588  1
  O  O10  1  0.08394061  0.76646347  0.59695587  1
  O  O11  1  0.31747714  0.23353653  0.40304413  1
  O  O12  1  0.05754856  0.39575023  0.19070064  1
  O  O13  1  0.66179833  0.60424977  0.80929936  1
  O  O14  1  0.12714059  0.60479627  0.96117287  1
  O  O15  1  0.52234432  0.39520373  0.03882713  1
  O  O16  1  0.08026229  0.79527908  0.26988550  1
  O  O17  1  0.28498320  0.20472092  0.73011450  1
