# generated using pymatgen
data_K2Dy4Cu4S9
_symmetry_space_group_name_H-M   'P 1'
_cell_length_a   3.95200636
_cell_length_b   7.16282871
_cell_length_c   15.19283404
_cell_angle_alpha   82.44433770
_cell_angle_beta   82.44021870
_cell_angle_gamma   74.03091428
_symmetry_Int_Tables_number   1
_chemical_formula_structural   K2Dy4Cu4S9
_chemical_formula_sum   'K2 Dy4 Cu4 S9'
_cell_volume   407.82751308
_cell_formula_units_Z   1
loop_
 _symmetry_equiv_pos_site_id
 _symmetry_equiv_pos_as_xyz
  1  'x, y, z'
loop_
 _atom_site_type_symbol
 _atom_site_label
 _atom_site_symmetry_multiplicity
 _atom_site_fract_x
 _atom_site_fract_y
 _atom_site_fract_z
 _atom_site_occupancy
  K  K0  1  0.02448869  0.70928689  0.23189123  1
  K  K1  1  0.97028998  0.28351873  0.77068401  1
  Dy  Dy2  1  0.65502392  0.74325593  0.94496102  1
  Dy  Dy3  1  0.34217443  0.25360458  0.05463985  1
  Dy  Dy4  1  0.76806206  0.86205967  0.60389664  1
  Dy  Dy5  1  0.23677606  0.13918470  0.39530811  1
  Cu  Cu6  1  0.24278091  0.73611551  0.77091224  1
  Cu  Cu7  1  0.75125984  0.26182547  0.22776843  1
  Cu  Cu8  1  0.57638272  0.32191088  0.53877703  1
  Cu  Cu9  1  0.43120349  0.68017487  0.46071709  1
  S  S10  1  0.14114744  0.15053709  0.57539032  1
  S  S11  1  0.86556788  0.85050029  0.42365365  1
  S  S12  1  0.34643960  0.07900734  0.22164884  1
  S  S13  1  0.39118307  0.59239842  0.62594960  1
  S  S14  1  0.69737479  0.49548066  0.10308494  1
  S  S15  1  0.30144075  0.50209605  0.89618458  1
  S  S16  1  0.65037673  0.92011466  0.77804474  1
  S  S17  1  0.61334209  0.40902713  0.37313992  1
  S  S18  1  0.99877354  0.99746411  0.00037674  1
