# generated using pymatgen
data_Sm9Ga4
_symmetry_space_group_name_H-M   'P 1'
_cell_length_a   5.12766432
_cell_length_b   8.82328415
_cell_length_c   8.82328415
_cell_angle_alpha   85.15650714
_cell_angle_beta   73.10757327
_cell_angle_gamma   73.10757320
_symmetry_Int_Tables_number   1
_chemical_formula_structural   Sm9Ga4
_chemical_formula_sum   'Sm9 Ga4'
_cell_volume   365.48508286
_cell_formula_units_Z   1
loop_
 _symmetry_equiv_pos_site_id
 _symmetry_equiv_pos_as_xyz
  1  'x, y, z'
loop_
 _atom_site_type_symbol
 _atom_site_label
 _atom_site_symmetry_multiplicity
 _atom_site_fract_x
 _atom_site_fract_y
 _atom_site_fract_z
 _atom_site_occupancy
  Ga  Ga0  1  0.38716276  0.88099489  0.34467960  1
  Ga  Ga1  1  0.73184235  0.65532040  0.88099489  1
  Ga  Ga2  1  0.26815765  0.34467960  0.11900511  1
  Ga  Ga3  1  0.61283724  0.11900511  0.65532040  1
  Sm  Sm4  1  0.50000000  0.00000000  0.00000000  1
  Sm  Sm5  1  0.12405720  0.28073423  0.47115138  1
  Sm  Sm6  1  0.59520858  0.52884862  0.28073423  1
  Sm  Sm7  1  0.40479142  0.47115138  0.71926577  1
  Sm  Sm8  1  0.87594280  0.71926577  0.52884862  1
  Sm  Sm9  1  0.18450912  0.92567547  0.70530629  1
  Sm  Sm10  1  0.88981541  0.29469371  0.92567547  1
  Sm  Sm11  1  0.11018459  0.70530629  0.07432453  1
  Sm  Sm12  1  0.81549088  0.07432453  0.29469371  1
