# generated using pymatgen
data_KCuH3
_symmetry_space_group_name_H-M   'P 1'
_cell_length_a   6.97281281
_cell_length_b   8.23808077
_cell_length_c   8.24447409
_cell_angle_alpha   90.00392610
_cell_angle_beta   89.99015273
_cell_angle_gamma   89.98611502
_symmetry_Int_Tables_number   1
_chemical_formula_structural   KCuH3
_chemical_formula_sum   'K8 Cu8 H24'
_cell_volume   473.58396507
_cell_formula_units_Z   8
loop_
 _symmetry_equiv_pos_site_id
 _symmetry_equiv_pos_as_xyz
  1  'x, y, z'
loop_
 _atom_site_type_symbol
 _atom_site_label
 _atom_site_symmetry_multiplicity
 _atom_site_fract_x
 _atom_site_fract_y
 _atom_site_fract_z
 _atom_site_occupancy
  K  K0  1  0.25000759  0.25047982  0.25015160  1
  K  K1  1  0.24991926  0.74953945  0.74998821  1
  K  K2  1  0.24995536  0.74971985  0.25013439  1
  K  K3  1  0.75014811  0.25039230  0.24998178  1
  K  K4  1  0.75002987  0.74973793  0.24998911  1
  K  K5  1  0.24998202  0.25028642  0.74998723  1
  K  K6  1  0.75005756  0.25025087  0.74989346  1
  K  K7  1  0.74996188  0.74954467  0.74989363  1
  Cu  Cu8  1  0.50004094  0.00012059  0.49998188  1
  Cu  Cu9  1  0.00004085  0.99998710  0.50004185  1
  Cu  Cu10  1  0.50003378  0.49998183  0.50002006  1
  Cu  Cu11  1  0.99986038  0.00007766  0.00008576  1
  Cu  Cu12  1  0.50000232  0.49997573  0.99998342  1
  Cu  Cu13  1  0.49997169  0.00006209  -0.00001327  1
  Cu  Cu14  1  0.00000398  0.49998245  0.00007947  1
  Cu  Cu15  1  0.99991666  0.49995941  0.49999303  1
  H  H16  1  0.49995365  0.49991613  0.30993909  1
  H  H17  1  0.24836102  0.00006560  0.99995647  1
  H  H18  1  0.00026108  0.81010170  0.99997662  1
  H  H19  1  0.74973659  0.50005447  0.50001544  1
  H  H20  1  0.49988889  0.00012445  0.81034330  1
  H  H21  1  0.49976626  0.30952969  0.00001522  1
  H  H22  1  0.75156045  0.99994725  0.99999364  1
  H  H23  1  0.99977569  0.30970944  0.49999101  1
  H  H24  1  0.74890328  0.00005299  0.50002298  1
  H  H25  1  0.25027047  0.49993744  0.49999333  1
  H  H26  1  0.49978629  0.19029310  0.50002825  1
  H  H27  1  0.25034913  0.50004752  0.99996951  1
  H  H28  1  0.00005540  0.50006749  0.80945160  1
  H  H29  1  0.50023667  0.80976303  0.49998654  1
  H  H30  1  0.99980762  0.18982603  0.99997030  1
  H  H31  1  0.00025627  0.69024911  0.50001752  1
  H  H32  1  0.25112362  0.99993354  0.49998944  1
  H  H33  1  0.99996528  0.00008131  0.68988833  1
  H  H34  1  0.50023641  0.69038733  0.99999095  1
  H  H35  1  0.50005634  0.50008046  0.69008488  1
  H  H36  1  0.74967841  0.49995129  0.99998859  1
  H  H37  1  0.00006671  0.99990362  0.31017213  1
  H  H38  1  0.49999112  0.99995877  0.18957600  1
  H  H39  1  0.99998311  0.49991808  0.19044527  1
