# generated using pymatgen
data_Tb2Co3Si5
_symmetry_space_group_name_H-M   'P 1'
_cell_length_a   5.55144312
_cell_length_b   7.92304254
_cell_length_c   7.92304254
_cell_angle_alpha   74.55220507
_cell_angle_beta   69.49217079
_cell_angle_gamma   69.49217079
_symmetry_Int_Tables_number   1
_chemical_formula_structural   Tb2Co3Si5
_chemical_formula_sum   'Tb4 Co6 Si10'
_cell_volume   301.59273747
_cell_formula_units_Z   2
loop_
 _symmetry_equiv_pos_site_id
 _symmetry_equiv_pos_as_xyz
  1  'x, y, z'
loop_
 _atom_site_type_symbol
 _atom_site_label
 _atom_site_symmetry_multiplicity
 _atom_site_fract_x
 _atom_site_fract_y
 _atom_site_fract_z
 _atom_site_occupancy
  Tb  Tb0  1  0.36604728  0.40030727  0.86759816  1
  Tb  Tb1  1  0.63395272  0.59969273  0.13240184  1
  Tb  Tb2  1  0.86604728  0.86759816  0.40030727  1
  Tb  Tb3  1  0.13395272  0.13240184  0.59969273  1
  Co  Co4  1  0.25000000  0.00000000  0.00000000  1
  Co  Co5  1  0.75000000  0.00000000  0.00000000  1
  Co  Co6  1  0.13828615  0.46958991  0.25383779  1
  Co  Co7  1  0.86171385  0.53041009  0.74616221  1
  Co  Co8  1  0.63828615  0.25383779  0.46958991  1
  Co  Co9  1  0.36171385  0.74616221  0.53041009  1
  Si  Si10  1  0.25000000  0.50000000  0.50000000  1
  Si  Si11  1  0.75000000  0.50000000  0.50000000  1
  Si  Si12  1  0.02298566  0.22701434  0.22701434  1
  Si  Si13  1  0.47701434  0.77298566  0.77298566  1
  Si  Si14  1  0.97701434  0.77298566  0.77298566  1
  Si  Si15  1  0.52298566  0.22701434  0.22701434  1
  Si  Si16  1  0.10071835  0.74175026  0.05681304  1
  Si  Si17  1  0.89928165  0.25824974  0.94318696  1
  Si  Si18  1  0.60071835  0.05681304  0.74175026  1
  Si  Si19  1  0.39928165  0.94318696  0.25824974  1
