# generated using pymatgen
data_Cs2LiPrF6
_symmetry_space_group_name_H-M   'P 1'
_cell_length_a   6.44301513
_cell_length_b   6.44301529
_cell_length_c   6.44301528
_cell_angle_alpha   59.99999928
_cell_angle_beta   59.99999908
_cell_angle_gamma   59.99999913
_symmetry_Int_Tables_number   1
_chemical_formula_structural   Cs2LiPrF6
_chemical_formula_sum   'Cs2 Li1 Pr1 F6'
_cell_volume   189.12653595
_cell_formula_units_Z   1
loop_
 _symmetry_equiv_pos_site_id
 _symmetry_equiv_pos_as_xyz
  1  'x, y, z'
loop_
 _atom_site_type_symbol
 _atom_site_label
 _atom_site_symmetry_multiplicity
 _atom_site_fract_x
 _atom_site_fract_y
 _atom_site_fract_z
 _atom_site_occupancy
  Cs  Cs0  1  0.25000000  0.25000000  0.25000000  1
  Cs  Cs1  1  0.75000000  0.75000000  0.75000000  1
  Li  Li2  1  0.50000000  0.50000000  0.50000000  1
  Pr  Pr3  1  -0.00000000  -0.00000000  0.00000000  1
  F  F4  1  0.25470413  0.74529587  0.25470414  1
  F  F5  1  0.74529587  0.74529586  0.25470413  1
  F  F6  1  0.74529587  0.25470413  0.74529586  1
  F  F7  1  0.74529587  0.25470414  0.25470414  1
  F  F8  1  0.25470413  0.74529586  0.74529586  1
  F  F9  1  0.25470413  0.25470414  0.74529587  1
