# generated using pymatgen
data_K2Ho4Cu4S9
_symmetry_space_group_name_H-M   'P 1'
_cell_length_a   3.94021393
_cell_length_b   7.14038936
_cell_length_c   15.12603150
_cell_angle_alpha   82.41263578
_cell_angle_beta   82.51618171
_cell_angle_gamma   73.98373277
_symmetry_Int_Tables_number   1
_chemical_formula_structural   K2Ho4Cu4S9
_chemical_formula_sum   'K2 Ho4 Cu4 S9'
_cell_volume   403.49501871
_cell_formula_units_Z   1
loop_
 _symmetry_equiv_pos_site_id
 _symmetry_equiv_pos_as_xyz
  1  'x, y, z'
loop_
 _atom_site_type_symbol
 _atom_site_label
 _atom_site_symmetry_multiplicity
 _atom_site_fract_x
 _atom_site_fract_y
 _atom_site_fract_z
 _atom_site_occupancy
  K  K0  1  0.97093702  0.28859339  0.76953256  1
  K  K1  1  0.02906298  0.71140661  0.23046744  1
  Ho  Ho2  1  0.65456083  0.74512142  0.94575692  1
  Ho  Ho3  1  0.23336379  0.13825542  0.39501701  1
  Ho  Ho4  1  0.34543917  0.25487858  0.05424308  1
  Ho  Ho5  1  0.76663621  0.86174458  0.60498299  1
  Cu  Cu6  1  0.75415920  0.26310147  0.22858013  1
  Cu  Cu7  1  0.56793300  0.32258452  0.54154949  1
  Cu  Cu8  1  0.24584080  0.73689853  0.77141987  1
  Cu  Cu9  1  0.43206700  0.67741548  0.45845051  1
  S  S10  1  0.35049575  0.07788185  0.22112665  1
  S  S11  1  0.64950425  0.92211815  0.77887335  1
  S  S12  1  0.38993082  0.59298782  0.62715054  1
  S  S13  1  0.61006918  0.40701218  0.37284946  1
  S  S14  1  0.70041956  0.49650250  0.10265837  1
  S  S15  1  0.13874722  0.14698289  0.57552267  1
  S  S16  1  -0.00000000  0.00000000  0.00000000  1
  S  S17  1  0.29958044  0.50349750  0.89734163  1
  S  S18  1  0.86125278  0.85301711  0.42447733  1
