# generated using pymatgen
data_MgSnO3
_symmetry_space_group_name_H-M   'P 1'
_cell_length_a   5.66371230
_cell_length_b   5.66371291
_cell_length_c   5.66371299
_cell_angle_alpha   56.24663793
_cell_angle_beta   56.24663862
_cell_angle_gamma   56.24664440
_symmetry_Int_Tables_number   1
_chemical_formula_structural   MgSnO3
_chemical_formula_sum   'Mg2 Sn2 O6'
_cell_volume   117.30802986
_cell_formula_units_Z   2
loop_
 _symmetry_equiv_pos_site_id
 _symmetry_equiv_pos_as_xyz
  1  'x, y, z'
loop_
 _atom_site_type_symbol
 _atom_site_label
 _atom_site_symmetry_multiplicity
 _atom_site_fract_x
 _atom_site_fract_y
 _atom_site_fract_z
 _atom_site_occupancy
  Mg  Mg0  1  0.35684372  0.35684372  0.35684372  1
  Mg  Mg1  1  0.64315628  0.64315628  0.64315628  1
  Sn  Sn2  1  0.14698360  0.14698360  0.14698360  1
  Sn  Sn3  1  0.85301640  0.85301640  0.85301640  1
  O  O4  1  0.04825202  0.75601106  0.44850495  1
  O  O5  1  0.44850495  0.04825202  0.75601106  1
  O  O6  1  0.24398894  0.55149505  0.95174798  1
  O  O7  1  0.75601106  0.44850495  0.04825202  1
  O  O8  1  0.55149505  0.95174798  0.24398894  1
  O  O9  1  0.95174798  0.24398894  0.55149505  1
