# generated using pymatgen
data_Na2MnCdFe(PO4)3
_symmetry_space_group_name_H-M   'P 1'
_cell_length_a   6.64713866
_cell_length_b   8.88997021
_cell_length_c   8.88997021
_cell_angle_alpha   92.57370436
_cell_angle_beta   106.60976246
_cell_angle_gamma   106.60976246
_symmetry_Int_Tables_number   1
_chemical_formula_structural   Na2MnCdFe(PO4)3
_chemical_formula_sum   'Na4 Mn2 Cd2 Fe2 P6 O24'
_cell_volume   477.80051363
_cell_formula_units_Z   2
loop_
 _symmetry_equiv_pos_site_id
 _symmetry_equiv_pos_as_xyz
  1  'x, y, z'
loop_
 _atom_site_type_symbol
 _atom_site_label
 _atom_site_symmetry_multiplicity
 _atom_site_fract_x
 _atom_site_fract_y
 _atom_site_fract_z
 _atom_site_occupancy
  Na  Na0  1  0.25000000  0.98006957  0.01993043  1
  Na  Na1  1  0.75000000  0.02463744  0.97536256  1
  Na  Na2  1  0.49930215  0.50183722  0.49827888  1
  Na  Na3  1  0.00069785  0.50172112  0.49816278  1
  Mn  Mn4  1  0.13896288  0.37534761  0.07090914  1
  Mn  Mn5  1  0.36103712  0.92909086  0.62465239  1
  Cd  Cd6  1  0.25000000  0.27089628  0.72910372  1
  Cd  Cd7  1  0.75000000  0.73011701  0.26988299  1
  Fe  Fe8  1  0.86621459  0.61756034  0.93306344  1
  Fe  Fe9  1  0.63378541  0.06693656  0.38243966  1
  P  P10  1  0.37444947  0.65918657  0.87209592  1
  P  P11  1  0.12555053  0.12790408  0.34081343  1
  P  P12  1  0.62828578  0.34282947  0.13247100  1
  P  P13  1  0.87171422  0.86752900  0.65717053  1
  P  P14  1  0.25000000  0.71972574  0.28027426  1
  P  P15  1  0.75000000  0.28452985  0.71547015  1
  O  O16  1  0.09337812  0.15416120  0.16571212  1
  O  O17  1  0.40662188  0.83428788  0.84583880  1
  O  O18  1  0.87574622  0.81536456  0.82534882  1
  O  O19  1  0.62425378  0.17465118  0.18463544  1
  O  O20  1  0.95799717  0.25638062  0.82703689  1
  O  O21  1  0.54200283  0.17296311  0.74361938  1
  O  O22  1  0.04035270  0.73970144  0.15314679  1
  O  O23  1  0.45964730  0.84685321  0.26029856  1
  O  O24  1  0.39911539  0.31654792  0.00833969  1
  O  O25  1  0.10088461  0.99166031  0.68345208  1
  O  O26  1  0.60076570  0.65534235  0.99182792  1
  O  O27  1  0.89923430  0.00817208  0.34465765  1
  O  O28  1  0.17862041  0.28028445  0.45548099  1
  O  O29  1  0.32137959  0.54451901  0.71971555  1
  O  O30  1  0.82541687  0.72088065  0.53752631  1
  O  O31  1  0.67458313  0.46247369  0.27911935  1
  O  O32  1  0.28396484  0.55763222  0.26019840  1
  O  O33  1  0.21603516  0.73980160  0.44236778  1
  O  O34  1  0.74860307  0.45947880  0.74081333  1
  O  O35  1  0.75139693  0.25918667  0.54052120  1
  O  O36  1  0.18342478  0.60501248  0.94635261  1
  O  O37  1  0.31657522  0.05364739  0.39498752  1
  O  O38  1  0.81195609  0.40327579  0.05219732  1
  O  O39  1  0.68804391  0.94780268  0.59672421  1
