# generated using pymatgen
data_LiVF4
_symmetry_space_group_name_H-M   'P 1'
_cell_length_a   5.17028841
_cell_length_b   6.46163485
_cell_length_c   5.51731154
_cell_angle_alpha   88.31876375
_cell_angle_beta   89.99999975
_cell_angle_gamma   66.41708406
_symmetry_Int_Tables_number   1
_chemical_formula_structural   LiVF4
_chemical_formula_sum   'Li2 V2 F8'
_cell_volume   168.84414743
_cell_formula_units_Z   2
loop_
 _symmetry_equiv_pos_site_id
 _symmetry_equiv_pos_as_xyz
  1  'x, y, z'
loop_
 _atom_site_type_symbol
 _atom_site_label
 _atom_site_symmetry_multiplicity
 _atom_site_fract_x
 _atom_site_fract_y
 _atom_site_fract_z
 _atom_site_occupancy
  Li  Li0  1  0.93965676  0.00000000  0.75000000  1
  Li  Li1  1  0.06034324  1.00000000  0.25000000  1
  V  V2  1  0.00000000  0.50000000  0.50000000  1
  V  V3  1  0.50000000  0.50000000  0.00000000  1
  F  F4  1  0.23145478  0.81434855  0.97763544  1
  F  F5  1  0.95419667  0.81434855  0.47763544  1
  F  F6  1  0.34399577  0.42061697  0.69607806  1
  F  F7  1  0.76461275  0.57938303  0.80392194  1
  F  F8  1  0.23538725  0.42061697  0.19607806  1
  F  F9  1  0.65600423  0.57938303  0.30392194  1
  F  F10  1  0.04580333  0.18565145  0.52236456  1
  F  F11  1  0.76854522  0.18565145  0.02236456  1
