# generated using pymatgen
data_Na3GdBr6
_symmetry_space_group_name_H-M   'P 1'
_cell_length_a   7.97439727
_cell_length_b   7.97439720
_cell_length_c   7.97439756
_cell_angle_alpha   56.02756716
_cell_angle_beta   56.02756748
_cell_angle_gamma   56.02756672
_symmetry_Int_Tables_number   1
_chemical_formula_structural   Na3GdBr6
_chemical_formula_sum   'Na3 Gd1 Br6'
_cell_volume   325.57855424
_cell_formula_units_Z   1
loop_
 _symmetry_equiv_pos_site_id
 _symmetry_equiv_pos_as_xyz
  1  'x, y, z'
loop_
 _atom_site_type_symbol
 _atom_site_label
 _atom_site_symmetry_multiplicity
 _atom_site_fract_x
 _atom_site_fract_y
 _atom_site_fract_z
 _atom_site_occupancy
  Na  Na0  1  0.30976197  0.30976197  0.30976197  1
  Na  Na1  1  0.50795738  0.50795738  0.50795738  1
  Na  Na2  1  0.80724037  0.80724037  0.80724037  1
  Gd  Gd3  1  0.00386149  0.00386149  0.00386149  1
  Br  Br4  1  0.11290023  0.73773503  0.38138295  1
  Br  Br5  1  0.38138295  0.11290023  0.73773503  1
  Br  Br6  1  0.73773503  0.38138295  0.11290023  1
  Br  Br7  1  0.21775077  0.62393397  0.90267583  1
  Br  Br8  1  0.62393397  0.90267583  0.21775077  1
  Br  Br9  1  0.90267583  0.21775077  0.62393397  1
