# generated using pymatgen
data_Na3NdTi2Nb2O12
_symmetry_space_group_name_H-M   'P 1'
_cell_length_a   5.53543135
_cell_length_b   5.62888952
_cell_length_c   15.58607941
_cell_angle_alpha   90.00000000
_cell_angle_beta   90.00000000
_cell_angle_gamma   90.00000000
_symmetry_Int_Tables_number   1
_chemical_formula_structural   Na3NdTi2Nb2O12
_chemical_formula_sum   'Na6 Nd2 Ti4 Nb4 O24'
_cell_volume   485.63622927
_cell_formula_units_Z   2
loop_
 _symmetry_equiv_pos_site_id
 _symmetry_equiv_pos_as_xyz
  1  'x, y, z'
loop_
 _atom_site_type_symbol
 _atom_site_label
 _atom_site_symmetry_multiplicity
 _atom_site_fract_x
 _atom_site_fract_y
 _atom_site_fract_z
 _atom_site_occupancy
  Na  Na0  1  0.99888243  0.99076207  0.37185223  1
  Na  Na1  1  0.99888243  0.99076207  0.87814777  1
  Na  Na2  1  0.50111757  0.49076207  0.87814777  1
  Na  Na3  1  0.50111757  0.49076207  0.37185223  1
  Na  Na4  1  0.50566371  0.53096114  0.62500000  1
  Na  Na5  1  0.99433629  0.03096114  0.62500000  1
  Nd  Nd6  1  0.50699682  0.54361040  0.12500000  1
  Nd  Nd7  1  0.99300318  0.04361040  0.12500000  1
  Ti  Ti8  1  0.00832193  0.52121745  0.99614023  1
  Ti  Ti9  1  0.00832193  0.52121745  0.25385977  1
  Ti  Ti10  1  0.49167807  0.02121745  0.25385977  1
  Ti  Ti11  1  0.49167807  0.02121745  0.99614023  1
  Nb  Nb12  1  0.00560757  0.52087911  0.49874335  1
  Nb  Nb13  1  0.00560757  0.52087911  0.75125665  1
  Nb  Nb14  1  0.49439243  0.02087911  0.75125665  1
  Nb  Nb15  1  0.49439243  0.02087911  0.49874335  1
  O  O16  1  0.07371020  0.47019926  0.12500000  1
  O  O17  1  0.06755663  0.47325185  0.62500000  1
  O  O18  1  0.20685977  0.20091632  0.48119734  1
  O  O19  1  0.21416797  0.20270397  0.26047631  1
  O  O20  1  0.20685977  0.20091632  0.76880266  1
  O  O21  1  0.21416797  0.20270397  0.98952369  1
  O  O22  1  0.28583203  0.70270397  0.26047631  1
  O  O23  1  0.29314023  0.70091632  0.48119734  1
  O  O24  1  0.29314023  0.70091632  0.76880266  1
  O  O25  1  0.28583203  0.70270397  0.98952369  1
  O  O26  1  0.42628980  0.97019926  0.12500000  1
  O  O27  1  0.43244337  0.97325185  0.62500000  1
  O  O28  1  0.56777932  0.00446820  0.87794992  1
  O  O29  1  0.56777932  0.00446820  0.37205008  1
  O  O30  1  0.71384307  0.26865331  0.02568152  1
  O  O31  1  0.71384307  0.26865331  0.22431848  1
  O  O32  1  0.70910970  0.28138823  0.51665181  1
  O  O33  1  0.70910970  0.28138823  0.73334819  1
  O  O34  1  0.78615693  0.76865331  0.02568152  1
  O  O35  1  0.78615693  0.76865331  0.22431848  1
  O  O36  1  0.79089030  0.78138823  0.51665181  1
  O  O37  1  0.79089030  0.78138823  0.73334819  1
  O  O38  1  0.93222068  0.50446820  0.37205008  1
  O  O39  1  0.93222068  0.50446820  0.87794992  1
