# generated using pymatgen
data_Ho2HgO4
_symmetry_space_group_name_H-M   'P 1'
_cell_length_a   3.61691319
_cell_length_b   7.06349062
_cell_length_c   8.81687590
_cell_angle_alpha   78.30240843
_cell_angle_beta   78.16388112
_cell_angle_gamma   75.16544875
_symmetry_Int_Tables_number   1
_chemical_formula_structural   Ho2HgO4
_chemical_formula_sum   'Ho4 Hg2 O8'
_cell_volume   210.41243307
_cell_formula_units_Z   2
loop_
 _symmetry_equiv_pos_site_id
 _symmetry_equiv_pos_as_xyz
  1  'x, y, z'
loop_
 _atom_site_type_symbol
 _atom_site_label
 _atom_site_symmetry_multiplicity
 _atom_site_fract_x
 _atom_site_fract_y
 _atom_site_fract_z
 _atom_site_occupancy
  O  O0  1  0.91781435  0.51178299  0.65258830  1
  O  O1  1  0.08218565  0.48821701  0.34741170  1
  O  O2  1  0.73184554  0.14797007  0.38833884  1
  O  O3  1  0.26815446  0.85202993  0.61166116  1
  O  O4  1  0.29654230  0.35257538  0.05434002  1
  O  O5  1  0.70345770  0.64742462  0.94565998  1
  O  O6  1  0.46538561  0.78597838  0.28325040  1
  O  O7  1  0.53461439  0.21402162  0.71674960  1
  Ho  Ho8  1  0.11891631  0.22503874  0.53712865  1
  Ho  Ho9  1  0.88108369  0.77496126  0.46287135  1
  Ho  Ho10  1  0.34112770  0.51766028  0.80008431  1
  Ho  Ho11  1  0.65887230  0.48233972  0.19991569  1
  Hg  Hg12  1  0.38632762  0.06548429  0.16186047  1
  Hg  Hg13  1  0.61367238  0.93451571  0.83813953  1
