# generated using pymatgen
data_AgAu
_symmetry_space_group_name_H-M   'P 1'
_cell_length_a   2.93761765
_cell_length_b   2.93760596
_cell_length_c   4.82832379
_cell_angle_alpha   90.00779826
_cell_angle_beta   89.99219858
_cell_angle_gamma   119.99937673
_symmetry_Int_Tables_number   1
_chemical_formula_structural   AgAu
_chemical_formula_sum   'Ag1 Au1'
_cell_volume   36.08432189
_cell_formula_units_Z   1
loop_
 _symmetry_equiv_pos_site_id
 _symmetry_equiv_pos_as_xyz
  1  'x, y, z'
loop_
 _atom_site_type_symbol
 _atom_site_label
 _atom_site_symmetry_multiplicity
 _atom_site_fract_x
 _atom_site_fract_y
 _atom_site_fract_z
 _atom_site_occupancy
  Ag  Ag0  1  0.66666963  0.33332873  0.75000036  1
  Au  Au1  1  0.33332937  0.66666927  0.24999864  1
