# generated using pymatgen
data_Li2MnFe(BO3)2
_symmetry_space_group_name_H-M   'P 1'
_cell_length_a   8.22405415
_cell_length_b   8.21933628
_cell_length_c   6.33936858
_cell_angle_alpha   90.00000000
_cell_angle_beta   90.00000000
_cell_angle_gamma   119.95492660
_symmetry_Int_Tables_number   1
_chemical_formula_structural   Li2MnFe(BO3)2
_chemical_formula_sum   'Li6 Mn3 Fe3 B6 O18'
_cell_volume   371.27560778
_cell_formula_units_Z   3
loop_
 _symmetry_equiv_pos_site_id
 _symmetry_equiv_pos_as_xyz
  1  'x, y, z'
loop_
 _atom_site_type_symbol
 _atom_site_label
 _atom_site_symmetry_multiplicity
 _atom_site_fract_x
 _atom_site_fract_y
 _atom_site_fract_z
 _atom_site_occupancy
  Li  Li0  1  0.28234009  0.98206383  0.25292020  1
  Li  Li1  1  0.28234009  0.98206383  0.74707980  1
  Li  Li2  1  0.01796660  0.30042773  0.25243120  1
  Li  Li3  1  0.01796660  0.30042773  0.74756880  1
  Li  Li4  1  0.69970226  0.71779250  0.74712331  1
  Li  Li5  1  0.69970226  0.71779250  0.25287669  1
  Mn  Mn6  1  0.37091002  0.35836576  -0.00000000  1
  Mn  Mn7  1  0.64173693  0.01261092  -0.00000000  1
  Mn  Mn8  1  0.98746761  0.62947268  -0.00000000  1
  Fe  Fe9  1  0.37209877  0.36237459  0.50000000  1
  Fe  Fe10  1  0.63612140  0.01083725  0.50000000  1
  Fe  Fe11  1  0.98787798  0.62325187  0.50000000  1
  B  B12  1  0.00005189  0.00006478  -0.00000000  1
  B  B13  1  0.00037298  0.99962204  0.50000000  1
  B  B14  1  0.33341121  0.66682428  0.25595457  1
  B  B15  1  0.33341121  0.66682428  0.74404543  1
  B  B16  1  0.66668008  0.33340223  0.25360071  1
  B  B17  1  0.66668008  0.33340223  0.74639929  1
  O  O18  1  0.10935308  0.91356994  0.50000000  1
  O  O19  1  0.11862910  0.92433487  -0.00000000  1
  O  O20  1  0.13877216  0.58002859  0.25420986  1
  O  O21  1  0.13877216  0.58002859  0.74579014  1
  O  O22  1  0.07573345  0.19435469  -0.00000000  1
  O  O23  1  0.08639205  0.19499623  0.50000000  1
  O  O24  1  0.44114837  0.86169100  0.25447199  1
  O  O25  1  0.44114837  0.86169100  0.74552801  1
  O  O26  1  0.42026371  0.55915907  0.25448027  1
  O  O27  1  0.42026371  0.55915907  0.74551973  1
  O  O28  1  0.47198719  0.25078085  0.25256558  1
  O  O29  1  0.47198719  0.25078085  0.74743442  1
  O  O30  1  0.80582738  0.88152771  -0.00000000  1
  O  O31  1  0.80520242  0.89144187  0.50000000  1
  O  O32  1  0.77914854  0.52843106  0.25273821  1
  O  O33  1  0.77914854  0.52843106  0.74726179  1
  O  O34  1  0.74969227  0.22098677  0.74738511  1
  O  O35  1  0.74969227  0.22098677  0.25261389  1
