# generated using pymatgen
data_KCrF3
_symmetry_space_group_name_H-M   'P 1'
_cell_length_a   5.97493666
_cell_length_b   5.97493752
_cell_length_c   5.97922850
_cell_angle_alpha   118.14721665
_cell_angle_beta   118.61016160
_cell_angle_gamma   92.79317906
_symmetry_Int_Tables_number   1
_chemical_formula_structural   KCrF3
_chemical_formula_sum   'K2 Cr2 F6'
_cell_volume   154.48457741
_cell_formula_units_Z   2
loop_
 _symmetry_equiv_pos_site_id
 _symmetry_equiv_pos_as_xyz
  1  'x, y, z'
loop_
 _atom_site_type_symbol
 _atom_site_label
 _atom_site_symmetry_multiplicity
 _atom_site_fract_x
 _atom_site_fract_y
 _atom_site_fract_z
 _atom_site_occupancy
  K  K0  1  0.25009133  0.25009133  1.00000000  1
  K  K1  1  0.74990867  0.74990867  0.00000000  1
  Cr  Cr2  1  0.50000000  -0.00000000  0.50000000  1
  Cr  Cr3  1  0.00000000  0.50000000  0.50000000  1
  F  F4  1  0.24508415  0.27883401  0.52391816  1
  F  F5  1  0.75491585  0.72116599  0.47608184  1
  F  F6  1  0.25566879  0.77840829  0.03407708  1
  F  F7  1  0.74433121  0.22159171  0.96592292  1
  F  F8  1  0.24996686  0.74996686  0.50000000  1
  F  F9  1  0.75003314  0.25003314  0.50000000  1
