# generated using pymatgen
data_Na2Mo(H2O3)2
_symmetry_space_group_name_H-M   'P 1'
_cell_length_a   8.81724645
_cell_length_b   10.65797872
_cell_length_c   13.88271697
_cell_angle_alpha   90.00000000
_cell_angle_beta   90.00000000
_cell_angle_gamma   90.00000000
_symmetry_Int_Tables_number   1
_chemical_formula_structural   Na2Mo(H2O3)2
_chemical_formula_sum   'Na16 Mo8 H32 O48'
_cell_volume   1304.61479207
_cell_formula_units_Z   8
loop_
 _symmetry_equiv_pos_site_id
 _symmetry_equiv_pos_as_xyz
  1  'x, y, z'
loop_
 _atom_site_type_symbol
 _atom_site_label
 _atom_site_symmetry_multiplicity
 _atom_site_fract_x
 _atom_site_fract_y
 _atom_site_fract_z
 _atom_site_occupancy
  Na  Na0  1  0.75566559  0.94368626  0.14378196  1
  Na  Na1  1  0.74433441  0.44368626  0.14378196  1
  Na  Na2  1  0.16029092  0.49587670  0.58226085  1
  Na  Na3  1  0.33970908  0.50412330  0.08226085  1
  Na  Na4  1  0.75566559  0.55631374  0.64378196  1
  Na  Na5  1  0.24433441  0.44368626  0.35621804  1
  Na  Na6  1  0.66029092  0.49587670  0.91773915  1
  Na  Na7  1  0.83970908  0.99587670  0.91773915  1
  Na  Na8  1  0.83970908  0.50412330  0.41773915  1
  Na  Na9  1  0.66029092  0.00412330  0.41773915  1
  Na  Na10  1  0.25566559  0.94368626  0.35621804  1
  Na  Na11  1  0.25566559  0.55631374  0.85621804  1
  Na  Na12  1  0.33970908  0.99587670  0.58226085  1
  Na  Na13  1  0.24433441  0.05631374  0.85621804  1
  Na  Na14  1  0.16029092  0.00412330  0.08226085  1
  Na  Na15  1  0.74433441  0.05631374  0.64378196  1
  Mo  Mo16  1  0.98399617  0.69874914  0.02362840  1
  Mo  Mo17  1  0.01600383  0.30125086  0.97637160  1
  Mo  Mo18  1  0.48399617  0.69874914  0.47637160  1
  Mo  Mo19  1  0.01600383  0.19874914  0.47637160  1
  Mo  Mo20  1  0.51600383  0.19874914  0.02362840  1
  Mo  Mo21  1  0.98399617  0.80125086  0.52362840  1
  Mo  Mo22  1  0.51600383  0.30125086  0.52362840  1
  Mo  Mo23  1  0.48399617  0.80125086  0.97637160  1
  H  H24  1  0.05797385  0.89887269  0.73386884  1
  H  H25  1  0.55283748  0.66746573  0.16554053  1
  H  H26  1  0.86856922  0.64507104  0.82716353  1
  H  H27  1  0.55797385  0.60112731  0.26613116  1
  H  H28  1  0.94202615  0.10112731  0.26613116  1
  H  H29  1  0.44202615  0.39887269  0.73386884  1
  H  H30  1  0.21272622  0.78622729  0.17852964  1
  H  H31  1  0.28727378  0.28622729  0.17852964  1
  H  H32  1  0.71272622  0.78622729  0.32147036  1
  H  H33  1  0.94716252  0.16746573  0.16554053  1
  H  H34  1  0.63143078  0.35492896  0.32716353  1
  H  H35  1  0.94716252  0.33253427  0.66554053  1
  H  H36  1  0.44716252  0.33253427  0.83445947  1
  H  H37  1  0.71272622  0.71377271  0.82147036  1
  H  H38  1  0.28727378  0.21377271  0.67852964  1
  H  H39  1  0.55283748  0.83253427  0.66554053  1
  H  H40  1  0.94202615  0.39887269  0.76613116  1
  H  H41  1  0.44202615  0.10112731  0.23386884  1
  H  H42  1  0.05283748  0.66746573  0.33445947  1
  H  H43  1  0.86856922  0.85492896  0.32716353  1
  H  H44  1  0.13143078  0.35492896  0.17283647  1
  H  H45  1  0.13143078  0.14507104  0.67283647  1
  H  H46  1  0.44716252  0.16746573  0.33445947  1
  H  H47  1  0.78727378  0.28622729  0.32147036  1
  H  H48  1  0.05797385  0.60112731  0.23386884  1
  H  H49  1  0.36856922  0.64507104  0.67283647  1
  H  H50  1  0.78727378  0.21377271  0.82147036  1
  H  H51  1  0.05283748  0.83253427  0.83445947  1
  H  H52  1  0.63143078  0.14507104  0.82716353  1
  H  H53  1  0.21272622  0.71377271  0.67852964  1
  H  H54  1  0.55797385  0.89887269  0.76613116  1
  H  H55  1  0.36856922  0.85492896  0.17283647  1
  O  O56  1  0.05894678  0.13789585  0.95868598  1
  O  O57  1  0.54085416  0.58462245  0.19673673  1
  O  O58  1  0.95914584  0.41537755  0.69673673  1
  O  O59  1  0.94105322  0.63789585  0.54131402  1
  O  O60  1  0.04372746  0.67900455  0.89979151  1
  O  O61  1  0.37353689  0.15242285  0.11090803  1
  O  O62  1  0.12646311  0.65242285  0.11090803  1
  O  O63  1  0.23502682  0.36346445  0.19995261  1
  O  O64  1  0.45627254  0.32099545  0.39979151  1
  O  O65  1  0.95627254  0.17900455  0.60020849  1
  O  O66  1  0.54372746  0.67900455  0.60020849  1
  O  O67  1  0.95627254  0.32099545  0.10020849  1
  O  O68  1  0.94105322  0.86210415  0.04131402  1
  O  O69  1  0.62646311  0.84757715  0.88909197  1
  O  O70  1  0.04085416  0.58462245  0.30326327  1
  O  O71  1  0.73502682  0.36346445  0.30004739  1
  O  O72  1  0.31816260  0.60557633  0.45987261  1
  O  O73  1  0.73502682  0.13653555  0.80004739  1
  O  O74  1  0.62646311  0.65242285  0.38909197  1
  O  O75  1  0.76497318  0.63653555  0.80004739  1
  O  O76  1  0.26497318  0.63653555  0.69995261  1
  O  O77  1  0.31816260  0.89442367  0.95987261  1
  O  O78  1  0.44105322  0.86210415  0.45868598  1
  O  O79  1  0.18183740  0.10557633  0.45987261  1
  O  O80  1  0.55894678  0.36210415  0.04131402  1
  O  O81  1  0.87353689  0.34757715  0.88909197  1
  O  O82  1  0.87353689  0.15242285  0.38909197  1
  O  O83  1  0.54372746  0.82099545  0.10020849  1
  O  O84  1  0.55894678  0.13789585  0.54131402  1
  O  O85  1  0.12646311  0.84757715  0.61090803  1
  O  O86  1  0.44105322  0.63789585  0.95868598  1
  O  O87  1  0.37353689  0.34757715  0.61090803  1
  O  O88  1  0.23502682  0.13653555  0.69995261  1
  O  O89  1  0.18183740  0.39442367  0.95987261  1
  O  O90  1  0.81816260  0.89442367  0.54012739  1
  O  O91  1  0.45627254  0.17900455  0.89979151  1
  O  O92  1  0.45914584  0.08462245  0.30326327  1
  O  O93  1  0.45914584  0.41537755  0.80326327  1
  O  O94  1  0.54085416  0.91537755  0.69673673  1
  O  O95  1  0.05894678  0.36210415  0.45868598  1
  O  O96  1  0.68183740  0.10557633  0.04012739  1
  O  O97  1  0.04085416  0.91537755  0.80326327  1
  O  O98  1  0.95914584  0.08462245  0.19673673  1
  O  O99  1  0.81816260  0.60557633  0.04012739  1
  O  O100  1  0.76497318  0.86346445  0.30004739  1
  O  O101  1  0.04372746  0.82099545  0.39979151  1
  O  O102  1  0.26497318  0.86346445  0.19995261  1
  O  O103  1  0.68183740  0.39442367  0.54012739  1
