# generated using pymatgen
data_Li2VFeP2(HO5)2
_symmetry_space_group_name_H-M   'P 1'
_cell_length_a   5.41584819
_cell_length_b   7.37499125
_cell_length_c   5.17103983
_cell_angle_alpha   108.48060721
_cell_angle_beta   97.58811868
_cell_angle_gamma   106.31319631
_symmetry_Int_Tables_number   1
_chemical_formula_structural   Li2VFeP2(HO5)2
_chemical_formula_sum   'Li2 V1 Fe1 P2 H2 O10'
_cell_volume   182.37345543
_cell_formula_units_Z   1
loop_
 _symmetry_equiv_pos_site_id
 _symmetry_equiv_pos_as_xyz
  1  'x, y, z'
loop_
 _atom_site_type_symbol
 _atom_site_label
 _atom_site_symmetry_multiplicity
 _atom_site_fract_x
 _atom_site_fract_y
 _atom_site_fract_z
 _atom_site_occupancy
  Li  Li0  1  0.39881421  0.82273378  0.74619273  1
  Li  Li1  1  0.60118579  0.17726622  0.25380727  1
  V  V2  1  -0.00000000  0.00000000  0.00000000  1
  Fe  Fe3  1  -0.00000000  0.50000000  0.00000000  1
  P  P4  1  0.36306685  0.23288962  0.67681451  1
  P  P5  1  0.63693315  0.76711038  0.32318549  1
  H  H6  1  0.05833181  0.33934646  0.36056630  1
  H  H7  1  0.94166819  0.66065354  0.63943370  1
  O  O8  1  0.04890949  0.72424884  0.83651390  1
  O  O9  1  0.20469580  0.38096093  0.72692360  1
  O  O10  1  0.34150429  0.65711511  0.30380925  1
  O  O11  1  0.25618402  0.07254661  0.37424303  1
  O  O12  1  0.34120138  0.12148949  0.88994080  1
  O  O13  1  0.65879862  0.87851051  0.11005920  1
  O  O14  1  0.74381598  0.92745339  0.62575697  1
  O  O15  1  0.65849571  0.34288489  0.69619075  1
  O  O16  1  0.79530420  0.61903907  0.27307640  1
  O  O17  1  0.95109051  0.27575116  0.16348610  1
