# generated using pymatgen
data_Li4Cr3FeO8
_symmetry_space_group_name_H-M   'P 1'
_cell_length_a   5.14710840
_cell_length_b   5.96094605
_cell_length_c   5.96076553
_cell_angle_alpha   119.99923539
_cell_angle_beta   90.00010559
_cell_angle_gamma   73.16843202
_symmetry_Int_Tables_number   1
_chemical_formula_structural   Li4Cr3FeO8
_chemical_formula_sum   'Li4 Cr3 Fe1 O8'
_cell_volume   149.26991484
_cell_formula_units_Z   1
loop_
 _symmetry_equiv_pos_site_id
 _symmetry_equiv_pos_as_xyz
  1  'x, y, z'
loop_
 _atom_site_type_symbol
 _atom_site_label
 _atom_site_symmetry_multiplicity
 _atom_site_fract_x
 _atom_site_fract_y
 _atom_site_fract_z
 _atom_site_occupancy
  Li  Li0  1  0.00097442  0.99930254  0.49965177  1
  Li  Li1  1  0.99902558  0.00069746  0.00034923  1
  Li  Li2  1  0.00000000  0.50000000  0.49943266  1
  Li  Li3  1  1.00000000  0.50000000  0.00056734  1
  Cr  Cr4  1  0.50000000  0.00000000  0.75000000  1
  Cr  Cr5  1  0.50000000  0.00000000  0.25000100  1
  Cr  Cr6  1  0.50000000  0.50000000  0.24999900  1
  Fe  Fe7  1  0.50000000  0.50000000  0.75000000  1
  O  O8  1  0.27263558  0.24049939  0.62024970  1
  O  O9  1  0.72716212  0.25671278  0.87991643  1
  O  O10  1  0.27568284  0.24156515  0.12078258  1
  O  O11  1  0.72716212  0.25671278  0.37679634  1
  O  O12  1  0.27283688  0.74328722  0.62008457  1
  O  O13  1  0.72736442  0.75949961  0.87975030  1
  O  O14  1  0.27283688  0.74328722  0.12320266  1
  O  O15  1  0.72431716  0.75843485  0.37921742  1
