# generated using pymatgen
data_Tm(BIr)4
_symmetry_space_group_name_H-M   'P 1'
_cell_length_a   5.39486409
_cell_length_b   5.39486409
_cell_length_c   7.44503502
_cell_angle_alpha   90.00000000
_cell_angle_beta   90.00000000
_cell_angle_gamma   90.00000000
_symmetry_Int_Tables_number   1
_chemical_formula_structural   Tm(BIr)4
_chemical_formula_sum   'Tm2 B8 Ir8'
_cell_volume   216.68445764
_cell_formula_units_Z   2
loop_
 _symmetry_equiv_pos_site_id
 _symmetry_equiv_pos_as_xyz
  1  'x, y, z'
loop_
 _atom_site_type_symbol
 _atom_site_label
 _atom_site_symmetry_multiplicity
 _atom_site_fract_x
 _atom_site_fract_y
 _atom_site_fract_z
 _atom_site_occupancy
  Tm  Tm0  1  0.75000000  0.25000000  0.25000000  1
  Tm  Tm1  1  0.25000000  0.75000000  0.75000000  1
  B  B2  1  0.57754722  0.75000000  0.40318778  1
  B  B3  1  0.92245278  0.75000000  0.40318778  1
  B  B4  1  0.75000000  0.57754722  0.90318778  1
  B  B5  1  0.75000000  0.92245278  0.90318778  1
  B  B6  1  0.42245278  0.25000000  0.59681222  1
  B  B7  1  0.07754722  0.25000000  0.59681222  1
  B  B8  1  0.25000000  0.42245278  0.09681222  1
  B  B9  1  0.25000000  0.07754722  0.09681222  1
  Ir  Ir10  1  0.00112980  0.75000000  0.10506126  1
  Ir  Ir11  1  0.49887020  0.75000000  0.10506126  1
  Ir  Ir12  1  0.75000000  0.00112980  0.60506126  1
  Ir  Ir13  1  0.75000000  0.49887020  0.60506126  1
  Ir  Ir14  1  0.99887020  0.25000000  0.89493874  1
  Ir  Ir15  1  0.50112980  0.25000000  0.89493874  1
  Ir  Ir16  1  0.25000000  0.99887020  0.39493874  1
  Ir  Ir17  1  0.25000000  0.50112980  0.39493874  1
