# generated using pymatgen
data_Li4MnV3(P2O7)4
_symmetry_space_group_name_H-M   'P 1'
_cell_length_a   4.85989940
_cell_length_b   10.93805031
_cell_length_c   10.82047476
_cell_angle_alpha   99.30039454
_cell_angle_beta   101.78386631
_cell_angle_gamma   102.37004255
_symmetry_Int_Tables_number   1
_chemical_formula_structural   Li4MnV3(P2O7)4
_chemical_formula_sum   'Li4 Mn1 V3 P8 O28'
_cell_volume   537.16463996
_cell_formula_units_Z   1
loop_
 _symmetry_equiv_pos_site_id
 _symmetry_equiv_pos_as_xyz
  1  'x, y, z'
loop_
 _atom_site_type_symbol
 _atom_site_label
 _atom_site_symmetry_multiplicity
 _atom_site_fract_x
 _atom_site_fract_y
 _atom_site_fract_z
 _atom_site_occupancy
  Li  Li0  1  0.82361884  0.09372562  0.23051768  1
  Li  Li1  1  0.82566938  0.59356328  0.73154845  1
  Li  Li2  1  0.17673738  0.01965395  0.65792698  1
  Li  Li3  1  0.17666126  0.51853249  0.15659211  1
  Mn  Mn4  1  0.21572483  0.86540928  0.86595922  1
  V  V5  1  0.78515889  0.38575773  0.88651335  1
  V  V6  1  0.78414031  0.88523297  0.38605057  1
  V  V7  1  0.21611320  0.36384977  0.36431672  1
  P  P8  1  0.59954081  0.32864413  0.14857770  1
  P  P9  1  0.78738830  0.34909290  0.56520026  1
  P  P10  1  0.78698795  0.84844467  0.06330424  1
  P  P11  1  0.40003390  0.10137655  0.42060723  1
  P  P12  1  0.59897167  0.82830264  0.65087481  1
  P  P13  1  0.20980933  0.18569318  0.89986516  1
  P  P14  1  0.21140486  0.68469143  0.40091372  1
  P  P15  1  0.39867759  0.59977313  0.91885880  1
  O  O16  1  0.81199277  0.27773118  0.24005760  1
  O  O17  1  0.75428564  0.41910351  0.07622289  1
  O  O18  1  0.60361561  0.03619874  0.35831378  1
  O  O19  1  0.94900287  0.23761595  0.91364411  1
  O  O20  1  0.94889209  0.73653572  0.41252392  1
  O  O21  1  0.86839002  0.40573893  0.70936093  1
  O  O22  1  0.87145256  0.90482390  0.20840030  1
  O  O23  1  0.40405542  0.20018154  0.04636172  1
  O  O24  1  0.59419247  0.20350184  0.54997342  1
  O  O25  1  0.59561190  0.70385010  0.04835523  1
  O  O26  1  0.60307145  0.42465699  0.49103291  1
  O  O27  1  0.39679380  0.39141879  0.21383913  1
  O  O28  1  0.81102386  0.77681954  0.74109643  1
  O  O29  1  0.74977795  0.91852358  0.57645584  1
  O  O30  1  0.24685088  0.17397567  0.33080896  1
  O  O31  1  0.18645608  0.00998459  0.47245918  1
  O  O32  1  0.60657991  0.53578650  0.85907687  1
  O  O33  1  0.39825015  0.25979347  0.82422623  1
  O  O34  1  0.39829221  0.75892379  0.32448361  1
  O  O35  1  0.40361316  0.70029957  0.54743770  1
  O  O36  1  0.12675323  0.04296567  0.84178332  1
  O  O37  1  0.13176085  0.54145499  0.34436636  1
  O  O38  1  0.60395786  0.92529434  0.99111759  1
  O  O39  1  0.05086914  0.33720734  0.51359201  1
  O  O40  1  0.05753900  0.83987426  0.01359507  1
  O  O41  1  0.39623704  0.89166822  0.71693201  1
  O  O42  1  0.24509815  0.66987963  0.82762860  1
  O  O43  1  0.18894944  0.51002990  0.97364431  1
