# generated using pymatgen
data_KCrF3
_symmetry_space_group_name_H-M   'P 1'
_cell_length_a   5.98001565
_cell_length_b   5.98001615
_cell_length_c   5.98001577
_cell_angle_alpha   92.96269308
_cell_angle_beta   118.30449353
_cell_angle_gamma   118.30448698
_symmetry_Int_Tables_number   1
_chemical_formula_structural   KCrF3
_chemical_formula_sum   'K2 Cr2 F6'
_cell_volume   154.86528488
_cell_formula_units_Z   2
loop_
 _symmetry_equiv_pos_site_id
 _symmetry_equiv_pos_as_xyz
  1  'x, y, z'
loop_
 _atom_site_type_symbol
 _atom_site_label
 _atom_site_symmetry_multiplicity
 _atom_site_fract_x
 _atom_site_fract_y
 _atom_site_fract_z
 _atom_site_occupancy
  K  K0  1  -0.00000000  0.75000000  0.75000000  1
  K  K1  1  -0.00000000  0.25000000  0.25000000  1
  Cr  Cr2  1  0.50000000  0.50000000  -0.00000000  1
  Cr  Cr3  1  0.50000000  -0.00000000  0.50000000  1
  F  F4  1  0.03460094  0.26730047  0.76730047  1
  F  F5  1  0.50000000  0.23269953  0.26730047  1
  F  F6  1  0.50000000  0.76730047  0.73269953  1
  F  F7  1  0.96539906  0.73269953  0.23269953  1
  F  F8  1  0.50000000  0.25000000  0.75000000  1
  F  F9  1  0.50000000  0.75000000  0.25000000  1
