# generated using pymatgen
data_KP(HO2)2
_symmetry_space_group_name_H-M   'P 1'
_cell_length_a   7.30873504
_cell_length_b   14.95628241
_cell_length_c   7.53077739
_cell_angle_alpha   90.00000000
_cell_angle_beta   91.67676406
_cell_angle_gamma   90.00000000
_symmetry_Int_Tables_number   1
_chemical_formula_structural   KP(HO2)2
_chemical_formula_sum   'K8 P8 H16 O32'
_cell_volume   822.84812521
_cell_formula_units_Z   8
loop_
 _symmetry_equiv_pos_site_id
 _symmetry_equiv_pos_as_xyz
  1  'x, y, z'
loop_
 _atom_site_type_symbol
 _atom_site_label
 _atom_site_symmetry_multiplicity
 _atom_site_fract_x
 _atom_site_fract_y
 _atom_site_fract_z
 _atom_site_occupancy
  K  K0  1  0.34292946  0.71038886  0.28230773  1
  K  K1  1  0.65707054  0.21038886  0.71769227  1
  K  K2  1  0.21382896  0.90346535  0.63019752  1
  K  K3  1  0.78617104  0.40346535  0.36980248  1
  K  K4  1  0.36121331  0.19933417  0.22629203  1
  K  K5  1  0.63878669  0.69933417  0.77370797  1
  K  K6  1  0.06959827  0.43461554  0.85073170  1
  K  K7  1  0.93040173  0.93461554  0.14926830  1
  P  P8  1  0.13213320  0.68708593  0.77323633  1
  P  P9  1  0.86786680  0.18708593  0.22676367  1
  P  P10  1  0.40755336  0.94565520  0.14624548  1
  P  P11  1  0.59244664  0.44565520  0.85375452  1
  P  P12  1  0.17268382  0.17580164  0.73497073  1
  P  P13  1  0.82731618  0.67580164  0.26502927  1
  P  P14  1  0.28267256  0.43770665  0.36680262  1
  P  P15  1  0.71732744  0.93770665  0.63319738  1
  H  H16  1  0.33292822  0.59166311  0.88720197  1
  H  H17  1  0.66707178  0.09166311  0.11279803  1
  H  H18  1  0.98391933  0.60885755  0.55940280  1
  H  H19  1  0.01608067  0.10885755  0.44059720  1
  H  H20  1  0.55533193  0.87873631  0.92778387  1
  H  H21  1  0.44466807  0.37873631  0.07221613  1
  H  H22  1  0.29762774  0.04429999  0.93960772  1
  H  H23  1  0.70237226  0.54429999  0.06039228  1
  H  H24  1  0.02155443  0.24655449  0.95856589  1
  H  H25  1  0.97844557  0.74655449  0.04143411  1
  H  H26  1  0.23411854  0.29554846  0.56361630  1
  H  H27  1  0.76588146  0.79554846  0.43638370  1
  H  H28  1  0.41822699  0.52088985  0.57851304  1
  H  H29  1  0.58177301  0.02088985  0.42148696  1
  H  H30  1  0.06852573  0.53162146  0.26806981  1
  H  H31  1  0.93147427  0.03162146  0.73193019  1
  O  O32  1  0.24499112  0.63845166  0.93259612  1
  O  O33  1  0.75500888  0.13845166  0.06740388  1
  O  O34  1  0.00420566  0.60839307  0.69536250  1
  O  O35  1  0.99579434  0.10839307  0.30463750  1
  O  O36  1  0.25601369  0.72354983  0.63467780  1
  O  O37  1  0.74398631  0.22354983  0.36532220  1
  O  O38  1  0.01032190  0.75579690  0.86433223  1
  O  O39  1  0.98967810  0.25579690  0.13566777  1
  O  O40  1  0.53378273  0.87043054  0.06230814  1
  O  O41  1  0.46621727  0.37043054  0.93769186  1
  O  O42  1  0.27849246  0.97959722  0.98445133  1
  O  O43  1  0.72150754  0.47959722  0.01554867  1
  O  O44  1  0.52834869  0.02452320  0.21229887  1
  O  O45  1  0.47165131  0.52452320  0.78770113  1
  O  O46  1  0.29275184  0.90241591  0.28483069  1
  O  O47  1  0.70724816  0.40241591  0.71516931  1
  O  O48  1  0.03913855  0.24694072  0.81573234  1
  O  O49  1  0.96086145  0.74694072  0.18426766  1
  O  O50  1  0.27791689  0.23019438  0.58711278  1
  O  O51  1  0.72208311  0.73019438  0.41288722  1
  O  O52  1  0.06129634  0.10105545  0.64107635  1
  O  O53  1  0.93870366  0.60105545  0.35892365  1
  O  O54  1  0.31095365  0.14034190  0.87296251  1
  O  O55  1  0.68904635  0.64034190  0.12703749  1
  O  O56  1  0.38876314  0.52301506  0.44539518  1
  O  O57  1  0.61123686  0.02301506  0.55460482  1
  O  O58  1  0.14594711  0.48044017  0.22052363  1
  O  O59  1  0.85405289  0.98044017  0.77947637  1
  O  O60  1  0.41198594  0.37741757  0.26716264  1
  O  O61  1  0.58801406  0.87741757  0.73283736  1
  O  O62  1  0.17841519  0.39106184  0.51316043  1
  O  O63  1  0.82158481  0.89106184  0.48683957  1
