# generated using pymatgen
data_MgAg5
_symmetry_space_group_name_H-M   'P 1'
_cell_length_a   5.09857190
_cell_length_b   5.09857271
_cell_length_c   5.64907154
_cell_angle_alpha   116.82552231
_cell_angle_beta   63.17448224
_cell_angle_gamma   119.99999161
_symmetry_Int_Tables_number   1
_chemical_formula_structural   MgAg5
_chemical_formula_sum   'Mg1 Ag5'
_cell_volume   108.54506136
_cell_formula_units_Z   1
loop_
 _symmetry_equiv_pos_site_id
 _symmetry_equiv_pos_as_xyz
  1  'x, y, z'
loop_
 _atom_site_type_symbol
 _atom_site_label
 _atom_site_symmetry_multiplicity
 _atom_site_fract_x
 _atom_site_fract_y
 _atom_site_fract_z
 _atom_site_occupancy
  Mg  Mg0  1  0.83333400  0.50000000  0.50000000  1
  Ag  Ag1  1  0.66640057  0.33306857  0.99999900  1
  Ag  Ag2  1  0.00026543  1.00000000  1.00000000  1
  Ag  Ag3  1  0.33333400  0.66693243  0.00000000  1
  Ag  Ag4  1  0.50014421  0.83318779  0.49956638  1
  Ag  Ag5  1  0.16652379  0.16681121  0.50043262  1
