# generated using pymatgen
data_Ca(GePt)2
_symmetry_space_group_name_H-M   'P 1'
_cell_length_a   4.24423977
_cell_length_b   4.30163809
_cell_length_c   10.41194213
_cell_angle_alpha   90.00000000
_cell_angle_beta   90.09751334
_cell_angle_gamma   90.00000000
_symmetry_Int_Tables_number   1
_chemical_formula_structural   Ca(GePt)2
_chemical_formula_sum   'Ca2 Ge4 Pt4'
_cell_volume   190.09246232
_cell_formula_units_Z   2
loop_
 _symmetry_equiv_pos_site_id
 _symmetry_equiv_pos_as_xyz
  1  'x, y, z'
loop_
 _atom_site_type_symbol
 _atom_site_label
 _atom_site_symmetry_multiplicity
 _atom_site_fract_x
 _atom_site_fract_y
 _atom_site_fract_z
 _atom_site_occupancy
  Ca  Ca0  1  0.75229494  0.74504726  0.25136750  1
  Ca  Ca1  1  0.24770606  0.24504826  0.74863150  1
  Ge  Ge2  1  0.24029761  0.25515177  0.13174192  1
  Ge  Ge3  1  0.74657720  0.23440782  0.50268129  1
  Ge  Ge4  1  0.25342080  0.73440882  0.49731771  1
  Ge  Ge5  1  0.75970339  0.75515277  0.86825808  1
  Pt  Pt6  1  0.26142210  0.75746815  0.00084743  1
  Pt  Pt7  1  0.24741376  0.23592399  0.36617024  1
  Pt  Pt8  1  0.75258724  0.73592499  0.63382976  1
  Pt  Pt9  1  0.73857690  0.25746715  0.99915257  1
