# generated using pymatgen
data_Tl2S
_symmetry_space_group_name_H-M   'P 1'
_cell_length_a   9.61519884
_cell_length_b   9.61519885
_cell_length_c   9.61519893
_cell_angle_alpha   82.13879600
_cell_angle_beta   82.13879597
_cell_angle_gamma   82.13880391
_symmetry_Int_Tables_number   1
_chemical_formula_structural   Tl2S
_chemical_formula_sum   'Tl18 S9'
_cell_volume   865.97832465
_cell_formula_units_Z   9
loop_
 _symmetry_equiv_pos_site_id
 _symmetry_equiv_pos_as_xyz
  1  'x, y, z'
loop_
 _atom_site_type_symbol
 _atom_site_label
 _atom_site_symmetry_multiplicity
 _atom_site_fract_x
 _atom_site_fract_y
 _atom_site_fract_z
 _atom_site_occupancy
  Tl  Tl0  1  0.76080024  0.72597347  0.43142218  1
  Tl  Tl1  1  0.43142118  0.76080124  0.72597347  1
  Tl  Tl2  1  0.72597247  0.43142218  0.76080124  1
  Tl  Tl3  1  0.42958124  0.39186885  0.09800220  1
  Tl  Tl4  1  0.09800120  0.42958124  0.39186885  1
  Tl  Tl5  1  0.39186885  0.09800220  0.42958124  1
  Tl  Tl6  1  0.09547216  0.05769593  0.76448010  1
  Tl  Tl7  1  0.76447910  0.09547316  0.05769493  1
  Tl  Tl8  1  0.05769493  0.76447910  0.09547316  1
  Tl  Tl9  1  0.03466154  0.65824742  0.69840332  1
  Tl  Tl10  1  0.69840332  0.03466154  0.65824742  1
  Tl  Tl11  1  0.65824742  0.69840332  0.03466154  1
  Tl  Tl12  1  0.70122057  0.32450674  0.36567517  1
  Tl  Tl13  1  0.36567617  0.70122157  0.32450574  1
  Tl  Tl14  1  0.32450674  0.36567517  0.70122157  1
  Tl  Tl15  1  0.36712924  0.99316929  0.03156104  1
  Tl  Tl16  1  0.03156004  0.36712924  0.99317029  1
  Tl  Tl17  1  0.99317029  0.03156004  0.36712924  1
  S  S18  1  0.86838125  0.86838125  0.86838125  1
  S  S19  1  0.53516958  0.53516958  0.53516958  1
  S  S20  1  0.20280893  0.20280893  0.20280893  1
  S  S21  1  0.53848518  0.20578082  0.87111144  1
  S  S22  1  0.87111044  0.53848618  0.20578082  1
  S  S23  1  0.20577982  0.87111144  0.53848618  1
  S  S24  1  0.91631457  0.24838314  0.58170039  1
  S  S25  1  0.58169939  0.91631457  0.24838314  1
  S  S26  1  0.24838314  0.58169939  0.91631457  1
