# generated using pymatgen
data_Y3Tl
_symmetry_space_group_name_H-M   'P 1'
_cell_length_a   6.91351429
_cell_length_b   6.91351312
_cell_length_c   5.69116169
_cell_angle_alpha   90.00000000
_cell_angle_beta   90.00000000
_cell_angle_gamma   119.99999580
_symmetry_Int_Tables_number   1
_chemical_formula_structural   Y3Tl
_chemical_formula_sum   'Y6 Tl2'
_cell_volume   235.57501677
_cell_formula_units_Z   2
loop_
 _symmetry_equiv_pos_site_id
 _symmetry_equiv_pos_as_xyz
  1  'x, y, z'
loop_
 _atom_site_type_symbol
 _atom_site_label
 _atom_site_symmetry_multiplicity
 _atom_site_fract_x
 _atom_site_fract_y
 _atom_site_fract_z
 _atom_site_occupancy
  Y  Y0  1  0.17009752  0.34019505  0.24999900  1
  Y  Y1  1  0.65980295  0.82990248  0.24999900  1
  Y  Y2  1  0.17009952  0.82990248  0.24999900  1
  Y  Y3  1  0.82990048  0.65980195  0.74999900  1
  Y  Y4  1  0.34019605  0.17009852  0.74999900  1
  Y  Y5  1  0.82990248  0.17009852  0.74999900  1
  Tl  Tl6  1  0.33333300  0.66666700  0.74999900  1
  Tl  Tl7  1  0.66666600  0.33333300  0.24999900  1
