# generated using pymatgen
data_LiMnVF6
_symmetry_space_group_name_H-M   'P 1'
_cell_length_a   4.82596104
_cell_length_b   4.82596104
_cell_length_c   9.55441446
_cell_angle_alpha   90.00000000
_cell_angle_beta   90.00000000
_cell_angle_gamma   90.00000000
_symmetry_Int_Tables_number   1
_chemical_formula_structural   LiMnVF6
_chemical_formula_sum   'Li2 Mn2 V2 F12'
_cell_volume   222.52135695
_cell_formula_units_Z   2
loop_
 _symmetry_equiv_pos_site_id
 _symmetry_equiv_pos_as_xyz
  1  'x, y, z'
loop_
 _atom_site_type_symbol
 _atom_site_label
 _atom_site_symmetry_multiplicity
 _atom_site_fract_x
 _atom_site_fract_y
 _atom_site_fract_z
 _atom_site_occupancy
  Li  Li0  1  0.50000000  0.50000000  0.83374069  1
  Li  Li1  1  0.00000000  -0.00000000  0.33374069  1
  Mn  Mn2  1  0.50000000  0.50000000  0.50069961  1
  Mn  Mn3  1  0.00000000  -0.00000000  0.00069961  1
  V  V4  1  0.50000000  0.50000000  0.16597757  1
  V  V5  1  0.00000000  -0.00000000  0.66597757  1
  F  F6  1  0.18955834  0.81044166  0.50767004  1
  F  F7  1  0.81044166  0.18955834  0.50767004  1
  F  F8  1  0.68955834  0.68955834  0.00767004  1
  F  F9  1  0.31044166  0.31044166  0.00767004  1
  F  F10  1  0.19364956  0.80635044  0.82178282  1
  F  F11  1  0.80635044  0.19364956  0.82178282  1
  F  F12  1  0.69364956  0.69364956  0.32178282  1
  F  F13  1  0.30635044  0.30635044  0.32178282  1
  F  F14  1  0.78924472  0.21075528  0.16838821  1
  F  F15  1  0.21075528  0.78924472  0.16838821  1
  F  F16  1  0.28924472  0.28924472  0.66838821  1
  F  F17  1  0.71075528  0.71075528  0.66838821  1
