# generated using pymatgen
data_Ba2LuIrO6
_symmetry_space_group_name_H-M   'P 1'
_cell_length_a   5.90150647
_cell_length_b   5.90049602
_cell_length_c   8.34260199
_cell_angle_alpha   90.10405864
_cell_angle_beta   90.00000000
_cell_angle_gamma   90.00000000
_symmetry_Int_Tables_number   1
_chemical_formula_structural   Ba2LuIrO6
_chemical_formula_sum   'Ba4 Lu2 Ir2 O12'
_cell_volume   290.50406776
_cell_formula_units_Z   2
loop_
 _symmetry_equiv_pos_site_id
 _symmetry_equiv_pos_as_xyz
  1  'x, y, z'
loop_
 _atom_site_type_symbol
 _atom_site_label
 _atom_site_symmetry_multiplicity
 _atom_site_fract_x
 _atom_site_fract_y
 _atom_site_fract_z
 _atom_site_occupancy
  Ba  Ba0  1  0.99930976  0.00116587  0.75026048  1
  Ba  Ba1  1  0.50069024  0.50116587  0.25026048  1
  Ba  Ba2  1  0.00069024  0.99883413  0.24973952  1
  Ba  Ba3  1  0.49930976  0.49883413  0.74973952  1
  Lu  Lu4  1  0.00000000  0.50000000  0.50000000  1
  Lu  Lu5  1  0.50000000  -0.00000000  -0.00000000  1
  Ir  Ir6  1  0.50000000  -0.00000000  0.50000000  1
  Ir  Ir7  1  0.00000000  0.50000000  -0.00000000  1
  O  O8  1  0.27039168  0.75164829  0.50139263  1
  O  O9  1  0.22960832  0.25164829  0.00139263  1
  O  O10  1  0.72960832  0.24835171  0.49860737  1
  O  O11  1  0.77039168  0.74835171  0.99860737  1
  O  O12  1  0.74815217  0.77010491  0.49872450  1
  O  O13  1  0.75184783  0.27010491  0.99872450  1
  O  O14  1  0.25184783  0.22989509  0.50127550  1
  O  O15  1  0.24815217  0.72989509  0.00127550  1
  O  O16  1  0.49881545  0.00101335  0.73831290  1
  O  O17  1  0.00118455  0.50101335  0.23831290  1
  O  O18  1  0.50118455  0.99898665  0.26168710  1
  O  O19  1  0.99881545  0.49898665  0.76168710  1
