# generated using pymatgen
data_CsP(HO2)2
_symmetry_space_group_name_H-M   'P 1'
_cell_length_a   4.94896388
_cell_length_b   6.58935862
_cell_length_c   8.03895849
_cell_angle_alpha   90.00000000
_cell_angle_beta   107.81996678
_cell_angle_gamma   90.00000000
_symmetry_Int_Tables_number   1
_chemical_formula_structural   CsP(HO2)2
_chemical_formula_sum   'Cs2 P2 H4 O8'
_cell_volume   249.57700330
_cell_formula_units_Z   2
loop_
 _symmetry_equiv_pos_site_id
 _symmetry_equiv_pos_as_xyz
  1  'x, y, z'
loop_
 _atom_site_type_symbol
 _atom_site_label
 _atom_site_symmetry_multiplicity
 _atom_site_fract_x
 _atom_site_fract_y
 _atom_site_fract_z
 _atom_site_occupancy
  Cs  Cs0  1  0.94937110  0.75000000  0.73176082  1
  Cs  Cs1  1  0.05062890  0.25000000  0.26823918  1
  P  P2  1  0.46844938  0.25000000  0.77018002  1
  P  P3  1  0.53155062  0.75000000  0.22981998  1
  H  H4  1  0.82772343  0.25000000  0.65500510  1
  H  H5  1  0.17227657  0.75000000  0.34499490  1
  H  H6  1  0.50000000  -0.00000000  0.00000000  1
  H  H7  1  0.50000000  0.50000000  0.00000000  1
  O  O8  1  0.61152984  0.25000000  0.61717315  1
  O  O9  1  0.38847016  0.75000000  0.38282685  1
  O  O10  1  0.14990552  0.25000000  0.68204509  1
  O  O11  1  0.85009448  0.75000000  0.31795491  1
  O  O12  1  0.57956127  0.05551360  0.88015345  1
  O  O13  1  0.42043873  0.55551360  0.11984655  1
  O  O14  1  0.42043873  0.94448640  0.11984655  1
  O  O15  1  0.57956127  0.44448640  0.88015345  1
