# generated using pymatgen
data_Tl2ZnP4(HO2)8
_symmetry_space_group_name_H-M   'P 1'
_cell_length_a   7.05662801
_cell_length_b   7.50888636
_cell_length_c   7.77584778
_cell_angle_alpha   81.27179203
_cell_angle_beta   73.49294952
_cell_angle_gamma   86.03769715
_symmetry_Int_Tables_number   1
_chemical_formula_structural   Tl2ZnP4(HO2)8
_chemical_formula_sum   'Tl2 Zn1 P4 H8 O16'
_cell_volume   390.31887253
_cell_formula_units_Z   1
loop_
 _symmetry_equiv_pos_site_id
 _symmetry_equiv_pos_as_xyz
  1  'x, y, z'
loop_
 _atom_site_type_symbol
 _atom_site_label
 _atom_site_symmetry_multiplicity
 _atom_site_fract_x
 _atom_site_fract_y
 _atom_site_fract_z
 _atom_site_occupancy
  Tl  Tl0  1  0.89327221  0.27959179  0.20211044  1
  Tl  Tl1  1  0.10672779  0.72040821  0.79788956  1
  Zn  Zn2  1  0.50000000  0.50000000  -0.00000000  1
  P  P3  1  0.24482213  0.80243842  0.25120185  1
  P  P4  1  0.75517787  0.19756158  0.74879815  1
  P  P5  1  0.65666863  0.73391117  0.26154485  1
  P  P6  1  0.34333137  0.26608883  0.73845515  1
  H  H7  1  0.93658477  0.72874286  0.41588838  1
  H  H8  1  0.06341523  0.27125714  0.58411162  1
  H  H9  1  0.73503656  0.96128120  0.03988697  1
  H  H10  1  0.26496344  0.03871880  0.96011303  1
  H  H11  1  0.38112492  0.32056736  0.35117101  1
  H  H12  1  0.61887508  0.67943264  0.64882899  1
  H  H13  1  0.37477662  0.18677960  0.21170191  1
  H  H14  1  0.62522338  0.81322040  0.78829809  1
  O  O15  1  0.25950064  0.99657712  0.15776096  1
  O  O16  1  0.74049936  0.00342288  0.84223904  1
  O  O17  1  0.06566998  0.77900022  0.42658337  1
  O  O18  1  0.93433002  0.22099978  0.57341663  1
  O  O19  1  0.25280929  0.66057751  0.12908815  1
  O  O20  1  0.74719071  0.33942249  0.87091185  1
  O  O21  1  0.42168920  0.76335644  0.35016622  1
  O  O22  1  0.57831080  0.23664356  0.64983378  1
  O  O23  1  0.73839563  0.66709974  0.42062189  1
  O  O24  1  0.26160437  0.33290026  0.57937811  1
  O  O25  1  0.74166760  0.92558737  0.17267556  1
  O  O26  1  0.25833240  0.07441263  0.82732444  1
  O  O27  1  0.69017019  0.61078273  0.11660031  1
  O  O28  1  0.30982981  0.38921727  0.88339969  1
  O  O29  1  0.44437756  0.29149657  0.22646155  1
  O  O30  1  0.55562244  0.70850343  0.77353845  1
