# generated using pymatgen
data_Ba2ErInSe5
_symmetry_space_group_name_H-M   'P 1'
_cell_length_a   4.29507877
_cell_length_b   9.75317935
_cell_length_c   13.49221296
_cell_angle_alpha   90.00000000
_cell_angle_beta   90.00000000
_cell_angle_gamma   102.72011046
_symmetry_Int_Tables_number   1
_chemical_formula_structural   Ba2ErInSe5
_chemical_formula_sum   'Ba4 Er2 In2 Se10'
_cell_volume   551.32641728
_cell_formula_units_Z   2
loop_
 _symmetry_equiv_pos_site_id
 _symmetry_equiv_pos_as_xyz
  1  'x, y, z'
loop_
 _atom_site_type_symbol
 _atom_site_label
 _atom_site_symmetry_multiplicity
 _atom_site_fract_x
 _atom_site_fract_y
 _atom_site_fract_z
 _atom_site_occupancy
  Ba  Ba0  1  0.13294624  0.26589247  0.18683926  1
  Ba  Ba1  1  0.86705376  0.73410753  0.68683926  1
  Ba  Ba2  1  0.11753499  0.23506997  0.81893154  1
  Ba  Ba3  1  0.88246501  0.76493003  0.31893154  1
  Er  Er4  1  0.21159241  0.42318483  0.48190554  1
  Er  Er5  1  0.78840759  0.57681517  0.98190554  1
  In  In6  1  0.44747998  0.89495995  0.06282453  1
  In  In7  1  0.55252002  0.10504005  0.56282453  1
  Se  Se8  1  0.35516432  0.71032863  0.49978248  1
  Se  Se9  1  0.64483568  0.28967137  0.99978248  1
  Se  Se10  1  0.29077875  0.58155750  0.84460184  1
  Se  Se11  1  0.70922125  0.41844250  0.34460184  1
  Se  Se12  1  0.31252188  0.62504376  0.12839965  1
  Se  Se13  1  0.68747812  0.37495624  0.62839965  1
  Se  Se14  1  0.50477249  0.00954497  0.23373354  1
  Se  Se15  1  0.49522751  0.99045503  0.73373354  1
  Se  Se16  1  0.05171326  0.10342652  0.44918162  1
  Se  Se17  1  0.94828674  0.89657348  0.94918162  1
