# generated using pymatgen
data_Tb3Ge3Ru2
_symmetry_space_group_name_H-M   'P 1'
_cell_length_a   4.30903282
_cell_length_b   5.86852586
_cell_length_c   14.05542640
_cell_angle_alpha   90.00000000
_cell_angle_beta   90.00000000
_cell_angle_gamma   111.53877281
_symmetry_Int_Tables_number   1
_chemical_formula_structural   Tb3Ge3Ru2
_chemical_formula_sum   'Tb6 Ge6 Ru4'
_cell_volume   330.60915058
_cell_formula_units_Z   2
loop_
 _symmetry_equiv_pos_site_id
 _symmetry_equiv_pos_as_xyz
  1  'x, y, z'
loop_
 _atom_site_type_symbol
 _atom_site_label
 _atom_site_symmetry_multiplicity
 _atom_site_fract_x
 _atom_site_fract_y
 _atom_site_fract_z
 _atom_site_occupancy
  Tb  Tb0  1  0.07855726  0.15711452  0.38651105  1
  Tb  Tb1  1  0.92144274  0.84288548  0.61348895  1
  Tb  Tb2  1  0.07855726  0.15711452  0.11348895  1
  Tb  Tb3  1  0.92144274  0.84288548  0.88651105  1
  Tb  Tb4  1  0.35324073  0.70648146  0.25000000  1
  Tb  Tb5  1  0.64675927  0.29351854  0.75000000  1
  Ge  Ge6  1  0.38178930  0.76357860  0.45847082  1
  Ge  Ge7  1  0.61821070  0.23642140  0.54152918  1
  Ge  Ge8  1  0.38178930  0.76357860  0.04152918  1
  Ge  Ge9  1  0.61821070  0.23642140  0.95847082  1
  Ge  Ge10  1  0.66686450  0.33372900  0.25000000  1
  Ge  Ge11  1  0.33313550  0.66627100  0.75000000  1
  Ru  Ru12  1  0.21383574  0.42767149  0.91935332  1
  Ru  Ru13  1  0.78616426  0.57232851  0.08064668  1
  Ru  Ru14  1  0.21383574  0.42767149  0.58064668  1
  Ru  Ru15  1  0.78616426  0.57232851  0.41935332  1
