# generated using pymatgen
data_Tb3Co2Ge3
_symmetry_space_group_name_H-M   'P 1'
_cell_length_a   4.15907891
_cell_length_b   5.67587914
_cell_length_c   14.03248435
_cell_angle_alpha   90.00000000
_cell_angle_beta   90.00000000
_cell_angle_gamma   111.49265281
_symmetry_Int_Tables_number   1
_chemical_formula_structural   Tb3Co2Ge3
_chemical_formula_sum   'Tb6 Co4 Ge6'
_cell_volume   308.22275699
_cell_formula_units_Z   2
loop_
 _symmetry_equiv_pos_site_id
 _symmetry_equiv_pos_as_xyz
  1  'x, y, z'
loop_
 _atom_site_type_symbol
 _atom_site_label
 _atom_site_symmetry_multiplicity
 _atom_site_fract_x
 _atom_site_fract_y
 _atom_site_fract_z
 _atom_site_occupancy
  Tb  Tb0  1  0.41824054  0.83648109  0.39051710  1
  Tb  Tb1  1  0.58175946  0.16351891  0.60948290  1
  Tb  Tb2  1  0.41824054  0.83648109  0.10948290  1
  Tb  Tb3  1  0.58175946  0.16351891  0.89051710  1
  Tb  Tb4  1  0.14062130  0.28124259  0.25000000  1
  Tb  Tb5  1  0.85937870  0.71875741  0.75000000  1
  Co  Co6  1  0.71159713  0.42319426  0.40627702  1
  Co  Co7  1  0.28840287  0.57680574  0.59372298  1
  Co  Co8  1  0.71159713  0.42319426  0.09372298  1
  Co  Co9  1  0.28840287  0.57680574  0.90627702  1
  Ge  Ge10  1  0.83705376  0.67410752  0.25000000  1
  Ge  Ge11  1  0.16294624  0.32589248  0.75000000  1
  Ge  Ge12  1  0.12754088  0.25508176  0.45988842  1
  Ge  Ge13  1  0.87245912  0.74491824  0.54011158  1
  Ge  Ge14  1  0.12754088  0.25508176  0.04011158  1
  Ge  Ge15  1  0.87245912  0.74491824  0.95988842  1
