# generated using pymatgen
data_Ba3Sn2
_symmetry_space_group_name_H-M   'P 1'
_cell_length_a   6.72637461
_cell_length_b   6.72637461
_cell_length_c   18.11404999
_cell_angle_alpha   90.00000000
_cell_angle_beta   90.00000000
_cell_angle_gamma   90.00000000
_symmetry_Int_Tables_number   1
_chemical_formula_structural   Ba3Sn2
_chemical_formula_sum   'Ba12 Sn8'
_cell_volume   819.55416800
_cell_formula_units_Z   4
loop_
 _symmetry_equiv_pos_site_id
 _symmetry_equiv_pos_as_xyz
  1  'x, y, z'
loop_
 _atom_site_type_symbol
 _atom_site_label
 _atom_site_symmetry_multiplicity
 _atom_site_fract_x
 _atom_site_fract_y
 _atom_site_fract_z
 _atom_site_occupancy
  Ba  Ba0  1  0.34134545  0.91438679  0.13714602  1
  Ba  Ba1  1  0.65865455  0.08561321  0.63714602  1
  Ba  Ba2  1  0.41438679  0.15865455  0.38714602  1
  Ba  Ba3  1  0.58561321  0.84134545  0.88714602  1
  Ba  Ba4  1  0.08561321  0.65865455  0.36285398  1
  Ba  Ba5  1  0.91438679  0.34134545  0.86285398  1
  Ba  Ba6  1  0.15865455  0.41438679  0.61285398  1
  Ba  Ba7  1  0.84134545  0.58561321  0.11285398  1
  Ba  Ba8  1  0.82770691  0.17229309  0.25000000  1
  Ba  Ba9  1  0.17229309  0.82770691  0.75000000  1
  Ba  Ba10  1  0.67229309  0.67229309  0.50000000  1
  Ba  Ba11  1  0.32770691  0.32770691  0.00000000  1
  Sn  Sn12  1  0.33057124  0.41195895  0.20228901  1
  Sn  Sn13  1  0.66942876  0.58804105  0.70228901  1
  Sn  Sn14  1  0.91195895  0.16942876  0.45228901  1
  Sn  Sn15  1  0.08804105  0.83057124  0.95228901  1
  Sn  Sn16  1  0.58804105  0.66942876  0.29771099  1
  Sn  Sn17  1  0.41195895  0.33057124  0.79771099  1
  Sn  Sn18  1  0.16942876  0.91195895  0.54771099  1
  Sn  Sn19  1  0.83057124  0.08804105  0.04771099  1
