# generated using pymatgen
data_Th2Fe7
_symmetry_space_group_name_H-M   'P 1'
_cell_length_a   5.12238627
_cell_length_b   5.12238627
_cell_length_c   12.67915606
_cell_angle_alpha   78.34604375
_cell_angle_beta   78.34604375
_cell_angle_gamma   59.99999497
_symmetry_Int_Tables_number   1
_chemical_formula_structural   Th2Fe7
_chemical_formula_sum   'Th4 Fe14'
_cell_volume   280.16770681
_cell_formula_units_Z   2
loop_
 _symmetry_equiv_pos_site_id
 _symmetry_equiv_pos_as_xyz
  1  'x, y, z'
loop_
 _atom_site_type_symbol
 _atom_site_label
 _atom_site_symmetry_multiplicity
 _atom_site_fract_x
 _atom_site_fract_y
 _atom_site_fract_z
 _atom_site_occupancy
  Th  Th0  1  0.05093937  0.05093937  0.84718189  1
  Th  Th1  1  0.94906063  0.94906063  0.15281811  1
  Th  Th2  1  0.14842455  0.14842455  0.55472636  1
  Th  Th3  1  0.85157545  0.85157545  0.44527364  1
  Fe  Fe4  1  0.50000000  0.50000000  0.50000000  1
  Fe  Fe5  1  0.27759279  0.27759279  0.16722164  1
  Fe  Fe6  1  0.72240721  0.72240721  0.83277836  1
  Fe  Fe7  1  0.38872073  0.38872073  0.83383781  1
  Fe  Fe8  1  0.61127927  0.61127927  0.16616219  1
  Fe  Fe9  1  0.50000000  0.50000000  -0.00000000  1
  Fe  Fe10  1  0.50000000  0.00000000  -0.00000000  1
  Fe  Fe11  1  -0.00000000  0.50000000  -0.00000000  1
  Fe  Fe12  1  0.10860492  0.61030014  0.67079480  1
  Fe  Fe13  1  0.61030014  0.61030014  0.67079480  1
  Fe  Fe14  1  0.61030014  0.10860492  0.67079480  1
  Fe  Fe15  1  0.89139508  0.38969986  0.32920520  1
  Fe  Fe16  1  0.38969986  0.38969986  0.32920520  1
  Fe  Fe17  1  0.38969986  0.89139508  0.32920520  1
