# generated using pymatgen
data_La5CuBi3
_symmetry_space_group_name_H-M   'P 1'
_cell_length_a   6.71670502
_cell_length_b   9.82541543
_cell_length_c   9.82266815
_cell_angle_alpha   119.99277408
_cell_angle_beta   89.99979852
_cell_angle_gamma   89.99961475
_symmetry_Int_Tables_number   1
_chemical_formula_structural   La5CuBi3
_chemical_formula_sum   'La10 Cu2 Bi6'
_cell_volume   561.43427070
_cell_formula_units_Z   2
loop_
 _symmetry_equiv_pos_site_id
 _symmetry_equiv_pos_as_xyz
  1  'x, y, z'
loop_
 _atom_site_type_symbol
 _atom_site_label
 _atom_site_symmetry_multiplicity
 _atom_site_fract_x
 _atom_site_fract_y
 _atom_site_fract_z
 _atom_site_occupancy
  La  La0  1  0.50001293  0.33332888  0.66667719  1
  La  La1  1  0.49998859  0.66662807  0.33332218  1
  La  La2  1  0.00001255  0.66667222  0.33332545  1
  La  La3  1  0.99998802  0.33336697  0.66666952  1
  La  La4  1  0.75000066  0.25935079  0.99997653  1
  La  La5  1  0.74999702  0.74060855  0.74062786  1
  La  La6  1  0.75000460  0.00000984  0.25937113  1
  La  La7  1  0.24999047  0.74063223  -0.00000942  1
  La  La8  1  0.25000831  0.25938328  0.25939537  1
  La  La9  1  0.25000058  0.00001801  0.74064473  1
  Cu  Cu10  1  0.49999809  0.99999757  0.00000082  1
  Cu  Cu11  1  0.00000247  0.00000111  0.00000020  1
  Bi  Bi12  1  0.74999557  0.61546358  0.00001357  1
  Bi  Bi13  1  0.75000325  0.38455355  0.38453577  1
  Bi  Bi14  1  0.75000074  0.99999044  0.61546747  1
  Bi  Bi15  1  0.24999594  0.38455020  0.00000975  1
  Bi  Bi16  1  0.24999911  0.61546125  0.61545191  1
  Bi  Bi17  1  0.25000113  -0.00001654  0.38451996  1
