# generated using pymatgen
data_As2S3
_symmetry_space_group_name_H-M   'P 1'
_cell_length_a   5.87859549
_cell_length_b   9.11789622
_cell_length_c   11.03338215
_cell_angle_alpha   79.05479511
_cell_angle_beta   76.78546562
_cell_angle_gamma   89.97885289
_symmetry_Int_Tables_number   1
_chemical_formula_structural   As2S3
_chemical_formula_sum   'As8 S12'
_cell_volume   564.68810565
_cell_formula_units_Z   4
loop_
 _symmetry_equiv_pos_site_id
 _symmetry_equiv_pos_as_xyz
  1  'x, y, z'
loop_
 _atom_site_type_symbol
 _atom_site_label
 _atom_site_symmetry_multiplicity
 _atom_site_fract_x
 _atom_site_fract_y
 _atom_site_fract_z
 _atom_site_occupancy
  As  As0  1  0.60864422  0.63954505  0.32255748  1
  As  As1  1  0.39135578  0.36045495  0.67744252  1
  As  As2  1  0.18269312  0.82854731  0.16888380  1
  As  As3  1  0.81730688  0.17145269  0.83111620  1
  As  As4  1  0.62475163  0.32512854  0.17257068  1
  As  As5  1  0.37524837  0.67487146  0.82742932  1
  As  As6  1  0.06865263  0.13826331  0.32620668  1
  As  As7  1  0.93134737  0.86173669  0.67379332  1
  S  S8  1  0.10185167  0.07681594  0.13016843  1
  S  S9  1  0.89814833  0.92318406  0.86983157  1
  S  S10  1  0.49578394  0.87479780  0.24827747  1
  S  S11  1  0.50421606  0.12520220  0.75172253  1
  S  S12  1  0.24613150  0.37351770  0.25508199  1
  S  S13  1  0.75386850  0.62648230  0.74491801  1
  S  S14  1  0.94141251  0.73052198  0.36376303  1
  S  S15  1  0.05858749  0.26947802  0.63623697  1
  S  S16  1  0.70136326  0.23018560  0.36735420  1
  S  S17  1  0.29863674  0.76981440  0.63264580  1
  S  S18  1  0.74415906  0.57281855  0.12877462  1
  S  S19  1  0.25584094  0.42718145  0.87122538  1
