# generated using pymatgen
data_Dy2Co3Si5
_symmetry_space_group_name_H-M   'P 1'
_cell_length_a   5.54201430
_cell_length_b   7.84432169
_cell_length_c   7.84432169
_cell_angle_alpha   75.16900137
_cell_angle_beta   69.31376701
_cell_angle_gamma   69.31376701
_symmetry_Int_Tables_number   1
_chemical_formula_structural   Dy2Co3Si5
_chemical_formula_sum   'Dy4 Co6 Si10'
_cell_volume   295.09292638
_cell_formula_units_Z   2
loop_
 _symmetry_equiv_pos_site_id
 _symmetry_equiv_pos_as_xyz
  1  'x, y, z'
loop_
 _atom_site_type_symbol
 _atom_site_label
 _atom_site_symmetry_multiplicity
 _atom_site_fract_x
 _atom_site_fract_y
 _atom_site_fract_z
 _atom_site_occupancy
  Dy  Dy0  1  0.36724676  0.39741187  0.86809461  1
  Dy  Dy1  1  0.63275324  0.60258813  0.13190539  1
  Dy  Dy2  1  0.86724676  0.86809461  0.39741187  1
  Dy  Dy3  1  0.13275324  0.13190539  0.60258813  1
  Co  Co4  1  0.25000000  -0.00000000  -0.00000000  1
  Co  Co5  1  0.75000000  -0.00000000  -0.00000000  1
  Co  Co6  1  0.13618519  0.47591715  0.25171247  1
  Co  Co7  1  0.86381481  0.52408285  0.74828753  1
  Co  Co8  1  0.63618519  0.25171247  0.47591715  1
  Co  Co9  1  0.36381481  0.74828753  0.52408285  1
  Si  Si10  1  0.25000000  0.50000000  0.50000000  1
  Si  Si11  1  0.75000000  0.50000000  0.50000000  1
  Si  Si12  1  0.01876170  0.23123830  0.23123830  1
  Si  Si13  1  0.48123830  0.76876170  0.76876170  1
  Si  Si14  1  0.98123830  0.76876170  0.76876170  1
  Si  Si15  1  0.51876170  0.23123830  0.23123830  1
  Si  Si16  1  0.10287752  0.74170876  0.05253620  1
  Si  Si17  1  0.89712248  0.25829124  0.94746380  1
  Si  Si18  1  0.60287752  0.05253620  0.74170876  1
  Si  Si19  1  0.39712248  0.94746380  0.25829124  1
