# generated using pymatgen
data_Pr7Ir3
_symmetry_space_group_name_H-M   'P 1'
_cell_length_a   6.41630398
_cell_length_b   10.24813096
_cell_length_c   10.24813096
_cell_angle_alpha   119.98821685
_cell_angle_beta   90.00000000
_cell_angle_gamma   90.00000000
_symmetry_Int_Tables_number   1
_chemical_formula_structural   Pr7Ir3
_chemical_formula_sum   'Pr14 Ir6'
_cell_volume   583.65532122
_cell_formula_units_Z   2
loop_
 _symmetry_equiv_pos_site_id
 _symmetry_equiv_pos_as_xyz
  1  'x, y, z'
loop_
 _atom_site_type_symbol
 _atom_site_label
 _atom_site_symmetry_multiplicity
 _atom_site_fract_x
 _atom_site_fract_y
 _atom_site_fract_z
 _atom_site_occupancy
  Pr  Pr0  1  0.46810712  0.33332519  0.66667481  1
  Pr  Pr1  1  0.96810712  0.66667481  0.33332519  1
  Pr  Pr2  1  0.25394947  0.12529649  0.87470351  1
  Pr  Pr3  1  0.25397185  0.74939453  0.87468960  1
  Pr  Pr4  1  0.25397185  0.12531040  0.25060547  1
  Pr  Pr5  1  0.75394947  0.87470351  0.12529649  1
  Pr  Pr6  1  0.75397185  0.25060547  0.12531040  1
  Pr  Pr7  1  0.75397185  0.87468960  0.74939453  1
  Pr  Pr8  1  0.44188607  0.54088588  0.45911412  1
  Pr  Pr9  1  0.44181516  0.91823923  0.45912756  1
  Pr  Pr10  1  0.44181516  0.54087244  0.08176077  1
  Pr  Pr11  1  0.94188607  0.45911412  0.54088588  1
  Pr  Pr12  1  0.94181516  0.08176077  0.54087244  1
  Pr  Pr13  1  0.94181516  0.45912756  0.91823923  1
  Ir  Ir14  1  0.18181050  0.81107102  0.18892898  1
  Ir  Ir15  1  0.18183641  0.37788999  0.18894656  1
  Ir  Ir16  1  0.18183641  0.81105344  0.62211001  1
  Ir  Ir17  1  0.68181050  0.18892898  0.81107102  1
  Ir  Ir18  1  0.68183641  0.62211001  0.81105344  1
  Ir  Ir19  1  0.68183641  0.18894656  0.37788999  1
