# generated using pymatgen
data_Sm4Ge7
_symmetry_space_group_name_H-M   'P 1'
_cell_length_a   5.96993635
_cell_length_b   7.57233610
_cell_length_c   11.95302755
_cell_angle_alpha   90.00000000
_cell_angle_beta   90.00000000
_cell_angle_gamma   113.21570066
_symmetry_Int_Tables_number   1
_chemical_formula_structural   Sm4Ge7
_chemical_formula_sum   'Sm8 Ge14'
_cell_volume   496.59911502
_cell_formula_units_Z   2
loop_
 _symmetry_equiv_pos_site_id
 _symmetry_equiv_pos_as_xyz
  1  'x, y, z'
loop_
 _atom_site_type_symbol
 _atom_site_label
 _atom_site_symmetry_multiplicity
 _atom_site_fract_x
 _atom_site_fract_y
 _atom_site_fract_z
 _atom_site_occupancy
  Sm  Sm0  1  0.98255882  0.49067691  0.38018496  1
  Sm  Sm1  1  0.49188192  0.50932309  0.61981504  1
  Sm  Sm2  1  0.01744118  0.50932309  0.88018496  1
  Sm  Sm3  1  0.50811808  0.49067691  0.11981504  1
  Sm  Sm4  1  0.00432579  0.00865158  0.25000000  1
  Sm  Sm5  1  0.99567421  0.99134842  0.75000000  1
  Sm  Sm6  1  0.48664032  1.00000000  0.50000000  1
  Sm  Sm7  1  0.51335968  0.00000000  -0.00000000  1
  Ge  Ge8  1  0.10673361  0.17769044  0.98914935  1
  Ge  Ge9  1  0.92904317  0.82230956  0.01085065  1
  Ge  Ge10  1  0.89326639  0.82230956  0.48914935  1
  Ge  Ge11  1  0.07095683  0.17769044  0.51085065  1
  Ge  Ge12  1  0.91899385  0.34481531  0.12828925  1
  Ge  Ge13  1  0.57417854  0.65518469  0.87171075  1
  Ge  Ge14  1  0.08100615  0.65518469  0.62828925  1
  Ge  Ge15  1  0.42582146  0.34481531  0.37171075  1
  Ge  Ge16  1  0.18013083  0.70564086  0.16306033  1
  Ge  Ge17  1  0.47448997  0.29435914  0.83693967  1
  Ge  Ge18  1  0.81986917  0.29435914  0.66306033  1
  Ge  Ge19  1  0.52551003  0.70564086  0.33693967  1
  Ge  Ge20  1  0.56085949  0.12171898  0.25000000  1
  Ge  Ge21  1  0.43914051  0.87828102  0.75000000  1
