# generated using pymatgen
data_Na2U2O7
_symmetry_space_group_name_H-M   'P 1'
_cell_length_a   6.57713765
_cell_length_b   6.94210082
_cell_length_c   7.92918674
_cell_angle_alpha   90.00000000
_cell_angle_beta   90.00000000
_cell_angle_gamma   110.62990930
_symmetry_Int_Tables_number   1
_chemical_formula_structural   Na2U2O7
_chemical_formula_sum   'Na4 U4 O14'
_cell_volume   338.82440435
_cell_formula_units_Z   2
loop_
 _symmetry_equiv_pos_site_id
 _symmetry_equiv_pos_as_xyz
  1  'x, y, z'
loop_
 _atom_site_type_symbol
 _atom_site_label
 _atom_site_symmetry_multiplicity
 _atom_site_fract_x
 _atom_site_fract_y
 _atom_site_fract_z
 _atom_site_occupancy
  Na  Na0  1  0.46447116  0.49755883  0.51926598  1
  Na  Na1  1  0.53552884  0.50244117  0.01926598  1
  Na  Na2  1  0.50577080  0.99708562  0.26509808  1
  Na  Na3  1  0.49422920  0.00291438  0.76509808  1
  U  U4  1  0.99787685  0.98410001  0.00071771  1
  U  U5  1  0.00212315  0.01589999  0.50071771  1
  U  U6  1  0.99854475  0.53158137  0.75377593  1
  U  U7  1  0.00145525  0.46841863  0.25377593  1
  O  O8  1  0.01265997  0.86819676  0.74439748  1
  O  O9  1  0.98734003  0.13180324  0.24439748  1
  O  O10  1  0.97723208  0.65211825  0.02430048  1
  O  O11  1  0.02276792  0.34788175  0.52430048  1
  O  O12  1  0.69446802  0.91993568  0.51273855  1
  O  O13  1  0.30553198  0.08006432  0.01273855  1
  O  O14  1  0.30243484  0.63679544  0.75308646  1
  O  O15  1  0.69756516  0.36320456  0.25308646  1
  O  O16  1  0.69246544  0.42934575  0.74210386  1
  O  O17  1  0.30753456  0.57065425  0.24210386  1
  O  O18  1  0.69098436  0.88338203  0.99859415  1
  O  O19  1  0.30901564  0.11661797  0.49859415  1
  O  O20  1  0.00087940  0.72311220  0.40776131  1
  O  O21  1  0.99912060  0.27688780  0.90776131  1
