# generated using pymatgen
data_DyIn2Ni9
_symmetry_space_group_name_H-M   'P 1'
_cell_length_a   4.81278571
_cell_length_b   8.23417601
_cell_length_c   8.23417601
_cell_angle_alpha   90.00000000
_cell_angle_beta   90.00000000
_cell_angle_gamma   90.00000000
_symmetry_Int_Tables_number   1
_chemical_formula_structural   DyIn2Ni9
_chemical_formula_sum   'Dy2 In4 Ni18'
_cell_volume   326.31483420
_cell_formula_units_Z   2
loop_
 _symmetry_equiv_pos_site_id
 _symmetry_equiv_pos_as_xyz
  1  'x, y, z'
loop_
 _atom_site_type_symbol
 _atom_site_label
 _atom_site_symmetry_multiplicity
 _atom_site_fract_x
 _atom_site_fract_y
 _atom_site_fract_z
 _atom_site_occupancy
  Dy  Dy0  1  -0.00000000  0.50000000  0.50000000  1
  Dy  Dy1  1  -0.00000000  -0.00000000  -0.00000000  1
  In  In2  1  -0.00000000  0.62587568  0.12587568  1
  In  In3  1  -0.00000000  0.37412432  0.87412432  1
  In  In4  1  -0.00000000  0.87412432  0.62587568  1
  In  In5  1  -0.00000000  0.12587568  0.37412432  1
  Ni  Ni6  1  0.75211890  0.17662258  0.67662258  1
  Ni  Ni7  1  0.75211890  0.82337742  0.32337742  1
  Ni  Ni8  1  0.75211890  0.32337742  0.17662258  1
  Ni  Ni9  1  0.75211890  0.67662258  0.82337742  1
  Ni  Ni10  1  0.24788110  0.82337742  0.32337742  1
  Ni  Ni11  1  0.24788110  0.17662258  0.67662258  1
  Ni  Ni12  1  0.24788110  0.67662258  0.82337742  1
  Ni  Ni13  1  0.24788110  0.32337742  0.17662258  1
  Ni  Ni14  1  0.50000000  0.70537889  0.56439119  1
  Ni  Ni15  1  0.50000000  0.29462111  0.43560881  1
  Ni  Ni16  1  0.50000000  0.79462111  0.06439119  1
  Ni  Ni17  1  0.50000000  0.20537889  0.93560881  1
  Ni  Ni18  1  0.50000000  0.56439119  0.29462111  1
  Ni  Ni19  1  0.50000000  0.43560881  0.70537889  1
  Ni  Ni20  1  0.50000000  0.06439119  0.20537889  1
  Ni  Ni21  1  0.50000000  0.93560881  0.79462111  1
  Ni  Ni22  1  0.50000000  -0.00000000  0.50000000  1
  Ni  Ni23  1  0.50000000  0.50000000  -0.00000000  1
