# generated using pymatgen
data_Ca5(CrN3)2
_symmetry_space_group_name_H-M   'P 1'
_cell_length_a   5.00867303
_cell_length_b   6.88945696
_cell_length_c   6.41918418
_cell_angle_alpha   104.28762421
_cell_angle_beta   90.00000000
_cell_angle_gamma   90.00000000
_symmetry_Int_Tables_number   1
_chemical_formula_structural   Ca5(CrN3)2
_chemical_formula_sum   'Ca5 Cr2 N6'
_cell_volume   214.65560731
_cell_formula_units_Z   1
loop_
 _symmetry_equiv_pos_site_id
 _symmetry_equiv_pos_as_xyz
  1  'x, y, z'
loop_
 _atom_site_type_symbol
 _atom_site_label
 _atom_site_symmetry_multiplicity
 _atom_site_fract_x
 _atom_site_fract_y
 _atom_site_fract_z
 _atom_site_occupancy
  Ca  Ca0  1  0.25000000  0.42916793  0.19892914  1
  Ca  Ca1  1  0.75000000  0.09262563  0.87473619  1
  Ca  Ca2  1  0.75000000  0.16491376  0.40013882  1
  Ca  Ca3  1  0.25000000  0.89104144  0.10908989  1
  Ca  Ca4  1  0.75000000  0.59731516  0.79194981  1
  Cr  Cr5  1  0.75000000  0.70269707  0.29496985  1
  Cr  Cr6  1  0.25000000  0.28955297  0.70755119  1
  N  N7  1  0.75000000  0.44239420  0.20134501  1
  N  N8  1  0.25000000  0.13749786  0.88617315  1
  N  N9  1  0.75000000  0.86590276  0.11693470  1
  N  N10  1  0.25000000  0.20018767  0.42889383  1
  N  N11  1  0.25000000  0.53808076  0.83614914  1
  N  N12  1  0.75000000  0.81813280  0.55757228  1
