# generated using pymatgen
data_Li2IrO3
_symmetry_space_group_name_H-M   'P 1'
_cell_length_a   5.14421275
_cell_length_b   5.14421275
_cell_length_c   9.49026824
_cell_angle_alpha   100.43712871
_cell_angle_beta   100.43712871
_cell_angle_gamma   109.36526412
_symmetry_Int_Tables_number   1
_chemical_formula_structural   Li2IrO3
_chemical_formula_sum   'Li8 Ir4 O12'
_cell_volume   224.99830027
_cell_formula_units_Z   4
loop_
 _symmetry_equiv_pos_site_id
 _symmetry_equiv_pos_as_xyz
  1  'x, y, z'
loop_
 _atom_site_type_symbol
 _atom_site_label
 _atom_site_symmetry_multiplicity
 _atom_site_fract_x
 _atom_site_fract_y
 _atom_site_fract_z
 _atom_site_occupancy
  Li  Li0  1  0.29428750  0.04428750  0.08857499  1
  Li  Li1  1  0.45571250  0.20571250  0.41142501  1
  Li  Li2  1  0.70571250  0.95571250  0.91142501  1
  Li  Li3  1  0.54428750  0.79428750  0.58857499  1
  Li  Li4  1  0.12585949  0.87585949  0.75171898  1
  Li  Li5  1  0.62414051  0.37414051  0.74828102  1
  Li  Li6  1  0.87414051  0.12414051  0.24828102  1
  Li  Li7  1  0.37585949  0.62585949  0.25171898  1
  Ir  Ir8  1  0.95966280  0.70966280  0.41932559  1
  Ir  Ir9  1  0.79033720  0.54033720  0.08067441  1
  Ir  Ir10  1  0.04033720  0.29033720  0.58067441  1
  Ir  Ir11  1  0.20966280  0.45966280  0.91932559  1
  O  O12  1  0.64168097  0.39168097  0.25000000  1
  O  O13  1  0.10831903  0.85831903  0.25000000  1
  O  O14  1  0.35831903  0.60831903  0.75000000  1
  O  O15  1  0.89168097  0.14168097  0.75000000  1
  O  O16  1  0.54352065  0.78121254  0.07968421  1
  O  O17  1  0.20152833  0.46383644  0.42031579  1
  O  O18  1  0.71878746  0.95647935  0.42031579  1
  O  O19  1  0.03616356  0.29847167  0.07968421  1
  O  O20  1  0.45647935  0.21878746  0.92031579  1
  O  O21  1  0.79847167  0.53616356  0.57968421  1
  O  O22  1  0.28121254  0.04352065  0.57968421  1
  O  O23  1  0.96383644  0.70152833  0.92031579  1
