# generated using pymatgen
data_MgPH13O9
_symmetry_space_group_name_H-M   'P 1'
_cell_length_a   5.98737874
_cell_length_b   5.98737874
_cell_length_c   5.98737843
_cell_angle_alpha   95.92133345
_cell_angle_beta   95.92133345
_cell_angle_gamma   95.92132741
_symmetry_Int_Tables_number   1
_chemical_formula_structural   MgPH13O9
_chemical_formula_sum   'Mg1 P1 H13 O9'
_cell_volume   210.94583559
_cell_formula_units_Z   1
loop_
 _symmetry_equiv_pos_site_id
 _symmetry_equiv_pos_as_xyz
  1  'x, y, z'
loop_
 _atom_site_type_symbol
 _atom_site_label
 _atom_site_symmetry_multiplicity
 _atom_site_fract_x
 _atom_site_fract_y
 _atom_site_fract_z
 _atom_site_occupancy
  Mg  Mg0  1  0.97945075  0.97945075  0.97945075  1
  P  P1  1  0.50154454  0.50154454  0.50154454  1
  H  H2  1  0.34905759  0.34905759  0.34905759  1
  H  H3  1  0.79695441  0.61182723  0.18361831  1
  H  H4  1  0.61182723  0.18361831  0.79695441  1
  H  H5  1  0.18361831  0.79695441  0.61182723  1
  H  H6  1  0.70595274  0.57525882  0.92308195  1
  H  H7  1  0.57525882  0.92308195  0.70595274  1
  H  H8  1  0.92308195  0.70595274  0.57525882  1
  H  H9  1  0.43377524  0.95399730  0.03628333  1
  H  H10  1  0.95399730  0.03628333  0.43377524  1
  H  H11  1  0.03628333  0.43377524  0.95399730  1
  H  H12  1  0.34591583  0.84420985  0.24918450  1
  H  H13  1  0.84420985  0.24918450  0.34591583  1
  H  H14  1  0.24918450  0.34591583  0.84420985  1
  O  O15  1  0.50147466  0.41831122  0.73777120  1
  O  O16  1  0.41831122  0.73777120  0.50147466  1
  O  O17  1  0.73777120  0.50147466  0.41831122  1
  O  O18  1  0.83826965  0.64912646  0.03173857  1
  O  O19  1  0.64912646  0.03173857  0.83826965  1
  O  O20  1  0.03173857  0.83826965  0.64912646  1
  O  O21  1  0.29744145  0.90829153  0.10666286  1
  O  O22  1  0.90829153  0.10666286  0.29744145  1
  O  O23  1  0.10666286  0.29744145  0.90829153  1
