# generated using pymatgen
data_LaS2
_symmetry_space_group_name_H-M   'P 1'
_cell_length_a   4.15752605
_cell_length_b   8.17193273
_cell_length_c   16.42150407
_cell_angle_alpha   90.00000000
_cell_angle_beta   90.00000000
_cell_angle_gamma   90.00000000
_symmetry_Int_Tables_number   1
_chemical_formula_structural   LaS2
_chemical_formula_sum   'La8 S16'
_cell_volume   557.92098182
_cell_formula_units_Z   8
loop_
 _symmetry_equiv_pos_site_id
 _symmetry_equiv_pos_as_xyz
  1  'x, y, z'
loop_
 _atom_site_type_symbol
 _atom_site_label
 _atom_site_symmetry_multiplicity
 _atom_site_fract_x
 _atom_site_fract_y
 _atom_site_fract_z
 _atom_site_occupancy
  La  La0  1  0.28070929  0.63916574  0.14151104  1
  La  La1  1  0.71929071  0.36083426  0.64151104  1
  La  La2  1  0.78070929  0.86083426  0.64151104  1
  La  La3  1  0.21929071  0.13916574  0.14151104  1
  La  La4  1  0.78124284  0.87082468  0.36429345  1
  La  La5  1  0.21875716  0.12917532  0.86429345  1
  La  La6  1  0.28124284  0.62917532  0.86429345  1
  La  La7  1  0.71875716  0.37082468  0.36429345  1
  S  S8  1  0.35578020  0.89710867  0.00331928  1
  S  S9  1  0.64421980  0.10289133  0.50331928  1
  S  S10  1  0.85578020  0.60289133  0.50331928  1
  S  S11  1  0.14421980  0.39710867  0.00331928  1
  S  S12  1  0.83793092  0.60364482  0.00278967  1
  S  S13  1  0.16206908  0.39635518  0.50278967  1
  S  S14  1  0.33793092  0.89635518  0.50278967  1
  S  S15  1  0.66206908  0.10364482  0.00278967  1
  S  S16  1  0.26042505  0.62768839  0.32035931  1
  S  S17  1  0.73957495  0.37231161  0.82035931  1
  S  S18  1  0.76042505  0.87231161  0.82035931  1
  S  S19  1  0.23957495  0.12768839  0.32035931  1
  S  S20  1  0.76302273  0.88337278  0.18572725  1
  S  S21  1  0.23697727  0.11662722  0.68572725  1
  S  S22  1  0.26302273  0.61662722  0.68572725  1
  S  S23  1  0.73697727  0.38337278  0.18572725  1
