# generated using pymatgen
data_La6Mg23P
_symmetry_space_group_name_H-M   'P 1'
_cell_length_a   10.33184770
_cell_length_b   10.33184770
_cell_length_c   10.33184770
_cell_angle_alpha   60.00000000
_cell_angle_beta   60.00000000
_cell_angle_gamma   60.00000000
_symmetry_Int_Tables_number   1
_chemical_formula_structural   La6Mg23P
_chemical_formula_sum   'La6 Mg23 P1'
_cell_volume   779.86420854
_cell_formula_units_Z   1
loop_
 _symmetry_equiv_pos_site_id
 _symmetry_equiv_pos_as_xyz
  1  'x, y, z'
loop_
 _atom_site_type_symbol
 _atom_site_label
 _atom_site_symmetry_multiplicity
 _atom_site_fract_x
 _atom_site_fract_y
 _atom_site_fract_z
 _atom_site_occupancy
  La  La0  1  0.79731240  0.20268760  0.20268760  1
  La  La1  1  0.79731240  0.20268760  0.79731240  1
  La  La2  1  0.79731240  0.79731240  0.20268760  1
  La  La3  1  0.20268760  0.79731240  0.79731240  1
  La  La4  1  0.20268760  0.79731240  0.20268760  1
  La  La5  1  0.20268760  0.20268760  0.79731240  1
  Mg  Mg6  1  0.48113059  0.17295647  0.17295647  1
  Mg  Mg7  1  0.17295647  0.48113059  0.17295647  1
  Mg  Mg8  1  0.17295647  0.17295647  0.48113059  1
  Mg  Mg9  1  0.17295647  0.17295647  0.17295647  1
  Mg  Mg10  1  0.51886941  0.82704353  0.82704353  1
  Mg  Mg11  1  0.82704353  0.51886941  0.82704353  1
  Mg  Mg12  1  0.82704353  0.82704353  0.51886941  1
  Mg  Mg13  1  0.82704353  0.82704353  0.82704353  1
  Mg  Mg14  1  0.86230730  0.37923090  0.37923090  1
  Mg  Mg15  1  0.37923090  0.86230730  0.37923090  1
  Mg  Mg16  1  0.37923090  0.37923090  0.86230730  1
  Mg  Mg17  1  0.37923090  0.37923090  0.37923090  1
  Mg  Mg18  1  0.13769270  0.62076910  0.62076910  1
  Mg  Mg19  1  0.62076910  0.13769270  0.62076910  1
  Mg  Mg20  1  0.62076910  0.62076910  0.13769270  1
  Mg  Mg21  1  0.62076910  0.62076910  0.62076910  1
  Mg  Mg22  1  0.50000000  -0.00000000  -0.00000000  1
  Mg  Mg23  1  0.50000000  -0.00000000  0.50000000  1
  Mg  Mg24  1  0.50000000  0.50000000  -0.00000000  1
  Mg  Mg25  1  -0.00000000  0.50000000  0.50000000  1
  Mg  Mg26  1  -0.00000000  0.50000000  -0.00000000  1
  Mg  Mg27  1  -0.00000000  -0.00000000  0.50000000  1
  Mg  Mg28  1  0.50000000  0.50000000  0.50000000  1
  P  P29  1  -0.00000000  -0.00000000  -0.00000000  1
