# generated using pymatgen
data_Hf7As4
_symmetry_space_group_name_H-M   'P 1'
_cell_length_a   3.61235070
_cell_length_b   8.32133494
_cell_length_c   15.01321988
_cell_angle_alpha   104.05674438
_cell_angle_beta   90.00000000
_cell_angle_gamma   102.53603610
_symmetry_Int_Tables_number   1
_chemical_formula_structural   Hf7As4
_chemical_formula_sum   'Hf14 As8'
_cell_volume   426.67793125
_cell_formula_units_Z   2
loop_
 _symmetry_equiv_pos_site_id
 _symmetry_equiv_pos_as_xyz
  1  'x, y, z'
loop_
 _atom_site_type_symbol
 _atom_site_label
 _atom_site_symmetry_multiplicity
 _atom_site_fract_x
 _atom_site_fract_y
 _atom_site_fract_z
 _atom_site_occupancy
  Hf  Hf0  1  0.00000000  0.00000000  0.00000000  1
  Hf  Hf1  1  0.50000000  0.00000000  0.50000000  1
  Hf  Hf2  1  0.43082056  0.86164112  0.82924502  1
  Hf  Hf3  1  0.56917944  0.13835888  0.17075498  1
  Hf  Hf4  1  0.19629948  0.39259896  0.30999862  1
  Hf  Hf5  1  0.80370052  0.60740104  0.69000138  1
  Hf  Hf6  1  0.20742753  0.41485506  0.79736504  1
  Hf  Hf7  1  0.79257247  0.58514494  0.20263496  1
  Hf  Hf8  1  0.33735704  0.67471408  0.02908139  1
  Hf  Hf9  1  0.66264296  0.32528592  0.97091861  1
  Hf  Hf10  1  0.00285597  0.00571193  0.66589807  1
  Hf  Hf11  1  0.99714403  0.99428807  0.33410193  1
  Hf  Hf12  1  0.17856104  0.35712209  0.54225264  1
  Hf  Hf13  1  0.82143896  0.64287791  0.45774736  1
  As  As14  1  0.17421417  0.34842833  0.11107948  1
  As  As15  1  0.82578583  0.65157167  0.88892052  1
  As  As16  1  0.37443649  0.74887299  0.59983567  1
  As  As17  1  0.62556351  0.25112701  0.40016433  1
  As  As18  1  0.37032137  0.74064274  0.33790432  1
  As  As19  1  0.62967863  0.25935726  0.66209568  1
  As  As20  1  0.06400845  0.12801690  0.85114092  1
  As  As21  1  0.93599155  0.87198310  0.14885908  1
