# generated using pymatgen
data_Ba2InS4
_symmetry_space_group_name_H-M   'P 1'
_cell_length_a   6.34158957
_cell_length_b   10.19020351
_cell_length_c   13.23300474
_cell_angle_alpha   104.17782243
_cell_angle_beta   90.42962274
_cell_angle_gamma   91.07864970
_symmetry_Int_Tables_number   1
_chemical_formula_structural   Ba2InS4
_chemical_formula_sum   'Ba8 In4 S16'
_cell_volume   828.88530107
_cell_formula_units_Z   4
loop_
 _symmetry_equiv_pos_site_id
 _symmetry_equiv_pos_as_xyz
  1  'x, y, z'
loop_
 _atom_site_type_symbol
 _atom_site_label
 _atom_site_symmetry_multiplicity
 _atom_site_fract_x
 _atom_site_fract_y
 _atom_site_fract_z
 _atom_site_occupancy
  Ba  Ba0  1  0.74576963  0.37873887  0.52315066  1
  Ba  Ba1  1  0.25423037  0.62126113  0.47684934  1
  Ba  Ba2  1  0.76209103  0.92105254  0.61815819  1
  Ba  Ba3  1  0.23790897  0.07894746  0.38184181  1
  Ba  Ba4  1  0.25887134  0.89291233  0.84962926  1
  Ba  Ba5  1  0.74112866  0.10708767  0.15037074  1
  Ba  Ba6  1  0.74433383  0.57506749  0.89218655  1
  Ba  Ba7  1  0.25566617  0.42493251  0.10781345  1
  In  In8  1  0.67862725  0.79272168  0.30338244  1
  In  In9  1  0.32137275  0.20727832  0.69661756  1
  In  In10  1  0.83189493  0.19661168  0.88870372  1
  In  In11  1  0.16810507  0.80338832  0.11129628  1
  S  S12  1  0.58539658  0.65249796  0.68673704  1
  S  S13  1  0.41460342  0.34750204  0.31326296  1
  S  S14  1  0.91905188  0.65186838  0.68730127  1
  S  S15  1  0.08094812  0.34813162  0.31269873  1
  S  S16  1  0.76038412  0.66398829  0.42963835  1
  S  S17  1  0.23961588  0.33601171  0.57036165  1
  S  S18  1  0.26431686  0.95948452  0.60753825  1
  S  S19  1  0.73568314  0.04051548  0.39246175  1
  S  S20  1  0.71942208  0.25545151  0.72359890  1
  S  S21  1  0.28057792  0.74454849  0.27640110  1
  S  S22  1  0.24752468  0.63228406  0.95217231  1
  S  S23  1  0.75247532  0.36771594  0.04782769  1
  S  S24  1  0.75596622  0.96061283  0.88635981  1
  S  S25  1  0.24403378  0.03938717  0.11364019  1
  S  S26  1  0.77097193  0.77999769  0.12051226  1
  S  S27  1  0.22902807  0.22000231  0.87948774  1
