# generated using pymatgen
data_Sm3TaO7
_symmetry_space_group_name_H-M   'P 1'
_cell_length_a   6.60139052
_cell_length_b   6.60139052
_cell_length_c   7.66757385
_cell_angle_alpha   90.00000000
_cell_angle_beta   90.00000000
_cell_angle_gamma   109.67284787
_symmetry_Int_Tables_number   1
_chemical_formula_structural   Sm3TaO7
_chemical_formula_sum   'Sm6 Ta2 O14'
_cell_volume   314.63656352
_cell_formula_units_Z   2
loop_
 _symmetry_equiv_pos_site_id
 _symmetry_equiv_pos_as_xyz
  1  'x, y, z'
loop_
 _atom_site_type_symbol
 _atom_site_label
 _atom_site_symmetry_multiplicity
 _atom_site_fract_x
 _atom_site_fract_y
 _atom_site_fract_z
 _atom_site_occupancy
  Sm  Sm0  1  0.50000000  0.50000000  0.50000000  1
  Sm  Sm1  1  0.50000000  0.50000000  -0.00000000  1
  Sm  Sm2  1  -0.00007050  0.53492606  0.25000000  1
  Sm  Sm3  1  0.53492606  -0.00007050  0.75000000  1
  Sm  Sm4  1  0.00007050  0.46507394  0.75000000  1
  Sm  Sm5  1  0.46507394  0.00007050  0.25000000  1
  Ta  Ta6  1  0.00000000  0.00000000  0.50000000  1
  Ta  Ta7  1  0.00000000  0.00000000  -0.00000000  1
  O  O8  1  0.92933899  0.68338539  0.53069385  1
  O  O9  1  0.68338539  0.92933899  0.46930615  1
  O  O10  1  0.92933899  0.68338539  0.96930615  1
  O  O11  1  0.68338539  0.92933899  0.03069385  1
  O  O12  1  0.07066101  0.31661461  0.46930615  1
  O  O13  1  0.31661461  0.07066101  0.53069385  1
  O  O14  1  0.07066101  0.31661461  0.03069385  1
  O  O15  1  0.31661461  0.07066101  0.96930615  1
  O  O16  1  0.06127612  0.93872388  0.25000000  1
  O  O17  1  0.93872388  0.06127612  0.75000000  1
  O  O18  1  0.63023950  0.36976050  0.25000000  1
  O  O19  1  0.36976050  0.63023950  0.75000000  1
  O  O20  1  0.36507408  0.63492592  0.25000000  1
  O  O21  1  0.63492592  0.36507408  0.75000000  1
