# generated using pymatgen
data_Cs2HgBr4
_symmetry_space_group_name_H-M   'P 1'
_cell_length_a   8.15913721
_cell_length_b   10.50237775
_cell_length_c   14.44825771
_cell_angle_alpha   90.00000000
_cell_angle_beta   90.12645989
_cell_angle_gamma   90.00000000
_symmetry_Int_Tables_number   1
_chemical_formula_structural   Cs2HgBr4
_chemical_formula_sum   'Cs8 Hg4 Br16'
_cell_volume   1238.07311553
_cell_formula_units_Z   4
loop_
 _symmetry_equiv_pos_site_id
 _symmetry_equiv_pos_as_xyz
  1  'x, y, z'
loop_
 _atom_site_type_symbol
 _atom_site_label
 _atom_site_symmetry_multiplicity
 _atom_site_fract_x
 _atom_site_fract_y
 _atom_site_fract_z
 _atom_site_occupancy
  Cs  Cs0  1  0.75909706  0.38192970  0.60104545  1
  Cs  Cs1  1  0.24090294  0.61807030  0.39895455  1
  Cs  Cs2  1  0.25909706  0.11807030  0.10104545  1
  Cs  Cs3  1  0.74090294  0.88192970  0.89895455  1
  Cs  Cs4  1  0.76066617  0.51587813  0.17090073  1
  Cs  Cs5  1  0.23933383  0.48412187  0.82909927  1
  Cs  Cs6  1  0.26066617  0.98412187  0.67090073  1
  Cs  Cs7  1  0.73933383  0.01587813  0.32909927  1
  Hg  Hg8  1  0.74685943  0.27703611  0.92413710  1
  Hg  Hg9  1  0.25314057  0.72296389  0.07586290  1
  Hg  Hg10  1  0.24685943  0.22296389  0.42413710  1
  Hg  Hg11  1  0.75314057  0.77703611  0.57586290  1
  Br  Br12  1  0.75561191  0.52859187  0.91111944  1
  Br  Br13  1  0.24438809  0.47140813  0.08888056  1
  Br  Br14  1  0.25561191  0.97140813  0.41111944  1
  Br  Br15  1  0.74438809  0.02859187  0.58888056  1
  Br  Br16  1  0.78787886  0.17630460  0.09252570  1
  Br  Br17  1  0.21212114  0.82369540  0.90747430  1
  Br  Br18  1  0.28787886  0.32369540  0.59252570  1
  Br  Br19  1  0.71212114  0.67630460  0.40747430  1
  Br  Br20  1  0.46636729  0.17513907  0.86338641  1
  Br  Br21  1  0.53363271  0.82486093  0.13661359  1
  Br  Br22  1  0.96636729  0.32486093  0.36338641  1
  Br  Br23  1  0.03363271  0.67513907  0.63661359  1
  Br  Br24  1  0.98835896  0.18639483  0.81774443  1
  Br  Br25  1  0.01164104  0.81360517  0.18225557  1
  Br  Br26  1  0.48835896  0.31360517  0.31774443  1
  Br  Br27  1  0.51164104  0.68639483  0.68225557  1
