# generated using pymatgen
data_Sm3MnGaS7
_symmetry_space_group_name_H-M   'P 1'
_cell_length_a   6.06639326
_cell_length_b   9.97464989
_cell_length_c   9.97454570
_cell_angle_alpha   119.99950204
_cell_angle_beta   90.00000000
_cell_angle_gamma   90.00000000
_symmetry_Int_Tables_number   1
_chemical_formula_structural   Sm3MnGaS7
_chemical_formula_sum   'Sm6 Mn2 Ga2 S14'
_cell_volume   522.70199376
_cell_formula_units_Z   2
loop_
 _symmetry_equiv_pos_site_id
 _symmetry_equiv_pos_as_xyz
  1  'x, y, z'
loop_
 _atom_site_type_symbol
 _atom_site_label
 _atom_site_symmetry_multiplicity
 _atom_site_fract_x
 _atom_site_fract_y
 _atom_site_fract_z
 _atom_site_occupancy
  Sm  Sm0  1  0.25455480  0.23414803  0.37517057  1
  Sm  Sm1  1  0.25455232  0.62483298  0.85897930  1
  Sm  Sm2  1  0.25455771  0.14102447  0.76584910  1
  Sm  Sm3  1  0.75455480  0.76585197  0.62482943  1
  Sm  Sm4  1  0.75455232  0.37516702  0.14102070  1
  Sm  Sm5  1  0.75455771  0.85897553  0.23415090  1
  Mn  Mn6  1  0.47714195  0.00000739  0.00002694  1
  Mn  Mn7  1  0.97714195  0.99999261  0.99997306  1
  Ga  Ga8  1  0.83114110  0.33333821  0.66666979  1
  Ga  Ga9  1  0.33114110  0.66666179  0.33333021  1
  S  S10  1  0.70346008  0.14773791  0.24143589  1
  S  S11  1  0.70345976  0.75856805  0.90630752  1
  S  S12  1  0.70345576  0.09369243  0.85226007  1
  S  S13  1  0.20346008  0.85226209  0.75856411  1
  S  S14  1  0.20345976  0.24143195  0.09369248  1
  S  S15  1  0.20345576  0.90630757  0.14773993  1
  S  S16  1  0.99024633  0.09475153  0.51509461  1
  S  S17  1  0.99024926  0.48490789  0.57965807  1
  S  S18  1  0.99024941  0.42034300  0.90524912  1
  S  S19  1  0.49024633  0.90524847  0.48490539  1
  S  S20  1  0.49024926  0.51509211  0.42034193  1
  S  S21  1  0.49024941  0.57965700  0.09475088  1
  S  S22  1  0.45993154  0.33333133  0.66666431  1
  S  S23  1  0.95993154  0.66666867  0.33333569  1
