# generated using pymatgen
data_CeCrB4
_symmetry_space_group_name_H-M   'P 1'
_cell_length_a   3.54916286
_cell_length_b   5.96060374
_cell_length_c   11.52374960
_cell_angle_alpha   90.00000000
_cell_angle_beta   90.00000000
_cell_angle_gamma   90.00000000
_symmetry_Int_Tables_number   1
_chemical_formula_structural   CeCrB4
_chemical_formula_sum   'Ce4 Cr4 B16'
_cell_volume   243.78669073
_cell_formula_units_Z   4
loop_
 _symmetry_equiv_pos_site_id
 _symmetry_equiv_pos_as_xyz
  1  'x, y, z'
loop_
 _atom_site_type_symbol
 _atom_site_label
 _atom_site_symmetry_multiplicity
 _atom_site_fract_x
 _atom_site_fract_y
 _atom_site_fract_z
 _atom_site_occupancy
  Ce  Ce0  1  0.00000000  0.62397257  0.34891069  1
  Ce  Ce1  1  -0.00000000  0.37602743  0.65108931  1
  Ce  Ce2  1  -0.00000000  0.12397257  0.15108931  1
  Ce  Ce3  1  0.00000000  0.87602743  0.84891069  1
  Cr  Cr4  1  0.00000000  0.62356915  0.08136016  1
  Cr  Cr5  1  0.00000000  0.37643085  0.91863984  1
  Cr  Cr6  1  0.00000000  0.12356915  0.41863984  1
  Cr  Cr7  1  -0.00000000  0.87643085  0.58136016  1
  B  B8  1  0.50000000  0.77912475  0.18290849  1
  B  B9  1  0.50000000  0.22087525  0.81709151  1
  B  B10  1  0.50000000  0.27912475  0.31709151  1
  B  B11  1  0.50000000  0.72087525  0.68290849  1
  B  B12  1  0.50000000  0.86008746  0.03299868  1
  B  B13  1  0.50000000  0.13991254  0.96700132  1
  B  B14  1  0.50000000  0.36008746  0.46700132  1
  B  B15  1  0.50000000  0.63991254  0.53299868  1
  B  B16  1  0.50000000  0.88796276  0.45411390  1
  B  B17  1  0.50000000  0.11203724  0.54588610  1
  B  B18  1  0.50000000  0.38796276  0.04588610  1
  B  B19  1  0.50000000  0.61203724  0.95411390  1
  B  B20  1  0.50000000  0.97546645  0.31012560  1
  B  B21  1  0.50000000  0.02453355  0.68987440  1
  B  B22  1  0.50000000  0.47546645  0.18987440  1
  B  B23  1  0.50000000  0.52453355  0.81012560  1
