# generated using pymatgen
data_Sr2LiGe3
_symmetry_space_group_name_H-M   'P 1'
_cell_length_a   4.63608137
_cell_length_b   11.18235956
_cell_length_c   11.91317040
_cell_angle_alpha   90.00000000
_cell_angle_beta   90.00000000
_cell_angle_gamma   90.00000000
_symmetry_Int_Tables_number   1
_chemical_formula_structural   Sr2LiGe3
_chemical_formula_sum   'Sr8 Li4 Ge12'
_cell_volume   617.60649727
_cell_formula_units_Z   4
loop_
 _symmetry_equiv_pos_site_id
 _symmetry_equiv_pos_as_xyz
  1  'x, y, z'
loop_
 _atom_site_type_symbol
 _atom_site_label
 _atom_site_symmetry_multiplicity
 _atom_site_fract_x
 _atom_site_fract_y
 _atom_site_fract_z
 _atom_site_occupancy
  Sr  Sr0  1  0.50000000  0.54976502  0.84904560  1
  Sr  Sr1  1  0.50000000  0.45023498  0.15095440  1
  Sr  Sr2  1  -0.00000000  0.04976502  0.65095440  1
  Sr  Sr3  1  -0.00000000  0.95023498  0.34904560  1
  Sr  Sr4  1  0.50000000  0.82140160  0.07291223  1
  Sr  Sr5  1  0.50000000  0.17859840  0.92708777  1
  Sr  Sr6  1  -0.00000000  0.32140160  0.42708777  1
  Sr  Sr7  1  0.00000000  0.67859840  0.57291223  1
  Li  Li8  1  0.50000000  0.13923346  0.21515891  1
  Li  Li9  1  0.50000000  0.86076654  0.78484109  1
  Li  Li10  1  0.00000000  0.63923346  0.28484109  1
  Li  Li11  1  0.00000000  0.36076654  0.71515891  1
  Ge  Ge12  1  0.50000000  0.53232272  0.39946641  1
  Ge  Ge13  1  0.50000000  0.46767728  0.60053359  1
  Ge  Ge14  1  0.00000000  0.03232272  0.10053359  1
  Ge  Ge15  1  -0.00000000  0.96767728  0.89946641  1
  Ge  Ge16  1  0.50000000  0.75420718  0.36320382  1
  Ge  Ge17  1  0.50000000  0.24579282  0.63679618  1
  Ge  Ge18  1  -0.00000000  0.25420718  0.13679618  1
  Ge  Ge19  1  -0.00000000  0.74579282  0.86320382  1
  Ge  Ge20  1  0.50000000  0.11009522  0.45774228  1
  Ge  Ge21  1  0.50000000  0.88990478  0.54225772  1
  Ge  Ge22  1  0.00000000  0.61009522  0.04225772  1
  Ge  Ge23  1  0.00000000  0.38990478  0.95774228  1
