# generated using pymatgen
data_K2Ti4O9
_symmetry_space_group_name_H-M   'P 1'
_cell_length_a   3.80626858
_cell_length_b   9.50578921
_cell_length_c   12.17091034
_cell_angle_alpha   106.11059903
_cell_angle_beta   90.00000000
_cell_angle_gamma   101.54911792
_symmetry_Int_Tables_number   1
_chemical_formula_structural   K2Ti4O9
_chemical_formula_sum   'K4 Ti8 O18'
_cell_volume   413.78054096
_cell_formula_units_Z   2
loop_
 _symmetry_equiv_pos_site_id
 _symmetry_equiv_pos_as_xyz
  1  'x, y, z'
loop_
 _atom_site_type_symbol
 _atom_site_label
 _atom_site_symmetry_multiplicity
 _atom_site_fract_x
 _atom_site_fract_y
 _atom_site_fract_z
 _atom_site_occupancy
  K  K0  1  0.58468365  0.16936730  0.08424324  1
  K  K1  1  0.41531635  0.83063270  0.91575676  1
  K  K2  1  0.52355722  0.04711444  0.33215183  1
  K  K3  1  0.47644278  0.95288556  0.66784817  1
  Ti  Ti4  1  0.24567124  0.49134249  0.16589981  1
  Ti  Ti5  1  0.75432876  0.50865751  0.83410019  1
  Ti  Ti6  1  0.83781218  0.67562436  0.37471217  1
  Ti  Ti7  1  0.16218782  0.32437564  0.62528783  1
  Ti  Ti8  1  0.87764309  0.75528619  0.13794649  1
  Ti  Ti9  1  0.12235691  0.24471381  0.86205351  1
  Ti  Ti10  1  0.20304916  0.40609832  0.39622772  1
  Ti  Ti11  1  0.79695084  0.59390168  0.60377228  1
  O  O12  1  0.76672098  0.53344197  0.19988732  1
  O  O13  1  0.23327902  0.46655803  0.80011268  1
  O  O14  1  0.30767377  0.61534753  0.35813663  1
  O  O15  1  0.69232623  0.38465247  0.64186337  1
  O  O16  1  0.34825036  0.69650072  0.14158561  1
  O  O17  1  0.65174964  0.30349928  0.85841439  1
  O  O18  1  0.72925124  0.45850248  0.42112857  1
  O  O19  1  0.27074876  0.54149752  0.57887143  1
  O  O20  1  0.91526304  0.83052607  0.31593224  1
  O  O21  1  0.08473696  0.16947393  0.68406776  1
  O  O22  1  0.96650012  0.93300025  0.11944840  1
  O  O23  1  0.03349988  0.06699975  0.88055160  1
  O  O24  1  0.12304487  0.24608974  0.46329962  1
  O  O25  1  0.87695513  0.75391026  0.53670038  1
  O  O26  1  0.16113370  0.32226741  0.24333711  1
  O  O27  1  0.83886630  0.67773259  0.75666289  1
  O  O28  1  0.18206834  0.36413667  0.02744673  1
  O  O29  1  0.81793166  0.63586333  0.97255327  1
