# generated using pymatgen
data_Na(GaAu2)2
_symmetry_space_group_name_H-M   'P 1'
_cell_length_a   7.52863237
_cell_length_b   8.47505998
_cell_length_c   9.37814370
_cell_angle_alpha   115.74961670
_cell_angle_beta   90.00000000
_cell_angle_gamma   90.00000000
_symmetry_Int_Tables_number   1
_chemical_formula_structural   Na(GaAu2)2
_chemical_formula_sum   'Na4 Ga8 Au16'
_cell_volume   538.95991961
_cell_formula_units_Z   4
loop_
 _symmetry_equiv_pos_site_id
 _symmetry_equiv_pos_as_xyz
  1  'x, y, z'
loop_
 _atom_site_type_symbol
 _atom_site_label
 _atom_site_symmetry_multiplicity
 _atom_site_fract_x
 _atom_site_fract_y
 _atom_site_fract_z
 _atom_site_occupancy
  Na  Na0  1  0.54489529  0.21122690  0.17547545  1
  Na  Na1  1  0.04489529  0.78877310  0.32452455  1
  Na  Na2  1  0.45510471  0.78877310  0.82452455  1
  Na  Na3  1  0.95510471  0.21122690  0.67547545  1
  Ga  Ga4  1  0.67535299  0.51629269  0.91504958  1
  Ga  Ga5  1  0.17535299  0.48370731  0.58495042  1
  Ga  Ga6  1  0.32464701  0.48370731  0.08495042  1
  Ga  Ga7  1  0.82464701  0.51629269  0.41504958  1
  Ga  Ga8  1  0.36856256  0.99667373  0.61207330  1
  Ga  Ga9  1  0.86856256  0.00332627  0.88792670  1
  Ga  Ga10  1  0.63143744  0.00332627  0.38792670  1
  Ga  Ga11  1  0.13143744  0.99667373  0.11207330  1
  Au  Au12  1  0.60303684  0.17547584  0.84345518  1
  Au  Au13  1  0.10303684  0.82452416  0.65654482  1
  Au  Au14  1  0.39696316  0.82452416  0.15654482  1
  Au  Au15  1  0.89696316  0.17547584  0.34345518  1
  Au  Au16  1  0.71570751  0.85554373  0.57842852  1
  Au  Au17  1  0.21570751  0.14445627  0.92157148  1
  Au  Au18  1  0.28429249  0.14445627  0.42157148  1
  Au  Au19  1  0.78429249  0.85554373  0.07842852  1
  Au  Au20  1  0.89543573  0.36562989  0.04542265  1
  Au  Au21  1  0.39543573  0.63437011  0.45457735  1
  Au  Au22  1  0.10456427  0.63437011  0.95457735  1
  Au  Au23  1  0.60456427  0.36562989  0.54542265  1
  Au  Au24  1  0.34618474  0.37132555  0.76613967  1
  Au  Au25  1  0.84618474  0.62867445  0.73386033  1
  Au  Au26  1  0.65381526  0.62867445  0.23386033  1
  Au  Au27  1  0.15381526  0.37132555  0.26613967  1
