# generated using pymatgen
data_CaAl2H12(CO7)2
_symmetry_space_group_name_H-M   'P 1'
_cell_length_a   5.71819088
_cell_length_b   6.56980811
_cell_length_c   14.56620465
_cell_angle_alpha   82.18934921
_cell_angle_beta   83.75260355
_cell_angle_gamma   86.38985233
_symmetry_Int_Tables_number   1
_chemical_formula_structural   CaAl2H12(CO7)2
_chemical_formula_sum   'Ca2 Al4 H24 C4 O28'
_cell_volume   538.27309595
_cell_formula_units_Z   2
loop_
 _symmetry_equiv_pos_site_id
 _symmetry_equiv_pos_as_xyz
  1  'x, y, z'
loop_
 _atom_site_type_symbol
 _atom_site_label
 _atom_site_symmetry_multiplicity
 _atom_site_fract_x
 _atom_site_fract_y
 _atom_site_fract_z
 _atom_site_occupancy
  Ca  Ca0  1  0.68522803  0.89314498  0.39581837  1
  Ca  Ca1  1  0.31477197  0.10685502  0.60418163  1
  Al  Al2  1  0.54870707  0.80395876  0.79872222  1
  Al  Al3  1  0.45129293  0.19604124  0.20127778  1
  Al  Al4  1  0.04587102  0.80331274  0.79807594  1
  Al  Al5  1  0.95412898  0.19668726  0.20192406  1
  H  H6  1  0.76165966  0.07244479  0.86276173  1
  H  H7  1  0.23834034  0.92755521  0.13723827  1
  H  H8  1  0.82543858  0.20300439  0.49320598  1
  H  H9  1  0.17456142  0.79699561  0.50679402  1
  H  H10  1  0.60800566  0.32267987  0.45013847  1
  H  H11  1  0.39199434  0.67732013  0.54986153  1
  H  H12  1  0.71951608  0.89645249  0.18123720  1
  H  H13  1  0.28048392  0.10354751  0.81876280  1
  H  H14  1  0.59909626  0.49178006  0.31461305  1
  H  H15  1  0.40090374  0.50821994  0.68538695  1
  H  H16  1  0.38016647  0.58163276  0.37676104  1
  H  H17  1  0.61983353  0.41836724  0.62323896  1
  H  H18  1  0.05313161  0.57815575  0.30066210  1
  H  H19  1  0.94686839  0.42184425  0.69933790  1
  H  H20  1  0.13611035  0.80212615  0.28314849  1
  H  H21  1  0.86388965  0.19787385  0.71685151  1
  H  H22  1  0.34935842  0.25251279  0.95131574  1
  H  H23  1  0.65064158  0.74748721  0.04868426  1
  H  H24  1  0.08589840  0.27006166  0.92179770  1
  H  H25  1  0.91410160  0.72993834  0.07820230  1
  H  H26  1  0.79370465  0.50030499  0.86032812  1
  H  H27  1  0.20629535  0.49969501  0.13967188  1
  H  H28  1  0.30478740  0.49060931  0.82739320  1
  H  H29  1  0.69521260  0.50939069  0.17260680  1
  C  C30  1  0.84203647  0.82985874  0.61970955  1
  C  C31  1  0.15796353  0.17014126  0.38029045  1
  C  C32  1  0.24859637  0.75913708  0.97305384  1
  C  C33  1  0.75140363  0.24086292  0.02694616  1
  O  O34  1  0.87552094  0.79932219  0.53429801  1
  O  O35  1  0.12447906  0.20067781  0.46570199  1
  O  O36  1  0.63081542  0.84877039  0.66209480  1
  O  O37  1  0.36918458  0.15122961  0.33790520  1
  O  O38  1  0.02546206  0.84517657  0.66473020  1
  O  O39  1  0.97453794  0.15482343  0.33526980  1
  O  O40  1  0.06622696  0.77166476  0.92617822  1
  O  O41  1  0.93377304  0.22833524  0.07382178  1
  O  O42  1  0.46250428  0.77136492  0.93146126  1
  O  O43  1  0.53749572  0.22863508  0.06853874  1
  O  O44  1  0.21425532  0.73485943  0.06248923  1
  O  O45  1  0.78574468  0.26514057  0.93751077  1
  O  O46  1  0.80829739  0.61038244  0.80656195  1
  O  O47  1  0.19170261  0.38961756  0.19343805  1
  O  O48  1  0.77996730  0.99841810  0.80722567  1
  O  O49  1  0.22003270  0.00158190  0.19277433  1
  O  O50  1  0.70829219  0.00163398  0.22555578  1
  O  O51  1  0.29170781  0.99836602  0.77444422  1
  O  O52  1  0.31711331  0.61728678  0.78015687  1
  O  O53  1  0.68288669  0.38271322  0.21984313  1
  O  O54  1  0.65076579  0.19657589  0.49223634  1
  O  O55  1  0.34923421  0.80342411  0.50776366  1
  O  O56  1  0.55279588  0.55794000  0.37330241  1
  O  O57  1  0.44720412  0.44206000  0.62669759  1
  O  O58  1  0.06810250  0.69685358  0.33374558  1
  O  O59  1  0.93189750  0.30314642  0.66625442  1
  O  O60  1  0.25731794  0.27312369  0.89708750  1
  O  O61  1  0.74268206  0.72687631  0.10291250  1
