# generated using pymatgen
data_Hf9PW4
_symmetry_space_group_name_H-M   'P 1'
_cell_length_a   8.66119144
_cell_length_b   8.66591784
_cell_length_c   8.66591784
_cell_angle_alpha   120.07404228
_cell_angle_beta   90.00000000
_cell_angle_gamma   90.00000000
_symmetry_Int_Tables_number   1
_chemical_formula_structural   Hf9PW4
_chemical_formula_sum   'Hf18 P2 W8'
_cell_volume   562.87621003
_cell_formula_units_Z   2
loop_
 _symmetry_equiv_pos_site_id
 _symmetry_equiv_pos_as_xyz
  1  'x, y, z'
loop_
 _atom_site_type_symbol
 _atom_site_label
 _atom_site_symmetry_multiplicity
 _atom_site_fract_x
 _atom_site_fract_y
 _atom_site_fract_z
 _atom_site_occupancy
  Hf  Hf0  1  0.54859484  0.80312888  0.60619446  1
  Hf  Hf1  1  0.54866778  0.80293861  0.19706139  1
  Hf  Hf2  1  0.54859484  0.39380554  0.19687112  1
  Hf  Hf3  1  0.45140516  0.19687112  0.39380554  1
  Hf  Hf4  1  0.45133222  0.19706139  0.80293861  1
  Hf  Hf5  1  0.45140516  0.60619446  0.80312888  1
  Hf  Hf6  1  0.04859484  0.19687112  0.39380554  1
  Hf  Hf7  1  0.04866778  0.19706139  0.80293861  1
  Hf  Hf8  1  0.04859484  0.60619446  0.80312888  1
  Hf  Hf9  1  0.95140516  0.80312888  0.60619446  1
  Hf  Hf10  1  0.95133222  0.80293861  0.19706139  1
  Hf  Hf11  1  0.95140516  0.39380554  0.19687112  1
  Hf  Hf12  1  0.75000000  0.46067679  0.92150551  1
  Hf  Hf13  1  0.75000000  0.46080625  0.53919375  1
  Hf  Hf14  1  0.75000000  0.07849449  0.53932321  1
  Hf  Hf15  1  0.25000000  0.53932321  0.07849449  1
  Hf  Hf16  1  0.25000000  0.53919375  0.46080625  1
  Hf  Hf17  1  0.25000000  0.92150551  0.46067679  1
  P  P18  1  0.75000000  0.66666622  0.33333378  1
  P  P19  1  0.25000000  0.33333378  0.66666622  1
  W  W20  1  0.75000000  0.11044199  0.22109061  1
  W  W21  1  0.75000000  0.11063899  0.88936101  1
  W  W22  1  0.75000000  0.77890939  0.88955801  1
  W  W23  1  0.25000000  0.88955801  0.77890939  1
  W  W24  1  0.25000000  0.88936101  0.11063899  1
  W  W25  1  0.25000000  0.22109061  0.11044199  1
  W  W26  1  0.50000000  -0.00000000  -0.00000000  1
  W  W27  1  0.00000000  -0.00000000  -0.00000000  1
