# generated using pymatgen
data_Pr4MnSb9
_symmetry_space_group_name_H-M   'P 1'
_cell_length_a   4.23588966
_cell_length_b   12.36897625
_cell_length_c   15.78779313
_cell_angle_alpha   97.78414349
_cell_angle_beta   90.00000000
_cell_angle_gamma   99.85936519
_symmetry_Int_Tables_number   1
_chemical_formula_structural   Pr4MnSb9
_chemical_formula_sum   'Pr8 Mn2 Sb18'
_cell_volume   807.22549898
_cell_formula_units_Z   2
loop_
 _symmetry_equiv_pos_site_id
 _symmetry_equiv_pos_as_xyz
  1  'x, y, z'
loop_
 _atom_site_type_symbol
 _atom_site_label
 _atom_site_symmetry_multiplicity
 _atom_site_fract_x
 _atom_site_fract_y
 _atom_site_fract_z
 _atom_site_occupancy
  Pr  Pr0  1  0.06619616  0.13239231  0.39264480  1
  Pr  Pr1  1  0.93380384  0.86760769  0.60735520  1
  Pr  Pr2  1  0.05909025  0.11818050  0.81946561  1
  Pr  Pr3  1  0.94090975  0.88181950  0.18053439  1
  Pr  Pr4  1  0.11305415  0.22610830  0.14217061  1
  Pr  Pr5  1  0.88694585  0.77389170  0.85782939  1
  Pr  Pr6  1  0.20580243  0.41160487  0.61286981  1
  Pr  Pr7  1  0.79419757  0.58839513  0.38713019  1
  Mn  Mn8  1  0.27027894  0.54055787  0.12453476  1
  Mn  Mn9  1  0.72972106  0.45944213  0.87546524  1
  Sb  Sb10  1  0.07212470  0.14424940  0.61442200  1
  Sb  Sb11  1  0.92787530  0.85575060  0.38557800  1
  Sb  Sb12  1  0.50000000  0.00000000  0.50000000  1
  Sb  Sb13  1  0.19187206  0.38374412  0.33357816  1
  Sb  Sb14  1  0.80812794  0.61625588  0.66642184  1
  Sb  Sb15  1  0.40852247  0.81704495  0.01985302  1
  Sb  Sb16  1  0.59147753  0.18295505  0.98014698  1
  Sb  Sb17  1  0.00000000  0.00000000  -0.00000000  1
  Sb  Sb18  1  0.35827162  0.71654323  0.27063904  1
  Sb  Sb19  1  0.64172838  0.28345677  0.72936096  1
  Sb  Sb20  1  0.33416381  0.66832761  0.54208829  1
  Sb  Sb21  1  0.66583619  0.33167239  0.45791171  1
  Sb  Sb22  1  0.71784687  0.43569375  0.19411743  1
  Sb  Sb23  1  0.28215313  0.56430625  0.80588257  1
  Sb  Sb24  1  0.80663078  0.61326157  0.02876910  1
  Sb  Sb25  1  0.19336922  0.38673843  0.97123090  1
  Sb  Sb26  1  0.53990881  0.07981763  0.23745046  1
  Sb  Sb27  1  0.46009119  0.92018237  0.76254954  1
