# generated using pymatgen
data_SrIrO3
_symmetry_space_group_name_H-M   'P 1'
_cell_length_a   5.61180649
_cell_length_b   5.61180649
_cell_length_c   14.37760961
_cell_angle_alpha   91.78354036
_cell_angle_beta   91.78354036
_cell_angle_gamma   119.48077989
_symmetry_Int_Tables_number   1
_chemical_formula_structural   SrIrO3
_chemical_formula_sum   'Sr6 Ir6 O18'
_cell_volume   393.40628801
_cell_formula_units_Z   6
loop_
 _symmetry_equiv_pos_site_id
 _symmetry_equiv_pos_as_xyz
  1  'x, y, z'
loop_
 _atom_site_type_symbol
 _atom_site_label
 _atom_site_symmetry_multiplicity
 _atom_site_fract_x
 _atom_site_fract_y
 _atom_site_fract_z
 _atom_site_occupancy
  Sr  Sr0  1  0.00983832  0.99016168  0.25000000  1
  Sr  Sr1  1  0.99016168  0.00983832  0.75000000  1
  Sr  Sr2  1  0.65414517  0.31786989  0.39784350  1
  Sr  Sr3  1  0.68213011  0.34585483  0.10215650  1
  Sr  Sr4  1  0.34585483  0.68213011  0.60215650  1
  Sr  Sr5  1  0.31786989  0.65414517  0.89784350  1
  Ir  Ir6  1  0.00000000  -0.00000000  0.50000000  1
  Ir  Ir7  1  0.00000000  -0.00000000  -0.00000000  1
  Ir  Ir8  1  0.68440214  0.35772592  0.65193165  1
  Ir  Ir9  1  0.64227408  0.31559786  0.84806835  1
  Ir  Ir10  1  0.31559786  0.64227408  0.34806835  1
  Ir  Ir11  1  0.35772592  0.68440214  0.15193165  1
  O  O12  1  0.49505528  0.50494472  0.25000000  1
  O  O13  1  0.50494472  0.49505528  0.75000000  1
  O  O14  1  0.03711614  0.50812728  0.23540523  1
  O  O15  1  0.49187272  0.96288386  0.26459477  1
  O  O16  1  0.96288386  0.49187272  0.76459477  1
  O  O17  1  0.50812728  0.03711614  0.73540523  1
  O  O18  1  0.59681390  0.79048249  0.45808191  1
  O  O19  1  0.20951751  0.40318610  0.04191809  1
  O  O20  1  0.40318610  0.20951751  0.54191809  1
  O  O21  1  0.79048249  0.59681390  0.95808191  1
  O  O22  1  0.22884052  0.93147110  0.09456839  1
  O  O23  1  0.06852890  0.77115948  0.40543161  1
  O  O24  1  0.77115948  0.06852890  0.90543161  1
  O  O25  1  0.93147110  0.22884052  0.59456839  1
  O  O26  1  0.07405912  0.26390386  0.39819508  1
  O  O27  1  0.73609614  0.92594088  0.10180492  1
  O  O28  1  0.92594088  0.73609614  0.60180492  1
  O  O29  1  0.26390386  0.07405912  0.89819508  1
