# generated using pymatgen
data_U8FeSe17
_symmetry_space_group_name_H-M   'P 1'
_cell_length_a   8.21310322
_cell_length_b   8.21310322
_cell_length_c   10.82778241
_cell_angle_alpha   80.49050931
_cell_angle_beta   80.49050931
_cell_angle_gamma   64.28459920
_symmetry_Int_Tables_number   1
_chemical_formula_structural   U8FeSe17
_chemical_formula_sum   'U8 Fe1 Se17'
_cell_volume   645.40365217
_cell_formula_units_Z   1
loop_
 _symmetry_equiv_pos_site_id
 _symmetry_equiv_pos_as_xyz
  1  'x, y, z'
loop_
 _atom_site_type_symbol
 _atom_site_label
 _atom_site_symmetry_multiplicity
 _atom_site_fract_x
 _atom_site_fract_y
 _atom_site_fract_z
 _atom_site_occupancy
  U  U0  1  0.18094953  0.69994295  0.70124415  1
  U  U1  1  0.69994295  0.18094953  0.70124415  1
  U  U2  1  0.81905047  0.30005705  0.29875585  1
  U  U3  1  0.30005705  0.81905047  0.29875585  1
  U  U4  1  0.79782452  0.79782452  0.45669311  1
  U  U5  1  0.20217548  0.20217548  0.54330689  1
  U  U6  1  0.31948121  0.31948121  0.01535694  1
  U  U7  1  0.68051879  0.68051879  0.98464306  1
  Fe  Fe8  1  -0.00000000  -0.00000000  0.00000000  1
  Se  Se9  1  0.18055914  0.56568864  0.46410759  1
  Se  Se10  1  0.56568864  0.18055914  0.46410759  1
  Se  Se11  1  0.81944086  0.43431136  0.53589241  1
  Se  Se12  1  0.43431136  0.81944086  0.53589241  1
  Se  Se13  1  0.05593443  0.67542431  0.97258552  1
  Se  Se14  1  0.67542431  0.05593443  0.97258552  1
  Se  Se15  1  0.94406557  0.32457569  0.02741448  1
  Se  Se16  1  0.32457569  0.94406557  0.02741448  1
  Se  Se17  1  0.78645577  0.78645577  0.72323387  1
  Se  Se18  1  0.21354423  0.21354423  0.27676613  1
  Se  Se19  1  0.94299343  0.94299343  0.22540962  1
  Se  Se20  1  0.05700657  0.05700657  0.77459038  1
  Se  Se21  1  0.69927971  0.69927971  0.24477267  1
  Se  Se22  1  0.30072029  0.30072029  0.75522733  1
  Se  Se23  1  0.47927132  0.47927132  0.17020099  1
  Se  Se24  1  0.52072868  0.52072868  0.82979901  1
  Se  Se25  1  -0.00000000  -0.00000000  0.50000000  1
