# generated using pymatgen
data_Al2PH3O7
_symmetry_space_group_name_H-M   'P 1'
_cell_length_a   5.16073491
_cell_length_b   7.78221333
_cell_length_c   7.78221333
_cell_angle_alpha   62.96458686
_cell_angle_beta   71.15108564
_cell_angle_gamma   71.15108564
_symmetry_Int_Tables_number   1
_chemical_formula_structural   Al2PH3O7
_chemical_formula_sum   'Al4 P2 H6 O14'
_cell_volume   257.64449252
_cell_formula_units_Z   2
loop_
 _symmetry_equiv_pos_site_id
 _symmetry_equiv_pos_as_xyz
  1  'x, y, z'
loop_
 _atom_site_type_symbol
 _atom_site_label
 _atom_site_symmetry_multiplicity
 _atom_site_fract_x
 _atom_site_fract_y
 _atom_site_fract_z
 _atom_site_occupancy
  Al  Al0  1  -0.00000000  0.19901958  0.80098042  1
  Al  Al1  1  0.00000000  0.80098042  0.19901958  1
  Al  Al2  1  0.01909412  0.18943355  0.18943355  1
  Al  Al3  1  0.98090588  0.81056645  0.81056645  1
  P  P4  1  0.37168397  0.35245507  0.35245507  1
  P  P5  1  0.62831603  0.64754493  0.64754493  1
  H  H6  1  0.60245447  0.12598731  0.12598731  1
  H  H7  1  0.39754553  0.87401269  0.87401269  1
  H  H8  1  0.29862656  0.36435026  0.85844366  1
  H  H9  1  0.29862656  0.85844366  0.36435026  1
  H  H10  1  0.70137344  0.63564974  0.14155634  1
  H  H11  1  0.70137344  0.14155634  0.63564974  1
  O  O12  1  0.26662818  0.25777599  0.25777599  1
  O  O13  1  0.73337182  0.74222401  0.74222401  1
  O  O14  1  0.69662400  0.30385507  0.30385507  1
  O  O15  1  0.30337600  0.69614493  0.69614493  1
  O  O16  1  0.28330518  0.57843722  0.26476887  1
  O  O17  1  0.28330518  0.26476887  0.57843722  1
  O  O18  1  0.71669482  0.42156278  0.73523113  1
  O  O19  1  0.71669482  0.73523113  0.42156278  1
  O  O20  1  0.80436798  0.08477209  0.08477209  1
  O  O21  1  0.19563202  0.91522791  0.91522791  1
  O  O22  1  0.15223069  0.28792325  0.92787626  1
  O  O23  1  0.15223069  0.92787626  0.28792325  1
  O  O24  1  0.84776931  0.71207675  0.07212374  1
  O  O25  1  0.84776931  0.07212374  0.71207675  1
