# generated using pymatgen
data_Sr2SnO4
_symmetry_space_group_name_H-M   'P 1'
_cell_length_a   5.81785683
_cell_length_b   5.88411775
_cell_length_c   12.63535141
_cell_angle_alpha   90.00000000
_cell_angle_beta   90.00000000
_cell_angle_gamma   90.00000000
_symmetry_Int_Tables_number   1
_chemical_formula_structural   Sr2SnO4
_chemical_formula_sum   'Sr8 Sn4 O16'
_cell_volume   432.54541168
_cell_formula_units_Z   4
loop_
 _symmetry_equiv_pos_site_id
 _symmetry_equiv_pos_as_xyz
  1  'x, y, z'
loop_
 _atom_site_type_symbol
 _atom_site_label
 _atom_site_symmetry_multiplicity
 _atom_site_fract_x
 _atom_site_fract_y
 _atom_site_fract_z
 _atom_site_occupancy
  Sr  Sr0  1  0.50802277  0.98844485  0.14710056  1
  Sr  Sr1  1  0.99197723  0.51155515  0.14710056  1
  Sr  Sr2  1  0.49197723  0.48844485  0.35289944  1
  Sr  Sr3  1  0.00802277  0.01155515  0.35289944  1
  Sr  Sr4  1  0.49197723  0.01155515  0.85289944  1
  Sr  Sr5  1  0.00802277  0.48844485  0.85289944  1
  Sr  Sr6  1  0.50802277  0.51155515  0.64710056  1
  Sr  Sr7  1  0.99197723  0.98844485  0.64710056  1
  Sn  Sn8  1  0.50000000  -0.00000000  0.50000000  1
  Sn  Sn9  1  0.00000000  0.50000000  0.50000000  1
  Sn  Sn10  1  0.50000000  0.50000000  0.00000000  1
  Sn  Sn11  1  0.00000000  -0.00000000  0.00000000  1
  O  O12  1  0.48760128  0.04909450  0.33658974  1
  O  O13  1  0.01239872  0.45090550  0.33658974  1
  O  O14  1  0.51239872  0.54909450  0.16341026  1
  O  O15  1  0.98760128  0.95090550  0.16341026  1
  O  O16  1  0.51239872  0.95090550  0.66341026  1
  O  O17  1  0.98760128  0.54909450  0.66341026  1
  O  O18  1  0.48760128  0.45090550  0.83658974  1
  O  O19  1  0.01239872  0.04909450  0.83658974  1
  O  O20  1  0.75000000  0.75000000  0.47817513  1
  O  O21  1  0.25000000  0.25000000  0.02182487  1
  O  O22  1  0.25000000  0.25000000  0.52182487  1
  O  O23  1  0.75000000  0.75000000  0.97817513  1
  O  O24  1  0.25000000  0.75000000  0.48560991  1
  O  O25  1  0.75000000  0.25000000  0.01439009  1
  O  O26  1  0.75000000  0.25000000  0.51439009  1
  O  O27  1  0.25000000  0.75000000  0.98560991  1
