# generated using pymatgen
data_Na4FeO3
_symmetry_space_group_name_H-M   'P 1'
_cell_length_a   8.27161620
_cell_length_b   10.73510174
_cell_length_c   11.80443732
_cell_angle_alpha   90.00000000
_cell_angle_beta   90.00000000
_cell_angle_gamma   110.32354820
_symmetry_Int_Tables_number   1
_chemical_formula_structural   Na4FeO3
_chemical_formula_sum   'Na32 Fe8 O24'
_cell_volume   982.94037485
_cell_formula_units_Z   8
loop_
 _symmetry_equiv_pos_site_id
 _symmetry_equiv_pos_as_xyz
  1  'x, y, z'
loop_
 _atom_site_type_symbol
 _atom_site_label
 _atom_site_symmetry_multiplicity
 _atom_site_fract_x
 _atom_site_fract_y
 _atom_site_fract_z
 _atom_site_occupancy
  Na  Na0  1  0.87633825  0.37422137  0.29010788  1
  Na  Na1  1  0.12366175  0.12577863  0.79010788  1
  Na  Na2  1  0.12366175  0.62577863  0.70989212  1
  Na  Na3  1  0.87633825  0.87422137  0.20989212  1
  Na  Na4  1  0.92612456  0.35627899  0.80829832  1
  Na  Na5  1  0.07387544  0.14372101  0.30829832  1
  Na  Na6  1  0.07387544  0.64372101  0.19170168  1
  Na  Na7  1  0.92612456  0.85627899  0.69170168  1
  Na  Na8  1  0.69306614  0.02793978  0.70699651  1
  Na  Na9  1  0.30693386  0.47206022  0.20699651  1
  Na  Na10  1  0.30693386  0.97206022  0.29300349  1
  Na  Na11  1  0.69306614  0.52793978  0.79300349  1
  Na  Na12  1  0.60752465  0.13088000  0.96139431  1
  Na  Na13  1  0.39247535  0.36912000  0.46139431  1
  Na  Na14  1  0.39247535  0.86912000  0.03860569  1
  Na  Na15  1  0.60752465  0.63088000  0.53860569  1
  Na  Na16  1  0.80213360  0.45965377  0.02974100  1
  Na  Na17  1  0.19786640  0.04034623  0.52974100  1
  Na  Na18  1  0.19786640  0.54034623  0.97025900  1
  Na  Na19  1  0.80213360  0.95965377  0.47025900  1
  Na  Na20  1  0.41685386  0.35777111  0.95326228  1
  Na  Na21  1  0.58314614  0.14222889  0.45326228  1
  Na  Na22  1  0.58314614  0.64222889  0.04673772  1
  Na  Na23  1  0.41685386  0.85777111  0.54673772  1
  Na  Na24  1  0.31992989  0.43396925  0.72529584  1
  Na  Na25  1  0.68007011  0.06603075  0.22529584  1
  Na  Na26  1  0.68007011  0.56603075  0.27470416  1
  Na  Na27  1  0.31992989  0.93396925  0.77470416  1
  Na  Na28  1  0.82544104  0.44409166  0.53695922  1
  Na  Na29  1  0.17455896  0.05590834  0.03695922  1
  Na  Na30  1  0.17455896  0.55590834  0.46304078  1
  Na  Na31  1  0.82544104  0.94409166  0.96304078  1
  Fe  Fe32  1  0.53734338  0.25600028  0.69756266  1
  Fe  Fe33  1  0.46265662  0.24399972  0.19756266  1
  Fe  Fe34  1  0.46265662  0.74399972  0.30243734  1
  Fe  Fe35  1  0.53734338  0.75600028  0.80243734  1
  Fe  Fe36  1  0.98822850  0.24396158  0.55888245  1
  Fe  Fe37  1  0.01177150  0.25603842  0.05888245  1
  Fe  Fe38  1  0.01177150  0.75603842  0.44111755  1
  Fe  Fe39  1  0.98822850  0.74396158  0.94111755  1
  O  O40  1  0.45751208  0.08246785  0.63235075  1
  O  O41  1  0.54248792  0.41753215  0.13235075  1
  O  O42  1  0.54248792  0.91753215  0.36764925  1
  O  O43  1  0.45751208  0.58246785  0.86764925  1
  O  O44  1  0.62330304  0.30030783  0.84805419  1
  O  O45  1  0.37669696  0.19969217  0.34805419  1
  O  O46  1  0.37669696  0.69969217  0.15194581  1
  O  O47  1  0.62330304  0.80030783  0.65194581  1
  O  O48  1  0.56472583  0.42025646  0.61826656  1
  O  O49  1  0.43527417  0.07974354  0.11826656  1
  O  O50  1  0.43527417  0.57974354  0.38173344  1
  O  O51  1  0.56472583  0.92025646  0.88173344  1
  O  O52  1  0.92251284  0.07945595  0.12227180  1
  O  O53  1  0.07748716  0.42054405  0.62227180  1
  O  O54  1  0.07748716  0.92054405  0.87772820  1
  O  O55  1  0.92251284  0.57945595  0.37772820  1
  O  O56  1  0.97236562  0.08087508  0.62991790  1
  O  O57  1  0.02763438  0.41912492  0.12991790  1
  O  O58  1  0.02763438  0.91912492  0.37008210  1
  O  O59  1  0.97236562  0.58087508  0.87008210  1
  O  O60  1  0.87632070  0.21888751  0.41441928  1
  O  O61  1  0.12367930  0.28111249  0.91441928  1
  O  O62  1  0.12367930  0.78111249  0.58558072  1
  O  O63  1  0.87632070  0.71888751  0.08558072  1
