# generated using pymatgen
data_CsH3CN2O
_symmetry_space_group_name_H-M   'P 1'
_cell_length_a   6.51940490
_cell_length_b   7.25628094
_cell_length_c   9.33152261
_cell_angle_alpha   90.00000000
_cell_angle_beta   90.00000000
_cell_angle_gamma   90.00000000
_symmetry_Int_Tables_number   1
_chemical_formula_structural   CsH3CN2O
_chemical_formula_sum   'Cs4 H12 C4 N8 O4'
_cell_volume   441.44292026
_cell_formula_units_Z   4
loop_
 _symmetry_equiv_pos_site_id
 _symmetry_equiv_pos_as_xyz
  1  'x, y, z'
loop_
 _atom_site_type_symbol
 _atom_site_label
 _atom_site_symmetry_multiplicity
 _atom_site_fract_x
 _atom_site_fract_y
 _atom_site_fract_z
 _atom_site_occupancy
  Cs  Cs0  1  0.83242777  0.57299207  0.36297861  1
  Cs  Cs1  1  0.66757223  0.42700793  0.86297861  1
  Cs  Cs2  1  0.33242777  0.92700793  0.63702139  1
  Cs  Cs3  1  0.16757223  0.07299207  0.13702139  1
  H  H4  1  0.94592758  0.82385309  0.85767642  1
  H  H5  1  0.55407242  0.17614691  0.35767642  1
  H  H6  1  0.44592758  0.67614691  0.14232358  1
  H  H7  1  0.05407242  0.32385309  0.64232358  1
  H  H8  1  0.81135167  0.99190588  0.75479024  1
  H  H9  1  0.68864833  0.00809412  0.25479024  1
  H  H10  1  0.31135167  0.50809412  0.24520976  1
  H  H11  1  0.18864833  0.49190588  0.74520976  1
  H  H12  1  0.81996502  0.73980172  0.06251033  1
  H  H13  1  0.68003498  0.26019828  0.56251033  1
  H  H14  1  0.31996502  0.76019828  0.93748967  1
  H  H15  1  0.18003498  0.23980172  0.43748967  1
  C  C16  1  0.67715235  0.92577403  0.95232699  1
  C  C17  1  0.82284765  0.07422597  0.45232699  1
  C  C18  1  0.17715235  0.57422597  0.04767301  1
  C  C19  1  0.32284765  0.42577403  0.54767301  1
  N  N20  1  0.81934892  0.90664349  0.84270822  1
  N  N21  1  0.68065108  0.09335651  0.34270822  1
  N  N22  1  0.31934892  0.59335651  0.15729178  1
  N  N23  1  0.18065108  0.40664349  0.65729178  1
  N  N24  1  0.69464307  0.82515856  0.07256714  1
  N  N25  1  0.80535693  0.17484144  0.57256714  1
  N  N26  1  0.19464307  0.67484144  0.92743286  1
  N  N27  1  0.30535693  0.32515856  0.42743286  1
  O  O28  1  0.52830013  0.03999859  0.93180018  1
  O  O29  1  0.97169987  0.96000141  0.43180018  1
  O  O30  1  0.02830013  0.46000141  0.06819982  1
  O  O31  1  0.47169987  0.53999859  0.56819982  1
