# generated using pymatgen
data_Sc5(Si5Ir2)2
_symmetry_space_group_name_H-M   'P 1'
_cell_length_a   4.08345518
_cell_length_b   12.41404721
_cell_length_c   12.41404721
_cell_angle_alpha   90.00000000
_cell_angle_beta   90.00000000
_cell_angle_gamma   90.00000000
_symmetry_Int_Tables_number   1
_chemical_formula_structural   Sc5(Si5Ir2)2
_chemical_formula_sum   'Sc10 Si20 Ir8'
_cell_volume   629.29543082
_cell_formula_units_Z   2
loop_
 _symmetry_equiv_pos_site_id
 _symmetry_equiv_pos_as_xyz
  1  'x, y, z'
loop_
 _atom_site_type_symbol
 _atom_site_label
 _atom_site_symmetry_multiplicity
 _atom_site_fract_x
 _atom_site_fract_y
 _atom_site_fract_z
 _atom_site_occupancy
  Sc  Sc0  1  -0.00000000  0.50000000  0.50000000  1
  Sc  Sc1  1  0.00000000  0.00000000  0.00000000  1
  Sc  Sc2  1  0.50000000  0.17505478  0.67505478  1
  Sc  Sc3  1  0.50000000  0.82494522  0.32494522  1
  Sc  Sc4  1  0.50000000  0.32494522  0.17505478  1
  Sc  Sc5  1  0.50000000  0.67505478  0.82494522  1
  Sc  Sc6  1  0.50000000  0.38229258  0.88229258  1
  Sc  Sc7  1  0.50000000  0.61770742  0.11770742  1
  Sc  Sc8  1  0.50000000  0.11770742  0.38229258  1
  Sc  Sc9  1  0.50000000  0.88229258  0.61770742  1
  Si  Si10  1  0.00000000  0.06562462  0.56562462  1
  Si  Si11  1  -0.00000000  0.93437538  0.43437538  1
  Si  Si12  1  0.00000000  0.43437538  0.06562462  1
  Si  Si13  1  -0.00000000  0.56562462  0.93437538  1
  Si  Si14  1  -0.00000000  0.70032276  0.66443992  1
  Si  Si15  1  0.00000000  0.29967724  0.33556008  1
  Si  Si16  1  -0.00000000  0.79967724  0.16443992  1
  Si  Si17  1  0.00000000  0.20032276  0.83556008  1
  Si  Si18  1  0.00000000  0.66443992  0.29967724  1
  Si  Si19  1  -0.00000000  0.33556008  0.70032276  1
  Si  Si20  1  -0.00000000  0.16443992  0.20032276  1
  Si  Si21  1  0.00000000  0.83556008  0.79967724  1
  Si  Si22  1  0.50000000  0.50441285  0.65131319  1
  Si  Si23  1  0.50000000  0.49558715  0.34868681  1
  Si  Si24  1  0.50000000  0.99558715  0.15131319  1
  Si  Si25  1  0.50000000  0.00441285  0.84868681  1
  Si  Si26  1  0.50000000  0.65131319  0.49558715  1
  Si  Si27  1  0.50000000  0.34868681  0.50441285  1
  Si  Si28  1  0.50000000  0.15131319  0.00441285  1
  Si  Si29  1  0.50000000  0.84868681  0.99558715  1
  Ir  Ir30  1  0.00000000  0.52085194  0.74748890  1
  Ir  Ir31  1  -0.00000000  0.47914806  0.25251110  1
  Ir  Ir32  1  0.00000000  0.97914806  0.24748890  1
  Ir  Ir33  1  -0.00000000  0.02085194  0.75251110  1
  Ir  Ir34  1  -0.00000000  0.74748890  0.47914806  1
  Ir  Ir35  1  0.00000000  0.25251110  0.52085194  1
  Ir  Ir36  1  0.00000000  0.24748890  0.02085194  1
  Ir  Ir37  1  -0.00000000  0.75251110  0.97914806  1
