# generated using pymatgen
data_CeH8(SO6)2
_symmetry_space_group_name_H-M   'P 1'
_cell_length_a   5.84778924
_cell_length_b   6.75959409
_cell_length_c   13.84625394
_cell_angle_alpha   84.75918387
_cell_angle_beta   77.80915366
_cell_angle_gamma   64.37019860
_symmetry_Int_Tables_number   1
_chemical_formula_structural   CeH8(SO6)2
_chemical_formula_sum   'Ce2 H16 S4 O24'
_cell_volume   482.34369787
_cell_formula_units_Z   2
loop_
 _symmetry_equiv_pos_site_id
 _symmetry_equiv_pos_as_xyz
  1  'x, y, z'
loop_
 _atom_site_type_symbol
 _atom_site_label
 _atom_site_symmetry_multiplicity
 _atom_site_fract_x
 _atom_site_fract_y
 _atom_site_fract_z
 _atom_site_occupancy
  Ce  Ce0  1  0.62500000  0.75000000  0.75000000  1
  Ce  Ce1  1  0.37500000  0.25000000  0.25000000  1
  H  H2  1  0.36188691  0.49491852  0.88929777  1
  H  H3  1  0.24610320  0.00508148  0.61070223  1
  H  H4  1  0.14319457  0.49491852  0.61070223  1
  H  H5  1  0.74881532  0.00508148  0.88929777  1
  H  H6  1  0.63811309  0.50508148  0.11070223  1
  H  H7  1  0.75389680  0.99491852  0.38929777  1
  H  H8  1  0.85680543  0.50508148  0.38929777  1
  H  H9  1  0.25118468  0.99491852  0.11070223  1
  H  H10  1  0.29441758  0.70287142  0.95366551  1
  H  H11  1  0.45095451  0.79712858  0.54633449  1
  H  H12  1  0.00271100  0.70287142  0.54633449  1
  H  H13  1  0.75191691  0.79712858  0.95366551  1
  H  H14  1  0.70558242  0.29712858  0.04633449  1
  H  H15  1  0.54904549  0.20287142  0.45366551  1
  H  H16  1  0.99728900  0.29712858  0.45366551  1
  H  H17  1  0.24808309  0.20287142  0.04633449  1
  S  S18  1  0.68268679  0.25000000  0.63462642  1
  S  S19  1  0.06731321  0.25000000  0.86537358  1
  S  S20  1  0.31731321  0.75000000  0.36537358  1
  S  S21  1  0.93268679  0.75000000  0.13462642  1
  O  O22  1  0.70952121  0.05526457  0.70066193  1
  O  O23  1  0.96544771  0.44473543  0.79933807  1
  O  O24  1  0.23521422  0.05526457  0.79933807  1
  O  O25  1  0.58981686  0.44473543  0.70066193  1
  O  O26  1  0.29047879  0.94473543  0.29933807  1
  O  O27  1  0.03455229  0.55526457  0.20066193  1
  O  O28  1  0.76478578  0.94473543  0.20066193  1
  O  O29  1  0.41018314  0.55526457  0.29933807  1
  O  O30  1  0.93952760  0.20656722  0.57377310  1
  O  O31  1  0.21986791  0.29343278  0.92622690  1
  O  O32  1  0.85390519  0.20656722  0.92622690  1
  O  O33  1  0.48669930  0.29343278  0.57377310  1
  O  O34  1  0.06047240  0.79343278  0.42622690  1
  O  O35  1  0.78013209  0.70656722  0.07377310  1
  O  O36  1  0.14609481  0.79343278  0.07377310  1
  O  O37  1  0.51330070  0.70656722  0.42622690  1
  O  O38  1  0.39110805  0.62837414  0.88917433  1
  O  O39  1  0.40865653  0.87162586  0.61082567  1
  O  O40  1  0.98051780  0.62837414  0.61082567  1
  O  O41  1  0.71971762  0.87162586  0.88917433  1
  O  O42  1  0.60889195  0.37162586  0.11082567  1
  O  O43  1  0.59134347  0.12837414  0.38917433  1
  O  O44  1  0.01948220  0.37162586  0.38917433  1
  O  O45  1  0.28028238  0.12837414  0.11082567  1
