# generated using pymatgen
data_Cd2B6PbO12
_symmetry_space_group_name_H-M   'P 1'
_cell_length_a   6.64770581
_cell_length_b   7.08654381
_cell_length_c   19.49137293
_cell_angle_alpha   90.00000000
_cell_angle_beta   90.20571037
_cell_angle_gamma   90.00000000
_symmetry_Int_Tables_number   1
_chemical_formula_structural   Cd2B6PbO12
_chemical_formula_sum   'Cd8 B24 Pb4 O48'
_cell_volume   918.21820736
_cell_formula_units_Z   4
loop_
 _symmetry_equiv_pos_site_id
 _symmetry_equiv_pos_as_xyz
  1  'x, y, z'
loop_
 _atom_site_type_symbol
 _atom_site_label
 _atom_site_symmetry_multiplicity
 _atom_site_fract_x
 _atom_site_fract_y
 _atom_site_fract_z
 _atom_site_occupancy
  Cd  Cd0  1  0.92730067  0.26854657  0.47403063  1
  Cd  Cd1  1  0.42730067  0.23145343  0.97403063  1
  Cd  Cd2  1  0.07269933  0.73145343  0.52596937  1
  Cd  Cd3  1  0.57269933  0.76854657  0.02596937  1
  Cd  Cd4  1  0.21728816  0.24724604  0.26434132  1
  Cd  Cd5  1  0.71728816  0.25275396  0.76434132  1
  Cd  Cd6  1  0.78271184  0.75275396  0.73565868  1
  Cd  Cd7  1  0.28271184  0.74724604  0.23565868  1
  B  B8  1  0.11096526  0.93725016  0.37386855  1
  B  B9  1  0.61096526  0.56274984  0.87386855  1
  B  B10  1  0.88903474  0.06274984  0.62613145  1
  B  B11  1  0.38903474  0.43725016  0.12613145  1
  B  B12  1  0.34870443  0.30956966  0.46488727  1
  B  B13  1  0.84870443  0.19043034  0.96488727  1
  B  B14  1  0.65129557  0.69043034  0.53511273  1
  B  B15  1  0.15129557  0.80956966  0.03511273  1
  B  B16  1  0.59368571  0.43137556  0.37728488  1
  B  B17  1  0.09368571  0.06862444  0.87728488  1
  B  B18  1  0.40631429  0.56862444  0.62271512  1
  B  B19  1  0.90631429  0.93137556  0.12271512  1
  B  B20  1  0.25228969  0.59299778  0.39119060  1
  B  B21  1  0.75228969  0.90700222  0.89119060  1
  B  B22  1  0.74771031  0.40700222  0.60880940  1
  B  B23  1  0.24771031  0.09299778  0.10880940  1
  B  B24  1  0.91815702  0.52979340  0.32316125  1
  B  B25  1  0.41815702  0.97020660  0.82316125  1
  B  B26  1  0.08184298  0.47020660  0.67683875  1
  B  B27  1  0.58184298  0.02979340  0.17683875  1
  B  B28  1  0.69383880  0.30776015  0.25895620  1
  B  B29  1  0.19383880  0.19223985  0.75895620  1
  B  B30  1  0.30616120  0.69223985  0.74104380  1
  B  B31  1  0.80616120  0.80776015  0.24104380  1
  Pb  Pb32  1  0.61681624  0.92575824  0.38829718  1
  Pb  Pb33  1  0.11681624  0.57424176  0.88829718  1
  Pb  Pb34  1  0.38318376  0.07424176  0.61170282  1
  Pb  Pb35  1  0.88318376  0.42575824  0.11170282  1
  O  O36  1  0.46663523  0.60095639  0.37588564  1
  O  O37  1  0.96663523  0.89904361  0.87588564  1
  O  O38  1  0.53336477  0.39904361  0.62411436  1
  O  O39  1  0.03336477  0.10095639  0.12411436  1
  O  O40  1  0.80797948  0.47143850  0.38412876  1
  O  O41  1  0.30797948  0.02856150  0.88412876  1
  O  O42  1  0.19202052  0.52856150  0.61587124  1
  O  O43  1  0.69202052  0.97143850  0.11587124  1
  O  O44  1  0.13906306  0.52883188  0.33000112  1
  O  O45  1  0.63906306  0.97116812  0.83000112  1
  O  O46  1  0.86093694  0.47116812  0.66999888  1
  O  O47  1  0.36093694  0.02883188  0.16999888  1
  O  O48  1  0.87880922  0.39636742  0.26470692  1
  O  O49  1  0.37880922  0.10363258  0.76470692  1
  O  O50  1  0.12119078  0.60363258  0.73529308  1
  O  O51  1  0.62119078  0.89636742  0.23529308  1
  O  O52  1  0.65783669  0.22062906  0.19694899  1
  O  O53  1  0.15783669  0.27937094  0.69694899  1
  O  O54  1  0.34216331  0.77937094  0.80305101  1
  O  O55  1  0.84216331  0.72062906  0.30305101  1
  O  O56  1  0.95712856  0.05254935  0.39266478  1
  O  O57  1  0.45712856  0.44745065  0.89266478  1
  O  O58  1  0.04287144  0.94745065  0.60733522  1
  O  O59  1  0.54287144  0.55254935  0.10733522  1
  O  O60  1  0.53872610  0.30525928  0.43529231  1
  O  O61  1  0.03872610  0.19474072  0.93529231  1
  O  O62  1  0.46127390  0.69474072  0.56470769  1
  O  O63  1  0.96127390  0.80525928  0.06470769  1
  O  O64  1  0.17072077  0.77996706  0.41531721  1
  O  O65  1  0.67072077  0.72003294  0.91531721  1
  O  O66  1  0.82927923  0.22003294  0.58468279  1
  O  O67  1  0.32927923  0.27996706  0.08468279  1
  O  O68  1  0.21756944  0.46182906  0.44996576  1
  O  O69  1  0.71756944  0.03817094  0.94996576  1
  O  O70  1  0.78243056  0.53817094  0.55003424  1
  O  O71  1  0.28243056  0.96182906  0.05003424  1
  O  O72  1  0.55451179  0.31774091  0.31058333  1
  O  O73  1  0.05451179  0.18225909  0.81058333  1
  O  O74  1  0.44548821  0.68225909  0.68941667  1
  O  O75  1  0.94548821  0.81774091  0.18941667  1
  O  O76  1  0.27320075  0.16810869  0.50312916  1
  O  O77  1  0.77320075  0.33189131  0.00312916  1
  O  O78  1  0.72679925  0.83189131  0.49687084  1
  O  O79  1  0.22679925  0.66810869  0.99687084  1
  O  O80  1  0.22224770  0.97021262  0.31522076  1
  O  O81  1  0.72224770  0.52978738  0.81522076  1
  O  O82  1  0.77775230  0.02978738  0.68477924  1
  O  O83  1  0.27775230  0.47021262  0.18477924  1
