# generated using pymatgen
data_Ca3(Si4P7)2
_symmetry_space_group_name_H-M   'P 1'
_cell_length_a   6.25772217
_cell_length_b   12.21674827
_cell_length_c   13.53349553
_cell_angle_alpha   90.00000000
_cell_angle_beta   90.00000000
_cell_angle_gamma   90.95719597
_symmetry_Int_Tables_number   1
_chemical_formula_structural   Ca3(Si4P7)2
_chemical_formula_sum   'Ca6 Si16 P28'
_cell_volume   1034.47804564
_cell_formula_units_Z   2
loop_
 _symmetry_equiv_pos_site_id
 _symmetry_equiv_pos_as_xyz
  1  'x, y, z'
loop_
 _atom_site_type_symbol
 _atom_site_label
 _atom_site_symmetry_multiplicity
 _atom_site_fract_x
 _atom_site_fract_y
 _atom_site_fract_z
 _atom_site_occupancy
  Ca  Ca0  1  0.50000000  0.50000000  0.50000000  1
  Ca  Ca1  1  0.00000000  0.50000000  -0.00000000  1
  Ca  Ca2  1  0.67837658  0.16745433  0.65650372  1
  Ca  Ca3  1  0.82162342  0.83254567  0.15650372  1
  Ca  Ca4  1  0.32162342  0.83254567  0.34349628  1
  Ca  Ca5  1  0.17837658  0.16745433  0.84349628  1
  Si  Si6  1  0.96341356  0.58382201  0.31286246  1
  Si  Si7  1  0.53658644  0.41617799  0.81286246  1
  Si  Si8  1  0.03658644  0.41617799  0.68713754  1
  Si  Si9  1  0.46341356  0.58382201  0.18713754  1
  Si  Si10  1  0.95776227  0.38890654  0.31397136  1
  Si  Si11  1  0.54223773  0.61109346  0.81397136  1
  Si  Si12  1  0.04223773  0.61109346  0.68602864  1
  Si  Si13  1  0.45776227  0.38890654  0.18602864  1
  Si  Si14  1  0.61690343  0.15024499  0.31225435  1
  Si  Si15  1  0.88309657  0.84975501  0.81225435  1
  Si  Si16  1  0.38309657  0.84975501  0.68774565  1
  Si  Si17  1  0.11690343  0.15024499  0.18774565  1
  Si  Si18  1  0.61752908  0.15288938  0.04584405  1
  Si  Si19  1  0.88247092  0.84711062  0.54584405  1
  Si  Si20  1  0.38247092  0.84711062  0.95415595  1
  Si  Si21  1  0.11752908  0.15288938  0.45415595  1
  P  P22  1  0.62924200  0.33832006  0.04705171  1
  P  P23  1  0.87075800  0.66167994  0.54705171  1
  P  P24  1  0.37075800  0.66167994  0.95294829  1
  P  P25  1  0.12924200  0.33832006  0.45294829  1
  P  P26  1  0.77548870  0.08171918  0.44743935  1
  P  P27  1  0.72451130  0.91828082  0.94743935  1
  P  P28  1  0.22451130  0.91828082  0.55256065  1
  P  P29  1  0.27548870  0.08171918  0.05256065  1
  P  P30  1  0.64249056  0.64126036  0.05273918  1
  P  P31  1  0.85750944  0.35873964  0.55273918  1
  P  P32  1  0.35750944  0.35873964  0.94726082  1
  P  P33  1  0.14249056  0.64126036  0.44726082  1
  P  P34  1  0.71174567  0.09126708  0.89437564  1
  P  P35  1  0.78825433  0.90873292  0.39437564  1
  P  P36  1  0.28825433  0.90873292  0.10562436  1
  P  P37  1  0.21174567  0.09126708  0.60562436  1
  P  P38  1  0.78286864  0.07469648  0.17906950  1
  P  P39  1  0.71713136  0.92530352  0.67906950  1
  P  P40  1  0.21713136  0.92530352  0.82093050  1
  P  P41  1  0.28286864  0.07469648  0.32093050  1
  P  P42  1  0.61058954  0.33353388  0.32838441  1
  P  P43  1  0.88941046  0.66646612  0.82838441  1
  P  P44  1  0.38941046  0.66646612  0.67161559  1
  P  P45  1  0.11058954  0.33353388  0.17161559  1
  P  P46  1  0.62834747  0.64679191  0.32272968  1
  P  P47  1  0.87165253  0.35320809  0.82272968  1
  P  P48  1  0.37165253  0.35320809  0.67727032  1
  P  P49  1  0.12834747  0.64679191  0.17727032  1
