# generated using pymatgen
data_MnB12(H5O12)2
_symmetry_space_group_name_H-M   'P 1'
_cell_length_a   8.73187847
_cell_length_b   8.86260463
_cell_length_c   11.85270701
_cell_angle_alpha   102.31611666
_cell_angle_beta   90.00000000
_cell_angle_gamma   90.00000000
_symmetry_Int_Tables_number   1
_chemical_formula_structural   MnB12(H5O12)2
_chemical_formula_sum   'Mn2 B24 H20 O48'
_cell_volume   896.13775603
_cell_formula_units_Z   2
loop_
 _symmetry_equiv_pos_site_id
 _symmetry_equiv_pos_as_xyz
  1  'x, y, z'
loop_
 _atom_site_type_symbol
 _atom_site_label
 _atom_site_symmetry_multiplicity
 _atom_site_fract_x
 _atom_site_fract_y
 _atom_site_fract_z
 _atom_site_occupancy
  Mn  Mn0  1  0.50000000  -0.00000000  0.50000000  1
  Mn  Mn1  1  -0.00000000  0.50000000  0.50000000  1
  B  B2  1  0.45136187  0.85861220  0.21634915  1
  B  B3  1  0.95136187  0.64138780  0.78365085  1
  B  B4  1  0.54863813  0.14138780  0.78365085  1
  B  B5  1  0.04863813  0.35861220  0.21634915  1
  B  B6  1  0.59200054  0.60976169  0.15287228  1
  B  B7  1  0.09200054  0.89023831  0.84712772  1
  B  B8  1  0.40799946  0.39023831  0.84712772  1
  B  B9  1  0.90799946  0.10976169  0.15287228  1
  B  B10  1  0.58660365  0.79290452  0.02979156  1
  B  B11  1  0.08660365  0.70709548  0.97020844  1
  B  B12  1  0.41339635  0.20709548  0.97020844  1
  B  B13  1  0.91339635  0.29290452  0.02979156  1
  B  B14  1  0.20127840  0.93527224  0.35084382  1
  B  B15  1  0.70127840  0.56472776  0.64915618  1
  B  B16  1  0.79872160  0.06472776  0.64915618  1
  B  B17  1  0.29872160  0.43527224  0.35084382  1
  B  B18  1  0.25172240  0.74192316  0.47287976  1
  B  B19  1  0.75172240  0.75807684  0.52712024  1
  B  B20  1  0.74827760  0.25807684  0.52712024  1
  B  B21  1  0.24827760  0.24192316  0.47287976  1
  B  B22  1  0.48618970  0.70330073  0.58198475  1
  B  B23  1  0.98618970  0.79669927  0.41801525  1
  B  B24  1  0.51381030  0.29669927  0.41801525  1
  B  B25  1  0.01381030  0.20330073  0.58198475  1
  H  H26  1  0.59198159  0.44120361  0.23818328  1
  H  H27  1  0.09198159  0.05879639  0.76181672  1
  H  H28  1  0.40801841  0.55879639  0.76181672  1
  H  H29  1  0.90801841  0.94120361  0.23818328  1
  H  H30  1  0.58895417  0.92568115  0.91340141  1
  H  H31  1  0.08895417  0.57431885  0.08659859  1
  H  H32  1  0.41104583  0.07431885  0.08659859  1
  H  H33  1  0.91104583  0.42568115  0.91340141  1
  H  H34  1  0.21725658  0.80052746  0.17479728  1
  H  H35  1  0.71725658  0.69947254  0.82520272  1
  H  H36  1  0.78274342  0.19947254  0.82520272  1
  H  H37  1  0.28274342  0.30052746  0.17479728  1
  H  H38  1  0.37223153  0.00198419  0.72031764  1
  H  H39  1  0.87223153  0.49801581  0.27968236  1
  H  H40  1  0.62776847  0.99801581  0.27968236  1
  H  H41  1  0.12776847  0.50198419  0.72031764  1
  H  H42  1  0.12287470  0.14189814  0.31354500  1
  H  H43  1  0.62287470  0.35810186  0.68645500  1
  H  H44  1  0.87712530  0.85810186  0.68645500  1
  H  H45  1  0.37712530  0.64189814  0.31354500  1
  O  O46  1  0.48455733  0.69700038  0.22391104  1
  O  O47  1  0.98455733  0.80299962  0.77608896  1
  O  O48  1  0.51544267  0.30299962  0.77608896  1
  O  O49  1  0.01544267  0.19700038  0.22391104  1
  O  O50  1  0.64395893  0.65860582  0.05610379  1
  O  O51  1  0.14395893  0.84139418  0.94389621  1
  O  O52  1  0.35604107  0.34139418  0.94389621  1
  O  O53  1  0.85604107  0.15860582  0.05610379  1
  O  O54  1  0.48955535  0.88907570  0.10348463  1
  O  O55  1  0.98955535  0.61092430  0.89651537  1
  O  O56  1  0.51044465  0.11092430  0.89651537  1
  O  O57  1  0.01044465  0.38907570  0.10348463  1
  O  O58  1  0.27831210  0.87818780  0.23330863  1
  O  O59  1  0.77831210  0.62181220  0.76669137  1
  O  O60  1  0.72168790  0.12181220  0.76669137  1
  O  O61  1  0.22168790  0.37818780  0.23330863  1
  O  O62  1  0.64879956  0.47529906  0.17580080  1
  O  O63  1  0.14879956  0.02470094  0.82419920  1
  O  O64  1  0.35120044  0.52470094  0.82419920  1
  O  O65  1  0.85120044  0.97529906  0.17580080  1
  O  O66  1  0.62737749  0.82433857  0.92489249  1
  O  O67  1  0.12737749  0.67566143  0.07510751  1
  O  O68  1  0.37262251  0.17566143  0.07510751  1
  O  O69  1  0.87262251  0.32433857  0.92489249  1
  O  O70  1  0.20054631  0.10868264  0.36800446  1
  O  O71  1  0.70054631  0.39131736  0.63199554  1
  O  O72  1  0.79945369  0.89131736  0.63199554  1
  O  O73  1  0.29945369  0.60868264  0.36800446  1
  O  O74  1  0.04416197  0.87998694  0.34181649  1
  O  O75  1  0.54416197  0.62001306  0.65818351  1
  O  O76  1  0.95583803  0.12001306  0.65818351  1
  O  O77  1  0.45583803  0.37998694  0.34181649  1
  O  O78  1  0.28845813  0.88765025  0.44042356  1
  O  O79  1  0.78845813  0.61234975  0.55957644  1
  O  O80  1  0.71154187  0.11234975  0.55957644  1
  O  O81  1  0.21154187  0.38765025  0.44042356  1
  O  O82  1  0.41501439  0.22946430  0.48610563  1
  O  O83  1  0.91501439  0.27053570  0.51389437  1
  O  O84  1  0.58498561  0.77053570  0.51389437  1
  O  O85  1  0.08498561  0.72946430  0.48610563  1
  O  O86  1  0.47125699  0.03078971  0.69179317  1
  O  O87  1  0.97125699  0.46921029  0.30820683  1
  O  O88  1  0.52874301  0.96921029  0.30820683  1
  O  O89  1  0.02874301  0.53078971  0.69179317  1
  O  O90  1  0.33126414  0.71883985  0.57378532  1
  O  O91  1  0.83126414  0.78116015  0.42621468  1
  O  O92  1  0.66873586  0.28116015  0.42621468  1
  O  O93  1  0.16873586  0.21883985  0.57378532  1
