# generated using pymatgen
data_Ba3P3BrO10
_symmetry_space_group_name_H-M   'P 1'
_cell_length_a   7.34917641
_cell_length_b   11.46183142
_cell_length_c   14.22663145
_cell_angle_alpha   90.00000000
_cell_angle_beta   90.00000000
_cell_angle_gamma   90.00000000
_symmetry_Int_Tables_number   1
_chemical_formula_structural   Ba3P3BrO10
_chemical_formula_sum   'Ba12 P12 Br4 O40'
_cell_volume   1198.38060019
_cell_formula_units_Z   4
loop_
 _symmetry_equiv_pos_site_id
 _symmetry_equiv_pos_as_xyz
  1  'x, y, z'
loop_
 _atom_site_type_symbol
 _atom_site_label
 _atom_site_symmetry_multiplicity
 _atom_site_fract_x
 _atom_site_fract_y
 _atom_site_fract_z
 _atom_site_occupancy
  Ba  Ba0  1  0.88005044  0.74258807  0.09387485  1
  Ba  Ba1  1  0.61994956  0.25741193  0.59387485  1
  Ba  Ba2  1  0.38005044  0.75741193  0.90612515  1
  Ba  Ba3  1  0.11994956  0.24258807  0.40612515  1
  Ba  Ba4  1  0.85996993  0.25371736  0.11135884  1
  Ba  Ba5  1  0.64003007  0.74628264  0.61135884  1
  Ba  Ba6  1  0.35996993  0.24628264  0.88864116  1
  Ba  Ba7  1  0.14003007  0.75371736  0.38864116  1
  Ba  Ba8  1  0.62201718  0.99370105  0.32038587  1
  Ba  Ba9  1  0.87798282  0.00629895  0.82038587  1
  Ba  Ba10  1  0.12201718  0.50629895  0.67961413  1
  Ba  Ba11  1  0.37798282  0.49370105  0.17961413  1
  P  P12  1  0.91652057  0.50322137  0.24941654  1
  P  P13  1  0.58347943  0.49677863  0.74941654  1
  P  P14  1  0.41652057  0.99677863  0.75058346  1
  P  P15  1  0.08347943  0.00322137  0.25058346  1
  P  P16  1  0.81450087  0.51066690  0.45907292  1
  P  P17  1  0.68549913  0.48933310  0.95907292  1
  P  P18  1  0.31450087  0.98933310  0.54092708  1
  P  P19  1  0.18549913  0.01066690  0.04092708  1
  P  P20  1  0.38542709  0.51942495  0.47446068  1
  P  P21  1  0.11457291  0.48057505  0.97446068  1
  P  P22  1  0.88542709  0.98057505  0.52553932  1
  P  P23  1  0.61457291  0.01942495  0.02553932  1
  Br  Br24  1  0.47530100  0.76433553  0.20945156  1
  Br  Br25  1  0.02469900  0.23566447  0.70945156  1
  Br  Br26  1  0.97530100  0.73566447  0.79054844  1
  Br  Br27  1  0.52469900  0.26433553  0.29054844  1
  O  O28  1  0.97295523  0.89015327  0.24143656  1
  O  O29  1  0.52704477  0.10984673  0.74143656  1
  O  O30  1  0.47295523  0.60984673  0.75856344  1
  O  O31  1  0.02704477  0.39015327  0.25856344  1
  O  O32  1  0.96157373  0.11065740  0.26546863  1
  O  O33  1  0.53842627  0.88934260  0.76546863  1
  O  O34  1  0.46157373  0.38934260  0.73453137  1
  O  O35  1  0.03842627  0.61065740  0.23453137  1
  O  O36  1  0.84016232  0.10100582  0.48446175  1
  O  O37  1  0.65983768  0.89899418  0.98446175  1
  O  O38  1  0.34016232  0.39899418  0.51553825  1
  O  O39  1  0.15983768  0.60100582  0.01553825  1
  O  O40  1  0.82268668  0.87938284  0.46216522  1
  O  O41  1  0.67731332  0.12061716  0.96216522  1
  O  O42  1  0.32268668  0.62061716  0.53783478  1
  O  O43  1  0.17731332  0.37938284  0.03783478  1
  O  O44  1  0.81031759  0.52966185  0.34862194  1
  O  O45  1  0.68968241  0.47033815  0.84862194  1
  O  O46  1  0.31031759  0.97033815  0.65137806  1
  O  O47  1  0.18968241  0.02966185  0.15137806  1
  O  O48  1  0.73717953  0.50500858  0.67773539  1
  O  O49  1  0.76282047  0.49499142  0.17773539  1
  O  O50  1  0.23717953  0.99499142  0.32226461  1
  O  O51  1  0.26282047  0.00500858  0.82226461  1
  O  O52  1  0.63104973  0.61257530  0.98483521  1
  O  O53  1  0.86895027  0.38742470  0.48483521  1
  O  O54  1  0.13104973  0.88742470  0.01516479  1
  O  O55  1  0.36895027  0.11257530  0.51516479  1
  O  O56  1  0.60835588  0.53459063  0.48535886  1
  O  O57  1  0.89164412  0.46540937  0.98535886  1
  O  O58  1  0.10835588  0.96540937  0.51464114  1
  O  O59  1  0.39164412  0.03459063  0.01464114  1
  O  O60  1  0.42159682  0.89117470  0.49546096  1
  O  O61  1  0.07840318  0.10882530  0.99546096  1
  O  O62  1  0.92159682  0.60882530  0.50453904  1
  O  O63  1  0.57840318  0.39117470  0.00453904  1
  O  O64  1  0.33314741  0.53734065  0.37230195  1
  O  O65  1  0.16685259  0.46265935  0.87230195  1
  O  O66  1  0.83314741  0.96265935  0.62769805  1
  O  O67  1  0.66685259  0.03734065  0.12769805  1
