# generated using pymatgen
data_YB3H15N
_symmetry_space_group_name_H-M   'P 1'
_cell_length_a   5.55774419
_cell_length_b   5.55774419
_cell_length_c   12.42016332
_cell_angle_alpha   90.00000000
_cell_angle_beta   90.00000000
_cell_angle_gamma   91.02738496
_symmetry_Int_Tables_number   1
_chemical_formula_structural   YB3H15N
_chemical_formula_sum   'Y2 B6 H30 N2'
_cell_volume   383.57879431
_cell_formula_units_Z   2
loop_
 _symmetry_equiv_pos_site_id
 _symmetry_equiv_pos_as_xyz
  1  'x, y, z'
loop_
 _atom_site_type_symbol
 _atom_site_label
 _atom_site_symmetry_multiplicity
 _atom_site_fract_x
 _atom_site_fract_y
 _atom_site_fract_z
 _atom_site_occupancy
  Y  Y0  1  0.71851216  0.71851216  0.86670647  1
  Y  Y1  1  0.28148784  0.28148784  0.36670647  1
  B  B2  1  0.79332860  0.79332860  0.06356373  1
  B  B3  1  0.20667140  0.20667140  0.56356373  1
  B  B4  1  0.66437061  0.21465865  0.84550203  1
  B  B5  1  0.21465865  0.66437061  0.84550203  1
  B  B6  1  0.33562939  0.78534135  0.34550203  1
  B  B7  1  0.78534135  0.33562939  0.34550203  1
  H  H8  1  0.37562073  0.16822444  0.13047248  1
  H  H9  1  0.16822444  0.37562073  0.13047248  1
  H  H10  1  0.62437927  0.83177556  0.63047248  1
  H  H11  1  0.83177556  0.62437927  0.63047248  1
  H  H12  1  0.09324729  0.09324729  0.15305220  1
  H  H13  1  0.90675271  0.90675271  0.65305220  1
  H  H14  1  0.91983309  0.91983309  0.00371097  1
  H  H15  1  0.08016691  0.08016691  0.50371097  1
  H  H16  1  0.58096208  0.83157400  0.03926283  1
  H  H17  1  0.83157400  0.58096208  0.03926283  1
  H  H18  1  0.41903792  0.16842600  0.53926283  1
  H  H19  1  0.16842600  0.41903792  0.53926283  1
  H  H20  1  0.83178725  0.83178725  0.15768510  1
  H  H21  1  0.16821275  0.16821275  0.65768510  1
  H  H22  1  0.65012550  0.34493947  0.76608567  1
  H  H23  1  0.34493947  0.65012550  0.76608567  1
  H  H24  1  0.34987450  0.65506053  0.26608567  1
  H  H25  1  0.65506053  0.34987450  0.26608567  1
  H  H26  1  0.49145930  0.07282539  0.84324899  1
  H  H27  1  0.07282539  0.49145930  0.84324899  1
  H  H28  1  0.50854070  0.92717461  0.34324899  1
  H  H29  1  0.92717461  0.50854070  0.34324899  1
  H  H30  1  0.65479000  0.32501689  0.93125657  1
  H  H31  1  0.32501689  0.65479000  0.93125657  1
  H  H32  1  0.34521000  0.67498311  0.43125657  1
  H  H33  1  0.67498311  0.34521000  0.43125657  1
  H  H34  1  0.85852645  0.11297527  0.84177075  1
  H  H35  1  0.11297527  0.85852645  0.84177075  1
  H  H36  1  0.14147355  0.88702473  0.34177075  1
  H  H37  1  0.88702473  0.14147355  0.34177075  1
  N  N38  1  0.22237142  0.22237142  0.16888292  1
  N  N39  1  0.77762858  0.77762858  0.66888292  1
