# generated using pymatgen
data_Ba4Sm(RuO4)3
_symmetry_space_group_name_H-M   'P 1'
_cell_length_a   5.97967696
_cell_length_b   5.97967696
_cell_length_c   29.76704676
_cell_angle_alpha   88.92588403
_cell_angle_beta   88.92588403
_cell_angle_gamma   59.95235262
_symmetry_Int_Tables_number   1
_chemical_formula_structural   Ba4Sm(RuO4)3
_chemical_formula_sum   'Ba12 Sm3 Ru9 O36'
_cell_volume   921.10977995
_cell_formula_units_Z   3
loop_
 _symmetry_equiv_pos_site_id
 _symmetry_equiv_pos_as_xyz
  1  'x, y, z'
loop_
 _atom_site_type_symbol
 _atom_site_label
 _atom_site_symmetry_multiplicity
 _atom_site_fract_x
 _atom_site_fract_y
 _atom_site_fract_z
 _atom_site_occupancy
  Ba  Ba0  1  0.66775815  0.66775815  0.53686800  1
  Ba  Ba1  1  0.33224185  0.33224185  0.46313200  1
  Ba  Ba2  1  0.65817015  0.65817015  0.38349714  1
  Ba  Ba3  1  0.34182985  0.34182985  0.61650286  1
  Ba  Ba4  1  0.99391991  0.99391991  0.28262260  1
  Ba  Ba5  1  0.00608009  0.00608009  0.71737740  1
  Ba  Ba6  1  0.66842676  0.66842676  0.79699726  1
  Ba  Ba7  1  0.33157324  0.33157324  0.20300274  1
  Ba  Ba8  1  0.00144379  0.00144379  0.13075179  1
  Ba  Ba9  1  0.99855621  0.99855621  0.86924821  1
  Ba  Ba10  1  0.67073905  0.67073905  0.94958312  1
  Ba  Ba11  1  0.32926095  0.32926095  0.05041688  1
  Sm  Sm12  1  0.67763029  0.67763029  0.66698377  1
  Sm  Sm13  1  0.32236971  0.32236971  0.33301623  1
  Sm  Sm14  1  -0.00000000  -0.00000000  -0.00000000  1
  Ru  Ru15  1  -0.00000000  -0.00000000  0.50000000  1
  Ru  Ru16  1  0.98685928  0.98685928  0.41429240  1
  Ru  Ru17  1  0.01314072  0.01314072  0.58570760  1
  Ru  Ru18  1  0.66053921  0.66053921  0.25160537  1
  Ru  Ru19  1  0.33946079  0.33946079  0.74839463  1
  Ru  Ru20  1  0.67104850  0.67104850  0.16641885  1
  Ru  Ru21  1  0.32895150  0.32895150  0.83358115  1
  Ru  Ru22  1  0.65867778  0.65867778  0.08057255  1
  Ru  Ru23  1  0.34132222  0.34132222  0.91942745  1
  O  O24  1  0.83876014  0.83876014  0.46184101  1
  O  O25  1  0.16123986  0.16123986  0.53815899  1
  O  O26  1  0.86350501  0.86350501  0.62544754  1
  O  O27  1  0.13649499  0.13649499  0.37455246  1
  O  O28  1  0.49517600  0.49517600  0.28499148  1
  O  O29  1  0.50482400  0.50482400  0.71500852  1
  O  O30  1  0.17735415  0.17735415  0.79121932  1
  O  O31  1  0.82264585  0.82264585  0.20878068  1
  O  O32  1  0.51213199  0.51213199  0.12826716  1
  O  O33  1  0.48786801  0.48786801  0.87173284  1
  O  O34  1  0.19781744  0.19781744  0.96252942  1
  O  O35  1  0.80218256  0.80218256  0.03747058  1
  O  O36  1  0.30203952  0.83753328  0.45602282  1
  O  O37  1  0.83753328  0.30203952  0.45602282  1
  O  O38  1  0.69796048  0.16246672  0.54397718  1
  O  O39  1  0.16246672  0.69796048  0.54397718  1
  O  O40  1  0.33191329  0.86083080  0.62037005  1
  O  O41  1  0.86083080  0.33191329  0.62037005  1
  O  O42  1  0.66808671  0.13916920  0.37962995  1
  O  O43  1  0.13916920  0.66808671  0.37962995  1
  O  O44  1  0.50140355  0.03648959  0.71063781  1
  O  O45  1  0.03648959  0.50140355  0.71063781  1
  O  O46  1  0.49859645  0.96351041  0.28936219  1
  O  O47  1  0.96351041  0.49859645  0.28936219  1
  O  O48  1  0.64332894  0.16811125  0.79216041  1
  O  O49  1  0.16811125  0.64332894  0.79216041  1
  O  O50  1  0.35667106  0.83188875  0.20783959  1
  O  O51  1  0.83188875  0.35667106  0.20783959  1
  O  O52  1  0.48245073  0.02434841  0.87727150  1
  O  O53  1  0.02434841  0.48245073  0.87727150  1
  O  O54  1  0.51754927  0.97565159  0.12272850  1
  O  O55  1  0.97565159  0.51754927  0.12272850  1
  O  O56  1  0.66650684  0.19430057  0.95147971  1
  O  O57  1  0.19430057  0.66650684  0.95147971  1
  O  O58  1  0.33349316  0.80569943  0.04852029  1
  O  O59  1  0.80569943  0.33349316  0.04852029  1
