# generated using pymatgen
data_VH12SO11
_symmetry_space_group_name_H-M   'P 1'
_cell_length_a   6.20968984
_cell_length_b   7.71022500
_cell_length_c   10.33572202
_cell_angle_alpha   90.47680425
_cell_angle_beta   100.35728582
_cell_angle_gamma   97.34276093
_symmetry_Int_Tables_number   1
_chemical_formula_structural   VH12SO11
_chemical_formula_sum   'V2 H24 S2 O22'
_cell_volume   482.55099699
_cell_formula_units_Z   2
loop_
 _symmetry_equiv_pos_site_id
 _symmetry_equiv_pos_as_xyz
  1  'x, y, z'
loop_
 _atom_site_type_symbol
 _atom_site_label
 _atom_site_symmetry_multiplicity
 _atom_site_fract_x
 _atom_site_fract_y
 _atom_site_fract_z
 _atom_site_occupancy
  V  V0  1  0.93291759  0.73106687  0.72164705  1
  V  V1  1  0.06708241  0.26893313  0.27835295  1
  H  H2  1  0.01590276  0.04271962  0.84808078  1
  H  H3  1  0.98409724  0.95728038  0.15191922  1
  H  H4  1  0.74548369  0.00259989  0.80762293  1
  H  H5  1  0.25451631  0.99740011  0.19237707  1
  H  H6  1  0.29490843  0.75131542  0.91637121  1
  H  H7  1  0.70509157  0.24868458  0.08362879  1
  H  H8  1  0.34385982  0.88462495  0.80012292  1
  H  H9  1  0.65614018  0.11537505  0.19987708  1
  H  H10  1  0.52173139  0.55339170  0.69214481  1
  H  H11  1  0.47826861  0.44660830  0.30785519  1
  H  H12  1  0.50553528  0.70438461  0.58016482  1
  H  H13  1  0.49446472  0.29561539  0.41983518  1
  H  H14  1  0.82003112  0.69191225  0.97215657  1
  H  H15  1  0.17996888  0.30808775  0.02784343  1
  H  H16  1  0.79219518  0.49606563  0.91269267  1
  H  H17  1  0.20780482  0.50393437  0.08730733  1
  H  H18  1  0.86782468  0.38881308  0.62609441  1
  H  H19  1  0.13217532  0.61118692  0.37390559  1
  H  H20  1  0.12361913  0.43410332  0.70339055  1
  H  H21  1  0.87638087  0.56589668  0.29660945  1
  H  H22  1  0.59808057  0.15530355  0.61063071  1
  H  H23  1  0.40191943  0.84469645  0.38936929  1
  H  H24  1  0.76596392  0.14619381  0.50842764  1
  H  H25  1  0.23403608  0.85380619  0.49157236  1
  S  S26  1  0.56500415  0.76570137  0.16904348  1
  S  S27  1  0.43499585  0.23429863  0.83095652  1
  O  O28  1  0.98356600  0.82751253  0.58706500  1
  O  O29  1  0.01643400  0.17248747  0.41293500  1
  O  O30  1  0.88591500  0.95003381  0.82379882  1
  O  O31  1  0.11408500  0.04996619  0.17620118  1
  O  O32  1  0.25538771  0.77440184  0.82005800  1
  O  O33  1  0.74461229  0.22559816  0.17994200  1
  O  O34  1  0.60019562  0.66028598  0.65870482  1
  O  O35  1  0.39980438  0.33971402  0.34129518  1
  O  O36  1  0.86476011  0.61753184  0.90534011  1
  O  O37  1  0.13523989  0.38246816  0.09465989  1
  O  O38  1  0.97688080  0.47786572  0.68201926  1
  O  O39  1  0.02311920  0.52213428  0.31798074  1
  O  O40  1  0.67027966  0.22016583  0.54371433  1
  O  O41  1  0.32972034  0.77983417  0.45628567  1
  O  O42  1  0.62463816  0.62974043  0.26601887  1
  O  O43  1  0.37536184  0.37025957  0.73398113  1
  O  O44  1  0.36461893  0.69547547  0.07198100  1
  O  O45  1  0.63538107  0.30452453  0.92801900  1
  O  O46  1  0.75165068  0.82207168  0.10047002  1
  O  O47  1  0.24834932  0.17792832  0.89952998  1
  O  O48  1  0.51327939  0.92174228  0.24218019  1
  O  O49  1  0.48672061  0.07825772  0.75781981  1
