# generated using pymatgen
data_Rb2MnH12(SO7)2
_symmetry_space_group_name_H-M   'P 1'
_cell_length_a   6.37243152
_cell_length_b   9.43393963
_cell_length_c   12.86833630
_cell_angle_alpha   90.00000000
_cell_angle_beta   90.00000000
_cell_angle_gamma   105.88565167
_symmetry_Int_Tables_number   1
_chemical_formula_structural   Rb2MnH12(SO7)2
_chemical_formula_sum   'Rb4 Mn2 H24 S4 O28'
_cell_volume   744.06334163
_cell_formula_units_Z   2
loop_
 _symmetry_equiv_pos_site_id
 _symmetry_equiv_pos_as_xyz
  1  'x, y, z'
loop_
 _atom_site_type_symbol
 _atom_site_label
 _atom_site_symmetry_multiplicity
 _atom_site_fract_x
 _atom_site_fract_y
 _atom_site_fract_z
 _atom_site_occupancy
  Rb  Rb0  1  0.34689716  0.62170017  0.14197197  1
  Rb  Rb1  1  0.65310284  0.87829983  0.64197197  1
  Rb  Rb2  1  0.65310284  0.37829983  0.85802803  1
  Rb  Rb3  1  0.34689716  0.12170017  0.35802803  1
  Mn  Mn4  1  0.00000000  0.50000000  0.50000000  1
  Mn  Mn5  1  0.00000000  -0.00000000  -0.00000000  1
  H  H6  1  0.32414956  0.72086705  0.40263972  1
  H  H7  1  0.67585044  0.77913295  0.90263972  1
  H  H8  1  0.67585044  0.27913295  0.59736028  1
  H  H9  1  0.32414956  0.22086705  0.09736028  1
  H  H10  1  0.09056178  0.74409493  0.36984703  1
  H  H11  1  0.90943822  0.75590507  0.86984703  1
  H  H12  1  0.90943822  0.25590507  0.63015297  1
  H  H13  1  0.09056178  0.24409493  0.13015297  1
  H  H14  1  0.92782885  0.22639370  0.39772223  1
  H  H15  1  0.07217115  0.27360630  0.89772223  1
  H  H16  1  0.07217115  0.77360630  0.60227777  1
  H  H17  1  0.92782885  0.72639370  0.10227777  1
  H  H18  1  0.98523412  0.35053892  0.31111239  1
  H  H19  1  0.01476588  0.14946108  0.81111239  1
  H  H20  1  0.01476588  0.64946108  0.68888761  1
  H  H21  1  0.98523412  0.85053892  0.18888761  1
  H  H22  1  0.34533354  0.40250107  0.56619580  1
  H  H23  1  0.65466646  0.09749893  0.06619580  1
  H  H24  1  0.65466646  0.59749893  0.43380420  1
  H  H25  1  0.34533354  0.90250107  0.93380420  1
  H  H26  1  0.33015329  0.52641696  0.64672301  1
  H  H27  1  0.66984671  0.97358304  0.14672301  1
  H  H28  1  0.66984671  0.47358304  0.35327699  1
  H  H29  1  0.33015329  0.02641696  0.85327699  1
  S  S30  1  0.73025373  0.90211978  0.35647266  1
  S  S31  1  0.26974627  0.59788022  0.85647266  1
  S  S32  1  0.26974627  0.09788022  0.64352734  1
  S  S33  1  0.73025373  0.40211978  0.14352734  1
  O  O34  1  0.58961695  0.90969694  0.26498246  1
  O  O35  1  0.41038305  0.59030306  0.76498246  1
  O  O36  1  0.41038305  0.09030306  0.73501754  1
  O  O37  1  0.58961695  0.40969694  0.23501754  1
  O  O38  1  0.77599517  0.04143162  0.41738773  1
  O  O39  1  0.22400483  0.45856838  0.91738773  1
  O  O40  1  0.22400483  0.95856838  0.58261227  1
  O  O41  1  0.77599517  0.54143162  0.08261227  1
  O  O42  1  0.60902640  0.77746035  0.42473706  1
  O  O43  1  0.39097360  0.72253965  0.92473706  1
  O  O44  1  0.39097360  0.22253965  0.57526294  1
  O  O45  1  0.60902640  0.27746035  0.07526294  1
  O  O46  1  0.94047274  0.87505318  0.32039814  1
  O  O47  1  0.05952726  0.62494682  0.82039814  1
  O  O48  1  0.05952726  0.12494682  0.67960186  1
  O  O49  1  0.94047274  0.37505318  0.17960186  1
  O  O50  1  0.16883062  0.67000105  0.38680897  1
  O  O51  1  0.83116938  0.82999895  0.88680897  1
  O  O52  1  0.83116938  0.32999895  0.61319103  1
  O  O53  1  0.16883062  0.17000105  0.11319103  1
  O  O54  1  0.01940443  0.32791278  0.38384064  1
  O  O55  1  0.98059557  0.17208722  0.88384064  1
  O  O56  1  0.98059557  0.67208722  0.61615936  1
  O  O57  1  0.01940443  0.82791278  0.11615936  1
  O  O58  1  0.30436405  0.49602411  0.57246349  1
  O  O59  1  0.69563595  0.00397589  0.07246349  1
  O  O60  1  0.69563595  0.50397589  0.42753651  1
  O  O61  1  0.30436405  0.99602411  0.92753651  1
