# generated using pymatgen
data_Ba2Ge(Sb2S5)2
_symmetry_space_group_name_H-M   'P 1'
_cell_length_a   11.63893501
_cell_length_b   11.63893501
_cell_length_c   13.80348048
_cell_angle_alpha   90.00000000
_cell_angle_beta   90.00000000
_cell_angle_gamma   90.00000000
_symmetry_Int_Tables_number   1
_chemical_formula_structural   Ba2Ge(Sb2S5)2
_chemical_formula_sum   'Ba8 Ge4 Sb16 S40'
_cell_volume   1869.88583526
_cell_formula_units_Z   4
loop_
 _symmetry_equiv_pos_site_id
 _symmetry_equiv_pos_as_xyz
  1  'x, y, z'
loop_
 _atom_site_type_symbol
 _atom_site_label
 _atom_site_symmetry_multiplicity
 _atom_site_fract_x
 _atom_site_fract_y
 _atom_site_fract_z
 _atom_site_occupancy
  Ba  Ba0  1  0.76410365  0.26410365  0.75000000  1
  Ba  Ba1  1  0.26410365  0.23589635  0.25000000  1
  Ba  Ba2  1  0.73589635  0.76410365  0.75000000  1
  Ba  Ba3  1  0.76410365  0.26410365  0.25000000  1
  Ba  Ba4  1  0.26410365  0.23589635  0.75000000  1
  Ba  Ba5  1  0.73589635  0.76410365  0.25000000  1
  Ba  Ba6  1  0.23589635  0.73589635  0.25000000  1
  Ba  Ba7  1  0.23589635  0.73589635  0.75000000  1
  Ge  Ge8  1  0.50000000  0.50000000  0.75000000  1
  Ge  Ge9  1  0.50000000  0.50000000  0.25000000  1
  Ge  Ge10  1  0.00000000  0.00000000  0.75000000  1
  Ge  Ge11  1  0.00000000  0.00000000  0.25000000  1
  Sb  Sb12  1  0.09068868  0.36626110  0.50000000  1
  Sb  Sb13  1  0.36626110  0.90931132  0.00000000  1
  Sb  Sb14  1  0.40931132  0.86626110  0.50000000  1
  Sb  Sb15  1  0.86626110  0.59068868  0.00000000  1
  Sb  Sb16  1  0.90931132  0.63373890  0.50000000  1
  Sb  Sb17  1  0.63373890  0.09068868  0.00000000  1
  Sb  Sb18  1  0.59068868  0.13373890  0.50000000  1
  Sb  Sb19  1  0.13373890  0.40931132  0.00000000  1
  Sb  Sb20  1  0.15560168  0.03857811  0.50000000  1
  Sb  Sb21  1  0.03857811  0.84439832  0.00000000  1
  Sb  Sb22  1  0.34439832  0.53857811  0.50000000  1
  Sb  Sb23  1  0.53857811  0.65560168  0.00000000  1
  Sb  Sb24  1  0.84439832  0.96142189  0.50000000  1
  Sb  Sb25  1  0.96142189  0.15560168  0.00000000  1
  Sb  Sb26  1  0.65560168  0.46142189  0.50000000  1
  Sb  Sb27  1  0.46142189  0.34439832  0.00000000  1
  S  S28  1  0.25605886  0.22788276  0.50000000  1
  S  S29  1  0.22788276  0.74394114  0.00000000  1
  S  S30  1  0.24394114  0.72788276  0.50000000  1
  S  S31  1  0.72788276  0.75605886  0.00000000  1
  S  S32  1  0.74394114  0.77211724  0.50000000  1
  S  S33  1  0.77211724  0.25605886  0.00000000  1
  S  S34  1  0.75605886  0.27211724  0.50000000  1
  S  S35  1  0.27211724  0.24394114  0.00000000  1
  S  S36  1  0.34991338  0.47627554  0.84900643  1
  S  S37  1  0.47627554  0.65008662  0.34900643  1
  S  S38  1  0.15008662  0.97627554  0.84900643  1
  S  S39  1  0.97627554  0.84991338  0.34900643  1
  S  S40  1  0.34991338  0.47627554  0.15099357  1
  S  S41  1  0.47627554  0.65008662  0.65099357  1
  S  S42  1  0.15008662  0.97627554  0.15099357  1
  S  S43  1  0.97627554  0.84991338  0.65099357  1
  S  S44  1  0.65008662  0.52372446  0.15099357  1
  S  S45  1  0.52372446  0.34991338  0.65099357  1
  S  S46  1  0.84991338  0.02372446  0.15099357  1
  S  S47  1  0.02372446  0.15008662  0.65099357  1
  S  S48  1  0.65008662  0.52372446  0.84900643  1
  S  S49  1  0.52372446  0.34991338  0.34900643  1
  S  S50  1  0.84991338  0.02372446  0.84900643  1
  S  S51  1  0.02372446  0.15008662  0.34900643  1
  S  S52  1  0.18329344  0.47679906  0.63093690  1
  S  S53  1  0.47679906  0.81670656  0.13093690  1
  S  S54  1  0.31670656  0.97679906  0.63093690  1
  S  S55  1  0.97679906  0.68329344  0.13093690  1
  S  S56  1  0.18329344  0.47679906  0.36906310  1
  S  S57  1  0.47679906  0.81670656  0.86906310  1
  S  S58  1  0.31670656  0.97679906  0.36906310  1
  S  S59  1  0.97679906  0.68329344  0.86906310  1
  S  S60  1  0.81670656  0.52320094  0.36906310  1
  S  S61  1  0.52320094  0.18329344  0.86906310  1
  S  S62  1  0.68329344  0.02320094  0.36906310  1
  S  S63  1  0.02320094  0.31670656  0.86906310  1
  S  S64  1  0.81670656  0.52320094  0.63093690  1
  S  S65  1  0.52320094  0.18329344  0.13093690  1
  S  S66  1  0.68329344  0.02320094  0.63093690  1
  S  S67  1  0.02320094  0.31670656  0.13093690  1
