# generated using pymatgen
data_K9(FeO4)2
_symmetry_space_group_name_H-M   'P 1'
_cell_length_a   10.56596143
_cell_length_b   10.56596143
_cell_length_c   13.58791173
_cell_angle_alpha   87.37090871
_cell_angle_beta   87.37090871
_cell_angle_gamma   76.38071551
_symmetry_Int_Tables_number   1
_chemical_formula_structural   K9(FeO4)2
_chemical_formula_sum   'K36 Fe8 O32'
_cell_volume   1471.78142607
_cell_formula_units_Z   4
loop_
 _symmetry_equiv_pos_site_id
 _symmetry_equiv_pos_as_xyz
  1  'x, y, z'
loop_
 _atom_site_type_symbol
 _atom_site_label
 _atom_site_symmetry_multiplicity
 _atom_site_fract_x
 _atom_site_fract_y
 _atom_site_fract_z
 _atom_site_occupancy
  K  K0  1  0.89164485  0.28726154  0.28313130  1
  K  K1  1  0.71273846  0.10835515  0.21686870  1
  K  K2  1  0.10835515  0.71273846  0.71686870  1
  K  K3  1  0.28726154  0.89164485  0.78313130  1
  K  K4  1  0.55622504  0.44377496  0.25000000  1
  K  K5  1  0.44377496  0.55622504  0.75000000  1
  K  K6  1  0.09324625  0.60196279  0.46540332  1
  K  K7  1  0.39803721  0.90675375  0.03459668  1
  K  K8  1  0.90675375  0.39803721  0.53459668  1
  K  K9  1  0.60196279  0.09324625  0.96540332  1
  K  K10  1  0.09582215  0.31251024  0.10971057  1
  K  K11  1  0.68748976  0.90417785  0.39028943  1
  K  K12  1  0.90417785  0.68748976  0.89028943  1
  K  K13  1  0.31251024  0.09582215  0.60971057  1
  K  K14  1  0.07652431  0.09582860  0.46085352  1
  K  K15  1  0.90417140  0.92347569  0.03914648  1
  K  K16  1  0.92347569  0.90417140  0.53914648  1
  K  K17  1  0.09582860  0.07652431  0.96085352  1
  K  K18  1  0.79937343  0.61016757  0.34204458  1
  K  K19  1  0.38983243  0.20062657  0.15795542  1
  K  K20  1  0.20062657  0.38983243  0.65795542  1
  K  K21  1  0.61016757  0.79937343  0.84204458  1
  K  K22  1  0.38736677  0.42047531  0.97212967  1
  K  K23  1  0.57952469  0.61263323  0.52787033  1
  K  K24  1  0.61263323  0.57952469  0.02787033  1
  K  K25  1  0.42047531  0.38736677  0.47212967  1
  K  K26  1  0.90587573  0.59851176  0.11993727  1
  K  K27  1  0.40148824  0.09412427  0.38006273  1
  K  K28  1  0.09412427  0.40148824  0.88006273  1
  K  K29  1  0.59851176  0.90587573  0.61993727  1
  K  K30  1  0.18492432  0.61359323  0.21352669  1
  K  K31  1  0.38640677  0.81507568  0.28647331  1
  K  K32  1  0.81507568  0.38640677  0.78647331  1
  K  K33  1  0.61359323  0.18492432  0.71352669  1
  K  K34  1  0.03939466  0.96060534  0.25000000  1
  K  K35  1  0.96060534  0.03939466  0.75000000  1
  Fe  Fe36  1  0.17564242  0.33856309  0.33871499  1
  Fe  Fe37  1  0.66143691  0.82435758  0.16128501  1
  Fe  Fe38  1  0.82435758  0.66143691  0.66128501  1
  Fe  Fe39  1  0.33856309  0.17564242  0.83871499  1
  Fe  Fe40  1  0.80152505  0.27392703  0.01926930  1
  Fe  Fe41  1  0.72607297  0.19847495  0.48073070  1
  Fe  Fe42  1  0.19847495  0.72607297  0.98073070  1
  Fe  Fe43  1  0.27392703  0.80152505  0.51926930  1
  O  O44  1  0.91052528  0.16426988  0.10921338  1
  O  O45  1  0.83573012  0.08947472  0.39078662  1
  O  O46  1  0.08947472  0.83573012  0.89078662  1
  O  O47  1  0.16426988  0.91052528  0.60921338  1
  O  O48  1  0.85924363  0.42805639  0.98347343  1
  O  O49  1  0.57194361  0.14075637  0.51652657  1
  O  O50  1  0.14075637  0.57194361  0.01652657  1
  O  O51  1  0.42805639  0.85924363  0.48347343  1
  O  O52  1  0.17261787  0.81802347  0.40762139  1
  O  O53  1  0.18197653  0.82738213  0.09237861  1
  O  O54  1  0.82738213  0.18197653  0.59237861  1
  O  O55  1  0.81802347  0.17261787  0.90762139  1
  O  O56  1  0.68766476  0.37101675  0.42211805  1
  O  O57  1  0.62898325  0.31233524  0.07788195  1
  O  O58  1  0.31233524  0.62898325  0.57788195  1
  O  O59  1  0.37101675  0.68766476  0.92211805  1
  O  O60  1  0.18452548  0.30806308  0.47853536  1
  O  O61  1  0.69193692  0.81547452  0.02146464  1
  O  O62  1  0.81547452  0.69193692  0.52146464  1
  O  O63  1  0.30806308  0.18452548  0.97853536  1
  O  O64  1  0.02832781  0.46852544  0.29663945  1
  O  O65  1  0.53147456  0.97167219  0.20336055  1
  O  O66  1  0.97167219  0.53147456  0.70336055  1
  O  O67  1  0.46852544  0.02832781  0.79663945  1
  O  O68  1  0.16705864  0.18089569  0.28330565  1
  O  O69  1  0.81910431  0.83294136  0.21669435  1
  O  O70  1  0.83294136  0.81910431  0.71669435  1
  O  O71  1  0.18089569  0.16705864  0.78330565  1
  O  O72  1  0.33024967  0.38705791  0.29111218  1
  O  O73  1  0.61294209  0.66975033  0.20888782  1
  O  O74  1  0.66975033  0.61294209  0.70888782  1
  O  O75  1  0.38705791  0.33024967  0.79111218  1
