# generated using pymatgen
data_Na2FeH7(SO6)2
_symmetry_space_group_name_H-M   'P 1'
_cell_length_a   7.18981376
_cell_length_b   7.41650623
_cell_length_c   21.24439893
_cell_angle_alpha   90.00000000
_cell_angle_beta   99.34015541
_cell_angle_gamma   90.00000000
_symmetry_Int_Tables_number   1
_chemical_formula_structural   Na2FeH7(SO6)2
_chemical_formula_sum   'Na8 Fe4 H28 S8 O48'
_cell_volume   1117.80272296
_cell_formula_units_Z   4
loop_
 _symmetry_equiv_pos_site_id
 _symmetry_equiv_pos_as_xyz
  1  'x, y, z'
loop_
 _atom_site_type_symbol
 _atom_site_label
 _atom_site_symmetry_multiplicity
 _atom_site_fract_x
 _atom_site_fract_y
 _atom_site_fract_z
 _atom_site_occupancy
  Na  Na0  1  0.94253228  0.58174035  0.37787815  1
  Na  Na1  1  0.44253228  0.91825965  0.87787815  1
  Na  Na2  1  0.05746772  0.41825965  0.62212185  1
  Na  Na3  1  0.55746772  0.08174035  0.12212185  1
  Na  Na4  1  0.43701411  0.57621179  0.38089068  1
  Na  Na5  1  0.93701411  0.92378821  0.88089068  1
  Na  Na6  1  0.56298589  0.42378821  0.61910932  1
  Na  Na7  1  0.06298589  0.07621179  0.11910932  1
  Fe  Fe8  1  0.50000000  0.00000000  0.50000000  1
  Fe  Fe9  1  0.00000000  0.50000000  -0.00000000  1
  Fe  Fe10  1  0.00000000  0.00000000  0.50000000  1
  Fe  Fe11  1  0.50000000  0.50000000  -0.00000000  1
  H  H12  1  0.73440639  0.22366497  0.46779574  1
  H  H13  1  0.23440639  0.27633503  0.96779574  1
  H  H14  1  0.26559361  0.77633503  0.53220426  1
  H  H15  1  0.76559361  0.72366497  0.03220426  1
  H  H16  1  0.36410302  0.25342029  0.30529131  1
  H  H17  1  0.86410302  0.24657971  0.80529131  1
  H  H18  1  0.63589698  0.74657971  0.69470869  1
  H  H19  1  0.13589698  0.75342029  0.19470869  1
  H  H20  1  0.41237127  0.40977888  0.26070788  1
  H  H21  1  0.91237127  0.09022112  0.76070788  1
  H  H22  1  0.58762873  0.59022112  0.73929212  1
  H  H23  1  0.08762873  0.90977888  0.23929212  1
  H  H24  1  0.65755357  0.87808568  0.35628308  1
  H  H25  1  0.15755357  0.62191432  0.85628308  1
  H  H26  1  0.34244643  0.12191432  0.64371692  1
  H  H27  1  0.84244643  0.37808568  0.14371692  1
  H  H28  1  0.65145030  0.79801111  0.28775247  1
  H  H29  1  0.15145030  0.70198889  0.78775247  1
  H  H30  1  0.34854970  0.20198889  0.71224753  1
  H  H31  1  0.84854970  0.29801111  0.21224753  1
  H  H32  1  0.94269346  0.24161499  0.31297762  1
  H  H33  1  0.44269346  0.25838501  0.81297762  1
  H  H34  1  0.05730654  0.75838501  0.68702238  1
  H  H35  1  0.55730654  0.74161499  0.18702238  1
  H  H36  1  0.72944526  0.31153632  0.30595092  1
  H  H37  1  0.22944526  0.18846368  0.80595092  1
  H  H38  1  0.27055474  0.68846368  0.69404908  1
  H  H39  1  0.77055474  0.81153632  0.19404908  1
  S  S40  1  0.81228370  0.02671533  0.63033830  1
  S  S41  1  0.31228370  0.47328467  0.13033830  1
  S  S42  1  0.18771630  0.97328467  0.36966170  1
  S  S43  1  0.68771630  0.52671533  0.86966170  1
  S  S44  1  0.75076721  0.62925525  0.49620591  1
  S  S45  1  0.25076721  0.87074475  0.99620591  1
  S  S46  1  0.24923279  0.37074475  0.50379409  1
  S  S47  1  0.74923279  0.12925525  0.00379409  1
  O  O48  1  0.81995381  0.22223900  0.64312058  1
  O  O49  1  0.31995381  0.27776100  0.14312058  1
  O  O50  1  0.18004619  0.77776100  0.35687942  1
  O  O51  1  0.68004619  0.72223900  0.85687942  1
  O  O52  1  0.84198172  0.92173376  0.69071117  1
  O  O53  1  0.34198172  0.57826624  0.19071117  1
  O  O54  1  0.15801828  0.07826624  0.30928883  1
  O  O55  1  0.65801828  0.42173376  0.80928883  1
  O  O56  1  0.03547491  0.02751705  0.40690232  1
  O  O57  1  0.53547491  0.47248295  0.90690232  1
  O  O58  1  0.96452509  0.97248295  0.59309768  1
  O  O59  1  0.46452509  0.52751705  0.09309768  1
  O  O60  1  0.37852643  0.02322823  0.40597878  1
  O  O61  1  0.87852643  0.47677177  0.90597878  1
  O  O62  1  0.62147357  0.97677177  0.59402122  1
  O  O63  1  0.12147357  0.52322823  0.09402122  1
  O  O64  1  0.57317093  0.74182762  0.48229433  1
  O  O65  1  0.07317093  0.75817238  0.98229433  1
  O  O66  1  0.42682907  0.25817238  0.51770567  1
  O  O67  1  0.92682907  0.24182762  0.01770567  1
  O  O68  1  0.91313524  0.74216189  0.48134633  1
  O  O69  1  0.41313524  0.75783811  0.98134633  1
  O  O70  1  0.08686476  0.25783811  0.51865367  1
  O  O71  1  0.58686476  0.24216189  0.01865367  1
  O  O72  1  0.72685691  0.47942422  0.44968268  1
  O  O73  1  0.22685691  0.02057578  0.94968268  1
  O  O74  1  0.27314309  0.52057578  0.55031732  1
  O  O75  1  0.77314309  0.97942422  0.05031732  1
  O  O76  1  0.78377978  0.56973530  0.56272079  1
  O  O77  1  0.28377978  0.93026470  0.06272079  1
  O  O78  1  0.21622022  0.43026470  0.43727921  1
  O  O79  1  0.71622022  0.06973530  0.93727921  1
  O  O80  1  0.73843080  0.09303315  0.47613909  1
  O  O81  1  0.23843080  0.40696685  0.97613909  1
  O  O82  1  0.26156920  0.90696685  0.52386091  1
  O  O83  1  0.76156920  0.59303315  0.02386091  1
  O  O84  1  0.45403780  0.35247626  0.30244866  1
  O  O85  1  0.95403780  0.14752374  0.80244866  1
  O  O86  1  0.54596220  0.64752374  0.69755134  1
  O  O87  1  0.04596220  0.85247626  0.19755134  1
  O  O88  1  0.66292002  0.76459384  0.33351287  1
  O  O89  1  0.16292002  0.73540616  0.83351287  1
  O  O90  1  0.33707998  0.23540616  0.66648713  1
  O  O91  1  0.83707998  0.26459384  0.16648713  1
  O  O92  1  0.85772853  0.34310997  0.29858729  1
  O  O93  1  0.35772853  0.15689003  0.79858729  1
  O  O94  1  0.14227147  0.65689003  0.70141271  1
  O  O95  1  0.64227147  0.84310997  0.20141271  1
