# generated using pymatgen
data_ScH4NF4
_symmetry_space_group_name_H-M   'P 1'
_cell_length_a   7.94783133
_cell_length_b   8.20805965
_cell_length_c   13.76609834
_cell_angle_alpha   90.00000000
_cell_angle_beta   90.00000000
_cell_angle_gamma   90.00000000
_symmetry_Int_Tables_number   1
_chemical_formula_structural   ScH4NF4
_chemical_formula_sum   'Sc8 H32 N8 F32'
_cell_volume   898.04895833
_cell_formula_units_Z   8
loop_
 _symmetry_equiv_pos_site_id
 _symmetry_equiv_pos_as_xyz
  1  'x, y, z'
loop_
 _atom_site_type_symbol
 _atom_site_label
 _atom_site_symmetry_multiplicity
 _atom_site_fract_x
 _atom_site_fract_y
 _atom_site_fract_z
 _atom_site_occupancy
  Sc  Sc0  1  0.99995739  0.62506252  0.75037467  1
  Sc  Sc1  1  0.50004261  0.87493748  0.25037467  1
  Sc  Sc2  1  0.49995739  0.37493748  0.24962533  1
  Sc  Sc3  1  0.00004261  0.12506252  0.74962533  1
  Sc  Sc4  1  0.00004261  0.37493748  0.24962533  1
  Sc  Sc5  1  0.49995739  0.12506252  0.74962533  1
  Sc  Sc6  1  0.50004261  0.62506252  0.75037467  1
  Sc  Sc7  1  0.99995739  0.87493748  0.25037467  1
  H  H8  1  0.14075491  0.63990858  0.53776128  1
  H  H9  1  0.35924509  0.86009142  0.03776128  1
  H  H10  1  0.64075491  0.36009142  0.46223872  1
  H  H11  1  0.85924509  0.13990858  0.96223872  1
  H  H12  1  0.85924509  0.36009142  0.46223872  1
  H  H13  1  0.64075491  0.13990858  0.96223872  1
  H  H14  1  0.35924509  0.63990858  0.53776128  1
  H  H15  1  0.14075491  0.86009142  0.03776128  1
  H  H16  1  0.25000000  0.72349282  0.44454635  1
  H  H17  1  0.25000000  0.77650718  0.94454635  1
  H  H18  1  0.75000000  0.27650718  0.55545365  1
  H  H19  1  0.75000000  0.22349282  0.05545365  1
  H  H20  1  0.25000000  0.52205646  0.45971830  1
  H  H21  1  0.25000000  0.97794354  0.95971830  1
  H  H22  1  0.75000000  0.47794354  0.54028170  1
  H  H23  1  0.75000000  0.02205646  0.04028170  1
  H  H24  1  0.75000000  0.52393016  0.04100637  1
  H  H25  1  0.75000000  0.97606984  0.54100637  1
  H  H26  1  0.25000000  0.47606984  0.95899363  1
  H  H27  1  0.25000000  0.02393016  0.45899363  1
  H  H28  1  0.85926457  0.64297959  0.96377438  1
  H  H29  1  0.64073543  0.85702041  0.46377438  1
  H  H30  1  0.35926457  0.35702041  0.03622562  1
  H  H31  1  0.14073543  0.14297959  0.53622562  1
  H  H32  1  0.14073543  0.35702041  0.03622562  1
  H  H33  1  0.35926457  0.14297959  0.53622562  1
  H  H34  1  0.64073543  0.64297959  0.96377438  1
  H  H35  1  0.85926457  0.85702041  0.46377438  1
  H  H36  1  0.75000000  0.72516944  0.05751745  1
  H  H37  1  0.75000000  0.77483056  0.55751745  1
  H  H38  1  0.25000000  0.27483056  0.94248255  1
  H  H39  1  0.25000000  0.22516944  0.44248255  1
  N  N40  1  0.25000000  0.63180724  0.49560902  1
  N  N41  1  0.25000000  0.86819276  0.99560902  1
  N  N42  1  0.75000000  0.36819276  0.50439098  1
  N  N43  1  0.75000000  0.13180724  0.00439098  1
  N  N44  1  0.75000000  0.63421040  0.00595005  1
  N  N45  1  0.75000000  0.86578960  0.50595005  1
  N  N46  1  0.25000000  0.36578960  0.99404995  1
  N  N47  1  0.25000000  0.13421040  0.49404995  1
  F  F48  1  0.75000000  0.60563659  0.78089546  1
  F  F49  1  0.75000000  0.89436341  0.28089546  1
  F  F50  1  0.25000000  0.39436341  0.21910454  1
  F  F51  1  0.25000000  0.10563659  0.71910454  1
  F  F52  1  0.95474136  0.62652623  0.60620636  1
  F  F53  1  0.54525864  0.87347377  0.10620636  1
  F  F54  1  0.45474136  0.37347377  0.39379364  1
  F  F55  1  0.04525864  0.12652623  0.89379364  1
  F  F56  1  0.04525864  0.37347377  0.39379364  1
  F  F57  1  0.45474136  0.12652623  0.89379364  1
  F  F58  1  0.54525864  0.62652623  0.60620636  1
  F  F59  1  0.95474136  0.87347377  0.10620636  1
  F  F60  1  0.04478046  0.62997997  0.89453721  1
  F  F61  1  0.45521954  0.87002003  0.39453721  1
  F  F62  1  0.54478046  0.37002003  0.10546279  1
  F  F63  1  0.95521954  0.12997997  0.60546279  1
  F  F64  1  0.95521954  0.37002003  0.10546279  1
  F  F65  1  0.54478046  0.12997997  0.60546279  1
  F  F66  1  0.45521954  0.62997997  0.89453721  1
  F  F67  1  0.04478046  0.87002003  0.39453721  1
  F  F68  1  0.25000000  0.64487197  0.72002279  1
  F  F69  1  0.25000000  0.85512803  0.22002279  1
  F  F70  1  0.75000000  0.35512803  0.27997721  1
  F  F71  1  0.75000000  0.14487197  0.77997721  1
  F  F72  1  0.98028804  0.87554465  0.75087376  1
  F  F73  1  0.51971196  0.62445535  0.25087376  1
  F  F74  1  0.48028804  0.12445535  0.24912624  1
  F  F75  1  0.01971196  0.37554465  0.74912624  1
  F  F76  1  0.01971196  0.12445535  0.24912624  1
  F  F77  1  0.48028804  0.37554465  0.74912624  1
  F  F78  1  0.51971196  0.87554465  0.75087376  1
  F  F79  1  0.98028804  0.62445535  0.25087376  1
