# generated using pymatgen
data_ZnP2(H4O5)2
_symmetry_space_group_name_H-M   'P 1'
_cell_length_a   5.41187129
_cell_length_b   7.32709819
_cell_length_c   9.94287773
_cell_angle_alpha   90.00000000
_cell_angle_beta   90.00000000
_cell_angle_gamma   94.88329618
_symmetry_Int_Tables_number   1
_chemical_formula_structural   ZnP2(H4O5)2
_chemical_formula_sum   'Zn2 P4 H16 O20'
_cell_volume   392.83690518
_cell_formula_units_Z   2
loop_
 _symmetry_equiv_pos_site_id
 _symmetry_equiv_pos_as_xyz
  1  'x, y, z'
loop_
 _atom_site_type_symbol
 _atom_site_label
 _atom_site_symmetry_multiplicity
 _atom_site_fract_x
 _atom_site_fract_y
 _atom_site_fract_z
 _atom_site_occupancy
  Zn  Zn0  1  -0.00000000  0.00000000  0.00000000  1
  Zn  Zn1  1  0.50000000  0.50000000  0.50000000  1
  P  P2  1  0.75664624  0.66751573  0.78380336  1
  P  P3  1  0.25664624  0.16751573  0.71619664  1
  P  P4  1  0.24335376  0.33248427  0.21619664  1
  P  P5  1  0.74335376  0.83248427  0.28380336  1
  H  H6  1  0.58154238  0.16170427  0.92156156  1
  H  H7  1  0.08154238  0.66170427  0.57843844  1
  H  H8  1  0.41845762  0.83829573  0.07843844  1
  H  H9  1  0.91845762  0.33829573  0.42156156  1
  H  H10  1  0.69652615  0.26636819  0.04617877  1
  H  H11  1  0.19652615  0.76636819  0.45382123  1
  H  H12  1  0.30347385  0.73363181  0.95382123  1
  H  H13  1  0.80347385  0.23363181  0.54617877  1
  H  H14  1  0.85538538  0.41331927  0.88851558  1
  H  H15  1  0.35538538  0.91331927  0.61148442  1
  H  H16  1  0.14461462  0.58668073  0.11148442  1
  H  H17  1  0.64461462  0.08668073  0.38851558  1
  H  H18  1  0.39474225  0.51479427  0.78045469  1
  H  H19  1  0.89474225  0.01479427  0.71954531  1
  H  H20  1  0.60525775  0.48520573  0.21954531  1
  H  H21  1  0.10525775  0.98520573  0.28045469  1
  O  O22  1  0.84276851  0.86281922  0.82603275  1
  O  O23  1  0.34276851  0.36281922  0.67396725  1
  O  O24  1  0.15723149  0.13718078  0.17396725  1
  O  O25  1  0.65723149  0.63718078  0.32603275  1
  O  O26  1  0.77282632  0.63191066  0.63259227  1
  O  O27  1  0.27282632  0.13191066  0.86740773  1
  O  O28  1  0.22717368  0.36808934  0.36740773  1
  O  O29  1  0.72717368  0.86808934  0.13259227  1
  O  O30  1  0.92542401  0.53996446  0.86455366  1
  O  O31  1  0.42542401  0.03996446  0.63544634  1
  O  O32  1  0.07457599  0.46003554  0.13544634  1
  O  O33  1  0.57457599  0.96003554  0.36455366  1
  O  O34  1  0.47809992  0.62377565  0.83317000  1
  O  O35  1  0.97809992  0.12377565  0.66683000  1
  O  O36  1  0.52190008  0.37622435  0.16683000  1
  O  O37  1  0.02190008  0.87622435  0.33317000  1
  O  O38  1  0.74553961  0.20839378  0.96088757  1
  O  O39  1  0.24553961  0.70839378  0.53911243  1
  O  O40  1  0.25446039  0.79160622  0.03911243  1
  O  O41  1  0.75446039  0.29160622  0.46088757  1
