# generated using pymatgen
data_Rb4Mo5H4Se2O23
_symmetry_space_group_name_H-M   'P 1'
_cell_length_a   10.35955132
_cell_length_b   10.95245817
_cell_length_c   24.19465680
_cell_angle_alpha   90.00000000
_cell_angle_beta   90.00000000
_cell_angle_gamma   113.79838401
_symmetry_Int_Tables_number   1
_chemical_formula_structural   Rb4Mo5H4Se2O23
_chemical_formula_sum   'Rb16 Mo20 H16 Se8 O92'
_cell_volume   2511.76710132
_cell_formula_units_Z   4
loop_
 _symmetry_equiv_pos_site_id
 _symmetry_equiv_pos_as_xyz
  1  'x, y, z'
loop_
 _atom_site_type_symbol
 _atom_site_label
 _atom_site_symmetry_multiplicity
 _atom_site_fract_x
 _atom_site_fract_y
 _atom_site_fract_z
 _atom_site_occupancy
  Rb  Rb0  1  0.09465420  0.95123455  0.10849788  1
  Rb  Rb1  1  0.59465420  0.45123455  0.39150212  1
  Rb  Rb2  1  0.90534580  0.04876545  0.89150212  1
  Rb  Rb3  1  0.40534580  0.54876545  0.60849788  1
  Rb  Rb4  1  0.43311058  0.02421041  0.24563889  1
  Rb  Rb5  1  0.93311058  0.52421041  0.25436111  1
  Rb  Rb6  1  0.56688942  0.97578959  0.75436111  1
  Rb  Rb7  1  0.06688942  0.47578959  0.74563889  1
  Rb  Rb8  1  0.07735938  0.71294208  0.42265306  1
  Rb  Rb9  1  0.57735938  0.21294208  0.07734694  1
  Rb  Rb10  1  0.92264062  0.28705792  0.57734694  1
  Rb  Rb11  1  0.42264062  0.78705792  0.92265306  1
  Rb  Rb12  1  0.49869407  0.82101096  0.46285730  1
  Rb  Rb13  1  0.99869407  0.32101096  0.03714270  1
  Rb  Rb14  1  0.50130593  0.17898904  0.53714270  1
  Rb  Rb15  1  0.00130593  0.67898904  0.96285730  1
  Mo  Mo16  1  0.29013253  0.08467151  0.39551532  1
  Mo  Mo17  1  0.79013253  0.58467151  0.10448468  1
  Mo  Mo18  1  0.70986747  0.91532849  0.60448468  1
  Mo  Mo19  1  0.20986747  0.41532849  0.89551532  1
  Mo  Mo20  1  0.04473900  0.95989952  0.29173071  1
  Mo  Mo21  1  0.54473900  0.45989952  0.20826929  1
  Mo  Mo22  1  0.95526100  0.04010048  0.70826929  1
  Mo  Mo23  1  0.45526100  0.54010048  0.79173071  1
  Mo  Mo24  1  0.80070577  0.10035067  0.30391839  1
  Mo  Mo25  1  0.30070577  0.60035067  0.19608161  1
  Mo  Mo26  1  0.19929423  0.89964933  0.69608161  1
  Mo  Mo27  1  0.69929423  0.39964933  0.80391839  1
  Mo  Mo28  1  0.89754405  0.32404923  0.41299993  1
  Mo  Mo29  1  0.39754405  0.82404923  0.08700007  1
  Mo  Mo30  1  0.10245595  0.67595077  0.58700007  1
  Mo  Mo31  1  0.60245595  0.17595077  0.91299993  1
  Mo  Mo32  1  0.22665735  0.36642323  0.46011253  1
  Mo  Mo33  1  0.72665735  0.86642323  0.03988747  1
  Mo  Mo34  1  0.77334265  0.63357677  0.53988747  1
  Mo  Mo35  1  0.27334265  0.13357677  0.96011253  1
  H  H36  1  0.06694522  0.23401346  0.15137096  1
  H  H37  1  0.56694522  0.73401346  0.34862904  1
  H  H38  1  0.93305478  0.76598654  0.84862904  1
  H  H39  1  0.43305478  0.26598654  0.65137096  1
  H  H40  1  0.22725677  0.27428796  0.14586589  1
  H  H41  1  0.72725677  0.77428796  0.35413411  1
  H  H42  1  0.77274323  0.72571204  0.85413411  1
  H  H43  1  0.27274323  0.22571204  0.64586589  1
  H  H44  1  0.30946013  0.59553102  0.37101232  1
  H  H45  1  0.80946013  0.09553102  0.12898768  1
  H  H46  1  0.69053987  0.40446898  0.62898768  1
  H  H47  1  0.19053987  0.90446898  0.87101232  1
  H  H48  1  0.31557731  0.70190034  0.32717641  1
  H  H49  1  0.81557731  0.20190034  0.17282359  1
  H  H50  1  0.68442269  0.29809966  0.67282359  1
  H  H51  1  0.18442269  0.79809966  0.82717641  1
  Se  Se52  1  0.17472525  0.31379032  0.31257032  1
  Se  Se53  1  0.67472525  0.81379032  0.18742968  1
  Se  Se54  1  0.82527475  0.68620968  0.68742968  1
  Se  Se55  1  0.32527475  0.18620968  0.81257032  1
  Se  Se56  1  0.92923990  0.01730354  0.43278469  1
  Se  Se57  1  0.42923990  0.51730354  0.06721531  1
  Se  Se58  1  0.07076010  0.98269646  0.56721531  1
  Se  Se59  1  0.57076010  0.48269646  0.93278469  1
  O  O60  1  0.27047651  0.41163278  0.36524985  1
  O  O61  1  0.77047651  0.91163278  0.13475015  1
  O  O62  1  0.72952349  0.58836722  0.63475015  1
  O  O63  1  0.22952349  0.08836722  0.86524985  1
  O  O64  1  0.00362242  0.29497558  0.32795918  1
  O  O65  1  0.50362242  0.79497558  0.17204082  1
  O  O66  1  0.99637758  0.70502442  0.67204082  1
  O  O67  1  0.49637758  0.20502442  0.82795918  1
  O  O68  1  0.13742727  0.22427438  0.12724281  1
  O  O69  1  0.63742727  0.72427438  0.37275719  1
  O  O70  1  0.86257273  0.77572562  0.87275719  1
  O  O71  1  0.36257273  0.27572562  0.62724281  1
  O  O72  1  0.17075182  0.15717216  0.33239405  1
  O  O73  1  0.67075182  0.65717216  0.16760595  1
  O  O74  1  0.82924818  0.84282784  0.66760595  1
  O  O75  1  0.32924818  0.34282784  0.83239405  1
  O  O76  1  0.07500430  0.98714603  0.44380404  1
  O  O77  1  0.57500430  0.48714603  0.05619596  1
  O  O78  1  0.92499570  0.01285397  0.55619596  1
  O  O79  1  0.42499570  0.51285397  0.94380404  1
  O  O80  1  0.89978875  0.98735492  0.36198353  1
  O  O81  1  0.39978875  0.48735492  0.13801647  1
  O  O82  1  0.10021125  0.01264508  0.63801647  1
  O  O83  1  0.60021125  0.51264508  0.86198353  1
  O  O84  1  0.00434760  0.19388977  0.43647710  1
  O  O85  1  0.50434760  0.69388977  0.06352290  1
  O  O86  1  0.99565240  0.80611023  0.56352290  1
  O  O87  1  0.49565240  0.30611023  0.93647710  1
  O  O88  1  0.64725560  0.95388726  0.30040191  1
  O  O89  1  0.14725560  0.45388726  0.19959809  1
  O  O90  1  0.35274440  0.04611274  0.69959809  1
  O  O91  1  0.85274440  0.54611274  0.80040191  1
  O  O92  1  0.93420682  0.05534733  0.26226144  1
  O  O93  1  0.43420682  0.55534733  0.23773856  1
  O  O94  1  0.06579318  0.94465267  0.73773856  1
  O  O95  1  0.56579318  0.44465267  0.76226144  1
  O  O96  1  0.30692934  0.23838062  0.44027835  1
  O  O97  1  0.80692934  0.73838062  0.05972165  1
  O  O98  1  0.69307066  0.76161938  0.55972165  1
  O  O99  1  0.19307066  0.26161938  0.94027835  1
  O  O100  1  0.08457019  0.43546534  0.44299697  1
  O  O101  1  0.58457019  0.93546534  0.05700303  1
  O  O102  1  0.91542981  0.56453466  0.55700303  1
  O  O103  1  0.41542981  0.06453466  0.94299697  1
  O  O104  1  0.87625235  0.45444142  0.37689221  1
  O  O105  1  0.37625235  0.95444142  0.12310779  1
  O  O106  1  0.12374765  0.54555858  0.62310779  1
  O  O107  1  0.62374765  0.04555858  0.87689221  1
  O  O108  1  0.17700171  0.93905061  0.34596697  1
  O  O109  1  0.67700171  0.43905061  0.15403303  1
  O  O110  1  0.82299829  0.06094939  0.65403303  1
  O  O111  1  0.32299829  0.56094939  0.84596697  1
  O  O112  1  0.37529535  0.51649711  0.46555809  1
  O  O113  1  0.87529535  0.01649711  0.03444191  1
  O  O114  1  0.62470465  0.48350289  0.53444191  1
  O  O115  1  0.12470465  0.98350289  0.96555809  1
  O  O116  1  0.34320825  0.99282966  0.44339797  1
  O  O117  1  0.84320825  0.49282966  0.05660203  1
  O  O118  1  0.65679175  0.00717034  0.55660203  1
  O  O119  1  0.15679175  0.50717034  0.94339797  1
  O  O120  1  0.79077284  0.30129486  0.47136518  1
  O  O121  1  0.29077284  0.80129486  0.02863482  1
  O  O122  1  0.20922716  0.69870514  0.52863482  1
  O  O123  1  0.70922716  0.19870514  0.97136518  1
  O  O124  1  0.76743612  0.16642470  0.37461379  1
  O  O125  1  0.26743612  0.66642470  0.12538621  1
  O  O126  1  0.23256388  0.83357530  0.62538621  1
  O  O127  1  0.73256388  0.33357530  0.87461379  1
  O  O128  1  0.44218689  0.16165745  0.35594786  1
  O  O129  1  0.94218689  0.66165745  0.14405214  1
  O  O130  1  0.55781311  0.83834255  0.64405214  1
  O  O131  1  0.05781311  0.33834255  0.85594786  1
  O  O132  1  0.18865240  0.32298656  0.52952593  1
  O  O133  1  0.68865240  0.82298656  0.97047407  1
  O  O134  1  0.81134760  0.67701344  0.47047407  1
  O  O135  1  0.31134760  0.17701344  0.02952593  1
  O  O136  1  0.76693297  0.20083049  0.25405590  1
  O  O137  1  0.26693297  0.70083049  0.24594410  1
  O  O138  1  0.23306703  0.79916951  0.74594410  1
  O  O139  1  0.73306703  0.29916951  0.75405590  1
  O  O140  1  0.14268923  0.97823867  0.23135150  1
  O  O141  1  0.64268923  0.47823867  0.26864850  1
  O  O142  1  0.85731077  0.02176133  0.76864850  1
  O  O143  1  0.35731077  0.52176133  0.73135150  1
  O  O144  1  0.92468823  0.79303007  0.29113287  1
  O  O145  1  0.42468823  0.29303007  0.20886713  1
  O  O146  1  0.07531177  0.20696993  0.70886713  1
  O  O147  1  0.57531177  0.70696993  0.79113287  1
  O  O148  1  0.33137926  0.69138882  0.36656653  1
  O  O149  1  0.83137926  0.19138882  0.13343347  1
  O  O150  1  0.66862074  0.30861118  0.63343347  1
  O  O151  1  0.16862074  0.80861118  0.86656653  1
