# generated using pymatgen
data_Sm2ZrSe5
_symmetry_space_group_name_H-M   'P 1'
_cell_length_a   7.71142950
_cell_length_b   8.24648634
_cell_length_c   12.30443867
_cell_angle_alpha   90.00000000
_cell_angle_beta   90.00000000
_cell_angle_gamma   90.00000000
_symmetry_Int_Tables_number   1
_chemical_formula_structural   Sm2ZrSe5
_chemical_formula_sum   'Sm8 Zr4 Se20'
_cell_volume   782.46630060
_cell_formula_units_Z   4
loop_
 _symmetry_equiv_pos_site_id
 _symmetry_equiv_pos_as_xyz
  1  'x, y, z'
loop_
 _atom_site_type_symbol
 _atom_site_label
 _atom_site_symmetry_multiplicity
 _atom_site_fract_x
 _atom_site_fract_y
 _atom_site_fract_z
 _atom_site_occupancy
  Sm  Sm0  1  0.47648906  0.99696826  0.67878550  1
  Sm  Sm1  1  0.02351094  0.50303174  0.17878550  1
  Sm  Sm2  1  0.52351094  0.49696826  0.32121450  1
  Sm  Sm3  1  0.97648906  0.00303174  0.82121450  1
  Sm  Sm4  1  0.52351094  0.00303174  0.32121450  1
  Sm  Sm5  1  0.97648906  0.49696826  0.82121450  1
  Sm  Sm6  1  0.47648906  0.50303174  0.67878550  1
  Sm  Sm7  1  0.02351094  0.99696826  0.17878550  1
  Zr  Zr8  1  0.91913964  0.25000000  0.50651909  1
  Zr  Zr9  1  0.58086036  0.25000000  0.00651909  1
  Zr  Zr10  1  0.08086036  0.75000000  0.49348091  1
  Zr  Zr11  1  0.41913964  0.75000000  0.99348091  1
  Se  Se12  1  0.34020692  0.03821559  0.90789684  1
  Se  Se13  1  0.15979308  0.46178441  0.40789684  1
  Se  Se14  1  0.65979308  0.53821559  0.09210316  1
  Se  Se15  1  0.84020692  0.96178441  0.59210316  1
  Se  Se16  1  0.65979308  0.96178441  0.09210316  1
  Se  Se17  1  0.84020692  0.53821559  0.59210316  1
  Se  Se18  1  0.34020692  0.46178441  0.90789684  1
  Se  Se19  1  0.15979308  0.03821559  0.40789684  1
  Se  Se20  1  0.16791038  0.25000000  0.68066788  1
  Se  Se21  1  0.33208962  0.25000000  0.18066788  1
  Se  Se22  1  0.83208962  0.75000000  0.31933212  1
  Se  Se23  1  0.66791038  0.75000000  0.81933212  1
  Se  Se24  1  0.94855043  0.25000000  0.00348445  1
  Se  Se25  1  0.55144957  0.25000000  0.50348445  1
  Se  Se26  1  0.05144957  0.75000000  0.99651555  1
  Se  Se27  1  0.44855043  0.75000000  0.49651555  1
  Se  Se28  1  0.68984182  0.25000000  0.79261517  1
  Se  Se29  1  0.81015818  0.25000000  0.29261517  1
  Se  Se30  1  0.31015818  0.75000000  0.20738483  1
  Se  Se31  1  0.18984182  0.75000000  0.70738483  1
