# generated using pymatgen
data_SrSc4Si5O17
_symmetry_space_group_name_H-M   'P 1'
_cell_length_a   5.33276636
_cell_length_b   6.63277118
_cell_length_c   19.45089520
_cell_angle_alpha   90.00000000
_cell_angle_beta   90.00000000
_cell_angle_gamma   106.56602777
_symmetry_Int_Tables_number   1
_chemical_formula_structural   SrSc4Si5O17
_chemical_formula_sum   'Sr2 Sc8 Si10 O34'
_cell_volume   659.44042560
_cell_formula_units_Z   2
loop_
 _symmetry_equiv_pos_site_id
 _symmetry_equiv_pos_as_xyz
  1  'x, y, z'
loop_
 _atom_site_type_symbol
 _atom_site_label
 _atom_site_symmetry_multiplicity
 _atom_site_fract_x
 _atom_site_fract_y
 _atom_site_fract_z
 _atom_site_occupancy
  Sr  Sr0  1  0.76740312  0.22274988  0.75000000  1
  Sr  Sr1  1  0.23259688  0.77725012  0.25000000  1
  Sc  Sc2  1  0.69626139  0.88796713  0.53797348  1
  Sc  Sc3  1  0.30373861  0.11203287  0.03797348  1
  Sc  Sc4  1  0.30373861  0.11203287  0.46202652  1
  Sc  Sc5  1  0.69626139  0.88796713  0.96202652  1
  Sc  Sc6  1  0.35827032  0.53785626  0.65992116  1
  Sc  Sc7  1  0.64172968  0.46214374  0.15992116  1
  Sc  Sc8  1  0.64172968  0.46214374  0.34007884  1
  Sc  Sc9  1  0.35827032  0.53785626  0.84007884  1
  Si  Si10  1  0.93802563  0.74165156  0.75000000  1
  Si  Si11  1  0.06197437  0.25834844  0.25000000  1
  Si  Si12  1  0.23499124  0.01493206  0.63299265  1
  Si  Si13  1  0.76500876  0.98506794  0.13299265  1
  Si  Si14  1  0.76500876  0.98506794  0.36700735  1
  Si  Si15  1  0.23499124  0.01493206  0.86700735  1
  Si  Si16  1  0.80244457  0.40949887  0.56330493  1
  Si  Si17  1  0.19755543  0.59050113  0.06330493  1
  Si  Si18  1  0.19755543  0.59050113  0.43669507  1
  Si  Si19  1  0.80244457  0.40949887  0.93669507  1
  O  O20  1  0.14975010  0.60438942  0.75000000  1
  O  O21  1  0.85024990  0.39561058  0.25000000  1
  O  O22  1  0.63652283  0.59170505  0.75000000  1
  O  O23  1  0.36347717  0.40829495  0.25000000  1
  O  O24  1  0.97811517  0.90099703  0.68345200  1
  O  O25  1  0.02188483  0.09900297  0.18345200  1
  O  O26  1  0.02188483  0.09900297  0.31654800  1
  O  O27  1  0.97811517  0.90099703  0.81654800  1
  O  O28  1  0.38909498  0.23385174  0.67090952  1
  O  O29  1  0.61090502  0.76614826  0.17090952  1
  O  O30  1  0.61090502  0.76614826  0.32909048  1
  O  O31  1  0.38909498  0.23385174  0.82909048  1
  O  O32  1  0.09205732  0.03314386  0.55951397  1
  O  O33  1  0.90794268  0.96685614  0.05951397  1
  O  O34  1  0.90794268  0.96685614  0.44048603  1
  O  O35  1  0.09205732  0.03314386  0.94048603  1
  O  O36  1  0.42159707  0.85508648  0.62748473  1
  O  O37  1  0.57840293  0.14491352  0.12748473  1
  O  O38  1  0.57840293  0.14491352  0.37251527  1
  O  O39  1  0.42159707  0.85508648  0.87251527  1
  O  O40  1  0.97281975  0.39798271  0.63194065  1
  O  O41  1  0.02718025  0.60201729  0.13194065  1
  O  O42  1  0.02718025  0.60201729  0.36805935  1
  O  O43  1  0.97281975  0.39798271  0.86805935  1
  O  O44  1  0.61456146  0.18119719  0.53531490  1
  O  O45  1  0.38543854  0.81880281  0.03531490  1
  O  O46  1  0.38543854  0.81880281  0.46468510  1
  O  O47  1  0.61456146  0.18119719  0.96468510  1
  O  O48  1  0.00000000  0.50000000  0.50000000  1
  O  O49  1  0.00000000  0.50000000  0.00000000  1
  O  O50  1  0.62657110  0.57629944  0.57548113  1
  O  O51  1  0.37342890  0.42370056  0.07548113  1
  O  O52  1  0.37342890  0.42370056  0.42451887  1
  O  O53  1  0.62657110  0.57629944  0.92451887  1
