# generated using pymatgen
data_KV2PO8
_symmetry_space_group_name_H-M   'P 1'
_cell_length_a   4.82958044
_cell_length_b   14.00680866
_cell_length_c   21.57543846
_cell_angle_alpha   71.08611204
_cell_angle_beta   89.70431425
_cell_angle_gamma   89.10773418
_symmetry_Int_Tables_number   1
_chemical_formula_structural   KV2PO8
_chemical_formula_sum   'K8 V16 P8 O64'
_cell_volume   1380.54265086
_cell_formula_units_Z   8
loop_
 _symmetry_equiv_pos_site_id
 _symmetry_equiv_pos_as_xyz
  1  'x, y, z'
loop_
 _atom_site_type_symbol
 _atom_site_label
 _atom_site_symmetry_multiplicity
 _atom_site_fract_x
 _atom_site_fract_y
 _atom_site_fract_z
 _atom_site_occupancy
  K  K0  1  0.80919086  0.46974247  0.37427693  1
  K  K1  1  0.19080914  0.53025753  0.62572307  1
  K  K2  1  0.18960709  0.15805827  0.87282254  1
  K  K3  1  0.81039291  0.84194173  0.12717746  1
  K  K4  1  0.74503763  0.34609234  0.12849469  1
  K  K5  1  0.25496237  0.65390766  0.87150531  1
  K  K6  1  0.25114056  0.02646682  0.63054041  1
  K  K7  1  0.74885944  0.97353318  0.36945959  1
  V  V8  1  0.31802724  0.37278500  0.25529075  1
  V  V9  1  0.68197276  0.62721500  0.74470925  1
  V  V10  1  0.79701061  0.15666329  0.02272343  1
  V  V11  1  0.20298939  0.84333671  0.97727657  1
  V  V12  1  0.32033139  0.12889739  0.24199016  1
  V  V13  1  0.67966861  0.87110261  0.75800984  1
  V  V14  1  0.67165861  0.37277105  0.75546020  1
  V  V15  1  0.32834139  0.62722895  0.24453980  1
  V  V16  1  0.19867161  0.31910955  0.52130237  1
  V  V17  1  0.80132839  0.68089045  0.47869763  1
  V  V18  1  0.67117287  0.13012796  0.74194581  1
  V  V19  1  0.32882713  0.86987204  0.25805419  1
  V  V20  1  0.69445869  0.17307337  0.48041646  1
  V  V21  1  0.30554131  0.82692663  0.51958354  1
  V  V22  1  0.30172152  0.34355983  0.98167519  1
  V  V23  1  0.69827848  0.65644017  0.01832481  1
  P  P24  1  0.18118867  0.17167224  0.37906060  1
  P  P25  1  0.81881133  0.82832776  0.62093940  1
  P  P26  1  0.69091744  0.33244509  0.61758068  1
  P  P27  1  0.30908256  0.66755491  0.38241932  1
  P  P28  1  0.30299450  0.04741803  0.11936065  1
  P  P29  1  0.69700550  0.95258197  0.88063935  1
  P  P30  1  0.81287749  0.44665700  0.88088688  1
  P  P31  1  0.18712251  0.55334300  0.11911312  1
  O  O32  1  0.40553730  0.21077405  0.53300434  1
  O  O33  1  0.59446270  0.78922595  0.46699566  1
  O  O34  1  0.59043830  0.25381665  0.03403935  1
  O  O35  1  0.40956170  0.74618335  0.96596065  1
  O  O36  1  0.11055564  0.06828231  0.05936326  1
  O  O37  1  0.88944436  0.93171769  0.94063674  1
  O  O38  1  0.87794406  0.15117703  0.40260689  1
  O  O39  1  0.12205594  0.84882297  0.59739311  1
  O  O40  1  0.88295150  0.37069147  0.55741447  1
  O  O41  1  0.11704850  0.62930853  0.44258553  1
  O  O42  1  0.09141875  0.24554274  0.97636044  1
  O  O43  1  0.90858125  0.75445726  0.02363956  1
  O  O44  1  0.90510068  0.27628105  0.47476617  1
  O  O45  1  0.09489932  0.72371895  0.52523383  1
  O  O46  1  0.11795117  0.44207204  0.90359906  1
  O  O47  1  0.88204883  0.55792796  0.09640094  1
  O  O48  1  0.38401171  0.34820606  0.59552091  1
  O  O49  1  0.61598829  0.65179394  0.40447909  1
  O  O50  1  0.76156175  0.21959653  0.65484422  1
  O  O51  1  0.23843825  0.78040347  0.34515578  1
  O  O52  1  0.67216045  0.13232967  0.95973589  1
  O  O53  1  0.32783955  0.86767033  0.04026411  1
  O  O54  1  0.60973110  0.05449296  0.09729885  1
  O  O55  1  0.39026890  0.94550704  0.90270115  1
  O  O56  1  0.74489484  0.06261863  0.83599289  1
  O  O57  1  0.25510516  0.93738137  0.16400711  1
  O  O58  1  0.32345913  0.40624841  0.45821202  1
  O  O59  1  0.67654087  0.59375159  0.54178798  1
  O  O60  1  0.21608468  0.28563403  0.34084759  1
  O  O61  1  0.78391532  0.71436597  0.65915241  1
  O  O62  1  0.61958615  0.42107921  0.94108920  1
  O  O63  1  0.38041385  0.57892079  0.05891080  1
  O  O64  1  0.24697535  0.10526890  0.33552305  1
  O  O65  1  0.75302465  0.89473110  0.66447695  1
  O  O66  1  0.74095731  0.39892670  0.66159846  1
  O  O67  1  0.25904269  0.60107330  0.33840154  1
  O  O68  1  0.76863769  0.37159994  0.84261594  1
  O  O69  1  0.23136231  0.62840006  0.15738406  1
  O  O70  1  0.81707055  0.07736829  0.53911521  1
  O  O71  1  0.18292945  0.92263171  0.46088479  1
  O  O72  1  0.17821033  0.38121754  0.04006353  1
  O  O73  1  0.82178967  0.61878246  0.95993647  1
  O  O74  1  0.22881652  0.12355743  0.15617247  1
  O  O75  1  0.77118348  0.87644257  0.84382753  1
  O  O76  1  0.37640788  0.13890428  0.43882996  1
  O  O77  1  0.62359212  0.86109572  0.56117004  1
  O  O78  1  0.75080658  0.55739685  0.83798609  1
  O  O79  1  0.24919342  0.44260315  0.16201391  1
  O  O80  1  0.76830750  0.01767086  0.72676982  1
  O  O81  1  0.23169250  0.98232914  0.27323018  1
  O  O82  1  0.22470194  0.25694261  0.22517561  1
  O  O83  1  0.77529806  0.74305739  0.77482439  1
  O  O84  1  0.77024318  0.24534401  0.77065752  1
  O  O85  1  0.22975682  0.75465599  0.22934248  1
  O  O86  1  0.22300935  0.48421369  0.27198509  1
  O  O87  1  0.77699065  0.51578631  0.72801491  1
  O  O88  1  0.65599860  0.36954038  0.25739817  1
  O  O89  1  0.34400140  0.63045962  0.74260183  1
  O  O90  1  0.33331771  0.13205067  0.74042921  1
  O  O91  1  0.66668229  0.86794933  0.25957079  1
  O  O92  1  0.65831639  0.12826624  0.24018013  1
  O  O93  1  0.34168361  0.87173376  0.75981987  1
  O  O94  1  0.33380530  0.37328911  0.75704978  1
  O  O95  1  0.66619470  0.62671089  0.24295022  1
