# generated using pymatgen
data_Sr2Cu(SCl)2
_symmetry_space_group_name_H-M   'P 1'
_cell_length_a   4.60926675
_cell_length_b   4.60917360
_cell_length_c   8.67597913
_cell_angle_alpha   105.46719025
_cell_angle_beta   105.46723459
_cell_angle_gamma   89.75798794
_symmetry_Int_Tables_number   1
_chemical_formula_structural   Sr2Cu(SCl)2
_chemical_formula_sum   'Sr2 Cu1 S2 Cl2'
_cell_volume   170.76657805
_cell_formula_units_Z   1
loop_
 _symmetry_equiv_pos_site_id
 _symmetry_equiv_pos_as_xyz
  1  'x, y, z'
loop_
 _atom_site_type_symbol
 _atom_site_label
 _atom_site_symmetry_multiplicity
 _atom_site_fract_x
 _atom_site_fract_y
 _atom_site_fract_z
 _atom_site_occupancy
  Sr  Sr0  1  0.62511482  0.62507840  0.25019014  1
  Sr  Sr1  1  0.37488518  0.37492160  0.74980986  1
  Cu  Cu2  1  0.00000000  0.00000000  0.00000000  1
  S  S3  1  0.50000000  0.00000000  0.00000000  1
  S  S4  1  0.00000000  0.50000000  0.00000000  1
  Cl  Cl5  1  0.81001438  0.81000678  0.62002822  1
  Cl  Cl6  1  0.18998562  0.18999322  0.37997178  1
