# generated using pymatgen
data_CaZrAl9BO18
_symmetry_space_group_name_H-M   'P 1'
_cell_length_a   8.55223025
_cell_length_b   8.80234422
_cell_length_c   8.80252593
_cell_angle_alpha   120.00217443
_cell_angle_beta   90.00000000
_cell_angle_gamma   90.00000000
_symmetry_Int_Tables_number   1
_chemical_formula_structural   CaZrAl9BO18
_chemical_formula_sum   'Ca2 Zr2 Al18 B2 O36'
_cell_volume   573.86027391
_cell_formula_units_Z   2
loop_
 _symmetry_equiv_pos_site_id
 _symmetry_equiv_pos_as_xyz
  1  'x, y, z'
loop_
 _atom_site_type_symbol
 _atom_site_label
 _atom_site_symmetry_multiplicity
 _atom_site_fract_x
 _atom_site_fract_y
 _atom_site_fract_z
 _atom_site_occupancy
  Ca  Ca0  1  0.00643001  -0.00000003  0.00000007  1
  Ca  Ca1  1  0.50643001  0.00000003  0.99999993  1
  Zr  Zr2  1  0.25043636  0.66668227  0.33334077  1
  Zr  Zr3  1  0.75043636  0.33331773  0.66665923  1
  Al  Al4  1  0.75043426  0.00431999  0.33671910  1
  Al  Al5  1  0.75043453  0.66331012  0.66761880  1
  Al  Al6  1  0.75043410  0.33237412  0.99567041  1
  Al  Al7  1  0.25043426  0.99568001  0.66328090  1
  Al  Al8  1  0.25043453  0.33668988  0.33238120  1
  Al  Al9  1  0.25043410  0.66762588  0.00432959  1
  Al  Al10  1  0.42204846  0.01789806  0.36095555  1
  Al  Al11  1  0.42205503  0.63906556  0.65695523  1
  Al  Al12  1  0.42205511  0.34304143  0.98209842  1
  Al  Al13  1  0.92204846  0.98210194  0.63904445  1
  Al  Al14  1  0.92205503  0.36093444  0.34304477  1
  Al  Al15  1  0.92205511  0.65695857  0.01790158  1
  Al  Al16  1  0.07834418  0.01731159  0.36056789  1
  Al  Al17  1  0.07833743  0.63945423  0.65675645  1
  Al  Al18  1  0.07833752  0.34324067  0.98268599  1
  Al  Al19  1  0.57834418  0.98268841  0.63943211  1
  Al  Al20  1  0.57833743  0.36054577  0.34324355  1
  Al  Al21  1  0.57833752  0.65675933  0.01731401  1
  B  B22  1  0.25047902  0.33324573  0.66662104  1
  B  B23  1  0.75047902  0.66675427  0.33337896  1
  O  O24  1  0.25050332  0.15370794  0.55267959  1
  O  O25  1  0.25050282  0.44739629  0.60099712  1
  O  O26  1  0.25050292  0.39902022  0.84638528  1
  O  O27  1  0.75050332  0.84629206  0.44732041  1
  O  O28  1  0.75050282  0.55260371  0.39900288  1
  O  O29  1  0.75050292  0.60097978  0.15361472  1
  O  O30  1  0.90804088  0.11771210  0.52296455  1
  O  O31  1  0.90804687  0.47704690  0.59474149  1
  O  O32  1  0.90804552  0.40526158  0.88230034  1
  O  O33  1  0.40804088  0.88228790  0.47703545  1
  O  O34  1  0.40804687  0.52295310  0.40525851  1
  O  O35  1  0.40804552  0.59473842  0.11769966  1
  O  O36  1  0.59286934  0.11752045  0.52284522  1
  O  O37  1  0.59286374  0.47716568  0.59466931  1
  O  O38  1  0.59286429  0.40533406  0.88249218  1
  O  O39  1  0.09286934  0.88247955  0.47715478  1
  O  O40  1  0.09286374  0.52283432  0.40533069  1
  O  O41  1  0.09286429  0.59466594  0.11750782  1
  O  O42  1  0.25036537  0.89024278  0.21856663  1
  O  O43  1  0.25036568  0.78141747  0.67167322  1
  O  O44  1  0.25036560  0.32833330  0.10975310  1
  O  O45  1  0.75036537  0.10975722  0.78143337  1
  O  O46  1  0.75036568  0.21858253  0.32832678  1
  O  O47  1  0.75036560  0.67166670  0.89024690  1
  O  O48  1  0.91828699  0.89279412  0.19287710  1
  O  O49  1  0.91828823  0.80710894  0.69991564  1
  O  O50  1  0.91828781  0.30008751  0.10720203  1
  O  O51  1  0.41828699  0.10720588  0.80712290  1
  O  O52  1  0.41828823  0.19289106  0.30008436  1
  O  O53  1  0.41828781  0.69991249  0.89279797  1
  O  O54  1  0.58279211  0.89325008  0.19226594  1
  O  O55  1  0.58279125  0.80772021  0.70098265  1
  O  O56  1  0.58279124  0.29902073  0.10674666  1
  O  O57  1  0.08279211  0.10674992  0.80773406  1
  O  O58  1  0.08279125  0.19227979  0.29901735  1
  O  O59  1  0.08279124  0.70097927  0.89325334  1
