# generated using pymatgen
data_H16Cl2O15
_symmetry_space_group_name_H-M   'P 1'
_cell_length_a   10.22905806
_cell_length_b   12.13086635
_cell_length_c   20.03430991
_cell_angle_alpha   90.00000000
_cell_angle_beta   90.00000000
_cell_angle_gamma   90.00000000
_symmetry_Int_Tables_number   1
_chemical_formula_structural   H16Cl2O15
_chemical_formula_sum   'H128 Cl16 O120'
_cell_volume   2486.00414958
_cell_formula_units_Z   8
loop_
 _symmetry_equiv_pos_site_id
 _symmetry_equiv_pos_as_xyz
  1  'x, y, z'
loop_
 _atom_site_type_symbol
 _atom_site_label
 _atom_site_symmetry_multiplicity
 _atom_site_fract_x
 _atom_site_fract_y
 _atom_site_fract_z
 _atom_site_occupancy
  H  H0  1  0.34672197  0.85524398  0.07699720  1
  H  H1  1  0.65327803  0.35524398  0.42300280  1
  H  H2  1  0.15327803  0.14475602  0.57699720  1
  H  H3  1  0.84672197  0.64475602  0.92300280  1
  H  H4  1  0.65327803  0.14475602  0.92300280  1
  H  H5  1  0.34672197  0.64475602  0.57699720  1
  H  H6  1  0.84672197  0.85524398  0.42300280  1
  H  H7  1  0.15327803  0.35524398  0.07699720  1
  H  H8  1  0.37778936  0.90234027  0.00581674  1
  H  H9  1  0.62221064  0.40234027  0.49418326  1
  H  H10  1  0.12221064  0.09765973  0.50581674  1
  H  H11  1  0.87778936  0.59765973  0.99418326  1
  H  H12  1  0.62221064  0.09765973  0.99418326  1
  H  H13  1  0.37778936  0.59765973  0.50581674  1
  H  H14  1  0.87778936  0.90234027  0.49418326  1
  H  H15  1  0.12221064  0.40234027  0.00581674  1
  H  H16  1  0.99912303  0.65349099  0.13351770  1
  H  H17  1  0.00087697  0.15349099  0.36648230  1
  H  H18  1  0.50087697  0.34650901  0.63351770  1
  H  H19  1  0.49912303  0.84650901  0.86648230  1
  H  H20  1  0.00087697  0.34650901  0.86648230  1
  H  H21  1  0.99912303  0.84650901  0.63351770  1
  H  H22  1  0.49912303  0.65349099  0.36648230  1
  H  H23  1  0.50087697  0.15349099  0.13351770  1
  H  H24  1  0.01165723  0.79656166  0.14105364  1
  H  H25  1  0.98834277  0.29656166  0.35894636  1
  H  H26  1  0.48834277  0.20343834  0.64105364  1
  H  H27  1  0.51165723  0.70343834  0.85894636  1
  H  H28  1  0.98834277  0.20343834  0.85894636  1
  H  H29  1  0.01165723  0.70343834  0.64105364  1
  H  H30  1  0.51165723  0.79656166  0.35894636  1
  H  H31  1  0.48834277  0.29656166  0.14105364  1
  H  H32  1  0.03940029  0.71692074  0.21081538  1
  H  H33  1  0.96059971  0.21692074  0.28918462  1
  H  H34  1  0.46059971  0.28307926  0.71081538  1
  H  H35  1  0.53940029  0.78307926  0.78918462  1
  H  H36  1  0.96059971  0.28307926  0.78918462  1
  H  H37  1  0.03940029  0.78307926  0.71081538  1
  H  H38  1  0.53940029  0.71692074  0.28918462  1
  H  H39  1  0.46059971  0.21692074  0.21081538  1
  H  H40  1  0.51202210  0.50757362  0.41174978  1
  H  H41  1  0.48797790  0.00757362  0.08825022  1
  H  H42  1  0.98797790  0.49242638  0.91174978  1
  H  H43  1  0.01202210  0.99242638  0.58825022  1
  H  H44  1  0.48797790  0.49242638  0.58825022  1
  H  H45  1  0.51202210  0.99242638  0.91174978  1
  H  H46  1  0.01202210  0.50757362  0.08825022  1
  H  H47  1  0.98797790  0.00757362  0.41174978  1
  H  H48  1  0.37655380  0.52692026  0.37426765  1
  H  H49  1  0.62344620  0.02692026  0.12573235  1
  H  H50  1  0.12344620  0.47307974  0.87426765  1
  H  H51  1  0.87655380  0.97307974  0.62573235  1
  H  H52  1  0.62344620  0.47307974  0.62573235  1
  H  H53  1  0.37655380  0.97307974  0.87426765  1
  H  H54  1  0.87655380  0.52692026  0.12573235  1
  H  H55  1  0.12344620  0.02692026  0.37426765  1
  H  H56  1  0.26855806  0.49233880  0.05138260  1
  H  H57  1  0.73144194  0.99233880  0.44861740  1
  H  H58  1  0.23144194  0.50766120  0.55138260  1
  H  H59  1  0.76855806  0.00766120  0.94861740  1
  H  H60  1  0.73144194  0.50766120  0.94861740  1
  H  H61  1  0.26855806  0.00766120  0.55138260  1
  H  H62  1  0.76855806  0.49233880  0.44861740  1
  H  H63  1  0.23144194  0.99233880  0.05138260  1
  H  H64  1  0.43003184  0.49139859  0.06909294  1
  H  H65  1  0.56996816  0.99139859  0.43090706  1
  H  H66  1  0.06996816  0.50860141  0.56909294  1
  H  H67  1  0.93003184  0.00860141  0.93090706  1
  H  H68  1  0.56996816  0.50860141  0.93090706  1
  H  H69  1  0.43003184  0.00860141  0.56909294  1
  H  H70  1  0.93003184  0.49139859  0.43090706  1
  H  H71  1  0.06996816  0.99139859  0.06909294  1
  H  H72  1  0.34636309  0.61088971  0.07684437  1
  H  H73  1  0.65363691  0.11088971  0.42315563  1
  H  H74  1  0.15363691  0.38911029  0.57684437  1
  H  H75  1  0.84636309  0.88911029  0.92315563  1
  H  H76  1  0.65363691  0.38911029  0.92315563  1
  H  H77  1  0.34636309  0.88911029  0.57684437  1
  H  H78  1  0.84636309  0.61088971  0.42315563  1
  H  H79  1  0.15363691  0.11088971  0.07684437  1
  H  H80  1  0.40721917  0.87186182  0.43179593  1
  H  H81  1  0.59278083  0.37186182  0.06820407  1
  H  H82  1  0.09278083  0.12813818  0.93179593  1
  H  H83  1  0.90721917  0.62813818  0.56820407  1
  H  H84  1  0.59278083  0.12813818  0.56820407  1
  H  H85  1  0.40721917  0.62813818  0.93179593  1
  H  H86  1  0.90721917  0.87186182  0.06820407  1
  H  H87  1  0.09278083  0.37186182  0.43179593  1
  H  H88  1  0.40333683  0.94800056  0.36814039  1
  H  H89  1  0.59666317  0.44800056  0.13185961  1
  H  H90  1  0.09666317  0.05199944  0.86814039  1
  H  H91  1  0.90333683  0.55199944  0.63185961  1
  H  H92  1  0.59666317  0.05199944  0.63185961  1
  H  H93  1  0.40333683  0.55199944  0.86814039  1
  H  H94  1  0.90333683  0.94800056  0.13185961  1
  H  H95  1  0.09666317  0.44800056  0.36814039  1
  H  H96  1  0.39655161  0.71395678  0.15661105  1
  H  H97  1  0.60344839  0.21395678  0.34338895  1
  H  H98  1  0.10344839  0.28604322  0.65661105  1
  H  H99  1  0.89655161  0.78604322  0.84338895  1
  H  H100  1  0.60344839  0.28604322  0.84338895  1
  H  H101  1  0.39655161  0.78604322  0.65661105  1
  H  H102  1  0.89655161  0.71395678  0.34338895  1
  H  H103  1  0.10344839  0.21395678  0.15661105  1
  H  H104  1  0.24543269  0.71740969  0.14050401  1
  H  H105  1  0.75456731  0.21740969  0.35949599  1
  H  H106  1  0.25456731  0.28259031  0.64050401  1
  H  H107  1  0.74543269  0.78259031  0.85949599  1
  H  H108  1  0.75456731  0.28259031  0.85949599  1
  H  H109  1  0.24543269  0.78259031  0.64050401  1
  H  H110  1  0.74543269  0.71740969  0.35949599  1
  H  H111  1  0.25456731  0.21740969  0.14050401  1
  H  H112  1  0.09735539  0.62769756  0.29225116  1
  H  H113  1  0.90264461  0.12769756  0.20774884  1
  H  H114  1  0.40264461  0.37230244  0.79225116  1
  H  H115  1  0.59735539  0.87230244  0.70774884  1
  H  H116  1  0.90264461  0.37230244  0.70774884  1
  H  H117  1  0.09735539  0.87230244  0.79225116  1
  H  H118  1  0.59735539  0.62769756  0.20774884  1
  H  H119  1  0.40264461  0.12769756  0.29225116  1
  H  H120  1  0.09298134  0.75324345  0.30904712  1
  H  H121  1  0.90701866  0.25324345  0.19095288  1
  H  H122  1  0.40701866  0.24675655  0.80904712  1
  H  H123  1  0.59298134  0.74675655  0.69095288  1
  H  H124  1  0.90701866  0.24675655  0.69095288  1
  H  H125  1  0.09298134  0.74675655  0.80904712  1
  H  H126  1  0.59298134  0.75324345  0.19095288  1
  H  H127  1  0.40701866  0.25324345  0.30904712  1
  Cl  Cl128  1  0.24882273  0.95118513  0.25051680  1
  Cl  Cl129  1  0.75117727  0.45118513  0.24948320  1
  Cl  Cl130  1  0.25117727  0.04881487  0.75051680  1
  Cl  Cl131  1  0.74882273  0.54881487  0.74948320  1
  Cl  Cl132  1  0.75117727  0.04881487  0.74948320  1
  Cl  Cl133  1  0.24882273  0.54881487  0.75051680  1
  Cl  Cl134  1  0.74882273  0.95118513  0.24948320  1
  Cl  Cl135  1  0.25117727  0.45118513  0.25051680  1
  Cl  Cl136  1  0.16258383  0.75948048  0.45095010  1
  Cl  Cl137  1  0.83741617  0.25948048  0.04904990  1
  Cl  Cl138  1  0.33741617  0.24051952  0.95095010  1
  Cl  Cl139  1  0.66258383  0.74051952  0.54904990  1
  Cl  Cl140  1  0.83741617  0.24051952  0.54904990  1
  Cl  Cl141  1  0.16258383  0.74051952  0.95095010  1
  Cl  Cl142  1  0.66258383  0.75948048  0.04904990  1
  Cl  Cl143  1  0.33741617  0.25948048  0.45095010  1
  O  O144  1  0.30013405  0.00834192  0.19249060  1
  O  O145  1  0.69986595  0.50834192  0.30750940  1
  O  O146  1  0.19986595  0.99165808  0.69249060  1
  O  O147  1  0.80013405  0.49165808  0.80750940  1
  O  O148  1  0.69986595  0.99165808  0.80750940  1
  O  O149  1  0.30013405  0.49165808  0.69249060  1
  O  O150  1  0.80013405  0.00834192  0.30750940  1
  O  O151  1  0.19986595  0.50834192  0.19249060  1
  O  O152  1  0.10708844  0.94775926  0.24882981  1
  O  O153  1  0.89291156  0.44775926  0.25117019  1
  O  O154  1  0.39291156  0.05224074  0.74882981  1
  O  O155  1  0.60708844  0.55224074  0.75117019  1
  O  O156  1  0.89291156  0.05224074  0.75117019  1
  O  O157  1  0.10708844  0.55224074  0.74882981  1
  O  O158  1  0.60708844  0.94775926  0.25117019  1
  O  O159  1  0.39291156  0.44775926  0.24882981  1
  O  O160  1  0.28921800  0.01521991  0.31199891  1
  O  O161  1  0.71078200  0.51521991  0.18800109  1
  O  O162  1  0.21078200  0.98478009  0.81199891  1
  O  O163  1  0.78921800  0.48478009  0.68800109  1
  O  O164  1  0.71078200  0.98478009  0.68800109  1
  O  O165  1  0.28921800  0.48478009  0.81199891  1
  O  O166  1  0.78921800  0.01521991  0.18800109  1
  O  O167  1  0.21078200  0.51521991  0.31199891  1
  O  O168  1  0.30243717  0.84068057  0.25557749  1
  O  O169  1  0.69756283  0.34068057  0.24442251  1
  O  O170  1  0.19756283  0.15931943  0.75557749  1
  O  O171  1  0.80243717  0.65931943  0.74442251  1
  O  O172  1  0.69756283  0.15931943  0.74442251  1
  O  O173  1  0.30243717  0.65931943  0.75557749  1
  O  O174  1  0.80243717  0.84068057  0.24442251  1
  O  O175  1  0.19756283  0.34068057  0.25557749  1
  O  O176  1  0.12929483  0.82665682  0.39229046  1
  O  O177  1  0.87070517  0.32665682  0.10770954  1
  O  O178  1  0.37070517  0.17334318  0.89229046  1
  O  O179  1  0.62929483  0.67334318  0.60770954  1
  O  O180  1  0.87070517  0.17334318  0.60770954  1
  O  O181  1  0.12929483  0.67334318  0.89229046  1
  O  O182  1  0.62929483  0.82665682  0.10770954  1
  O  O183  1  0.37070517  0.32665682  0.39229046  1
  O  O184  1  0.11911131  0.64657123  0.44086155  1
  O  O185  1  0.88088869  0.14657123  0.05913845  1
  O  O186  1  0.38088869  0.35342877  0.94086155  1
  O  O187  1  0.61911131  0.85342877  0.55913845  1
  O  O188  1  0.88088869  0.35342877  0.55913845  1
  O  O189  1  0.11911131  0.85342877  0.94086155  1
  O  O190  1  0.61911131  0.64657123  0.05913845  1
  O  O191  1  0.38088869  0.14657123  0.44086155  1
  O  O192  1  0.10177762  0.80628635  0.51007381  1
  O  O193  1  0.89822238  0.30628635  0.98992619  1
  O  O194  1  0.39822238  0.19371365  0.01007381  1
  O  O195  1  0.60177762  0.69371365  0.48992619  1
  O  O196  1  0.89822238  0.19371365  0.48992619  1
  O  O197  1  0.10177762  0.69371365  0.01007381  1
  O  O198  1  0.60177762  0.80628635  0.98992619  1
  O  O199  1  0.39822238  0.30628635  0.51007381  1
  O  O200  1  0.30552062  0.75998947  0.45948700  1
  O  O201  1  0.69447938  0.25998947  0.04051300  1
  O  O202  1  0.19447938  0.24001053  0.95948700  1
  O  O203  1  0.80552062  0.74001053  0.54051300  1
  O  O204  1  0.69447938  0.24001053  0.54051300  1
  O  O205  1  0.30552062  0.74001053  0.95948700  1
  O  O206  1  0.80552062  0.75998947  0.04051300  1
  O  O207  1  0.19447938  0.25998947  0.45948700  1
  O  O208  1  0.35494885  0.92537879  0.05154895  1
  O  O209  1  0.64505115  0.42537879  0.44845105  1
  O  O210  1  0.14505115  0.07462121  0.55154895  1
  O  O211  1  0.85494885  0.57462121  0.94845105  1
  O  O212  1  0.64505115  0.07462121  0.94845105  1
  O  O213  1  0.35494885  0.57462121  0.55154895  1
  O  O214  1  0.85494885  0.92537879  0.44845105  1
  O  O215  1  0.14505115  0.42537879  0.05154895  1
  O  O216  1  0.04612412  0.72327034  0.15869965  1
  O  O217  1  0.95387588  0.22327034  0.34130035  1
  O  O218  1  0.45387588  0.27672966  0.65869965  1
  O  O219  1  0.54612412  0.77672966  0.84130035  1
  O  O220  1  0.95387588  0.27672966  0.84130035  1
  O  O221  1  0.04612412  0.77672966  0.65869965  1
  O  O222  1  0.54612412  0.72327034  0.34130035  1
  O  O223  1  0.45387588  0.22327034  0.15869965  1
  O  O224  1  0.44523576  0.56396864  0.40030566  1
  O  O225  1  0.55476424  0.06396864  0.09969434  1
  O  O226  1  0.05476424  0.43603136  0.90030566  1
  O  O227  1  0.94523576  0.93603136  0.59969434  1
  O  O228  1  0.55476424  0.43603136  0.59969434  1
  O  O229  1  0.44523576  0.93603136  0.90030566  1
  O  O230  1  0.94523576  0.56396864  0.09969434  1
  O  O231  1  0.05476424  0.06396864  0.40030566  1
  O  O232  1  0.35538147  0.53822660  0.05035848  1
  O  O233  1  0.64461853  0.03822660  0.44964152  1
  O  O234  1  0.14461853  0.46177340  0.55035848  1
  O  O235  1  0.85538147  0.96177340  0.94964152  1
  O  O236  1  0.64461853  0.46177340  0.94964152  1
  O  O237  1  0.35538147  0.96177340  0.55035848  1
  O  O238  1  0.85538147  0.53822660  0.44964152  1
  O  O239  1  0.14461853  0.03822660  0.05035848  1
  O  O240  1  0.46453495  0.90833823  0.39840825  1
  O  O241  1  0.53546505  0.40833823  0.10159175  1
  O  O242  1  0.03546505  0.09166177  0.89840825  1
  O  O243  1  0.96453495  0.59166177  0.60159175  1
  O  O244  1  0.53546505  0.09166177  0.60159175  1
  O  O245  1  0.46453495  0.59166177  0.89840825  1
  O  O246  1  0.96453495  0.90833823  0.10159175  1
  O  O247  1  0.03546505  0.40833823  0.39840825  1
  O  O248  1  0.33250061  0.71944224  0.11960612  1
  O  O249  1  0.66749939  0.21944224  0.38039388  1
  O  O250  1  0.16749939  0.28055776  0.61960612  1
  O  O251  1  0.83250061  0.78055776  0.88039388  1
  O  O252  1  0.66749939  0.28055776  0.88039388  1
  O  O253  1  0.33250061  0.78055776  0.61960612  1
  O  O254  1  0.83250061  0.71944224  0.38039388  1
  O  O255  1  0.16749939  0.21944224  0.11960612  1
  O  O256  1  0.04438689  0.69523322  0.28493594  1
  O  O257  1  0.95561311  0.19523322  0.21506406  1
  O  O258  1  0.45561311  0.30476678  0.78493594  1
  O  O259  1  0.54438689  0.80476678  0.71506406  1
  O  O260  1  0.95561311  0.30476678  0.71506406  1
  O  O261  1  0.04438689  0.80476678  0.78493594  1
  O  O262  1  0.54438689  0.69523322  0.21506406  1
  O  O263  1  0.45561311  0.19523322  0.28493594  1
