# generated using pymatgen
data_Li2Ti2(PO4)3
_symmetry_space_group_name_H-M   'P 1'
_cell_length_a   8.68036707
_cell_length_b   8.76773220
_cell_length_c   12.15972602
_cell_angle_alpha   90.00000000
_cell_angle_beta   90.00000000
_cell_angle_gamma   90.00000000
_symmetry_Int_Tables_number   1
_chemical_formula_structural   Li2Ti2(PO4)3
_chemical_formula_sum   'Li8 Ti8 P12 O48'
_cell_volume   925.44189600
_cell_formula_units_Z   4
loop_
 _symmetry_equiv_pos_site_id
 _symmetry_equiv_pos_as_xyz
  1  'x, y, z'
loop_
 _atom_site_type_symbol
 _atom_site_label
 _atom_site_symmetry_multiplicity
 _atom_site_fract_x
 _atom_site_fract_y
 _atom_site_fract_z
 _atom_site_occupancy
  Li  Li0  1  0.71426324  0.72005856  0.18121562  1
  Li  Li1  1  0.78573676  0.22005856  0.31878438  1
  Li  Li2  1  0.78573676  0.27994144  0.68121562  1
  Li  Li3  1  0.71426324  0.77994144  0.81878438  1
  Li  Li4  1  0.28573676  0.27994144  0.81878438  1
  Li  Li5  1  0.21426324  0.77994144  0.68121562  1
  Li  Li6  1  0.21426324  0.72005856  0.31878438  1
  Li  Li7  1  0.28573676  0.22005856  0.18121562  1
  Ti  Ti8  1  0.74741421  0.53835607  0.38806113  1
  Ti  Ti9  1  0.75258579  0.03835607  0.11193887  1
  Ti  Ti10  1  0.75258579  0.46164393  0.88806113  1
  Ti  Ti11  1  0.74741421  0.96164393  0.61193887  1
  Ti  Ti12  1  0.25258579  0.46164393  0.61193887  1
  Ti  Ti13  1  0.24741421  0.96164393  0.88806113  1
  Ti  Ti14  1  0.24741421  0.53835607  0.11193887  1
  Ti  Ti15  1  0.25258579  0.03835607  0.38806113  1
  P  P16  1  0.46055283  0.75000000  0.50000000  1
  P  P17  1  0.03944717  0.25000000  0.00000000  1
  P  P18  1  0.53944717  0.25000000  0.50000000  1
  P  P19  1  0.96055283  0.75000000  0.00000000  1
  P  P20  1  0.89552622  0.89402916  0.35255421  1
  P  P21  1  0.60447378  0.39402916  0.14744579  1
  P  P22  1  0.60447378  0.10597084  0.85255421  1
  P  P23  1  0.89552622  0.60597084  0.64744579  1
  P  P24  1  0.10447378  0.10597084  0.64744579  1
  P  P25  1  0.39552622  0.60597084  0.85255421  1
  P  P26  1  0.39552622  0.89402916  0.14744579  1
  P  P27  1  0.10447378  0.39402916  0.35255421  1
  O  O28  1  0.64651622  0.33727609  0.41968879  1
  O  O29  1  0.85348378  0.83727609  0.08031121  1
  O  O30  1  0.85348378  0.66272391  0.91968879  1
  O  O31  1  0.64651622  0.16272391  0.58031121  1
  O  O32  1  0.35348378  0.66272391  0.58031121  1
  O  O33  1  0.14651622  0.16272391  0.91968879  1
  O  O34  1  0.14651622  0.33727609  0.08031121  1
  O  O35  1  0.35348378  0.83727609  0.41968879  1
  O  O36  1  0.55886136  0.64074065  0.43064950  1
  O  O37  1  0.94113864  0.14074065  0.06935050  1
  O  O38  1  0.94113864  0.35925935  0.93064950  1
  O  O39  1  0.55886136  0.85925935  0.56935050  1
  O  O40  1  0.44113864  0.35925935  0.56935050  1
  O  O41  1  0.05886136  0.85925935  0.93064950  1
  O  O42  1  0.05886136  0.64074065  0.06935050  1
  O  O43  1  0.44113864  0.14074065  0.43064950  1
  O  O44  1  0.84401603  0.56144827  0.53035880  1
  O  O45  1  0.65598397  0.06144827  0.96964120  1
  O  O46  1  0.65598397  0.43855173  0.03035880  1
  O  O47  1  0.84401603  0.93855173  0.46964120  1
  O  O48  1  0.15598397  0.43855173  0.46964120  1
  O  O49  1  0.34401603  0.93855173  0.03035880  1
  O  O50  1  0.34401603  0.56144827  0.96964120  1
  O  O51  1  0.15598397  0.06144827  0.53035880  1
  O  O52  1  0.67301545  0.51322994  0.22777300  1
  O  O53  1  0.82698455  0.01322994  0.27222700  1
  O  O54  1  0.82698455  0.48677006  0.72777300  1
  O  O55  1  0.67301545  0.98677006  0.77222700  1
  O  O56  1  0.32698455  0.48677006  0.77222700  1
  O  O57  1  0.17301545  0.98677006  0.72777300  1
  O  O58  1  0.17301545  0.51322994  0.27222700  1
  O  O59  1  0.32698455  0.01322994  0.22777300  1
  O  O60  1  0.83705701  0.73189769  0.32230505  1
  O  O61  1  0.66294299  0.23189769  0.17769495  1
  O  O62  1  0.66294299  0.26810231  0.82230505  1
  O  O63  1  0.83705701  0.76810231  0.67769495  1
  O  O64  1  0.16294299  0.26810231  0.67769495  1
  O  O65  1  0.33705701  0.76810231  0.82230505  1
  O  O66  1  0.33705701  0.73189769  0.17769495  1
  O  O67  1  0.16294299  0.23189769  0.32230505  1
  O  O68  1  0.92689951  0.39522694  0.34410778  1
  O  O69  1  0.57310049  0.89522694  0.15589222  1
  O  O70  1  0.57310049  0.60477306  0.84410778  1
  O  O71  1  0.92689951  0.10477306  0.65589222  1
  O  O72  1  0.07310049  0.60477306  0.65589222  1
  O  O73  1  0.42689951  0.10477306  0.84410778  1
  O  O74  1  0.42689951  0.39522694  0.15589222  1
  O  O75  1  0.07310049  0.89522694  0.34410778  1
