# generated using pymatgen
data_ReBi3O8
_symmetry_space_group_name_H-M   'P 1'
_cell_length_a   10.18929037
_cell_length_b   10.18929037
_cell_length_c   10.18929037
_cell_angle_alpha   109.47122063
_cell_angle_beta   109.47122063
_cell_angle_gamma   109.47122063
_symmetry_Int_Tables_number   1
_chemical_formula_structural   ReBi3O8
_chemical_formula_sum   'Re4 Bi12 O32'
_cell_volume   814.34779721
_cell_formula_units_Z   4
loop_
 _symmetry_equiv_pos_site_id
 _symmetry_equiv_pos_as_xyz
  1  'x, y, z'
loop_
 _atom_site_type_symbol
 _atom_site_label
 _atom_site_symmetry_multiplicity
 _atom_site_fract_x
 _atom_site_fract_y
 _atom_site_fract_z
 _atom_site_occupancy
  Re  Re0  1  0.73958933  -0.00000000  0.50000000  1
  Re  Re1  1  0.50000000  0.73958933  0.00000000  1
  Re  Re2  1  -0.00000000  0.50000000  0.73958933  1
  Re  Re3  1  0.76041067  0.76041067  0.76041067  1
  Bi  Bi4  1  0.24980146  0.48252493  0.46412645  1
  Bi  Bi5  1  0.28567501  0.03587355  0.01839848  1
  Bi  Bi6  1  0.76727654  0.48160152  0.01747507  1
  Bi  Bi7  1  0.01839848  0.28567501  0.03587355  1
  Bi  Bi8  1  0.01747507  0.76727654  0.48160152  1
  Bi  Bi9  1  0.46412645  0.24980146  0.48252493  1
  Bi  Bi10  1  0.48160152  0.01747507  0.76727654  1
  Bi  Bi11  1  0.48252493  0.46412645  0.24980146  1
  Bi  Bi12  1  0.03587355  0.01839848  0.28567501  1
  Bi  Bi13  1  0.25019854  0.21432499  0.73272346  1
  Bi  Bi14  1  0.21432499  0.73272346  0.25019854  1
  Bi  Bi15  1  0.73272346  0.25019854  0.21432499  1
  O  O16  1  0.56566967  0.00000000  0.50000000  1
  O  O17  1  0.50000000  0.56566967  0.00000000  1
  O  O18  1  0.00000000  0.50000000  0.56566967  1
  O  O19  1  0.93433033  0.93433033  0.93433033  1
  O  O20  1  0.69231106  0.80506615  0.37409989  1
  O  O21  1  0.81821117  0.12590011  0.43096627  1
  O  O22  1  0.88724491  0.06903373  0.69493385  1
  O  O23  1  0.43096627  0.81821117  0.12590011  1
  O  O24  1  0.69493385  0.88724491  0.06903373  1
  O  O25  1  0.37409989  0.69231106  0.80506615  1
  O  O26  1  0.06903373  0.69493385  0.88724491  1
  O  O27  1  0.80506615  0.37409989  0.69231106  1
  O  O28  1  0.12590011  0.43096627  0.81821117  1
  O  O29  1  0.80768894  0.68178883  0.61275509  1
  O  O30  1  0.68178883  0.61275509  0.80768894  1
  O  O31  1  0.61275509  0.80768894  0.68178883  1
  O  O32  1  0.06648147  -0.00000000  0.50000000  1
  O  O33  1  0.50000000  0.06648147  -0.00000000  1
  O  O34  1  0.00000000  0.50000000  0.06648147  1
  O  O35  1  0.43351853  0.43351853  0.43351853  1
  O  O36  1  0.25000000  0.27531605  0.52531605  1
  O  O37  1  0.22468395  0.97468395  0.75000000  1
  O  O38  1  0.97468395  0.75000000  0.22468395  1
  O  O39  1  0.75000000  0.22468395  0.97468395  1
  O  O40  1  0.52531605  0.25000000  0.27531605  1
  O  O41  1  0.27531605  0.52531605  0.25000000  1
  O  O42  1  0.75000000  0.47033802  0.22033802  1
  O  O43  1  0.02966198  0.27966198  0.25000000  1
  O  O44  1  0.27966198  0.25000000  0.02966198  1
  O  O45  1  0.25000000  0.02966198  0.27966198  1
  O  O46  1  0.22033802  0.75000000  0.47033802  1
  O  O47  1  0.47033802  0.22033802  0.75000000  1
