# generated using pymatgen
data_KLi(BH4)2
_symmetry_space_group_name_H-M   'P 1'
_cell_length_a   4.40536837
_cell_length_b   7.89735062
_cell_length_c   14.09264464
_cell_angle_alpha   90.00000000
_cell_angle_beta   90.00000000
_cell_angle_gamma   90.00000000
_symmetry_Int_Tables_number   1
_chemical_formula_structural   KLi(BH4)2
_chemical_formula_sum   'K4 Li4 B8 H32'
_cell_volume   490.29351625
_cell_formula_units_Z   4
loop_
 _symmetry_equiv_pos_site_id
 _symmetry_equiv_pos_as_xyz
  1  'x, y, z'
loop_
 _atom_site_type_symbol
 _atom_site_label
 _atom_site_symmetry_multiplicity
 _atom_site_fract_x
 _atom_site_fract_y
 _atom_site_fract_z
 _atom_site_occupancy
  K  K0  1  0.75000000  0.15976210  0.37080858  1
  K  K1  1  0.75000000  0.65976210  0.12919142  1
  K  K2  1  0.25000000  0.84023790  0.62919142  1
  K  K3  1  0.25000000  0.34023790  0.87080858  1
  Li  Li4  1  0.75000000  0.31175023  0.63759408  1
  Li  Li5  1  0.75000000  0.81175023  0.86240592  1
  Li  Li6  1  0.25000000  0.68824977  0.36240592  1
  Li  Li7  1  0.25000000  0.18824977  0.13759408  1
  B  B8  1  0.75000000  0.25397201  0.04687082  1
  B  B9  1  0.75000000  0.75397201  0.45312918  1
  B  B10  1  0.25000000  0.74602799  0.95312918  1
  B  B11  1  0.25000000  0.24602799  0.54687082  1
  B  B12  1  0.75000000  0.57055704  0.73759860  1
  B  B13  1  0.75000000  0.07055704  0.76240140  1
  B  B14  1  0.25000000  0.42944296  0.26240140  1
  B  B15  1  0.25000000  0.92944296  0.23759860  1
  H  H16  1  0.52606360  0.16559879  0.03043114  1
  H  H17  1  0.97393640  0.66559879  0.46956886  1
  H  H18  1  0.02606360  0.83440121  0.96956886  1
  H  H19  1  0.47393640  0.33440121  0.53043114  1
  H  H20  1  0.47393640  0.83440121  0.96956886  1
  H  H21  1  0.02606360  0.33440121  0.53043114  1
  H  H22  1  0.97393640  0.16559879  0.03043114  1
  H  H23  1  0.52606360  0.66559879  0.46956886  1
  H  H24  1  0.75000000  0.30257087  0.12916023  1
  H  H25  1  0.75000000  0.80257087  0.37083977  1
  H  H26  1  0.25000000  0.69742913  0.87083977  1
  H  H27  1  0.25000000  0.19742913  0.62916023  1
  H  H28  1  0.75000000  0.37718286  0.99343682  1
  H  H29  1  0.75000000  0.87718286  0.50656318  1
  H  H30  1  0.25000000  0.62281714  0.00656318  1
  H  H31  1  0.25000000  0.12281714  0.49343682  1
  H  H32  1  0.51966657  0.50994012  0.70231780  1
  H  H33  1  0.98033343  0.00994012  0.79768220  1
  H  H34  1  0.01966657  0.49005988  0.29768220  1
  H  H35  1  0.48033343  0.99005988  0.20231780  1
  H  H36  1  0.48033343  0.49005988  0.29768220  1
  H  H37  1  0.01966657  0.99005988  0.20231780  1
  H  H38  1  0.98033343  0.50994012  0.70231780  1
  H  H39  1  0.51966657  0.00994012  0.79768220  1
  H  H40  1  0.75000000  0.72339917  0.72335437  1
  H  H41  1  0.75000000  0.22339917  0.77664563  1
  H  H42  1  0.25000000  0.27660083  0.27664563  1
  H  H43  1  0.25000000  0.77660083  0.22335437  1
  H  H44  1  0.75000000  0.54497250  0.82369564  1
  H  H45  1  0.75000000  0.04497250  0.67630436  1
  H  H46  1  0.25000000  0.45502750  0.17630436  1
  H  H47  1  0.25000000  0.95502750  0.32369564  1
