# generated using pymatgen
data_K2Cd(BH4)4
_symmetry_space_group_name_H-M   'P 1'
_cell_length_a   7.83188451
_cell_length_b   10.45015023
_cell_length_c   13.77012130
_cell_angle_alpha   90.00000000
_cell_angle_beta   98.14585877
_cell_angle_gamma   90.00000000
_symmetry_Int_Tables_number   1
_chemical_formula_structural   K2Cd(BH4)4
_chemical_formula_sum   'K8 Cd4 B16 H64'
_cell_volume   1115.63603538
_cell_formula_units_Z   4
loop_
 _symmetry_equiv_pos_site_id
 _symmetry_equiv_pos_as_xyz
  1  'x, y, z'
loop_
 _atom_site_type_symbol
 _atom_site_label
 _atom_site_symmetry_multiplicity
 _atom_site_fract_x
 _atom_site_fract_y
 _atom_site_fract_z
 _atom_site_occupancy
  K  K0  1  0.74612022  0.88719842  0.99199808  1
  K  K1  1  0.24612022  0.61280158  0.49199808  1
  K  K2  1  0.25387978  0.11280158  0.00800192  1
  K  K3  1  0.75387978  0.38719842  0.50800192  1
  K  K4  1  0.20560507  0.07703726  0.33813277  1
  K  K5  1  0.70560507  0.42296274  0.83813277  1
  K  K6  1  0.79439493  0.92296274  0.66186723  1
  K  K7  1  0.29439493  0.57703726  0.16186723  1
  Cd  Cd8  1  0.79605792  0.34146713  0.18578297  1
  Cd  Cd9  1  0.29605792  0.15853287  0.68578297  1
  Cd  Cd10  1  0.20394208  0.65853287  0.81421703  1
  Cd  Cd11  1  0.70394208  0.84146713  0.31421703  1
  B  B12  1  0.48271039  0.89623167  0.15944729  1
  B  B13  1  0.98271039  0.60376833  0.65944729  1
  B  B14  1  0.51728961  0.10376833  0.84055271  1
  B  B15  1  0.01728961  0.39623167  0.34055271  1
  B  B16  1  0.25772868  0.96923334  0.56650529  1
  B  B17  1  0.75772868  0.53076666  0.06650529  1
  B  B18  1  0.74227132  0.03076666  0.43349471  1
  B  B19  1  0.24227132  0.46923334  0.93349471  1
  B  B20  1  0.98755406  0.19677565  0.71916927  1
  B  B21  1  0.48755406  0.30322435  0.21916927  1
  B  B22  1  0.01244594  0.80322435  0.28083073  1
  B  B23  1  0.51244594  0.69677565  0.78083073  1
  B  B24  1  0.07300951  0.84134488  0.91054634  1
  B  B25  1  0.57300951  0.65865512  0.41054634  1
  B  B26  1  0.92699049  0.15865512  0.08945366  1
  B  B27  1  0.42699049  0.34134488  0.58945366  1
  H  H28  1  0.37347370  0.97561182  0.17059728  1
  H  H29  1  0.87347370  0.52438818  0.67059728  1
  H  H30  1  0.62652630  0.02438818  0.82940272  1
  H  H31  1  0.12652630  0.47561182  0.32940272  1
  H  H32  1  0.46592607  0.81065602  0.22040911  1
  H  H33  1  0.96592607  0.68934398  0.72040911  1
  H  H34  1  0.53407393  0.18934398  0.77959089  1
  H  H35  1  0.03407393  0.31065602  0.27959089  1
  H  H36  1  0.46235735  0.84504849  0.07918015  1
  H  H37  1  0.96235735  0.65495151  0.57918015  1
  H  H38  1  0.53764265  0.15495151  0.92081985  1
  H  H39  1  0.03764265  0.34504849  0.42081985  1
  H  H40  1  0.62435439  0.95100156  0.17270426  1
  H  H41  1  0.12435439  0.54899844  0.67270426  1
  H  H42  1  0.37564561  0.04899844  0.82729574  1
  H  H43  1  0.87564561  0.45100156  0.32729574  1
  H  H44  1  0.34876516  0.90408047  0.52097112  1
  H  H45  1  0.84876516  0.59591953  0.02097112  1
  H  H46  1  0.65123484  0.09591953  0.47902888  1
  H  H47  1  0.15123484  0.40408047  0.97902888  1
  H  H48  1  0.34628435  0.97600471  0.64997616  1
  H  H49  1  0.84628435  0.52399529  0.14997616  1
  H  H50  1  0.65371565  0.02399529  0.35002384  1
  H  H51  1  0.15371565  0.47600471  0.85002384  1
  H  H52  1  0.23342601  0.07425316  0.52630238  1
  H  H53  1  0.73342601  0.42574684  0.02630238  1
  H  H54  1  0.76657399  0.92574684  0.47369762  1
  H  H55  1  0.26657399  0.57425316  0.97369762  1
  H  H56  1  0.12020750  0.92018819  0.57578828  1
  H  H57  1  0.62020750  0.57981181  0.07578828  1
  H  H58  1  0.87979250  0.07981181  0.42421172  1
  H  H59  1  0.37979250  0.42018819  0.92421172  1
  H  H60  1  0.11852381  0.23704592  0.77334548  1
  H  H61  1  0.61852381  0.26295408  0.27334548  1
  H  H62  1  0.88147619  0.76295408  0.22665452  1
  H  H63  1  0.38147619  0.73704592  0.72665452  1
  H  H64  1  0.01591293  0.15154883  0.63967192  1
  H  H65  1  0.51591293  0.34845117  0.13967192  1
  H  H66  1  0.98408707  0.84845117  0.36032808  1
  H  H67  1  0.48408707  0.65154883  0.86032808  1
  H  H68  1  0.92255081  0.11693726  0.76563007  1
  H  H69  1  0.42255081  0.38306274  0.26563007  1
  H  H70  1  0.07744919  0.88306274  0.23436993  1
  H  H71  1  0.57744919  0.61693726  0.73436993  1
  H  H72  1  0.89659984  0.29092887  0.69945740  1
  H  H73  1  0.39659984  0.20907113  0.19945740  1
  H  H74  1  0.10340016  0.70907113  0.30054260  1
  H  H75  1  0.60340016  0.79092887  0.80054260  1
  H  H76  1  0.98777754  0.93109991  0.87266522  1
  H  H77  1  0.48777754  0.56890009  0.37266522  1
  H  H78  1  0.01222246  0.06890009  0.12733478  1
  H  H79  1  0.51222246  0.43109991  0.62733478  1
  H  H80  1  0.12091764  0.85697998  0.99791380  1
  H  H81  1  0.62091764  0.64302002  0.49791380  1
  H  H82  1  0.87908236  0.14302002  0.00208620  1
  H  H83  1  0.37908236  0.35697998  0.50208620  1
  H  H84  1  0.98562899  0.74310628  0.90024002  1
  H  H85  1  0.48562899  0.75689372  0.40024002  1
  H  H86  1  0.01437101  0.25689372  0.09975998  1
  H  H87  1  0.51437101  0.24310628  0.59975998  1
  H  H88  1  0.20617897  0.83996005  0.87027566  1
  H  H89  1  0.70617897  0.66003995  0.37027566  1
  H  H90  1  0.79382103  0.16003995  0.12972434  1
  H  H91  1  0.29382103  0.33996005  0.62972434  1
