# generated using pymatgen
data_Pb(IO3)2
_symmetry_space_group_name_H-M   'P 1'
_cell_length_a   7.06973848
_cell_length_b   7.20468367
_cell_length_c   13.37914246
_cell_angle_alpha   85.49269527
_cell_angle_beta   86.32497842
_cell_angle_gamma   63.53397271
_symmetry_Int_Tables_number   1
_chemical_formula_structural   Pb(IO3)2
_chemical_formula_sum   'Pb4 I8 O24'
_cell_volume   607.84131458
_cell_formula_units_Z   4
loop_
 _symmetry_equiv_pos_site_id
 _symmetry_equiv_pos_as_xyz
  1  'x, y, z'
loop_
 _atom_site_type_symbol
 _atom_site_label
 _atom_site_symmetry_multiplicity
 _atom_site_fract_x
 _atom_site_fract_y
 _atom_site_fract_z
 _atom_site_occupancy
  Pb  Pb0  1  0.97360524  0.85017596  0.86916780  1
  Pb  Pb1  1  0.02639476  0.14982404  0.13083220  1
  Pb  Pb2  1  0.96350512  0.32778130  0.62844360  1
  Pb  Pb3  1  0.03649488  0.67221870  0.37155640  1
  I  I4  1  0.65863555  0.95604556  0.61615132  1
  I  I5  1  0.34136445  0.04395444  0.38384868  1
  I  I6  1  0.33320748  0.60654375  0.61595060  1
  I  I7  1  0.66679252  0.39345625  0.38404940  1
  I  I8  1  0.32799762  0.14522581  0.87372845  1
  I  I9  1  0.67200238  0.85477419  0.12627155  1
  I  I10  1  0.67546980  0.49463445  0.88335545  1
  I  I11  1  0.32453020  0.50536555  0.11664455  1
  O  O12  1  0.90308103  0.93119723  0.66952484  1
  O  O13  1  0.09691897  0.06880277  0.33047516  1
  O  O14  1  0.73667784  0.94214738  0.48179836  1
  O  O15  1  0.26332216  0.05785262  0.51820164  1
  O  O16  1  0.67435647  0.69536906  0.64736213  1
  O  O17  1  0.32564353  0.30463094  0.35263787  1
  O  O18  1  0.57679645  0.36596931  0.59113628  1
  O  O19  1  0.42320355  0.63403069  0.40886372  1
  O  O20  1  0.29781155  0.55631460  0.74938104  1
  O  O21  1  0.70218845  0.44368540  0.25061896  1
  O  O22  1  0.14498732  0.53107841  0.56134027  1
  O  O23  1  0.85501268  0.46892159  0.43865973  1
  O  O24  1  0.58127029  0.90896722  0.89057600  1
  O  O25  1  0.41872971  0.09103278  0.10942400  1
  O  O26  1  0.27276789  0.09287651  0.75009469  1
  O  O27  1  0.72723211  0.90712349  0.24990531  1
  O  O28  1  0.15771180  0.05447006  0.95003136  1
  O  O29  1  0.84228820  0.94552994  0.04996864  1
  O  O30  1  0.92651445  0.49821188  0.83815994  1
  O  O31  1  0.07348555  0.50178812  0.16184006  1
  O  O32  1  0.72336004  0.45200413  0.01898723  1
  O  O33  1  0.27663996  0.54799587  0.98101277  1
  O  O34  1  0.72623419  0.23915869  0.84170877  1
  O  O35  1  0.27376581  0.76084131  0.15829123  1
