# generated using pymatgen
data_MgH4S2O9
_symmetry_space_group_name_H-M   'P 1'
_cell_length_a   5.16601484
_cell_length_b   8.88696691
_cell_length_c   16.15030910
_cell_angle_alpha   101.30189247
_cell_angle_beta   90.00000000
_cell_angle_gamma   90.00000000
_symmetry_Int_Tables_number   1
_chemical_formula_structural   MgH4S2O9
_chemical_formula_sum   'Mg4 H16 S8 O36'
_cell_volume   727.08563682
_cell_formula_units_Z   4
loop_
 _symmetry_equiv_pos_site_id
 _symmetry_equiv_pos_as_xyz
  1  'x, y, z'
loop_
 _atom_site_type_symbol
 _atom_site_label
 _atom_site_symmetry_multiplicity
 _atom_site_fract_x
 _atom_site_fract_y
 _atom_site_fract_z
 _atom_site_occupancy
  Mg  Mg0  1  0.74767201  0.24827500  0.49014787  1
  Mg  Mg1  1  0.75232799  0.74827500  0.99014787  1
  Mg  Mg2  1  0.25232799  0.75172500  0.50985213  1
  Mg  Mg3  1  0.24767201  0.25172500  0.00985213  1
  H  H4  1  0.71771744  0.21039031  0.78396424  1
  H  H5  1  0.78228256  0.71039031  0.28396424  1
  H  H6  1  0.28228256  0.78960969  0.21603576  1
  H  H7  1  0.21771744  0.28960969  0.71603576  1
  H  H8  1  0.41897134  0.92412253  0.77589544  1
  H  H9  1  0.08102866  0.42412253  0.27589544  1
  H  H10  1  0.58102866  0.07587747  0.22410456  1
  H  H11  1  0.91897134  0.57587747  0.72410456  1
  H  H12  1  0.70148564  0.97089095  0.68597277  1
  H  H13  1  0.79851436  0.47089095  0.18597277  1
  H  H14  1  0.29851436  0.02910905  0.31402723  1
  H  H15  1  0.20148564  0.52910905  0.81402723  1
  H  H16  1  0.84052493  0.94305957  0.76745850  1
  H  H17  1  0.65947507  0.44305957  0.26745850  1
  H  H18  1  0.15947507  0.05694043  0.23254150  1
  H  H19  1  0.34052493  0.55694043  0.73254150  1
  S  S20  1  0.24306523  0.12855552  0.59690487  1
  S  S21  1  0.25693477  0.62855552  0.09690487  1
  S  S22  1  0.75693477  0.87144448  0.40309513  1
  S  S23  1  0.74306523  0.37144448  0.90309513  1
  S  S24  1  0.75356555  0.61219978  0.60574231  1
  S  S25  1  0.74643445  0.11219978  0.10574231  1
  S  S26  1  0.24643445  0.38780022  0.39425769  1
  S  S27  1  0.25356555  0.88780022  0.89425769  1
  O  O28  1  0.42505290  0.22776768  0.56397115  1
  O  O29  1  0.07494710  0.72776768  0.06397115  1
  O  O30  1  0.57494710  0.77223232  0.43602885  1
  O  O31  1  0.92505290  0.27223232  0.93602885  1
  O  O32  1  0.97521276  0.14701415  0.57116037  1
  O  O33  1  0.52478724  0.64701415  0.07116037  1
  O  O34  1  0.02478724  0.85298585  0.42883963  1
  O  O35  1  0.47521276  0.35298585  0.92883963  1
  O  O36  1  0.32571549  0.96805206  0.58351913  1
  O  O37  1  0.17428451  0.46805206  0.08351913  1
  O  O38  1  0.67428451  0.03194794  0.41648087  1
  O  O39  1  0.82571549  0.53194794  0.91648087  1
  O  O40  1  0.25056278  0.17713362  0.69682500  1
  O  O41  1  0.24943722  0.67713362  0.19682500  1
  O  O42  1  0.74943722  0.82286638  0.30317500  1
  O  O43  1  0.75056278  0.32286638  0.80317500  1
  O  O44  1  0.82506938  0.45590783  0.56697637  1
  O  O45  1  0.67493062  0.95590783  0.06697637  1
  O  O46  1  0.17493062  0.54409217  0.43302363  1
  O  O47  1  0.32506938  0.04409217  0.93302363  1
  O  O48  1  0.05846579  0.27333061  0.41108671  1
  O  O49  1  0.44153421  0.77333061  0.91108671  1
  O  O50  1  0.94153421  0.72666939  0.58891329  1
  O  O51  1  0.55846579  0.22666939  0.08891329  1
  O  O52  1  0.51333777  0.34698603  0.41002846  1
  O  O53  1  0.98666223  0.84698603  0.91002846  1
  O  O54  1  0.48666223  0.65301397  0.58997154  1
  O  O55  1  0.01333777  0.15301397  0.08997154  1
  O  O56  1  0.25256801  0.87931132  0.79530208  1
  O  O57  1  0.24743199  0.37931132  0.29530208  1
  O  O58  1  0.74743199  0.12068868  0.20469792  1
  O  O59  1  0.75256801  0.62068868  0.70469792  1
  O  O60  1  0.80749125  0.49610075  0.24761993  1
  O  O61  1  0.69250875  0.99610075  0.74761993  1
  O  O62  1  0.19250875  0.50389925  0.75238007  1
  O  O63  1  0.30749125  0.00389925  0.25238007  1
