# generated using pymatgen
data_Ba2SrMg4F14
_symmetry_space_group_name_H-M   'P 1'
_cell_length_a   7.57588072
_cell_length_b   12.63162264
_cell_length_c   12.63162264
_cell_angle_alpha   90.00000000
_cell_angle_beta   90.00000000
_cell_angle_gamma   90.00000000
_symmetry_Int_Tables_number   1
_chemical_formula_structural   Ba2SrMg4F14
_chemical_formula_sum   'Ba8 Sr4 Mg16 F56'
_cell_volume   1208.79154651
_cell_formula_units_Z   4
loop_
 _symmetry_equiv_pos_site_id
 _symmetry_equiv_pos_as_xyz
  1  'x, y, z'
loop_
 _atom_site_type_symbol
 _atom_site_label
 _atom_site_symmetry_multiplicity
 _atom_site_fract_x
 _atom_site_fract_y
 _atom_site_fract_z
 _atom_site_occupancy
  Ba  Ba0  1  0.50000000  0.18865787  0.52039400  1
  Ba  Ba1  1  0.50000000  0.81134213  0.47960600  1
  Ba  Ba2  1  0.00000000  0.31134213  0.02039400  1
  Ba  Ba3  1  -0.00000000  0.68865787  0.97960600  1
  Ba  Ba4  1  0.50000000  0.52039400  0.18865787  1
  Ba  Ba5  1  0.50000000  0.47960600  0.81134213  1
  Ba  Ba6  1  0.00000000  0.02039400  0.31134213  1
  Ba  Ba7  1  0.00000000  0.97960600  0.68865787  1
  Sr  Sr8  1  0.25313512  0.50000000  0.50000000  1
  Sr  Sr9  1  0.75313512  0.00000000  -0.00000000  1
  Sr  Sr10  1  0.74686488  0.50000000  0.50000000  1
  Sr  Sr11  1  0.24686488  0.00000000  -0.00000000  1
  Mg  Mg12  1  0.25410929  0.20362130  0.79637870  1
  Mg  Mg13  1  0.25410929  0.79637870  0.20362130  1
  Mg  Mg14  1  0.75410929  0.29637870  0.29637870  1
  Mg  Mg15  1  0.75410929  0.70362130  0.70362130  1
  Mg  Mg16  1  0.74589071  0.79637870  0.20362130  1
  Mg  Mg17  1  0.74589071  0.20362130  0.79637870  1
  Mg  Mg18  1  0.24589071  0.70362130  0.70362130  1
  Mg  Mg19  1  0.24589071  0.29637870  0.29637870  1
  Mg  Mg20  1  0.50000000  0.95126648  0.74690861  1
  Mg  Mg21  1  0.50000000  0.04873352  0.25309139  1
  Mg  Mg22  1  -0.00000000  0.54873352  0.24690861  1
  Mg  Mg23  1  0.00000000  0.45126648  0.75309139  1
  Mg  Mg24  1  0.50000000  0.74690861  0.95126648  1
  Mg  Mg25  1  0.50000000  0.25309139  0.04873352  1
  Mg  Mg26  1  0.00000000  0.24690861  0.54873352  1
  Mg  Mg27  1  0.00000000  0.75309139  0.45126648  1
  F  F28  1  0.18994615  0.19245486  0.64558387  1
  F  F29  1  0.18994615  0.80754514  0.35441613  1
  F  F30  1  0.68994615  0.30754514  0.14558387  1
  F  F31  1  0.68994615  0.69245486  0.85441613  1
  F  F32  1  0.81005385  0.80754514  0.35441613  1
  F  F33  1  0.81005385  0.19245486  0.64558387  1
  F  F34  1  0.31005385  0.69245486  0.85441613  1
  F  F35  1  0.31005385  0.30754514  0.14558387  1
  F  F36  1  0.18994615  0.64558387  0.19245486  1
  F  F37  1  0.18994615  0.35441613  0.80754514  1
  F  F38  1  0.68994615  0.14558387  0.30754514  1
  F  F39  1  0.68994615  0.85441613  0.69245486  1
  F  F40  1  0.81005385  0.35441613  0.80754514  1
  F  F41  1  0.81005385  0.64558387  0.19245486  1
  F  F42  1  0.31005385  0.85441613  0.69245486  1
  F  F43  1  0.31005385  0.14558387  0.30754514  1
  F  F44  1  0.30212081  0.04580915  0.80085776  1
  F  F45  1  0.30212081  0.95419085  0.19914224  1
  F  F46  1  0.80212081  0.45419085  0.30085776  1
  F  F47  1  0.80212081  0.54580915  0.69914224  1
  F  F48  1  0.69787919  0.95419085  0.19914224  1
  F  F49  1  0.69787919  0.04580915  0.80085776  1
  F  F50  1  0.19787919  0.54580915  0.69914224  1
  F  F51  1  0.19787919  0.45419085  0.30085776  1
  F  F52  1  0.30212081  0.80085776  0.04580915  1
  F  F53  1  0.30212081  0.19914224  0.95419085  1
  F  F54  1  0.80212081  0.30085776  0.45419085  1
  F  F55  1  0.80212081  0.69914224  0.54580915  1
  F  F56  1  0.69787919  0.19914224  0.95419085  1
  F  F57  1  0.69787919  0.80085776  0.04580915  1
  F  F58  1  0.19787919  0.69914224  0.54580915  1
  F  F59  1  0.19787919  0.30085776  0.45419085  1
  F  F60  1  0.50000000  0.01159448  0.60748862  1
  F  F61  1  0.50000000  0.98840552  0.39251138  1
  F  F62  1  -0.00000000  0.48840552  0.10748862  1
  F  F63  1  0.00000000  0.51159448  0.89251138  1
  F  F64  1  0.50000000  0.60748862  0.01159448  1
  F  F65  1  0.50000000  0.39251138  0.98840552  1
  F  F66  1  0.00000000  0.10748862  0.48840552  1
  F  F67  1  0.00000000  0.89251138  0.51159448  1
  F  F68  1  0.50000000  0.66372132  0.66372132  1
  F  F69  1  0.50000000  0.33627868  0.33627868  1
  F  F70  1  0.00000000  0.83627868  0.16372132  1
  F  F71  1  -0.00000000  0.16372132  0.83627868  1
  F  F72  1  0.50000000  0.90045864  0.90045864  1
  F  F73  1  0.50000000  0.09954136  0.09954136  1
  F  F74  1  -0.00000000  0.59954136  0.40045864  1
  F  F75  1  -0.00000000  0.40045864  0.59954136  1
  F  F76  1  0.50000000  0.24072979  0.75927021  1
  F  F77  1  0.50000000  0.75927021  0.24072979  1
  F  F78  1  -0.00000000  0.25927021  0.25927021  1
  F  F79  1  -0.00000000  0.74072979  0.74072979  1
  F  F80  1  0.50000000  0.41608562  0.58391438  1
  F  F81  1  0.50000000  0.58391438  0.41608562  1
  F  F82  1  -0.00000000  0.08391438  0.08391438  1
  F  F83  1  0.00000000  0.91608562  0.91608562  1
