# generated using pymatgen
data_Sb2H18C3(IN)9
_symmetry_space_group_name_H-M   'P 1'
_cell_length_a   8.97806276
_cell_length_b   8.97806276
_cell_length_c   21.70236973
_cell_angle_alpha   90.00000000
_cell_angle_beta   90.00000000
_cell_angle_gamma   100.95576281
_symmetry_Int_Tables_number   1
_chemical_formula_structural   Sb2H18C3(IN)9
_chemical_formula_sum   'Sb4 H36 C6 I18 N18'
_cell_volume   1717.44980188
_cell_formula_units_Z   2
loop_
 _symmetry_equiv_pos_site_id
 _symmetry_equiv_pos_as_xyz
  1  'x, y, z'
loop_
 _atom_site_type_symbol
 _atom_site_label
 _atom_site_symmetry_multiplicity
 _atom_site_fract_x
 _atom_site_fract_y
 _atom_site_fract_z
 _atom_site_occupancy
  Sb  Sb0  1  0.73362385  0.26637615  0.65269018  1
  Sb  Sb1  1  0.26637615  0.73362385  0.34730982  1
  Sb  Sb2  1  0.73362385  0.26637615  0.84730982  1
  Sb  Sb3  1  0.26637615  0.73362385  0.15269018  1
  H  H4  1  0.35413997  0.79957957  0.75000000  1
  H  H5  1  0.79957957  0.35413997  0.25000000  1
  H  H6  1  0.64586003  0.20042043  0.25000000  1
  H  H7  1  0.20042043  0.64586003  0.75000000  1
  H  H8  1  0.54286563  0.66531369  0.62461370  1
  H  H9  1  0.66531369  0.54286563  0.37538630  1
  H  H10  1  0.54286563  0.66531369  0.87538630  1
  H  H11  1  0.66531369  0.54286563  0.12461370  1
  H  H12  1  0.45713437  0.33468631  0.37538630  1
  H  H13  1  0.33468631  0.45713437  0.62461370  1
  H  H14  1  0.45713437  0.33468631  0.12461370  1
  H  H15  1  0.33468631  0.45713437  0.87538630  1
  H  H16  1  0.51695914  0.84028878  0.59636969  1
  H  H17  1  0.84028878  0.51695914  0.40363031  1
  H  H18  1  0.51695914  0.84028878  0.90363031  1
  H  H19  1  0.84028878  0.51695914  0.09636969  1
  H  H20  1  0.48304086  0.15971122  0.40363031  1
  H  H21  1  0.15971122  0.48304086  0.59636969  1
  H  H22  1  0.48304086  0.15971122  0.09636969  1
  H  H23  1  0.15971122  0.48304086  0.90363031  1
  H  H24  1  0.12896337  0.71802959  0.55885125  1
  H  H25  1  0.71802959  0.12896337  0.44114875  1
  H  H26  1  0.12896337  0.71802959  0.94114875  1
  H  H27  1  0.71802959  0.12896337  0.05885125  1
  H  H28  1  0.87103663  0.28197041  0.44114875  1
  H  H29  1  0.28197041  0.87103663  0.55885125  1
  H  H30  1  0.87103663  0.28197041  0.05885125  1
  H  H31  1  0.28197041  0.87103663  0.94114875  1
  H  H32  1  0.91704308  0.87231521  0.75000000  1
  H  H33  1  0.87231521  0.91704308  0.25000000  1
  H  H34  1  0.08295692  0.12768479  0.25000000  1
  H  H35  1  0.12768479  0.08295692  0.75000000  1
  H  H36  1  0.95405043  0.68871840  0.75000000  1
  H  H37  1  0.68871840  0.95405043  0.25000000  1
  H  H38  1  0.04594957  0.31128160  0.25000000  1
  H  H39  1  0.31128160  0.04594957  0.75000000  1
  C  C40  1  0.32674217  0.67325783  0.59497042  1
  C  C41  1  0.67325783  0.32674217  0.40502958  1
  C  C42  1  0.32674217  0.67325783  0.90502958  1
  C  C43  1  0.67325783  0.32674217  0.09497042  1
  C  C44  1  0.14340248  0.85659752  0.75000000  1
  C  C45  1  0.85659752  0.14340248  0.25000000  1
  I  I46  1  0.00995088  0.36012839  0.75000000  1
  I  I47  1  0.36012839  0.00995088  0.25000000  1
  I  I48  1  0.99004912  0.63987161  0.25000000  1
  I  I49  1  0.63987161  0.99004912  0.75000000  1
  I  I50  1  0.55024176  0.44975824  0.75000000  1
  I  I51  1  0.44975824  0.55024176  0.25000000  1
  I  I52  1  0.45652742  0.17107118  0.58045654  1
  I  I53  1  0.17107118  0.45652742  0.41954346  1
  I  I54  1  0.45652742  0.17107118  0.91954346  1
  I  I55  1  0.17107118  0.45652742  0.08045654  1
  I  I56  1  0.54347258  0.82892882  0.41954346  1
  I  I57  1  0.82892882  0.54347258  0.58045654  1
  I  I58  1  0.54347258  0.82892882  0.08045654  1
  I  I59  1  0.82892882  0.54347258  0.91954346  1
  I  I60  1  0.90943030  0.09056970  0.58180287  1
  I  I61  1  0.09056970  0.90943030  0.41819713  1
  I  I62  1  0.90943030  0.09056970  0.91819713  1
  I  I63  1  0.09056970  0.90943030  0.08180287  1
  N  N64  1  0.24003565  0.75996435  0.75000000  1
  N  N65  1  0.75996435  0.24003565  0.25000000  1
  N  N66  1  0.47183196  0.73139240  0.60798461  1
  N  N67  1  0.73139240  0.47183196  0.39201539  1
  N  N68  1  0.47183196  0.73139240  0.89201539  1
  N  N69  1  0.73139240  0.47183196  0.10798461  1
  N  N70  1  0.52816804  0.26860760  0.39201539  1
  N  N71  1  0.26860760  0.52816804  0.60798461  1
  N  N72  1  0.52816804  0.26860760  0.10798461  1
  N  N73  1  0.26860760  0.52816804  0.89201539  1
  N  N74  1  0.23879024  0.76120976  0.56980230  1
  N  N75  1  0.76120976  0.23879024  0.43019770  1
  N  N76  1  0.23879024  0.76120976  0.93019770  1
  N  N77  1  0.76120976  0.23879024  0.06980230  1
  N  N78  1  0.99402047  0.80250791  0.75000000  1
  N  N79  1  0.80250791  0.99402047  0.25000000  1
  N  N80  1  0.00597953  0.19749209  0.25000000  1
  N  N81  1  0.19749209  0.00597953  0.75000000  1
