# generated using pymatgen
data_Rb4Sb2O5
_symmetry_space_group_name_H-M   'P 1'
_cell_length_a   3.99900265
_cell_length_b   6.72623963
_cell_length_c   10.03786066
_cell_angle_alpha   90.00000000
_cell_angle_beta   78.51005772
_cell_angle_gamma   90.00000000
_symmetry_Int_Tables_number   1
_chemical_formula_structural   Rb4Sb2O5
_chemical_formula_sum   'Rb4 Sb2 O5'
_cell_volume   264.58998426
_cell_formula_units_Z   1
loop_
 _symmetry_equiv_pos_site_id
 _symmetry_equiv_pos_as_xyz
  1  'x, y, z'
loop_
 _atom_site_type_symbol
 _atom_site_label
 _atom_site_symmetry_multiplicity
 _atom_site_fract_x
 _atom_site_fract_y
 _atom_site_fract_z
 _atom_site_occupancy
  Rb  Rb0  1  0.09286255  0.75000000  0.81427491  1
  Rb  Rb1  1  0.90830989  0.25000000  0.18338021  1
  Rb  Rb2  1  0.76240034  0.75000000  0.47519932  1
  Rb  Rb3  1  0.23745341  0.25000000  0.52509318  1
  Sb  Sb4  1  0.41082771  0.75000000  0.17834459  1
  Sb  Sb5  1  0.58656065  0.25000000  0.82687871  1
  O  O6  1  0.34885400  0.52646223  0.30229200  1
  O  O7  1  0.65060806  0.47150413  0.69878389  1
  O  O8  1  0.34885400  0.97353777  0.30229200  1
  O  O9  1  0.65060806  0.02849587  0.69878389  1
  O  O10  1  0.94646135  0.75000000  0.10707731  1
