# generated using pymatgen
data_Sr5V3H6(O3F8)2
_symmetry_space_group_name_H-M   'P 1'
_cell_length_a   8.27342146
_cell_length_b   11.40329798
_cell_length_c   20.22548807
_cell_angle_alpha   106.37444565
_cell_angle_beta   90.00000000
_cell_angle_gamma   90.00000000
_symmetry_Int_Tables_number   1
_chemical_formula_structural   Sr5V3H6(O3F8)2
_chemical_formula_sum   'Sr20 V12 H24 O24 F64'
_cell_volume   1830.76400343
_cell_formula_units_Z   4
loop_
 _symmetry_equiv_pos_site_id
 _symmetry_equiv_pos_as_xyz
  1  'x, y, z'
loop_
 _atom_site_type_symbol
 _atom_site_label
 _atom_site_symmetry_multiplicity
 _atom_site_fract_x
 _atom_site_fract_y
 _atom_site_fract_z
 _atom_site_occupancy
  Sr  Sr0  1  0.58442854  0.99713274  0.64565810  1
  Sr  Sr1  1  0.91557146  0.49713274  0.14565810  1
  Sr  Sr2  1  0.41557146  0.00286726  0.35434190  1
  Sr  Sr3  1  0.08442854  0.50286726  0.85434190  1
  Sr  Sr4  1  0.58250600  0.64100560  0.64481588  1
  Sr  Sr5  1  0.91749400  0.14100560  0.14481588  1
  Sr  Sr6  1  0.41749400  0.35899440  0.35518412  1
  Sr  Sr7  1  0.08250600  0.85899440  0.85518412  1
  Sr  Sr8  1  0.91446821  0.76079842  0.52180345  1
  Sr  Sr9  1  0.58553179  0.26079842  0.02180345  1
  Sr  Sr10  1  0.08553179  0.23920158  0.47819655  1
  Sr  Sr11  1  0.41446821  0.73920158  0.97819655  1
  Sr  Sr12  1  0.34671591  0.33164538  0.67509962  1
  Sr  Sr13  1  0.15328409  0.83164538  0.17509962  1
  Sr  Sr14  1  0.65328409  0.66835462  0.32490038  1
  Sr  Sr15  1  0.84671591  0.16835462  0.82490038  1
  Sr  Sr16  1  0.33468448  0.16377993  0.82809754  1
  Sr  Sr17  1  0.16531552  0.66377993  0.32809754  1
  Sr  Sr18  1  0.66531552  0.83622007  0.17190246  1
  Sr  Sr19  1  0.83468448  0.33622007  0.67190246  1
  V  V20  1  0.08186829  0.07287856  0.67326827  1
  V  V21  1  0.41813171  0.57287856  0.17326827  1
  V  V22  1  0.91813171  0.92712144  0.32673173  1
  V  V23  1  0.58186829  0.42712144  0.82673173  1
  V  V24  1  0.08290330  0.58481272  0.65801321  1
  V  V25  1  0.41709670  0.08481272  0.15801321  1
  V  V26  1  0.91709670  0.41518728  0.34198679  1
  V  V27  1  0.58290330  0.91518728  0.84198679  1
  V  V28  1  0.57908383  0.26199444  0.52290129  1
  V  V29  1  0.92091617  0.76199444  0.02290129  1
  V  V30  1  0.42091617  0.73800556  0.47709871  1
  V  V31  1  0.07908383  0.23800556  0.97709871  1
  H  H32  1  0.27858707  0.81291926  0.64373460  1
  H  H33  1  0.22141293  0.31291926  0.14373460  1
  H  H34  1  0.72141293  0.18708074  0.35626540  1
  H  H35  1  0.77858707  0.68708074  0.85626540  1
  H  H36  1  0.34354388  0.85069065  0.71981192  1
  H  H37  1  0.15645612  0.35069065  0.21981192  1
  H  H38  1  0.65645612  0.14930935  0.28018808  1
  H  H39  1  0.84354388  0.64930935  0.78018808  1
  H  H40  1  0.70067342  0.99128472  0.49677306  1
  H  H41  1  0.79932658  0.49128472  0.99677306  1
  H  H42  1  0.29932658  0.00871528  0.50322694  1
  H  H43  1  0.20067342  0.50871528  0.00322694  1
  H  H44  1  0.84651759  0.05310517  0.53816593  1
  H  H45  1  0.65348241  0.55310517  0.03816593  1
  H  H46  1  0.15348241  0.94689483  0.46183407  1
  H  H47  1  0.34651759  0.44689483  0.96183407  1
  H  H48  1  0.85879635  0.49918229  0.54384038  1
  H  H49  1  0.64120365  0.99918229  0.04384038  1
  H  H50  1  0.14120365  0.50081771  0.45615962  1
  H  H51  1  0.35879635  0.00081771  0.95615962  1
  H  H52  1  0.71171459  0.49493237  0.49533374  1
  H  H53  1  0.78828541  0.99493237  0.99533374  1
  H  H54  1  0.28828541  0.50506763  0.50466626  1
  H  H55  1  0.21171459  0.00506763  0.00466626  1
  O  O56  1  0.37797523  0.83031856  0.67126168  1
  O  O57  1  0.12202477  0.33031856  0.17126168  1
  O  O58  1  0.62202477  0.16968144  0.32873832  1
  O  O59  1  0.87797523  0.66968144  0.82873832  1
  O  O60  1  0.78466583  0.97716157  0.52820630  1
  O  O61  1  0.71533417  0.47716157  0.02820630  1
  O  O62  1  0.21533417  0.02283843  0.47179370  1
  O  O63  1  0.28466583  0.52283843  0.97179370  1
  O  O64  1  0.77694216  0.55154057  0.53108147  1
  O  O65  1  0.72305784  0.05154057  0.03108147  1
  O  O66  1  0.22305784  0.44845943  0.46891853  1
  O  O67  1  0.27694216  0.94845943  0.96891853  1
  O  O68  1  0.07559970  0.94404948  0.61007307  1
  O  O69  1  0.42440030  0.44404948  0.11007307  1
  O  O70  1  0.92440030  0.05595052  0.38992693  1
  O  O71  1  0.57559970  0.55595052  0.88992693  1
  O  O72  1  0.07607851  0.66322971  0.60031921  1
  O  O73  1  0.42392149  0.16322971  0.10031921  1
  O  O74  1  0.92392149  0.33677029  0.39968079  1
  O  O75  1  0.57607851  0.83677029  0.89968079  1
  O  O76  1  0.57796134  0.34391055  0.46651803  1
  O  O77  1  0.92203866  0.84391055  0.96651803  1
  O  O78  1  0.42203866  0.65608945  0.53348197  1
  O  O79  1  0.07796134  0.15608945  0.03348197  1
  F  F80  1  0.72645671  0.80746227  0.61738641  1
  F  F81  1  0.77354329  0.30746227  0.11738641  1
  F  F82  1  0.27354329  0.19253773  0.38261359  1
  F  F83  1  0.22645671  0.69253773  0.88261359  1
  F  F84  1  0.57370873  0.18682429  0.60710892  1
  F  F85  1  0.92629127  0.68682429  0.10710892  1
  F  F86  1  0.42629127  0.81317571  0.39289108  1
  F  F87  1  0.07370873  0.31317571  0.89289108  1
  F  F88  1  0.84661131  0.10962581  0.68712206  1
  F  F89  1  0.65338869  0.60962581  0.18712206  1
  F  F90  1  0.15338869  0.89037419  0.31287794  1
  F  F91  1  0.34661131  0.39037419  0.81287794  1
  F  F92  1  0.85411913  0.58295781  0.68813968  1
  F  F93  1  0.64588087  0.08295781  0.18813968  1
  F  F94  1  0.14588087  0.41704219  0.31186032  1
  F  F95  1  0.35411913  0.91704219  0.81186032  1
  F  F96  1  0.60556745  0.40538741  0.60640144  1
  F  F97  1  0.89443255  0.90538741  0.10640144  1
  F  F98  1  0.39443255  0.59461259  0.39359856  1
  F  F99  1  0.10556745  0.09461259  0.89359856  1
  F  F100  1  0.34646333  0.26958134  0.54451020  1
  F  F101  1  0.15353667  0.76958134  0.04451020  1
  F  F102  1  0.65353667  0.73041866  0.45548980  1
  F  F103  1  0.84646333  0.23041866  0.95548980  1
  F  F104  1  0.81162892  0.23230102  0.53399144  1
  F  F105  1  0.68837108  0.73230102  0.03399144  1
  F  F106  1  0.18837108  0.76769898  0.46600856  1
  F  F107  1  0.31162892  0.26769898  0.96600856  1
  F  F108  1  0.31665241  0.10532990  0.68976609  1
  F  F109  1  0.18334759  0.60532990  0.18976609  1
  F  F110  1  0.68334759  0.89467010  0.31023391  1
  F  F111  1  0.81665241  0.39467010  0.81023391  1
  F  F112  1  0.08351940  0.19576953  0.62071083  1
  F  F113  1  0.41648060  0.69576953  0.12071083  1
  F  F114  1  0.91648060  0.80423047  0.37928917  1
  F  F115  1  0.58351940  0.30423047  0.87928917  1
  F  F116  1  0.08011129  0.23818869  0.75415920  1
  F  F117  1  0.41988871  0.73818869  0.25415920  1
  F  F118  1  0.91988871  0.76181131  0.24584080  1
  F  F119  1  0.58011129  0.26181131  0.74584080  1
  F  F120  1  0.07679950  0.01523182  0.75555849  1
  F  F121  1  0.42320050  0.51523182  0.25555849  1
  F  F122  1  0.92320050  0.98476818  0.24444151  1
  F  F123  1  0.57679950  0.48476818  0.74444151  1
  F  F124  1  0.09254378  0.46095192  0.72228486  1
  F  F125  1  0.40745622  0.96095192  0.22228486  1
  F  F126  1  0.90745622  0.53904808  0.27771514  1
  F  F127  1  0.59254378  0.03904808  0.77771514  1
  F  F128  1  0.01787229  0.42466706  0.59087640  1
  F  F129  1  0.48212771  0.92466706  0.09087640  1
  F  F130  1  0.98212771  0.57533294  0.40912360  1
  F  F131  1  0.51787229  0.07533294  0.90912360  1
  F  F132  1  0.31201130  0.53681114  0.65048962  1
  F  F133  1  0.18798870  0.03681114  0.15048962  1
  F  F134  1  0.68798870  0.46318886  0.34951038  1
  F  F135  1  0.81201130  0.96318886  0.84951038  1
  F  F136  1  0.12716774  0.71309170  0.74007601  1
  F  F137  1  0.37283226  0.21309170  0.24007601  1
  F  F138  1  0.87283226  0.28690830  0.25992399  1
  F  F139  1  0.62716774  0.78690830  0.75992399  1
  F  F140  1  0.56258228  0.09494163  0.46468721  1
  F  F141  1  0.93741772  0.59494163  0.96468721  1
  F  F142  1  0.43741772  0.90505837  0.53531279  1
  F  F143  1  0.06258228  0.40505837  0.03531279  1
