# generated using pymatgen
data_Ni3P2(HO)16
_symmetry_space_group_name_H-M   'P 1'
_cell_length_a   4.66648737
_cell_length_b   8.32365482
_cell_length_c   8.32365482
_cell_angle_alpha   105.87201246
_cell_angle_beta   98.95801547
_cell_angle_gamma   98.95801547
_symmetry_Int_Tables_number   1
_chemical_formula_structural   Ni3P2(HO)16
_chemical_formula_sum   'Ni3 P2 H16 O16'
_cell_volume   300.42551053
_cell_formula_units_Z   1
loop_
 _symmetry_equiv_pos_site_id
 _symmetry_equiv_pos_as_xyz
  1  'x, y, z'
loop_
 _atom_site_type_symbol
 _atom_site_label
 _atom_site_symmetry_multiplicity
 _atom_site_fract_x
 _atom_site_fract_y
 _atom_site_fract_z
 _atom_site_occupancy
  Ni  Ni0  1  0.50000000  -0.00000000  -0.00000000  1
  Ni  Ni1  1  0.50000000  0.38940157  0.61059843  1
  Ni  Ni2  1  0.50000000  0.61059843  0.38940157  1
  P  P3  1  0.11404271  0.68675883  0.68675883  1
  P  P4  1  0.88595729  0.31324117  0.31324117  1
  H  H5  1  0.13971188  0.04075473  0.20368939  1
  H  H6  1  0.13971188  0.20368939  0.04075473  1
  H  H7  1  0.86028812  0.95924527  0.79631061  1
  H  H8  1  0.86028812  0.79631061  0.95924527  1
  H  H9  1  0.46018887  0.06061944  0.31355337  1
  H  H10  1  0.46018887  0.31355337  0.06061944  1
  H  H11  1  0.53981113  0.93938056  0.68644663  1
  H  H12  1  0.53981113  0.68644663  0.93938056  1
  H  H13  1  0.01713898  0.17834436  0.56431055  1
  H  H14  1  0.01713898  0.56431055  0.17834436  1
  H  H15  1  0.98286102  0.82165564  0.43568945  1
  H  H16  1  0.98286102  0.43568945  0.82165564  1
  H  H17  1  0.22258708  0.17932215  0.73884187  1
  H  H18  1  0.22258708  0.73884187  0.17932215  1
  H  H19  1  0.77741292  0.82067785  0.26115813  1
  H  H20  1  0.77741292  0.26115813  0.82067785  1
  O  O21  1  0.11326735  0.84381125  0.84381125  1
  O  O22  1  0.88673265  0.15618875  0.15618875  1
  O  O23  1  0.78452543  0.60205487  0.60205487  1
  O  O24  1  0.21547457  0.39794513  0.39794513  1
  O  O25  1  0.27097005  0.75755234  0.56093972  1
  O  O26  1  0.27097005  0.56093972  0.75755234  1
  O  O27  1  0.72902995  0.24244766  0.43906028  1
  O  O28  1  0.72902995  0.43906028  0.24244766  1
  O  O29  1  0.31089068  0.98138510  0.21155828  1
  O  O30  1  0.31089068  0.21155828  0.98138510  1
  O  O31  1  0.68910932  0.01861490  0.78844172  1
  O  O32  1  0.68910932  0.78844172  0.01861490  1
  O  O33  1  0.22069386  0.17523404  0.61913348  1
  O  O34  1  0.22069386  0.61913348  0.17523404  1
  O  O35  1  0.77930614  0.82476596  0.38086652  1
  O  O36  1  0.77930614  0.38086652  0.82476596  1
