# generated using pymatgen
data_VZnH14(O2F)4
_symmetry_space_group_name_H-M   'P 1'
_cell_length_a   6.55364221
_cell_length_b   11.36999684
_cell_length_c   14.16086304
_cell_angle_alpha   89.73486446
_cell_angle_beta   89.22629136
_cell_angle_gamma   78.62623796
_symmetry_Int_Tables_number   1
_chemical_formula_structural   VZnH14(O2F)4
_chemical_formula_sum   'V4 Zn4 H56 O32 F16'
_cell_volume   1034.37641629
_cell_formula_units_Z   4
loop_
 _symmetry_equiv_pos_site_id
 _symmetry_equiv_pos_as_xyz
  1  'x, y, z'
loop_
 _atom_site_type_symbol
 _atom_site_label
 _atom_site_symmetry_multiplicity
 _atom_site_fract_x
 _atom_site_fract_y
 _atom_site_fract_z
 _atom_site_occupancy
  V  V0  1  0.49466569  0.23650655  0.26688612  1
  V  V1  1  0.50533431  0.76349345  0.73311388  1
  V  V2  1  0.48754142  0.73344630  0.24062015  1
  V  V3  1  0.51245858  0.26655370  0.75937985  1
  Zn  Zn4  1  0.00000000  0.00000000  0.00000000  1
  Zn  Zn5  1  0.00000000  0.50000000  0.00000000  1
  Zn  Zn6  1  0.00000000  0.50000000  0.50000000  1
  Zn  Zn7  1  0.00000000  0.00000000  0.50000000  1
  H  H8  1  0.60297223  0.09834001  0.06446673  1
  H  H9  1  0.39702777  0.90165999  0.93553327  1
  H  H10  1  0.59883247  0.11271229  0.95316429  1
  H  H11  1  0.40116753  0.88728771  0.04683571  1
  H  H12  1  0.04135114  0.84365929  0.85156372  1
  H  H13  1  0.95864886  0.15634071  0.14843628  1
  H  H14  1  0.80417227  0.85992428  0.88468791  1
  H  H15  1  0.19582773  0.14007572  0.11531209  1
  H  H16  1  0.82324317  0.86416051  0.12996598  1
  H  H17  1  0.17675683  0.13583949  0.87003402  1
  H  H18  1  0.05256838  0.87210660  0.16596859  1
  H  H19  1  0.94743162  0.12789340  0.83403141  1
  H  H20  1  0.66672936  0.68707309  0.04300498  1
  H  H21  1  0.33327064  0.31292691  0.95699502  1
  H  H22  1  0.61442545  0.62510947  0.94640018  1
  H  H23  1  0.38557455  0.37489053  0.05359982  1
  H  H24  1  0.76784971  0.35986458  0.91120674  1
  H  H25  1  0.23215029  0.64013542  0.08879326  1
  H  H26  1  0.92597327  0.27768389  0.97891033  1
  H  H27  1  0.07402673  0.72231611  0.02108967  1
  H  H28  1  0.05401765  0.41192661  0.18218664  1
  H  H29  1  0.94598235  0.58807339  0.81781336  1
  H  H30  1  0.80414180  0.37142023  0.37975498  1
  H  H31  1  0.19585820  0.62857977  0.62024502  1
  H  H32  1  0.04272987  0.35491211  0.34595229  1
  H  H33  1  0.95727013  0.64508789  0.65404771  1
  H  H34  1  0.60175520  0.61240490  0.45109328  1
  H  H35  1  0.39824480  0.38759510  0.54890672  1
  H  H36  1  0.59617649  0.59345098  0.56225584  1
  H  H37  1  0.40382351  0.40654902  0.43774416  1
  H  H38  1  0.82121888  0.35523736  0.62212502  1
  H  H39  1  0.17878112  0.64476264  0.37787498  1
  H  H40  1  0.04899374  0.36027017  0.66135098  1
  H  H41  1  0.95100626  0.63972983  0.33864902  1
  H  H42  1  0.92756782  0.08568030  0.31533811  1
  H  H43  1  0.07243218  0.91431970  0.68466189  1
  H  H44  1  0.08852800  0.22533894  0.52175649  1
  H  H45  1  0.91147200  0.77466106  0.47824351  1
  H  H46  1  0.37560229  0.87030220  0.54943455  1
  H  H47  1  0.62439771  0.12969780  0.45056545  1
  H  H48  1  0.33437981  0.81749865  0.44769831  1
  H  H49  1  0.66562019  0.18250135  0.55230169  1
  H  H50  1  0.54893641  0.96230854  0.30137523  1
  H  H51  1  0.45106359  0.03769146  0.69862477  1
  H  H52  1  0.69421850  0.87103383  0.36581027  1
  H  H53  1  0.30578150  0.12896617  0.63418973  1
  H  H54  1  0.67824571  0.38811364  0.13383991  1
  H  H55  1  0.32175429  0.61188636  0.86616009  1
  H  H56  1  0.47939163  0.46786262  0.17834901  1
  H  H57  1  0.52060837  0.53213738  0.82165099  1
  H  H58  1  0.10345628  0.96524332  0.31363666  1
  H  H59  1  0.89654372  0.03475668  0.68636334  1
  H  H60  1  0.88553427  0.53362863  0.18619139  1
  H  H61  1  0.11446573  0.46637137  0.81380861  1
  H  H62  1  0.26072934  0.14296198  0.45861958  1
  H  H63  1  0.73927066  0.85703802  0.54138042  1
  O  O64  1  0.68205375  0.07176081  0.00557693  1
  O  O65  1  0.31794625  0.92823919  0.99442307  1
  O  O66  1  0.94610159  0.86223850  0.90677757  1
  O  O67  1  0.05389841  0.13776150  0.09322243  1
  O  O68  1  0.96075228  0.87807775  0.11016932  1
  O  O69  1  0.03924772  0.12192225  0.88983068  1
  O  O70  1  0.71567964  0.62082504  0.99843698  1
  O  O71  1  0.28432036  0.37917496  0.00156302  1
  O  O72  1  0.84047980  0.35850260  0.97242003  1
  O  O73  1  0.15952020  0.64149740  0.02757997  1
  O  O74  1  0.94274513  0.46362381  0.14541511  1
  O  O75  1  0.05725487  0.53637619  0.85458489  1
  O  O76  1  0.94700769  0.37328784  0.40114499  1
  O  O77  1  0.05299231  0.62671216  0.59885501  1
  O  O78  1  0.68267843  0.57186821  0.50417258  1
  O  O79  1  0.31732157  0.42813179  0.49582742  1
  O  O80  1  0.96319924  0.36347123  0.60360137  1
  O  O81  1  0.03680076  0.63652877  0.39639863  1
  O  O82  1  0.01460930  0.02418389  0.35532780  1
  O  O83  1  0.98539070  0.97581611  0.64467220  1
  O  O84  1  0.17752387  0.14445196  0.51755312  1
  O  O85  1  0.82247613  0.85554804  0.48244688  1
  O  O86  1  0.28783900  0.88449211  0.49242156  1
  O  O87  1  0.71216100  0.11550789  0.50757844  1
  O  O88  1  0.63042800  0.87988396  0.30252927  1
  O  O89  1  0.36957200  0.12011604  0.69747073  1
  O  O90  1  0.53465317  0.38538825  0.15437529  1
  O  O91  1  0.46534683  0.61461175  0.84562471  1
  O  O92  1  0.38229544  0.62577451  0.19286499  1
  O  O93  1  0.61770456  0.37422549  0.80713501  1
  O  O94  1  0.46419897  0.13837769  0.35224507  1
  O  O95  1  0.53580103  0.86162231  0.64775493  1
  F  F96  1  0.44110895  0.15140831  0.15403705  1
  F  F97  1  0.55889105  0.84859169  0.84596295  1
  F  F98  1  0.79153612  0.18469773  0.24066117  1
  F  F99  1  0.20846388  0.81530227  0.75933883  1
  F  F100  1  0.56142195  0.36077285  0.34973350  1
  F  F101  1  0.43857805  0.63922715  0.65026650  1
  F  F102  1  0.21303166  0.33065312  0.25840940  1
  F  F103  1  0.78696834  0.66934688  0.74159060  1
  F  F104  1  0.77424586  0.64506295  0.25651400  1
  F  F105  1  0.22575414  0.35493705  0.74348600  1
  F  F106  1  0.42619394  0.70082718  0.37494361  1
  F  F107  1  0.57380606  0.29917282  0.62505639  1
  F  F108  1  0.24159475  0.86374195  0.24236002  1
  F  F109  1  0.75840525  0.13625805  0.75763998  1
  F  F110  1  0.57960004  0.80091148  0.12232176  1
  F  F111  1  0.42039996  0.19908852  0.87767824  1
