# generated using pymatgen
data_FeH10N3O14
_symmetry_space_group_name_H-M   'P 1'
_cell_length_a   6.91371320
_cell_length_b   7.23625520
_cell_length_c   12.02746515
_cell_angle_alpha   87.71084679
_cell_angle_beta   79.97212975
_cell_angle_gamma   69.97134640
_symmetry_Int_Tables_number   1
_chemical_formula_structural   FeH10N3O14
_chemical_formula_sum   'Fe2 H20 N6 O28'
_cell_volume   556.57254741
_cell_formula_units_Z   2
loop_
 _symmetry_equiv_pos_site_id
 _symmetry_equiv_pos_as_xyz
  1  'x, y, z'
loop_
 _atom_site_type_symbol
 _atom_site_label
 _atom_site_symmetry_multiplicity
 _atom_site_fract_x
 _atom_site_fract_y
 _atom_site_fract_z
 _atom_site_occupancy
  Fe  Fe0  1  0.71829765  0.27374734  0.74838298  1
  Fe  Fe1  1  0.28170235  0.72625266  0.25161702  1
  H  H2  1  0.05959405  0.37519840  0.66166808  1
  H  H3  1  0.94040595  0.62480160  0.33833192  1
  H  H4  1  0.91586617  0.52460993  0.77010642  1
  H  H5  1  0.08413383  0.47539007  0.22989358  1
  H  H6  1  0.75608838  0.10082469  0.95281064  1
  H  H7  1  0.24391162  0.89917531  0.04718936  1
  H  H8  1  0.76897641  0.32440686  0.95654660  1
  H  H9  1  0.23102359  0.67559314  0.04345340  1
  H  H10  1  0.05089336  0.94521837  0.74842613  1
  H  H11  1  0.94910664  0.05478163  0.25157387  1
  H  H12  1  0.93307678  0.93114464  0.64356752  1
  H  H13  1  0.06692322  0.06885536  0.35643248  1
  H  H14  1  0.41020988  0.14135621  0.85210302  1
  H  H15  1  0.58979012  0.85864379  0.14789698  1
  H  H16  1  0.52411502  0.02789233  0.72822038  1
  H  H17  1  0.47588498  0.97210767  0.27177962  1
  H  H18  1  0.53013144  0.31058826  0.56223415  1
  H  H19  1  0.46986856  0.68941174  0.43776585  1
  H  H20  1  0.76705988  0.31959830  0.52267768  1
  H  H21  1  0.23294012  0.68040170  0.47732232  1
  N  N22  1  0.35253669  0.65198130  0.77279895  1
  N  N23  1  0.64746331  0.34801870  0.22720105  1
  N  N24  1  0.78033396  0.71114731  0.96180086  1
  N  N25  1  0.21966604  0.28885269  0.03819914  1
  N  N26  1  0.73604295  0.78334442  0.53714775  1
  N  N27  1  0.26395705  0.21665558  0.46285225  1
  O  O28  1  0.78038761  0.21203845  0.90832271  1
  O  O29  1  0.21961239  0.78796155  0.09167729  1
  O  O30  1  0.92614602  0.41712756  0.71645893  1
  O  O31  1  0.07385398  0.58287244  0.28354107  1
  O  O32  1  0.95408285  0.02259330  0.69738077  1
  O  O33  1  0.04591715  0.97740670  0.30261923  1
  O  O34  1  0.49799165  0.14530736  0.77583742  1
  O  O35  1  0.50200835  0.85469264  0.22416258  1
  O  O36  1  0.66650874  0.29745591  0.58503453  1
  O  O37  1  0.33349126  0.70254409  0.41496547  1
  O  O38  1  0.52031895  0.54092808  0.81063206  1
  O  O39  1  0.47968105  0.45907192  0.18936794  1
  O  O40  1  0.29039143  0.59132435  0.69578307  1
  O  O41  1  0.70960857  0.40867565  0.30421693  1
  O  O42  1  0.26222948  0.81871890  0.81928485  1
  O  O43  1  0.73777052  0.18128110  0.18071515  1
  O  O44  1  0.72195528  0.68869698  0.45309084  1
  O  O45  1  0.27804472  0.31130302  0.54690916  1
  O  O46  1  0.91344029  0.79280298  0.54514988  1
  O  O47  1  0.08655971  0.20719702  0.45485012  1
  O  O48  1  0.57663333  0.86320703  0.60921054  1
  O  O49  1  0.42336667  0.13679297  0.39078946  1
  O  O50  1  0.75839526  0.55979635  0.00879061  1
  O  O51  1  0.24160474  0.44020365  0.99120939  1
  O  O52  1  0.85989077  0.71255064  0.85912735  1
  O  O53  1  0.14010923  0.28744936  0.14087265  1
  O  O54  1  0.72019312  0.87220269  0.02034110  1
  O  O55  1  0.27980688  0.12779731  0.97965890  1
