# generated using pymatgen
data_Gd2Zn17
_symmetry_space_group_name_H-M   'P 1'
_cell_length_a   8.69767546
_cell_length_b   9.08188574
_cell_length_c   9.08188574
_cell_angle_alpha   119.99565954
_cell_angle_beta   90.00000000
_cell_angle_gamma   90.00000000
_symmetry_Int_Tables_number   1
_chemical_formula_structural   Gd2Zn17
_chemical_formula_sum   'Gd4 Zn34'
_cell_volume   621.30506059
_cell_formula_units_Z   2
loop_
 _symmetry_equiv_pos_site_id
 _symmetry_equiv_pos_as_xyz
  1  'x, y, z'
loop_
 _atom_site_type_symbol
 _atom_site_label
 _atom_site_symmetry_multiplicity
 _atom_site_fract_x
 _atom_site_fract_y
 _atom_site_fract_z
 _atom_site_occupancy
  Gd  Gd0  1  0.75000000  0.00015805  0.99984195  1
  Gd  Gd1  1  0.25000000  0.99984195  0.00015805  1
  Gd  Gd2  1  0.25000000  0.66679112  0.33320888  1
  Gd  Gd3  1  0.75000000  0.33320888  0.66679112  1
  Zn  Zn4  1  0.59814299  0.66666310  0.33333690  1
  Zn  Zn5  1  0.40185701  0.33333690  0.66666310  1
  Zn  Zn6  1  0.09814299  0.33333690  0.66666310  1
  Zn  Zn7  1  0.90185701  0.66666310  0.33333690  1
  Zn  Zn8  1  0.50000000  0.50000000  0.00000000  1
  Zn  Zn9  1  0.50000000  0.50000000  0.50000000  1
  Zn  Zn10  1  0.50000000  -0.00000000  0.50000000  1
  Zn  Zn11  1  -0.00000000  0.50000000  0.00000000  1
  Zn  Zn12  1  -0.00000000  0.50000000  0.50000000  1
  Zn  Zn13  1  -0.00000000  -0.00000000  0.50000000  1
  Zn  Zn14  1  0.75000000  0.67076979  0.03497533  1
  Zn  Zn15  1  0.75000000  0.36470987  0.33000414  1
  Zn  Zn16  1  0.75000000  0.96532895  0.63572953  1
  Zn  Zn17  1  0.75000000  0.36427047  0.03467105  1
  Zn  Zn18  1  0.75000000  0.96502467  0.32923021  1
  Zn  Zn19  1  0.75000000  0.66999586  0.63529013  1
  Zn  Zn20  1  0.25000000  0.32923021  0.96502467  1
  Zn  Zn21  1  0.25000000  0.63529013  0.66999586  1
  Zn  Zn22  1  0.25000000  0.03467105  0.36427047  1
  Zn  Zn23  1  0.25000000  0.63572953  0.96532895  1
  Zn  Zn24  1  0.25000000  0.03497533  0.67076979  1
  Zn  Zn25  1  0.25000000  0.33000414  0.36470987  1
  Zn  Zn26  1  0.48247887  0.83804837  0.67597167  1
  Zn  Zn27  1  0.48261649  0.83811926  0.16188074  1
  Zn  Zn28  1  0.48247887  0.32402833  0.16195163  1
  Zn  Zn29  1  0.51752113  0.16195163  0.32402833  1
  Zn  Zn30  1  0.51738351  0.16188074  0.83811926  1
  Zn  Zn31  1  0.51752113  0.67597167  0.83804837  1
  Zn  Zn32  1  0.98247887  0.16195163  0.32402833  1
  Zn  Zn33  1  0.98261649  0.16188074  0.83811926  1
  Zn  Zn34  1  0.98247887  0.67597167  0.83804837  1
  Zn  Zn35  1  0.01752113  0.83804837  0.67597167  1
  Zn  Zn36  1  0.01738351  0.83811926  0.16188074  1
  Zn  Zn37  1  0.01752113  0.32402833  0.16195163  1
