# generated using pymatgen
data_La5(Sn5Ir2)2
_symmetry_space_group_name_H-M   'P 1'
_cell_length_a   4.73821106
_cell_length_b   14.26248315
_cell_length_c   14.26248315
_cell_angle_alpha   90.00000000
_cell_angle_beta   90.00000000
_cell_angle_gamma   90.00000000
_symmetry_Int_Tables_number   1
_chemical_formula_structural   La5(Sn5Ir2)2
_chemical_formula_sum   'La10 Sn20 Ir8'
_cell_volume   963.83943400
_cell_formula_units_Z   2
loop_
 _symmetry_equiv_pos_site_id
 _symmetry_equiv_pos_as_xyz
  1  'x, y, z'
loop_
 _atom_site_type_symbol
 _atom_site_label
 _atom_site_symmetry_multiplicity
 _atom_site_fract_x
 _atom_site_fract_y
 _atom_site_fract_z
 _atom_site_occupancy
  La  La0  1  0.00000000  0.50000000  0.50000000  1
  La  La1  1  0.00000000  0.00000000  -0.00000000  1
  La  La2  1  0.50000000  0.17639659  0.67639659  1
  La  La3  1  0.50000000  0.82360341  0.32360341  1
  La  La4  1  0.50000000  0.32360341  0.17639659  1
  La  La5  1  0.50000000  0.67639659  0.82360341  1
  La  La6  1  0.50000000  0.38764008  0.88764008  1
  La  La7  1  0.50000000  0.61235992  0.11235992  1
  La  La8  1  0.50000000  0.11235992  0.38764008  1
  La  La9  1  0.50000000  0.88764008  0.61235992  1
  Sn  Sn10  1  0.00000000  0.06930610  0.56930610  1
  Sn  Sn11  1  -0.00000000  0.93069390  0.43069390  1
  Sn  Sn12  1  0.00000000  0.43069390  0.06930610  1
  Sn  Sn13  1  -0.00000000  0.56930610  0.93069390  1
  Sn  Sn14  1  -0.00000000  0.69800483  0.65457745  1
  Sn  Sn15  1  0.00000000  0.30199517  0.34542255  1
  Sn  Sn16  1  -0.00000000  0.80199517  0.15457745  1
  Sn  Sn17  1  0.00000000  0.19800483  0.84542255  1
  Sn  Sn18  1  -0.00000000  0.65457745  0.30199517  1
  Sn  Sn19  1  0.00000000  0.34542255  0.69800483  1
  Sn  Sn20  1  0.00000000  0.15457745  0.19800483  1
  Sn  Sn21  1  -0.00000000  0.84542255  0.80199517  1
  Sn  Sn22  1  0.50000000  0.50501088  0.66377828  1
  Sn  Sn23  1  0.50000000  0.49498912  0.33622172  1
  Sn  Sn24  1  0.50000000  0.99498912  0.16377828  1
  Sn  Sn25  1  0.50000000  0.00501088  0.83622172  1
  Sn  Sn26  1  0.50000000  0.66377828  0.49498912  1
  Sn  Sn27  1  0.50000000  0.33622172  0.50501088  1
  Sn  Sn28  1  0.50000000  0.16377828  0.00501088  1
  Sn  Sn29  1  0.50000000  0.83622172  0.99498912  1
  Ir  Ir30  1  0.00000000  0.52774584  0.74628235  1
  Ir  Ir31  1  -0.00000000  0.47225416  0.25371765  1
  Ir  Ir32  1  0.00000000  0.97225416  0.24628235  1
  Ir  Ir33  1  -0.00000000  0.02774584  0.75371765  1
  Ir  Ir34  1  -0.00000000  0.74628235  0.47225416  1
  Ir  Ir35  1  0.00000000  0.25371765  0.52774584  1
  Ir  Ir36  1  0.00000000  0.24628235  0.02774584  1
  Ir  Ir37  1  -0.00000000  0.75371765  0.97225416  1
