# generated using pymatgen
data_Er2Zn17
_symmetry_space_group_name_H-M   'P 1'
_cell_length_a   8.71602167
_cell_length_b   8.96762685
_cell_length_c   8.96762685
_cell_angle_alpha   120.01264765
_cell_angle_beta   90.00000000
_cell_angle_gamma   90.00000000
_symmetry_Int_Tables_number   1
_chemical_formula_structural   Er2Zn17
_chemical_formula_sum   'Er4 Zn34'
_cell_volume   606.94400604
_cell_formula_units_Z   2
loop_
 _symmetry_equiv_pos_site_id
 _symmetry_equiv_pos_as_xyz
  1  'x, y, z'
loop_
 _atom_site_type_symbol
 _atom_site_label
 _atom_site_symmetry_multiplicity
 _atom_site_fract_x
 _atom_site_fract_y
 _atom_site_fract_z
 _atom_site_occupancy
  Er  Er0  1  0.75000000  0.99998647  0.00001353  1
  Er  Er1  1  0.25000000  0.00001353  0.99998647  1
  Er  Er2  1  0.25000000  0.66610886  0.33389114  1
  Er  Er3  1  0.75000000  0.33389114  0.66610886  1
  Zn  Zn4  1  0.59671967  0.66665546  0.33334454  1
  Zn  Zn5  1  0.40328033  0.33334454  0.66665546  1
  Zn  Zn6  1  0.09671967  0.33334454  0.66665546  1
  Zn  Zn7  1  0.90328033  0.66665546  0.33334454  1
  Zn  Zn8  1  0.50000000  0.50000000  -0.00000000  1
  Zn  Zn9  1  0.50000000  0.50000000  0.50000000  1
  Zn  Zn10  1  0.50000000  -0.00000000  0.50000000  1
  Zn  Zn11  1  0.00000000  0.50000000  -0.00000000  1
  Zn  Zn12  1  0.00000000  0.50000000  0.50000000  1
  Zn  Zn13  1  0.00000000  -0.00000000  0.50000000  1
  Zn  Zn14  1  0.75000000  0.67060749  0.03223073  1
  Zn  Zn15  1  0.75000000  0.36156453  0.32948075  1
  Zn  Zn16  1  0.75000000  0.96777524  0.63833295  1
  Zn  Zn17  1  0.75000000  0.36166705  0.03222476  1
  Zn  Zn18  1  0.75000000  0.96776927  0.32939251  1
  Zn  Zn19  1  0.75000000  0.67051925  0.63843547  1
  Zn  Zn20  1  0.25000000  0.32939251  0.96776927  1
  Zn  Zn21  1  0.25000000  0.63843547  0.67051925  1
  Zn  Zn22  1  0.25000000  0.03222476  0.36166705  1
  Zn  Zn23  1  0.25000000  0.63833295  0.96777524  1
  Zn  Zn24  1  0.25000000  0.03223073  0.67060749  1
  Zn  Zn25  1  0.25000000  0.32948075  0.36156453  1
  Zn  Zn26  1  0.48227565  0.83837903  0.67708721  1
  Zn  Zn27  1  0.48200486  0.83851378  0.16148622  1
  Zn  Zn28  1  0.48227565  0.32291279  0.16162097  1
  Zn  Zn29  1  0.51772435  0.16162097  0.32291279  1
  Zn  Zn30  1  0.51799514  0.16148622  0.83851378  1
  Zn  Zn31  1  0.51772435  0.67708721  0.83837903  1
  Zn  Zn32  1  0.98227565  0.16162097  0.32291279  1
  Zn  Zn33  1  0.98200486  0.16148622  0.83851378  1
  Zn  Zn34  1  0.98227565  0.67708721  0.83837903  1
  Zn  Zn35  1  0.01772435  0.83837903  0.67708721  1
  Zn  Zn36  1  0.01799514  0.83851378  0.16148622  1
  Zn  Zn37  1  0.01772435  0.32291279  0.16162097  1
