# generated using pymatgen
data_K2NiP4(HO2)8
_symmetry_space_group_name_H-M   'P 1'
_cell_length_a   9.90141762
_cell_length_b   11.13502114
_cell_length_c   13.34127574
_cell_angle_alpha   90.00000000
_cell_angle_beta   90.00000000
_cell_angle_gamma   90.00000000
_symmetry_Int_Tables_number   1
_chemical_formula_structural   K2NiP4(HO2)8
_chemical_formula_sum   'K8 Ni4 P16 H32 O64'
_cell_volume   1470.90893034
_cell_formula_units_Z   4
loop_
 _symmetry_equiv_pos_site_id
 _symmetry_equiv_pos_as_xyz
  1  'x, y, z'
loop_
 _atom_site_type_symbol
 _atom_site_label
 _atom_site_symmetry_multiplicity
 _atom_site_fract_x
 _atom_site_fract_y
 _atom_site_fract_z
 _atom_site_occupancy
  K  K0  1  0.04859882  0.75000000  0.60122283  1
  K  K1  1  0.54859882  0.75000000  0.89877717  1
  K  K2  1  0.95140118  0.25000000  0.39877717  1
  K  K3  1  0.45140118  0.25000000  0.10122283  1
  K  K4  1  0.75180170  0.25000000  0.87080267  1
  K  K5  1  0.25180170  0.25000000  0.62919733  1
  K  K6  1  0.24819830  0.75000000  0.12919733  1
  K  K7  1  0.74819830  0.75000000  0.37080267  1
  Ni  Ni8  1  0.16589576  0.75000000  0.85788751  1
  Ni  Ni9  1  0.66589576  0.75000000  0.64211249  1
  Ni  Ni10  1  0.83410424  0.25000000  0.14211249  1
  Ni  Ni11  1  0.33410424  0.25000000  0.35788751  1
  P  P12  1  0.05799626  0.48566903  0.77550722  1
  P  P13  1  0.55799626  0.01433097  0.72449278  1
  P  P14  1  0.94200374  0.98566903  0.22449278  1
  P  P15  1  0.44200374  0.51433097  0.27550722  1
  P  P16  1  0.94200374  0.51433097  0.22449278  1
  P  P17  1  0.44200374  0.98566903  0.27550722  1
  P  P18  1  0.05799626  0.01433097  0.77550722  1
  P  P19  1  0.55799626  0.48566903  0.72449278  1
  P  P20  1  0.25171364  0.48700885  0.94024461  1
  P  P21  1  0.75171364  0.01299115  0.55975539  1
  P  P22  1  0.74828636  0.98700885  0.05975539  1
  P  P23  1  0.24828636  0.51299115  0.44024461  1
  P  P24  1  0.74828636  0.51299115  0.05975539  1
  P  P25  1  0.24828636  0.98700885  0.44024461  1
  P  P26  1  0.25171364  0.01299115  0.94024461  1
  P  P27  1  0.75171364  0.48700885  0.55975539  1
  H  H28  1  0.96633291  0.67900342  0.98310534  1
  H  H29  1  0.46633291  0.82099658  0.51689466  1
  H  H30  1  0.03366709  0.17900342  0.01689466  1
  H  H31  1  0.53366709  0.32099658  0.48310534  1
  H  H32  1  0.03366709  0.32099658  0.01689466  1
  H  H33  1  0.53366709  0.17900342  0.48310534  1
  H  H34  1  0.96633291  0.82099658  0.98310534  1
  H  H35  1  0.46633291  0.67900342  0.51689466  1
  H  H36  1  0.35444615  0.68176613  0.70754403  1
  H  H37  1  0.85444615  0.81823387  0.79245597  1
  H  H38  1  0.64555385  0.18176613  0.29245597  1
  H  H39  1  0.14555385  0.31823387  0.20754403  1
  H  H40  1  0.64555385  0.31823387  0.29245597  1
  H  H41  1  0.14555385  0.18176613  0.20754403  1
  H  H42  1  0.35444615  0.81823387  0.70754403  1
  H  H43  1  0.85444615  0.68176613  0.79245597  1
  H  H44  1  0.45984565  0.42448497  0.89733664  1
  H  H45  1  0.95984565  0.07551503  0.60266336  1
  H  H46  1  0.54015435  0.92448497  0.10266336  1
  H  H47  1  0.04015435  0.57551503  0.39733664  1
  H  H48  1  0.54015435  0.57551503  0.10266336  1
  H  H49  1  0.04015435  0.92448497  0.39733664  1
  H  H50  1  0.45984565  0.07551503  0.89733664  1
  H  H51  1  0.95984565  0.42448497  0.60266336  1
  H  H52  1  0.90035058  0.47756016  0.89406249  1
  H  H53  1  0.40035058  0.02243984  0.60593751  1
  H  H54  1  0.09964942  0.97756016  0.10593751  1
  H  H55  1  0.59964942  0.52243984  0.39406249  1
  H  H56  1  0.09964942  0.52243984  0.10593751  1
  H  H57  1  0.59964942  0.97756016  0.39406249  1
  H  H58  1  0.90035058  0.02243984  0.89406249  1
  H  H59  1  0.40035058  0.47756016  0.60593751  1
  O  O60  1  0.19254610  0.43901137  0.83260974  1
  O  O61  1  0.69254610  0.06098863  0.66739026  1
  O  O62  1  0.80745390  0.93901137  0.16739026  1
  O  O63  1  0.30745390  0.56098863  0.33260974  1
  O  O64  1  0.80745390  0.56098863  0.16739026  1
  O  O65  1  0.30745390  0.93901137  0.33260974  1
  O  O66  1  0.19254610  0.06098863  0.83260974  1
  O  O67  1  0.69254610  0.43901137  0.66739026  1
  O  O68  1  0.38316589  0.41090995  0.95200020  1
  O  O69  1  0.88316589  0.08909005  0.54799980  1
  O  O70  1  0.61683411  0.91090995  0.04799980  1
  O  O71  1  0.11683411  0.58909005  0.45200020  1
  O  O72  1  0.61683411  0.58909005  0.04799980  1
  O  O73  1  0.11683411  0.91090995  0.45200020  1
  O  O74  1  0.38316589  0.08909005  0.95200020  1
  O  O75  1  0.88316589  0.41090995  0.54799980  1
  O  O76  1  0.05129439  0.62180489  0.78341852  1
  O  O77  1  0.55129439  0.87819511  0.71658148  1
  O  O78  1  0.94870561  0.12180489  0.21658148  1
  O  O79  1  0.44870561  0.37819511  0.28341852  1
  O  O80  1  0.94870561  0.37819511  0.21658148  1
  O  O81  1  0.44870561  0.12180489  0.28341852  1
  O  O82  1  0.05129439  0.87819511  0.78341852  1
  O  O83  1  0.55129439  0.62180489  0.71658148  1
  O  O84  1  0.28272384  0.62022511  0.92931513  1
  O  O85  1  0.78272384  0.87977489  0.57068487  1
  O  O86  1  0.71727616  0.12022511  0.07068487  1
  O  O87  1  0.21727616  0.37977489  0.42931513  1
  O  O88  1  0.71727616  0.37977489  0.07068487  1
  O  O89  1  0.21727616  0.12022511  0.42931513  1
  O  O90  1  0.28272384  0.87977489  0.92931513  1
  O  O91  1  0.78272384  0.62022511  0.57068487  1
  O  O92  1  0.06845571  0.43302012  0.67146110  1
  O  O93  1  0.56845571  0.06697988  0.82853890  1
  O  O94  1  0.93154429  0.93302012  0.32853890  1
  O  O95  1  0.43154429  0.56697988  0.17146110  1
  O  O96  1  0.93154429  0.56697988  0.32853890  1
  O  O97  1  0.43154429  0.93302012  0.17146110  1
  O  O98  1  0.06845571  0.06697988  0.67146110  1
  O  O99  1  0.56845571  0.43302012  0.82853890  1
  O  O100  1  0.02700875  0.75000000  0.97913393  1
  O  O101  1  0.52700875  0.75000000  0.52086607  1
  O  O102  1  0.97299125  0.25000000  0.02086607  1
  O  O103  1  0.47299125  0.25000000  0.47913393  1
  O  O104  1  0.93344168  0.42900261  0.83162742  1
  O  O105  1  0.43344168  0.07099739  0.66837258  1
  O  O106  1  0.06655832  0.92900261  0.16837258  1
  O  O107  1  0.56655832  0.57099739  0.33162742  1
  O  O108  1  0.06655832  0.57099739  0.16837258  1
  O  O109  1  0.56655832  0.92900261  0.33162742  1
  O  O110  1  0.93344168  0.07099739  0.83162742  1
  O  O111  1  0.43344168  0.42900261  0.66837258  1
  O  O112  1  0.15113057  0.45055363  0.02078370  1
  O  O113  1  0.65113057  0.04944637  0.47921630  1
  O  O114  1  0.84886943  0.95055363  0.97921630  1
  O  O115  1  0.34886943  0.54944637  0.52078370  1
  O  O116  1  0.84886943  0.54944637  0.97921630  1
  O  O117  1  0.34886943  0.95055363  0.52078370  1
  O  O118  1  0.15113057  0.04944637  0.02078370  1
  O  O119  1  0.65113057  0.45055363  0.47921630  1
  O  O120  1  0.29319943  0.75000000  0.71845774  1
  O  O121  1  0.79319943  0.75000000  0.78154226  1
  O  O122  1  0.70680057  0.25000000  0.28154226  1
  O  O123  1  0.20680057  0.25000000  0.21845774  1
