# generated using pymatgen
data_Y4Ga21Ni10
_symmetry_space_group_name_H-M   'P 1'
_cell_length_a   4.07906268
_cell_length_b   10.63320471
_cell_length_c   13.17886353
_cell_angle_alpha   80.49438741
_cell_angle_beta   81.09725506
_cell_angle_gamma   78.94169990
_symmetry_Int_Tables_number   1
_chemical_formula_structural   Y4Ga21Ni10
_chemical_formula_sum   'Y4 Ga21 Ni10'
_cell_volume   548.80599348
_cell_formula_units_Z   1
loop_
 _symmetry_equiv_pos_site_id
 _symmetry_equiv_pos_as_xyz
  1  'x, y, z'
loop_
 _atom_site_type_symbol
 _atom_site_label
 _atom_site_symmetry_multiplicity
 _atom_site_fract_x
 _atom_site_fract_y
 _atom_site_fract_z
 _atom_site_occupancy
  Y  Y0  1  0.87987431  0.90634500  0.33390638  1
  Y  Y1  1  0.12012569  0.09365500  0.66609362  1
  Y  Y2  1  0.23005559  0.36460742  0.17528140  1
  Y  Y3  1  0.76994441  0.63539258  0.82471860  1
  Ga  Ga4  1  0.46092506  0.71062351  0.36752638  1
  Ga  Ga5  1  0.53907494  0.28937649  0.63247362  1
  Ga  Ga6  1  0.79847923  0.39962916  0.00341237  1
  Ga  Ga7  1  0.20152077  0.60037084  0.99658763  1
  Ga  Ga8  1  0.70257922  0.09809155  0.49675001  1
  Ga  Ga9  1  0.29742078  0.90190845  0.50324999  1
  Ga  Ga10  1  0.88361541  0.68098512  0.55178407  1
  Ga  Ga11  1  0.11638459  0.31901488  0.44821593  1
  Ga  Ga12  1  0.61389534  0.47477541  0.29743392  1
  Ga  Ga13  1  0.38610466  0.52522459  0.70256608  1
  Ga  Ga14  1  0.75278057  0.20027773  0.29416114  1
  Ga  Ga15  1  0.24721943  0.79972227  0.70583886  1
  Ga  Ga16  1  0.60181715  0.79333404  0.00303166  1
  Ga  Ga17  1  0.39818285  0.20666596  0.99696834  1
  Ga  Ga18  1  0.99387907  0.92190749  0.09033437  1
  Ga  Ga19  1  0.00612093  0.07809251  0.90966563  1
  Ga  Ga20  1  0.93528638  0.33354081  0.79588644  1
  Ga  Ga21  1  0.06471362  0.66645919  0.20411356  1
  Ga  Ga22  1  0.50000000  0.50000000  0.50000000  1
  Ga  Ga23  1  0.37282133  0.05875903  0.19559830  1
  Ga  Ga24  1  0.62717867  0.94124097  0.80440170  1
  Ni  Ni25  1  0.49861149  0.81832080  0.18445621  1
  Ni  Ni26  1  0.50138851  0.18167920  0.81554379  1
  Ni  Ni27  1  0.86667191  0.16143710  0.10521907  1
  Ni  Ni28  1  0.13332809  0.83856290  0.89478093  1
  Ni  Ni29  1  0.75089427  0.88393128  0.61428019  1
  Ni  Ni30  1  0.24910573  0.11606872  0.38571981  1
  Ni  Ni31  1  0.65268730  0.58114256  0.11348283  1
  Ni  Ni32  1  0.34731270  0.41885744  0.88651717  1
  Ni  Ni33  1  0.97564072  0.44206672  0.60665184  1
  Ni  Ni34  1  0.02435928  0.55793328  0.39334816  1
