# generated using pymatgen
data_GdCO4
_symmetry_space_group_name_H-M   'P 1'
_cell_length_a   9.77164274
_cell_length_b   12.23556327
_cell_length_c   12.24120586
_cell_angle_alpha   119.99874207
_cell_angle_beta   90.00000000
_cell_angle_gamma   90.00000000
_symmetry_Int_Tables_number   1
_chemical_formula_structural   GdCO4
_chemical_formula_sum   'Gd18 C18 O72'
_cell_volume   1267.51143350
_cell_formula_units_Z   18
loop_
 _symmetry_equiv_pos_site_id
 _symmetry_equiv_pos_as_xyz
  1  'x, y, z'
loop_
 _atom_site_type_symbol
 _atom_site_label
 _atom_site_symmetry_multiplicity
 _atom_site_fract_x
 _atom_site_fract_y
 _atom_site_fract_z
 _atom_site_occupancy
  Gd  Gd0  1  0.75976442  0.11837191  0.23061548  1
  Gd  Gd1  1  0.76012366  0.76968005  0.88821305  1
  Gd  Gd2  1  0.76036103  0.11138566  0.88090566  1
  Gd  Gd3  1  0.24023558  0.11837191  0.23061548  1
  Gd  Gd4  1  0.23987634  0.76968005  0.88821305  1
  Gd  Gd5  1  0.23963897  0.11138566  0.88090566  1
  Gd  Gd6  1  0.74347892  0.78494641  0.56283363  1
  Gd  Gd7  1  0.74341024  0.43699281  0.22191351  1
  Gd  Gd8  1  0.74338553  0.77862031  0.21528741  1
  Gd  Gd9  1  0.25652108  0.78494641  0.56283363  1
  Gd  Gd10  1  0.25658976  0.43699281  0.22191351  1
  Gd  Gd11  1  0.25661447  0.77862031  0.21528741  1
  Gd  Gd12  1  0.74429643  0.10298073  0.54671244  1
  Gd  Gd13  1  0.74430008  0.45282081  0.55597734  1
  Gd  Gd14  1  0.74441635  0.44407280  0.89699899  1
  Gd  Gd15  1  0.25570357  0.10298073  0.54671244  1
  Gd  Gd16  1  0.25569992  0.45282081  0.55597734  1
  Gd  Gd17  1  0.25558365  0.44407280  0.89699899  1
  C  C18  1  0.00000000  0.64736513  0.50931173  1
  C  C19  1  0.00000000  0.49059542  0.13797851  1
  C  C20  1  0.00000000  0.86165005  0.35250008  1
  C  C21  1  0.00000000  0.20332287  0.11079114  1
  C  C22  1  0.00000000  0.88930471  0.09260102  1
  C  C23  1  0.00000000  0.90751364  0.79681005  1
  C  C24  1  0.00000000  0.16389575  0.47011500  1
  C  C25  1  0.00000000  0.53004592  0.69388635  1
  C  C26  1  0.00000000  0.30608022  0.83618147  1
  C  C27  1  0.50000000  0.87132526  0.42387932  1
  C  C28  1  0.50000000  0.57602725  0.44741439  1
  C  C29  1  0.50000000  0.55267301  0.12857120  1
  C  C30  1  0.50000000  0.23584773  0.77367491  1
  C  C31  1  0.50000000  0.22610184  0.46205910  1
  C  C32  1  0.50000000  0.53804054  0.76419019  1
  C  C33  1  0.50000000  0.20023514  0.17880215  1
  C  C34  1  0.50000000  0.82149304  0.02151409  1
  C  C35  1  0.50000000  0.97852975  0.80008762  1
  O  O36  1  0.00000000  0.75587547  0.51335945  1
  O  O37  1  0.00000000  0.48667444  0.24249475  1
  O  O38  1  0.00000000  0.75736247  0.24408692  1
  O  O39  1  0.88378635  0.59766155  0.50933394  1
  O  O40  1  0.88379589  0.49052808  0.08825847  1
  O  O41  1  0.88375588  0.91142631  0.40219251  1
  O  O42  1  0.11621365  0.59766155  0.50933394  1
  O  O43  1  0.11620411  0.49052808  0.08825847  1
  O  O44  1  0.11624412  0.91142631  0.40219251  1
  O  O45  1  0.00000000  0.14055003  0.17034095  1
  O  O46  1  0.00000000  0.82992393  0.97035636  1
  O  O47  1  0.00000000  0.02973991  0.85958736  1
  O  O48  1  0.88428161  0.91790992  0.15185048  1
  O  O49  1  0.88423604  0.84823177  0.76621997  1
  O  O50  1  0.88422667  0.23379779  0.08198984  1
  O  O51  1  0.11571839  0.91790992  0.15185048  1
  O  O52  1  0.11576396  0.84823177  0.76621997  1
  O  O53  1  0.11577333  0.23379779  0.08198984  1
  O  O54  1  0.00000000  0.15872613  0.57319953  1
  O  O55  1  0.00000000  0.42687095  0.58564075  1
  O  O56  1  0.00000000  0.41438032  0.84124906  1
  O  O57  1  0.88437302  0.16397443  0.41950670  1
  O  O58  1  0.88433966  0.58063066  0.74453044  1
  O  O59  1  0.88432242  0.25552141  0.83619096  1
  O  O60  1  0.11562698  0.16397443  0.41950670  1
  O  O61  1  0.11566034  0.58063066  0.74453044  1
  O  O62  1  0.11567758  0.25552141  0.83619096  1
  O  O63  1  0.50000000  0.69762419  0.50173089  1
  O  O64  1  0.50000000  0.49830485  0.19583938  1
  O  O65  1  0.50000000  0.80419022  0.30248014  1
  O  O66  1  0.61513665  0.90507202  0.48440968  1
  O  O67  1  0.61511913  0.51555208  0.42058339  1
  O  O68  1  0.61514452  0.57947716  0.09495129  1
  O  O69  1  0.38486335  0.90507202  0.48440968  1
  O  O70  1  0.38488087  0.51555208  0.42058339  1
  O  O71  1  0.38485548  0.57947716  0.09495129  1
  O  O72  1  0.50000000  0.16266914  0.52092079  1
  O  O73  1  0.50000000  0.47919315  0.64184371  1
  O  O74  1  0.50000000  0.35813825  0.83738869  1
  O  O75  1  0.61560844  0.17598871  0.74267151  1
  O  O76  1  0.61556100  0.25696928  0.43313166  1
  O  O77  1  0.61561950  0.56687169  0.82391351  1
  O  O78  1  0.38439156  0.17598871  0.74267151  1
  O  O79  1  0.38443900  0.25696928  0.43313166  1
  O  O80  1  0.38438050  0.56687169  0.82391351  1
  O  O81  1  0.50000000  0.09559625  0.18159127  1
  O  O82  1  0.50000000  0.81828352  0.91391536  1
  O  O83  1  0.50000000  0.08586706  0.90448575  1
  O  O84  1  0.61544511  0.25087814  0.17866765  1
  O  O85  1  0.61541365  0.82186083  0.07242331  1
  O  O86  1  0.61551395  0.92771782  0.74939938  1
  O  O87  1  0.38455489  0.25087814  0.17866765  1
  O  O88  1  0.38458635  0.82186083  0.07242331  1
  O  O89  1  0.38448605  0.92771782  0.74939938  1
  O  O90  1  0.74114594  0.00007780  0.00023232  1
  O  O91  1  0.25885406  0.00007780  0.00023232  1
  O  O92  1  0.75414489  0.66696334  0.33317526  1
  O  O93  1  0.24585511  0.66696334  0.33317526  1
  O  O94  1  0.75605163  0.33320625  0.66664242  1
  O  O95  1  0.24394837  0.33320625  0.66664242  1
  O  O96  1  0.69067063  0.67614525  0.67401669  1
  O  O97  1  0.69086482  0.32582332  0.00196811  1
  O  O98  1  0.69105379  0.99774063  0.32365957  1
  O  O99  1  0.30932937  0.67614525  0.67401669  1
  O  O100  1  0.30913518  0.32582332  0.00196811  1
  O  O101  1  0.30894621  0.99774063  0.32365957  1
  O  O102  1  0.80889809  0.00086369  0.65869658  1
  O  O103  1  0.80871580  0.34109517  0.34210336  1
  O  O104  1  0.80859759  0.65813466  0.99938377  1
  O  O105  1  0.19110191  0.00086369  0.65869658  1
  O  O106  1  0.19128420  0.34109517  0.34210336  1
  O  O107  1  0.19140241  0.65813466  0.99938377  1
