# generated using pymatgen
data_K3HS3O11
_symmetry_space_group_name_H-M   'P 1'
_cell_length_a   8.28943460
_cell_length_b   9.99774211
_cell_length_c   13.88645168
_cell_angle_alpha   96.11449229
_cell_angle_beta   90.00000000
_cell_angle_gamma   90.00000000
_symmetry_Int_Tables_number   1
_chemical_formula_structural   K3HS3O11
_chemical_formula_sum   'K12 H4 S12 O44'
_cell_volume   1144.30128541
_cell_formula_units_Z   4
loop_
 _symmetry_equiv_pos_site_id
 _symmetry_equiv_pos_as_xyz
  1  'x, y, z'
loop_
 _atom_site_type_symbol
 _atom_site_label
 _atom_site_symmetry_multiplicity
 _atom_site_fract_x
 _atom_site_fract_y
 _atom_site_fract_z
 _atom_site_occupancy
  K  K0  1  0.64287114  0.70713435  0.16675978  1
  K  K1  1  0.14287114  0.79286565  0.83324022  1
  K  K2  1  0.35712886  0.29286565  0.83324022  1
  K  K3  1  0.85712886  0.20713435  0.16675978  1
  K  K4  1  0.12031979  0.84861681  0.18108613  1
  K  K5  1  0.62031979  0.65138319  0.81891387  1
  K  K6  1  0.87968021  0.15138319  0.81891387  1
  K  K7  1  0.37968021  0.34861681  0.18108613  1
  K  K8  1  0.41619253  0.73597676  0.44369559  1
  K  K9  1  0.91619253  0.76402324  0.55630441  1
  K  K10  1  0.58380747  0.26402324  0.55630441  1
  K  K11  1  0.08380747  0.23597676  0.44369559  1
  H  H12  1  0.40278995  0.90991348  0.99810772  1
  H  H13  1  0.90278995  0.59008652  0.00189228  1
  H  H14  1  0.59721005  0.09008652  0.00189228  1
  H  H15  1  0.09721005  0.40991348  0.99810772  1
  S  S16  1  0.24802963  0.08734925  0.01162250  1
  S  S17  1  0.74802963  0.41265075  0.98837750  1
  S  S18  1  0.75197037  0.91265075  0.98837750  1
  S  S19  1  0.25197037  0.58734925  0.01162250  1
  S  S20  1  0.77025590  0.99264525  0.39419079  1
  S  S21  1  0.27025590  0.50735475  0.60580921  1
  S  S22  1  0.22974410  0.00735475  0.60580921  1
  S  S23  1  0.72974410  0.49264525  0.39419079  1
  S  S24  1  0.47096448  0.05661242  0.29174421  1
  S  S25  1  0.97096448  0.44338758  0.70825579  1
  S  S26  1  0.52903552  0.94338758  0.70825579  1
  S  S27  1  0.02903552  0.55661242  0.29174421  1
  O  O28  1  0.28584229  0.92944778  0.01316771  1
  O  O29  1  0.78584229  0.57055222  0.98683229  1
  O  O30  1  0.71415771  0.07055222  0.98683229  1
  O  O31  1  0.21415771  0.42944778  0.01316771  1
  O  O32  1  0.40718686  0.15318847  0.00716756  1
  O  O33  1  0.90718686  0.34681153  0.99283244  1
  O  O34  1  0.59281314  0.84681153  0.99283244  1
  O  O35  1  0.09281314  0.65318847  0.00716756  1
  O  O36  1  0.16254770  0.12483304  0.10254819  1
  O  O37  1  0.66254770  0.37516696  0.89745181  1
  O  O38  1  0.83745230  0.87516696  0.89745181  1
  O  O39  1  0.33745230  0.62483304  0.10254819  1
  O  O40  1  0.15144383  0.09849403  0.92493175  1
  O  O41  1  0.65144383  0.40150597  0.07506825  1
  O  O42  1  0.84855617  0.90150597  0.07506825  1
  O  O43  1  0.34855617  0.59849403  0.92493175  1
  O  O44  1  0.86893547  0.03018812  0.31403621  1
  O  O45  1  0.36893547  0.46981188  0.68596379  1
  O  O46  1  0.13106453  0.96981188  0.68596379  1
  O  O47  1  0.63106453  0.53018812  0.31403621  1
  O  O48  1  0.82151494  0.05295228  0.48938167  1
  O  O49  1  0.32151494  0.44704772  0.51061833  1
  O  O50  1  0.17848506  0.94704772  0.51061833  1
  O  O51  1  0.67848506  0.55295228  0.48938167  1
  O  O52  1  0.73056112  0.84989647  0.38831331  1
  O  O53  1  0.23056112  0.65010353  0.61168669  1
  O  O54  1  0.26943888  0.15010353  0.61168669  1
  O  O55  1  0.76943888  0.34989647  0.38831331  1
  O  O56  1  0.59180248  0.07149536  0.38837898  1
  O  O57  1  0.09180248  0.42850464  0.61162102  1
  O  O58  1  0.40819752  0.92850464  0.61162102  1
  O  O59  1  0.90819752  0.57149536  0.38837898  1
  O  O60  1  0.42884556  0.91347727  0.27573482  1
  O  O61  1  0.92884556  0.58652273  0.72426518  1
  O  O62  1  0.57115444  0.08652273  0.72426518  1
  O  O63  1  0.07115444  0.41347727  0.27573482  1
  O  O64  1  0.33990829  0.14496203  0.32796076  1
  O  O65  1  0.83990829  0.35503797  0.67203924  1
  O  O66  1  0.66009171  0.85503797  0.67203924  1
  O  O67  1  0.16009171  0.64496203  0.32796076  1
  O  O68  1  0.56287441  0.10607101  0.21368243  1
  O  O69  1  0.06287441  0.39392899  0.78631757  1
  O  O70  1  0.43712559  0.89392899  0.78631757  1
  O  O71  1  0.93712559  0.60607101  0.21368243  1
