# generated using pymatgen
data_U2NiAs2(HO)24
_symmetry_space_group_name_H-M   'P 1'
_cell_length_a   7.23674653
_cell_length_b   7.23721619
_cell_length_c   11.31880133
_cell_angle_alpha   82.12850050
_cell_angle_beta   80.28626261
_cell_angle_gamma   88.62599045
_symmetry_Int_Tables_number   1
_chemical_formula_structural   U2NiAs2(HO)24
_chemical_formula_sum   'U2 Ni1 As2 H24 O24'
_cell_volume   578.80489573
_cell_formula_units_Z   1
loop_
 _symmetry_equiv_pos_site_id
 _symmetry_equiv_pos_as_xyz
  1  'x, y, z'
loop_
 _atom_site_type_symbol
 _atom_site_label
 _atom_site_symmetry_multiplicity
 _atom_site_fract_x
 _atom_site_fract_y
 _atom_site_fract_z
 _atom_site_occupancy
  U  U0  1  0.77169014  0.26569837  0.91770146  1
  U  U1  1  0.22830986  0.73430163  0.08229854  1
  Ni  Ni2  1  0.00000000  0.00000000  0.50000000  1
  As  As3  1  0.25341330  0.24892774  0.00113556  1
  As  As4  1  0.74658670  0.75107226  0.99886444  1
  H  H5  1  0.28101967  0.23729161  0.47860237  1
  H  H6  1  0.71898033  0.76270839  0.52139763  1
  H  H7  1  0.25292859  0.13248179  0.61192715  1
  H  H8  1  0.74707141  0.86751821  0.38807285  1
  H  H9  1  0.81659434  0.24520579  0.61225744  1
  H  H10  1  0.18340566  0.75479421  0.38774256  1
  H  H11  1  0.65464623  0.12386184  0.59319056  1
  H  H12  1  0.34535377  0.87613816  0.40680944  1
  H  H13  1  0.06863599  0.74369600  0.68507991  1
  H  H14  1  0.93136401  0.25630400  0.31492009  1
  H  H15  1  0.92791561  0.88987177  0.75082053  1
  H  H16  1  0.07208439  0.11012823  0.24917947  1
  H  H17  1  0.55635408  0.89321975  0.23285377  1
  H  H18  1  0.44364592  0.10678025  0.76714623  1
  H  H19  1  0.53141056  0.07604799  0.29915114  1
  H  H20  1  0.46858944  0.92395201  0.70084886  1
  H  H21  1  0.16653531  0.45805334  0.77322368  1
  H  H22  1  0.83346469  0.54194666  0.22677632  1
  H  H23  1  0.18254724  0.46106986  0.63392589  1
  H  H24  1  0.81745276  0.53893014  0.36607411  1
  H  H25  1  0.43434974  0.63099750  0.67572359  1
  H  H26  1  0.56565026  0.36900250  0.32427641  1
  H  H27  1  0.62338025  0.64622629  0.72709901  1
  H  H28  1  0.37661975  0.35377371  0.27290099  1
  O  O29  1  0.46121753  0.22476363  0.90524336  1
  O  O30  1  0.53878247  0.77523637  0.09475664  1
  O  O31  1  0.08780848  0.30428240  0.90903820  1
  O  O32  1  0.91219152  0.69571760  0.09096180  1
  O  O33  1  0.19208031  0.04793798  0.09914968  1
  O  O34  1  0.80791969  0.95206202  0.90085032  1
  O  O35  1  0.26881568  0.42082245  0.08918334  1
  O  O36  1  0.73118432  0.57917755  0.91081666  1
  O  O37  1  0.72777616  0.22330178  0.08201708  1
  O  O38  1  0.27222384  0.77669822  0.91798292  1
  O  O39  1  0.81910149  0.31284533  0.75263968  1
  O  O40  1  0.18089851  0.68715467  0.24736032  1
  O  O41  1  0.18267958  0.19611365  0.54920701  1
  O  O42  1  0.81732042  0.80388635  0.45079299  1
  O  O43  1  0.77952700  0.17452528  0.55107326  1
  O  O44  1  0.22047300  0.82547472  0.44892674  1
  O  O45  1  0.98767389  0.85506912  0.67217411  1
  O  O46  1  0.01232611  0.14493088  0.32782589  1
  O  O47  1  0.55436104  0.93887677  0.31133151  1
  O  O48  1  0.44563896  0.06112323  0.68866849  1
  O  O49  1  0.20634957  0.53788751  0.69475483  1
  O  O50  1  0.79365043  0.46211249  0.30524517  1
  O  O51  1  0.55318301  0.70329942  0.66479374  1
  O  O52  1  0.44681699  0.29670058  0.33520626  1
