# generated using pymatgen
data_NaGaBP2H3O10
_symmetry_space_group_name_H-M   'P 1'
_cell_length_a   6.71274851
_cell_length_b   6.71274851
_cell_length_c   9.21005105
_cell_angle_alpha   69.40270978
_cell_angle_beta   69.40270978
_cell_angle_gamma   75.69926014
_symmetry_Int_Tables_number   1
_chemical_formula_structural   NaGaBP2H3O10
_chemical_formula_sum   'Na2 Ga2 B2 P4 H6 O20'
_cell_volume   360.03598250
_cell_formula_units_Z   2
loop_
 _symmetry_equiv_pos_site_id
 _symmetry_equiv_pos_as_xyz
  1  'x, y, z'
loop_
 _atom_site_type_symbol
 _atom_site_label
 _atom_site_symmetry_multiplicity
 _atom_site_fract_x
 _atom_site_fract_y
 _atom_site_fract_z
 _atom_site_occupancy
  Na  Na0  1  0.13031986  0.86968014  0.25000000  1
  Na  Na1  1  0.86968014  0.13031986  0.75000000  1
  Ga  Ga2  1  -0.00000000  0.50000000  -0.00000000  1
  Ga  Ga3  1  0.50000000  -0.00000000  0.50000000  1
  B  B4  1  0.46701224  0.53298776  0.75000000  1
  B  B5  1  0.53298776  0.46701224  0.25000000  1
  P  P6  1  0.29090689  0.16232492  0.82038279  1
  P  P7  1  0.83767508  0.70909311  0.67961721  1
  P  P8  1  0.70909311  0.83767508  0.17961721  1
  P  P9  1  0.16232492  0.29090689  0.32038279  1
  H  H10  1  0.50000000  -0.00000000  -0.00000000  1
  H  H11  1  -0.00000000  0.50000000  0.50000000  1
  H  H12  1  0.32022288  0.69641935  0.92495741  1
  H  H13  1  0.30358065  0.67977712  0.57504259  1
  H  H14  1  0.67977712  0.30358065  0.07504259  1
  H  H15  1  0.69641935  0.32022288  0.42495741  1
  O  O16  1  0.08341212  0.27336145  0.18906642  1
  O  O17  1  0.72663855  0.91658788  0.31093358  1
  O  O18  1  0.91658788  0.72663855  0.81093358  1
  O  O19  1  0.27336145  0.08341212  0.68906642  1
  O  O20  1  0.46797936  0.31535529  0.74742144  1
  O  O21  1  0.68464471  0.53202064  0.75257856  1
  O  O22  1  0.53202064  0.68464471  0.25257856  1
  O  O23  1  0.31535529  0.46797936  0.24742144  1
  O  O24  1  0.30474642  0.57150947  0.89971103  1
  O  O25  1  0.42849053  0.69525358  0.60028897  1
  O  O26  1  0.69525358  0.42849053  0.10028897  1
  O  O27  1  0.57150947  0.30474642  0.39971103  1
  O  O28  1  0.36223379  0.97035240  0.95576589  1
  O  O29  1  0.02964760  0.63776621  0.54423411  1
  O  O30  1  0.63776621  0.02964760  0.04423411  1
  O  O31  1  0.97035240  0.36223379  0.45576589  1
  O  O32  1  0.06840008  0.28335047  0.88777896  1
  O  O33  1  0.71664953  0.93159992  0.61222104  1
  O  O34  1  0.93159992  0.71664953  0.11222104  1
  O  O35  1  0.28335047  0.06840008  0.38777896  1
