# generated using pymatgen
data_Ho5Sb2Pd
_symmetry_space_group_name_H-M   'P 1'
_cell_length_a   7.92654211
_cell_length_b   8.93420472
_cell_length_c   12.12185066
_cell_angle_alpha   90.00000000
_cell_angle_beta   90.00000000
_cell_angle_gamma   90.00000000
_symmetry_Int_Tables_number   1
_chemical_formula_structural   Ho5Sb2Pd
_chemical_formula_sum   'Ho20 Sb8 Pd4'
_cell_volume   858.43734002
_cell_formula_units_Z   4
loop_
 _symmetry_equiv_pos_site_id
 _symmetry_equiv_pos_as_xyz
  1  'x, y, z'
loop_
 _atom_site_type_symbol
 _atom_site_label
 _atom_site_symmetry_multiplicity
 _atom_site_fract_x
 _atom_site_fract_y
 _atom_site_fract_z
 _atom_site_occupancy
  Ho  Ho0  1  0.33183594  0.75000000  0.28552908  1
  Ho  Ho1  1  0.16816406  0.75000000  0.78552908  1
  Ho  Ho2  1  0.66816406  0.25000000  0.71447092  1
  Ho  Ho3  1  0.83183594  0.25000000  0.21447092  1
  Ho  Ho4  1  0.03891704  0.75000000  0.49910101  1
  Ho  Ho5  1  0.46108296  0.75000000  0.99910101  1
  Ho  Ho6  1  0.96108296  0.25000000  0.50089899  1
  Ho  Ho7  1  0.53891704  0.25000000  0.00089899  1
  Ho  Ho8  1  0.86217274  0.75000000  0.20210122  1
  Ho  Ho9  1  0.63782726  0.75000000  0.70210122  1
  Ho  Ho10  1  0.13782726  0.25000000  0.79789878  1
  Ho  Ho11  1  0.36217274  0.25000000  0.29789878  1
  Ho  Ho12  1  0.68181377  0.95140288  0.43294687  1
  Ho  Ho13  1  0.81818623  0.54859712  0.93294687  1
  Ho  Ho14  1  0.31818623  0.45140288  0.56705313  1
  Ho  Ho15  1  0.18181377  0.04859712  0.06705313  1
  Ho  Ho16  1  0.31818623  0.04859712  0.56705313  1
  Ho  Ho17  1  0.18181377  0.45140288  0.06705313  1
  Ho  Ho18  1  0.68181377  0.54859712  0.43294687  1
  Ho  Ho19  1  0.81818623  0.95140288  0.93294687  1
  Sb  Sb20  1  0.56549779  0.99200003  0.17346120  1
  Sb  Sb21  1  0.93450221  0.50799997  0.67346120  1
  Sb  Sb22  1  0.43450221  0.49200003  0.82653880  1
  Sb  Sb23  1  0.06549779  0.00799997  0.32653880  1
  Sb  Sb24  1  0.43450221  0.00799997  0.82653880  1
  Sb  Sb25  1  0.06549779  0.49200003  0.32653880  1
  Sb  Sb26  1  0.56549779  0.50799997  0.17346120  1
  Sb  Sb27  1  0.93450221  0.99200003  0.67346120  1
  Pd  Pd28  1  0.08505935  0.75000000  0.01632980  1
  Pd  Pd29  1  0.41494065  0.75000000  0.51632980  1
  Pd  Pd30  1  0.91494065  0.25000000  0.98367020  1
  Pd  Pd31  1  0.58505935  0.25000000  0.48367020  1
