# generated using pymatgen
data_MnFe2Pb8F24
_symmetry_space_group_name_H-M   'P 1'
_cell_length_a   5.73335725
_cell_length_b   9.56957641
_cell_length_c   20.27843221
_cell_angle_alpha   102.58833742
_cell_angle_beta   90.00000000
_cell_angle_gamma   90.00000000
_symmetry_Int_Tables_number   1
_chemical_formula_structural   MnFe2Pb8F24
_chemical_formula_sum   'Mn2 Fe4 Pb16 F48'
_cell_volume   1085.84696464
_cell_formula_units_Z   2
loop_
 _symmetry_equiv_pos_site_id
 _symmetry_equiv_pos_as_xyz
  1  'x, y, z'
loop_
 _atom_site_type_symbol
 _atom_site_label
 _atom_site_symmetry_multiplicity
 _atom_site_fract_x
 _atom_site_fract_y
 _atom_site_fract_z
 _atom_site_occupancy
  Mn  Mn0  1  0.50000000  0.50000000  0.50000000  1
  Mn  Mn1  1  0.00000000  0.00000000  -0.00000000  1
  Fe  Fe2  1  0.50177756  0.70210499  0.95294517  1
  Fe  Fe3  1  0.00177756  0.79789501  0.54705483  1
  Fe  Fe4  1  0.49822244  0.29789501  0.04705483  1
  Fe  Fe5  1  0.99822244  0.20210499  0.45294517  1
  Pb  Pb6  1  0.49992987  0.14761063  0.58845939  1
  Pb  Pb7  1  0.99992987  0.35238937  0.91154061  1
  Pb  Pb8  1  0.50007013  0.85238937  0.41154061  1
  Pb  Pb9  1  0.00007013  0.64761063  0.08845939  1
  Pb  Pb10  1  0.52955537  0.04398368  0.86862636  1
  Pb  Pb11  1  0.02955537  0.45601632  0.63137364  1
  Pb  Pb12  1  0.47044463  0.95601632  0.13137364  1
  Pb  Pb13  1  0.97044463  0.54398368  0.36862636  1
  Pb  Pb14  1  0.49802962  0.77708964  0.67933661  1
  Pb  Pb15  1  0.99802962  0.72291036  0.82066339  1
  Pb  Pb16  1  0.50197038  0.22291036  0.32066339  1
  Pb  Pb17  1  0.00197038  0.27708964  0.17933661  1
  Pb  Pb18  1  0.52845448  0.41708070  0.77429547  1
  Pb  Pb19  1  0.02845448  0.08291930  0.72570453  1
  Pb  Pb20  1  0.47154552  0.58291930  0.22570453  1
  Pb  Pb21  1  0.97154552  0.91708070  0.27429547  1
  F  F22  1  0.75840605  0.59953660  0.72459446  1
  F  F23  1  0.25840605  0.90046340  0.77540554  1
  F  F24  1  0.24159395  0.40046340  0.27540554  1
  F  F25  1  0.74159395  0.09953660  0.22459446  1
  F  F26  1  0.25607984  0.59651658  0.72853885  1
  F  F27  1  0.75607984  0.90348342  0.77146115  1
  F  F28  1  0.74392016  0.40348342  0.27146115  1
  F  F29  1  0.24392016  0.09651658  0.22853885  1
  F  F30  1  0.75200664  0.28800262  0.67902814  1
  F  F31  1  0.25200664  0.21199738  0.82097186  1
  F  F32  1  0.24799336  0.71199738  0.32097186  1
  F  F33  1  0.74799336  0.78800262  0.17902814  1
  F  F34  1  0.24002361  0.29248371  0.68367643  1
  F  F35  1  0.74002361  0.20751629  0.81632357  1
  F  F36  1  0.75997639  0.70751629  0.31632357  1
  F  F37  1  0.25997639  0.79248371  0.18367643  1
  F  F38  1  0.43673624  0.03400756  0.67938882  1
  F  F39  1  0.93673624  0.46599244  0.82061118  1
  F  F40  1  0.56326376  0.96599244  0.32061118  1
  F  F41  1  0.06326376  0.53400756  0.17938882  1
  F  F42  1  0.57410356  0.72288056  0.85977321  1
  F  F43  1  0.07410356  0.77711944  0.64022679  1
  F  F44  1  0.42589644  0.27711944  0.14022679  1
  F  F45  1  0.92589644  0.22288056  0.35977321  1
  F  F46  1  0.78626904  0.59111538  0.95752940  1
  F  F47  1  0.28626904  0.90888462  0.54247060  1
  F  F48  1  0.21373096  0.40888462  0.04247060  1
  F  F49  1  0.71373096  0.09111538  0.45752940  1
  F  F50  1  0.07406067  0.20786597  0.54713633  1
  F  F51  1  0.57406067  0.29213403  0.95286367  1
  F  F52  1  0.92593933  0.79213403  0.45286367  1
  F  F53  1  0.42593933  0.70786597  0.04713633  1
  F  F54  1  0.44254006  0.44968731  0.59455168  1
  F  F55  1  0.94254006  0.05031269  0.90544832  1
  F  F56  1  0.55745994  0.55031269  0.40544832  1
  F  F57  1  0.05745994  0.94968731  0.09455168  1
  F  F58  1  0.21753315  0.82085914  0.94728862  1
  F  F59  1  0.71753315  0.67914086  0.55271138  1
  F  F60  1  0.78246685  0.17914086  0.05271138  1
  F  F61  1  0.28246685  0.32085914  0.44728862  1
  F  F62  1  0.82111523  0.96639806  0.58910796  1
  F  F63  1  0.32111523  0.53360194  0.91089204  1
  F  F64  1  0.17888477  0.03360194  0.41089204  1
  F  F65  1  0.67888477  0.46639806  0.08910796  1
  F  F66  1  0.68248856  0.87864942  0.98556207  1
  F  F67  1  0.18248856  0.62135058  0.51443793  1
  F  F68  1  0.31751144  0.12135058  0.01443793  1
  F  F69  1  0.81751144  0.37864942  0.48556207  1
