# generated using pymatgen
data_Cs3HgBr5
_symmetry_space_group_name_H-M   'P 1'
_cell_length_a   9.62538100
_cell_length_b   11.42012623
_cell_length_c   14.53941246
_cell_angle_alpha   90.00000000
_cell_angle_beta   90.00000000
_cell_angle_gamma   90.00000000
_symmetry_Int_Tables_number   1
_chemical_formula_structural   Cs3HgBr5
_chemical_formula_sum   'Cs12 Hg4 Br20'
_cell_volume   1598.21679590
_cell_formula_units_Z   4
loop_
 _symmetry_equiv_pos_site_id
 _symmetry_equiv_pos_as_xyz
  1  'x, y, z'
loop_
 _atom_site_type_symbol
 _atom_site_label
 _atom_site_symmetry_multiplicity
 _atom_site_fract_x
 _atom_site_fract_y
 _atom_site_fract_z
 _atom_site_occupancy
  Cs  Cs0  1  0.91689115  0.25000000  0.05029083  1
  Cs  Cs1  1  0.41689115  0.25000000  0.44970917  1
  Cs  Cs2  1  0.08310885  0.75000000  0.94970917  1
  Cs  Cs3  1  0.58310885  0.75000000  0.55029083  1
  Cs  Cs4  1  0.91679262  0.02175067  0.33078444  1
  Cs  Cs5  1  0.41679262  0.47824933  0.16921556  1
  Cs  Cs6  1  0.08320738  0.52175067  0.66921556  1
  Cs  Cs7  1  0.58320738  0.97824933  0.83078444  1
  Cs  Cs8  1  0.08320738  0.97824933  0.66921556  1
  Cs  Cs9  1  0.58320738  0.52175067  0.83078444  1
  Cs  Cs10  1  0.91679262  0.47824933  0.33078444  1
  Cs  Cs11  1  0.41679262  0.02175067  0.16921556  1
  Hg  Hg12  1  0.80486624  0.25000000  0.61305452  1
  Hg  Hg13  1  0.30486624  0.25000000  0.88694548  1
  Hg  Hg14  1  0.19513376  0.75000000  0.38694548  1
  Hg  Hg15  1  0.69513376  0.75000000  0.11305452  1
  Br  Br16  1  0.66890884  0.25000000  0.26129395  1
  Br  Br17  1  0.16890884  0.25000000  0.23870605  1
  Br  Br18  1  0.33109116  0.75000000  0.73870605  1
  Br  Br19  1  0.83109116  0.75000000  0.76129395  1
  Br  Br20  1  0.68457677  0.05085088  0.56543961  1
  Br  Br21  1  0.18457677  0.44914912  0.93456039  1
  Br  Br22  1  0.31542323  0.55085088  0.43456039  1
  Br  Br23  1  0.81542323  0.94914912  0.06543961  1
  Br  Br24  1  0.31542323  0.94914912  0.43456039  1
  Br  Br25  1  0.81542323  0.55085088  0.06543961  1
  Br  Br26  1  0.68457677  0.44914912  0.56543961  1
  Br  Br27  1  0.18457677  0.05085088  0.93456039  1
  Br  Br28  1  0.54042547  0.25000000  0.98946609  1
  Br  Br29  1  0.04042547  0.25000000  0.51053391  1
  Br  Br30  1  0.45957453  0.75000000  0.01053391  1
  Br  Br31  1  0.95957453  0.75000000  0.48946609  1
  Br  Br32  1  0.87457955  0.25000000  0.78948218  1
  Br  Br33  1  0.37457955  0.25000000  0.71051782  1
  Br  Br34  1  0.12542045  0.75000000  0.21051782  1
  Br  Br35  1  0.62542045  0.75000000  0.28948218  1
