# generated using pymatgen
data_Lu15C19
_symmetry_space_group_name_H-M   'P 1'
_cell_length_a   7.92645506
_cell_length_b   7.92645506
_cell_length_c   15.17118461
_cell_angle_alpha   90.00000000
_cell_angle_beta   90.00000000
_cell_angle_gamma   90.00000000
_symmetry_Int_Tables_number   1
_chemical_formula_structural   Lu15C19
_chemical_formula_sum   'Lu30 C38'
_cell_volume   953.18565204
_cell_formula_units_Z   2
loop_
 _symmetry_equiv_pos_site_id
 _symmetry_equiv_pos_as_xyz
  1  'x, y, z'
loop_
 _atom_site_type_symbol
 _atom_site_label
 _atom_site_symmetry_multiplicity
 _atom_site_fract_x
 _atom_site_fract_y
 _atom_site_fract_z
 _atom_site_occupancy
  Lu  Lu0  1  0.70287362  0.90705511  0.49974211  1
  Lu  Lu1  1  0.20289209  0.59293829  0.00024102  1
  Lu  Lu2  1  0.29712638  0.09294489  0.49974211  1
  Lu  Lu3  1  0.79710791  0.40706171  0.00024102  1
  Lu  Lu4  1  0.90705511  0.29712638  0.50025789  1
  Lu  Lu5  1  0.59293829  0.79710791  0.99975898  1
  Lu  Lu6  1  0.09294489  0.70287362  0.50025789  1
  Lu  Lu7  1  0.40706171  0.20289209  0.99975898  1
  Lu  Lu8  1  0.78407078  0.59839273  0.64879104  1
  Lu  Lu9  1  0.28407533  0.90161008  0.85120976  1
  Lu  Lu10  1  0.21592922  0.40160727  0.64879104  1
  Lu  Lu11  1  0.71592467  0.09838992  0.85120976  1
  Lu  Lu12  1  0.59839273  0.21592922  0.35120896  1
  Lu  Lu13  1  0.90161008  0.71592467  0.14879024  1
  Lu  Lu14  1  0.40160727  0.78407078  0.35120896  1
  Lu  Lu15  1  0.09838992  0.28407533  0.14879024  1
  Lu  Lu16  1  0.59775777  0.21577451  0.64871184  1
  Lu  Lu17  1  0.09776967  0.28421444  0.85128602  1
  Lu  Lu18  1  0.40224223  0.78422549  0.64871184  1
  Lu  Lu19  1  0.90223033  0.71578556  0.85128602  1
  Lu  Lu20  1  0.21577451  0.40224223  0.35128816  1
  Lu  Lu21  1  0.28421444  0.90223033  0.14871398  1
  Lu  Lu22  1  0.78422549  0.59775777  0.35128816  1
  Lu  Lu23  1  0.71578556  0.09776967  0.14871398  1
  Lu  Lu24  1  -0.00000000  -0.00000000  0.33161869  1
  Lu  Lu25  1  0.50000000  0.50000000  0.16846572  1
  Lu  Lu26  1  -0.00000000  -0.00000000  0.66838131  1
  Lu  Lu27  1  0.50000000  0.50000000  0.83153428  1
  Lu  Lu28  1  0.50000000  0.50000000  0.50000000  1
  Lu  Lu29  1  -0.00000000  -0.00000000  0.00000000  1
  C  C30  1  0.60260527  0.19749953  0.49977040  1
  C  C31  1  0.10265337  0.30252011  0.00022375  1
  C  C32  1  0.39739473  0.80250047  0.49977040  1
  C  C33  1  0.89734663  0.69747989  0.00022375  1
  C  C34  1  0.19749953  0.39739473  0.50022960  1
  C  C35  1  0.30252011  0.89734663  0.99977625  1
  C  C36  1  0.80250047  0.60260527  0.50022960  1
  C  C37  1  0.69747989  0.10265337  0.99977625  1
  C  C38  1  0.69728290  0.90571179  0.66742792  1
  C  C39  1  0.19725501  0.59429843  0.83245934  1
  C  C40  1  0.30271710  0.09428821  0.66742792  1
  C  C41  1  0.80274499  0.40570157  0.83245934  1
  C  C42  1  0.90571179  0.30271710  0.33257208  1
  C  C43  1  0.59429843  0.80274499  0.16754066  1
  C  C44  1  0.09428821  0.69728290  0.33257208  1
  C  C45  1  0.40570157  0.19725501  0.16754066  1
  C  C46  1  0.65252796  0.85073742  0.74797047  1
  C  C47  1  0.15242643  0.64936939  0.75187881  1
  C  C48  1  0.34747204  0.14926258  0.74797047  1
  C  C49  1  0.84757357  0.35063061  0.75187881  1
  C  C50  1  0.85073742  0.34747204  0.25202953  1
  C  C51  1  0.64936939  0.84757357  0.24812119  1
  C  C52  1  0.14926258  0.65252796  0.25202953  1
  C  C53  1  0.35063061  0.15242643  0.24812119  1
  C  C54  1  0.90539094  0.30319580  0.67243520  1
  C  C55  1  0.40541495  0.19679494  0.82743745  1
  C  C56  1  0.09460906  0.69680420  0.67243520  1
  C  C57  1  0.59458505  0.80320506  0.82743745  1
  C  C58  1  0.30319580  0.09460906  0.32756480  1
  C  C59  1  0.19679494  0.59458505  0.17256255  1
  C  C60  1  0.69680420  0.90539094  0.32756480  1
  C  C61  1  0.80320506  0.40541495  0.17256255  1
  C  C62  1  0.50000000  0.50000000  0.66310994  1
  C  C63  1  -0.00000000  -0.00000000  0.83688553  1
  C  C64  1  0.50000000  0.50000000  0.33689006  1
  C  C65  1  -0.00000000  -0.00000000  0.16311447  1
  C  C66  1  0.50000000  0.50000000  0.00000000  1
  C  C67  1  -0.00000000  -0.00000000  0.50000000  1
