# generated using pymatgen
data_Dy5Pt4
_symmetry_space_group_name_H-M   'P 1'
_cell_length_a   7.47603587
_cell_length_b   7.54531947
_cell_length_c   14.95638946
_cell_angle_alpha   90.00000000
_cell_angle_beta   90.00000000
_cell_angle_gamma   90.00000000
_symmetry_Int_Tables_number   1
_chemical_formula_structural   Dy5Pt4
_chemical_formula_sum   'Dy20 Pt16'
_cell_volume   843.67615473
_cell_formula_units_Z   4
loop_
 _symmetry_equiv_pos_site_id
 _symmetry_equiv_pos_as_xyz
  1  'x, y, z'
loop_
 _atom_site_type_symbol
 _atom_site_label
 _atom_site_symmetry_multiplicity
 _atom_site_fract_x
 _atom_site_fract_y
 _atom_site_fract_z
 _atom_site_occupancy
  Dy  Dy0  1  0.37998905  0.83522163  0.88057765  1
  Dy  Dy1  1  0.87998905  0.66477837  0.61942235  1
  Dy  Dy2  1  0.62001095  0.16477837  0.38057765  1
  Dy  Dy3  1  0.12001095  0.33522163  0.11942235  1
  Dy  Dy4  1  0.62001095  0.16477837  0.11942235  1
  Dy  Dy5  1  0.12001095  0.33522163  0.38057765  1
  Dy  Dy6  1  0.37998905  0.83522163  0.61942235  1
  Dy  Dy7  1  0.87998905  0.66477837  0.88057765  1
  Dy  Dy8  1  0.53386654  0.32735708  0.90174825  1
  Dy  Dy9  1  0.03386654  0.17264292  0.59825175  1
  Dy  Dy10  1  0.46613346  0.67264292  0.40174825  1
  Dy  Dy11  1  0.96613346  0.82735708  0.09825175  1
  Dy  Dy12  1  0.46613346  0.67264292  0.09825175  1
  Dy  Dy13  1  0.96613346  0.82735708  0.40174825  1
  Dy  Dy14  1  0.53386654  0.32735708  0.59825175  1
  Dy  Dy15  1  0.03386654  0.17264292  0.90174825  1
  Dy  Dy16  1  0.21519574  0.49241612  0.75000000  1
  Dy  Dy17  1  0.71519574  0.00758388  0.75000000  1
  Dy  Dy18  1  0.78480426  0.50758388  0.25000000  1
  Dy  Dy19  1  0.28480426  0.99241612  0.25000000  1
  Pt  Pt20  1  0.28833196  0.02269576  0.04411428  1
  Pt  Pt21  1  0.78833196  0.47730424  0.45588572  1
  Pt  Pt22  1  0.71166804  0.97730424  0.54411428  1
  Pt  Pt23  1  0.21166804  0.52269576  0.95588572  1
  Pt  Pt24  1  0.71166804  0.97730424  0.95588572  1
  Pt  Pt25  1  0.21166804  0.52269576  0.54411428  1
  Pt  Pt26  1  0.28833196  0.02269576  0.45588572  1
  Pt  Pt27  1  0.78833196  0.47730424  0.04411428  1
  Pt  Pt28  1  0.58511935  0.61753357  0.75000000  1
  Pt  Pt29  1  0.08511935  0.88246643  0.75000000  1
  Pt  Pt30  1  0.41488065  0.38246643  0.25000000  1
  Pt  Pt31  1  0.91488065  0.11753357  0.25000000  1
  Pt  Pt32  1  0.35193983  0.14246134  0.75000000  1
  Pt  Pt33  1  0.85193983  0.35753866  0.75000000  1
  Pt  Pt34  1  0.64806017  0.85753866  0.25000000  1
  Pt  Pt35  1  0.14806017  0.64246134  0.25000000  1
