# generated using pymatgen
data_Cs2ZrCu3F12
_symmetry_space_group_name_H-M   'P 1'
_cell_length_a   7.25504059
_cell_length_b   7.90723942
_cell_length_c   10.42854700
_cell_angle_alpha   94.15013005
_cell_angle_beta   90.00000000
_cell_angle_gamma   90.00000000
_symmetry_Int_Tables_number   1
_chemical_formula_structural   Cs2ZrCu3F12
_chemical_formula_sum   'Cs4 Zr2 Cu6 F24'
_cell_volume   596.68930728
_cell_formula_units_Z   2
loop_
 _symmetry_equiv_pos_site_id
 _symmetry_equiv_pos_as_xyz
  1  'x, y, z'
loop_
 _atom_site_type_symbol
 _atom_site_label
 _atom_site_symmetry_multiplicity
 _atom_site_fract_x
 _atom_site_fract_y
 _atom_site_fract_z
 _atom_site_occupancy
  Cs  Cs0  1  0.25000000  0.98776872  0.85058152  1
  Cs  Cs1  1  0.75000000  0.01223128  0.14941848  1
  Cs  Cs2  1  0.25000000  0.44758687  0.62432019  1
  Cs  Cs3  1  0.75000000  0.55241313  0.37567981  1
  Zr  Zr4  1  0.75000000  0.70249363  0.76023016  1
  Zr  Zr5  1  0.25000000  0.29750637  0.23976984  1
  Cu  Cu6  1  0.75000000  0.21859481  0.77106581  1
  Cu  Cu7  1  0.25000000  0.78140519  0.22893419  1
  Cu  Cu8  1  0.50000000  0.50000000  -0.00000000  1
  Cu  Cu9  1  0.00000000  0.50000000  0.00000000  1
  Cu  Cu10  1  0.50000000  0.00000000  0.50000000  1
  Cu  Cu11  1  0.00000000  -0.00000000  0.50000000  1
  F  F12  1  0.55712622  0.29514665  0.89465305  1
  F  F13  1  0.05712622  0.70485335  0.10534695  1
  F  F14  1  0.44287378  0.70485335  0.10534695  1
  F  F15  1  0.94287378  0.29514665  0.89465305  1
  F  F16  1  0.54967480  0.14126839  0.65793081  1
  F  F17  1  0.04967480  0.85873161  0.34206919  1
  F  F18  1  0.45032520  0.85873161  0.34206919  1
  F  F19  1  0.95032520  0.14126839  0.65793081  1
  F  F20  1  0.75000000  0.46237398  0.67433379  1
  F  F21  1  0.25000000  0.53762602  0.32566621  1
  F  F22  1  0.75000000  0.93841351  0.85328306  1
  F  F23  1  0.25000000  0.06158649  0.14671694  1
  F  F24  1  0.75000000  0.59909011  0.96428531  1
  F  F25  1  0.25000000  0.40090989  0.03571469  1
  F  F26  1  0.48269762  0.64956461  0.82731202  1
  F  F27  1  0.98269762  0.35043539  0.17268798  1
  F  F28  1  0.51730238  0.35043539  0.17268798  1
  F  F29  1  0.01730238  0.64956461  0.82731202  1
  F  F30  1  0.75000000  0.01444168  0.43862948  1
  F  F31  1  0.25000000  0.98555832  0.56137052  1
  F  F32  1  0.42626113  0.23142438  0.38324628  1
  F  F33  1  0.92626113  0.76857562  0.61675372  1
  F  F34  1  0.57373887  0.76857562  0.61675372  1
  F  F35  1  0.07373887  0.23142438  0.38324628  1
