# generated using pymatgen
data_PW5O17
_symmetry_space_group_name_H-M   'P 1'
_cell_length_a   5.39058420
_cell_length_b   6.68320566
_cell_length_c   36.80496398
_cell_angle_alpha   90.00000000
_cell_angle_beta   90.00000000
_cell_angle_gamma   89.92306201
_symmetry_Int_Tables_number   1
_chemical_formula_structural   PW5O17
_chemical_formula_sum   'P4 W20 O68'
_cell_volume   1325.94852608
_cell_formula_units_Z   4
loop_
 _symmetry_equiv_pos_site_id
 _symmetry_equiv_pos_as_xyz
  1  'x, y, z'
loop_
 _atom_site_type_symbol
 _atom_site_label
 _atom_site_symmetry_multiplicity
 _atom_site_fract_x
 _atom_site_fract_y
 _atom_site_fract_z
 _atom_site_occupancy
  P  P0  1  0.00314610  0.55586023  0.70004204  1
  P  P1  1  0.99685390  0.44413977  0.20004204  1
  P  P2  1  0.47227869  0.05416475  0.76074569  1
  P  P3  1  0.52772131  0.94583525  0.26074569  1
  W  W4  1  0.49525273  0.24872009  0.67184632  1
  W  W5  1  0.50474727  0.75127991  0.17184632  1
  W  W6  1  0.98114121  0.74862410  0.78906343  1
  W  W7  1  0.01885879  0.25137590  0.28906343  1
  W  W8  1  -0.00001218  0.90953487  0.62943570  1
  W  W9  1  0.00001218  0.09046513  0.12943570  1
  W  W10  1  0.48043774  0.40838425  0.83117999  1
  W  W11  1  0.51956226  0.59161575  0.33117999  1
  W  W12  1  0.49913028  0.57748949  0.58560395  1
  W  W13  1  0.50086972  0.42251051  0.08560395  1
  W  W14  1  0.98732368  0.07890126  0.87515477  1
  W  W15  1  0.01267632  0.92109874  0.37515477  1
  W  W16  1  0.00586255  0.24377753  0.54330940  1
  W  W17  1  0.99413745  0.75622247  0.04330940  1
  W  W18  1  0.48665267  0.74448543  0.91691006  1
  W  W19  1  0.51334733  0.25551457  0.41691006  1
  W  W20  1  0.50743385  0.91298952  0.50063358  1
  W  W21  1  0.49256615  0.08701048  0.00063358  1
  W  W22  1  0.99064914  0.41794733  0.95927734  1
  W  W23  1  0.00935086  0.58205267  0.45927734  1
  O  O24  1  0.99226480  0.74350917  0.67581779  1
  O  O25  1  0.00773520  0.25649083  0.17581779  1
  O  O26  1  0.48594271  0.24481208  0.78410312  1
  O  O27  1  0.51405729  0.75518792  0.28410312  1
  O  O28  1  0.99249773  0.08074190  0.58991567  1
  O  O29  1  0.00750227  0.91925810  0.08991567  1
  O  O30  1  0.48079458  0.58011095  0.87079424  1
  O  O31  1  0.51920542  0.41988905  0.37079424  1
  O  O32  1  0.22114202  0.09980356  0.65686565  1
  O  O33  1  0.77885798  0.90019644  0.15686565  1
  O  O34  1  0.25109515  0.59461874  0.80339831  1
  O  O35  1  0.74890485  0.40538126  0.30339831  1
  O  O36  1  0.27787129  0.76715195  0.61351728  1
  O  O37  1  0.72212871  0.23284805  0.11351728  1
  O  O38  1  0.19988533  0.26551846  0.84685324  1
  O  O39  1  0.80011467  0.73448154  0.34685324  1
  O  O40  1  0.77601355  0.72732224  0.60862459  1
  O  O41  1  0.22398645  0.27267776  0.10862459  1
  O  O42  1  0.70236452  0.22718222  0.85209613  1
  O  O43  1  0.29763548  0.77281778  0.35209613  1
  O  O44  1  0.71931036  0.06264958  0.65325687  1
  O  O45  1  0.28068964  0.93735042  0.15325687  1
  O  O46  1  0.75311104  0.56389330  0.80757576  1
  O  O47  1  0.24688896  0.43610670  0.30757576  1
  O  O48  1  0.00134895  0.40995856  0.50322100  1
  O  O49  1  0.99865105  0.59004144  0.00322100  1
  O  O50  1  0.49137632  0.91640093  0.95884313  1
  O  O51  1  0.50862368  0.08359907  0.45884313  1
  O  O52  1  0.79007212  0.05554616  0.52136527  1
  O  O53  1  0.20992788  0.94445384  0.02136527  1
  O  O54  1  0.69425376  0.56058144  0.93946331  1
  O  O55  1  0.30574624  0.43941856  0.43946331  1
  O  O56  1  0.21590092  0.43506223  0.57029913  1
  O  O57  1  0.78409908  0.56493777  0.07029913  1
  O  O58  1  0.26985078  0.93664176  0.89072614  1
  O  O59  1  0.73014922  0.06335824  0.39072614  1
  O  O60  1  0.71681876  0.39244831  0.56453819  1
  O  O61  1  0.28318124  0.60755169  0.06453819  1
  O  O62  1  0.76656868  0.89344068  0.89615059  1
  O  O63  1  0.23343132  0.10655932  0.39615059  1
  O  O64  1  0.28909130  0.10153094  0.52744747  1
  O  O65  1  0.71090870  0.89846906  0.02744747  1
  O  O66  1  0.19605470  0.60822377  0.93379207  1
  O  O67  1  0.80394530  0.39177623  0.43379207  1
  O  O68  1  0.50110251  0.74994000  0.54613394  1
  O  O69  1  0.49889749  0.25006000  0.04613394  1
  O  O70  1  0.98392633  0.24655746  0.91489918  1
  O  O71  1  0.01607367  0.75344254  0.41489918  1
  O  O72  1  0.21891254  0.76995627  0.48417479  1
  O  O73  1  0.78108746  0.23004373  0.98417479  1
  O  O74  1  0.28607543  0.27412178  0.97813316  1
  O  O75  1  0.71392457  0.72587822  0.47813316  1
  O  O76  1  0.49814726  0.41172417  0.63135302  1
  O  O77  1  0.50185274  0.58827583  0.13135302  1
  O  O78  1  0.98069818  0.90903650  0.82980112  1
  O  O79  1  0.01930182  0.09096350  0.32980112  1
  O  O80  1  0.78687435  0.41261934  0.69153460  1
  O  O81  1  0.21312565  0.58738066  0.19153460  1
  O  O82  1  0.68834440  0.91212740  0.76963228  1
  O  O83  1  0.31165560  0.08787260  0.26963228  1
  O  O84  1  0.97624513  0.62198657  0.73990227  1
  O  O85  1  0.02375487  0.37801343  0.23990227  1
  O  O86  1  0.49585059  0.11441911  0.72029419  1
  O  O87  1  0.50414941  0.88558089  0.22029419  1
  O  O88  1  0.25666322  0.45105686  0.69562997  1
  O  O89  1  0.74333678  0.54894314  0.19562997  1
  O  O90  1  0.21961407  0.95040279  0.76564427  1
  O  O91  1  0.78038593  0.04959721  0.26564427  1
