# generated using pymatgen
data_TaVO5
_symmetry_space_group_name_H-M   'P 1'
_cell_length_a   5.58378355
_cell_length_b   13.92423145
_cell_length_c   13.97405541
_cell_angle_alpha   119.51715316
_cell_angle_beta   90.00000000
_cell_angle_gamma   90.00000000
_symmetry_Int_Tables_number   1
_chemical_formula_structural   TaVO5
_chemical_formula_sum   'Ta8 V8 O40'
_cell_volume   945.46500478
_cell_formula_units_Z   8
loop_
 _symmetry_equiv_pos_site_id
 _symmetry_equiv_pos_as_xyz
  1  'x, y, z'
loop_
 _atom_site_type_symbol
 _atom_site_label
 _atom_site_symmetry_multiplicity
 _atom_site_fract_x
 _atom_site_fract_y
 _atom_site_fract_z
 _atom_site_occupancy
  Ta  Ta0  1  0.24574572  0.64244394  0.20262687  1
  Ta  Ta1  1  0.74574572  0.85755606  0.29737313  1
  Ta  Ta2  1  0.75425428  0.35755606  0.79737313  1
  Ta  Ta3  1  0.25425428  0.14244394  0.70262687  1
  Ta  Ta4  1  0.24415197  0.29940938  0.35665506  1
  Ta  Ta5  1  0.74415197  0.20059062  0.14334494  1
  Ta  Ta6  1  0.75584803  0.70059062  0.64334494  1
  Ta  Ta7  1  0.25584803  0.79940938  0.85665506  1
  V  V8  1  0.26283579  0.59373752  0.44048932  1
  V  V9  1  0.76283579  0.90626248  0.05951068  1
  V  V10  1  0.73716421  0.40626248  0.55951068  1
  V  V11  1  0.23716421  0.09373752  0.94048932  1
  V  V12  1  0.23781656  0.06242463  0.40863689  1
  V  V13  1  0.73781656  0.43757537  0.09136311  1
  V  V14  1  0.76218344  0.93757537  0.59136311  1
  V  V15  1  0.26218344  0.56242463  0.90863689  1
  O  O16  1  0.52498538  0.26017452  0.26483524  1
  O  O17  1  0.02498538  0.23982548  0.23516476  1
  O  O18  1  0.47501462  0.73982548  0.73516476  1
  O  O19  1  0.97501462  0.76017452  0.76483524  1
  O  O20  1  0.02139794  0.76199354  0.25398195  1
  O  O21  1  0.52139794  0.73800646  0.24601805  1
  O  O22  1  0.97860206  0.23800646  0.74601805  1
  O  O23  1  0.47860206  0.26199354  0.75398195  1
  O  O24  1  0.46411016  0.37148290  0.49431669  1
  O  O25  1  0.96411016  0.12851710  0.00568331  1
  O  O26  1  0.53588984  0.62851710  0.50568331  1
  O  O27  1  0.03588984  0.87148290  0.99431669  1
  O  O28  1  0.96232000  0.34489991  0.46448276  1
  O  O29  1  0.46232000  0.15510009  0.03551724  1
  O  O30  1  0.03768000  0.65510009  0.53551724  1
  O  O31  1  0.53768000  0.84489991  0.96448276  1
  O  O32  1  0.97106678  0.52994881  0.14818211  1
  O  O33  1  0.47106678  0.97005119  0.35181789  1
  O  O34  1  0.02893322  0.47005119  0.85181789  1
  O  O35  1  0.52893322  0.02994881  0.64818211  1
  O  O36  1  0.46988810  0.50630859  0.13623706  1
  O  O37  1  0.96988810  0.99369141  0.36376294  1
  O  O38  1  0.53011190  0.49369141  0.86376294  1
  O  O39  1  0.03011190  0.00630859  0.63623706  1
  O  O40  1  0.25670252  0.16368388  0.36788713  1
  O  O41  1  0.75670252  0.33631612  0.13211287  1
  O  O42  1  0.74329748  0.83631612  0.63211287  1
  O  O43  1  0.24329748  0.66368388  0.86788713  1
  O  O44  1  0.24498925  0.63587643  0.34070343  1
  O  O45  1  0.74498925  0.86412357  0.15929657  1
  O  O46  1  0.75501075  0.36412357  0.65929657  1
  O  O47  1  0.25501075  0.13587643  0.84070343  1
  O  O48  1  0.24835774  0.62587756  0.05160413  1
  O  O49  1  0.74835774  0.87412244  0.44839587  1
  O  O50  1  0.75164226  0.37412244  0.94839587  1
  O  O51  1  0.25164226  0.12587756  0.55160413  1
  O  O52  1  0.22425466  0.45063473  0.37503746  1
  O  O53  1  0.72425466  0.04936527  0.12496254  1
  O  O54  1  0.77574534  0.54936527  0.62496254  1
  O  O55  1  0.27574534  0.95063473  0.87503746  1
