# generated using pymatgen
data_Al(BH4)3
_symmetry_space_group_name_H-M   'P 1'
_cell_length_a   6.24247443
_cell_length_b   12.03473919
_cell_length_c   21.45100259
_cell_angle_alpha   79.50192308
_cell_angle_beta   81.63345301
_cell_angle_gamma   74.96836923
_symmetry_Int_Tables_number   1
_chemical_formula_structural   Al(BH4)3
_chemical_formula_sum   'Al4 B12 H48'
_cell_volume   1522.13196910
_cell_formula_units_Z   4
loop_
 _symmetry_equiv_pos_site_id
 _symmetry_equiv_pos_as_xyz
  1  'x, y, z'
loop_
 _atom_site_type_symbol
 _atom_site_label
 _atom_site_symmetry_multiplicity
 _atom_site_fract_x
 _atom_site_fract_y
 _atom_site_fract_z
 _atom_site_occupancy
  Al  Al0  1  0.21572520  0.42260890  0.33630534  1
  Al  Al1  1  0.97463944  0.07739110  0.16369466  1
  Al  Al2  1  0.78427480  0.57739110  0.66369466  1
  Al  Al3  1  0.02536056  0.92260890  0.83630534  1
  B  B4  1  0.99534380  0.31907802  0.32407118  1
  B  B5  1  0.63849301  0.18092198  0.17592882  1
  B  B6  1  0.00465620  0.68092198  0.67592882  1
  B  B7  1  0.36150699  0.81907802  0.82407118  1
  B  B8  1  0.36202509  0.52292042  0.25642011  1
  B  B9  1  0.14136562  0.97707958  0.24357989  1
  B  B10  1  0.63797491  0.47707958  0.74357989  1
  B  B11  1  0.85863438  0.02292042  0.75642011  1
  B  B12  1  0.30044255  0.42957599  0.42852465  1
  B  B13  1  0.15854319  0.07042401  0.07147535  1
  B  B14  1  0.69955745  0.57042401  0.57147535  1
  B  B15  1  0.84145681  0.92957599  0.92852465  1
  H  H16  1  0.93119141  0.41702470  0.34380973  1
  H  H17  1  0.69202584  0.08297530  0.15619027  1
  H  H18  1  0.06880859  0.58297530  0.65619027  1
  H  H19  1  0.30797416  0.91702470  0.84380973  1
  H  H20  1  0.20623746  0.28943523  0.31313775  1
  H  H21  1  0.80881044  0.21056477  0.18686225  1
  H  H22  1  0.79376254  0.71056477  0.68686225  1
  H  H23  1  0.19118956  0.78943523  0.81313775  1
  H  H24  1  0.94411883  0.24845100  0.36698808  1
  H  H25  1  0.55955790  0.25154900  0.13301192  1
  H  H26  1  0.05588117  0.75154900  0.63301192  1
  H  H27  1  0.44044210  0.74845100  0.86698808  1
  H  H28  1  0.92301768  0.33226467  0.27364974  1
  H  H29  1  0.52893209  0.16773533  0.22635026  1
  H  H30  1  0.07698232  0.66773533  0.72635026  1
  H  H31  1  0.47106791  0.83226467  0.77364974  1
  H  H32  1  0.15955774  0.55156066  0.28005075  1
  H  H33  1  0.99116915  0.94843934  0.21994925  1
  H  H34  1  0.84044226  0.44843934  0.71994925  1
  H  H35  1  0.00883085  0.05156066  0.78005075  1
  H  H36  1  0.45899929  0.42229672  0.28252636  1
  H  H37  1  0.16382237  0.07770328  0.21747364  1
  H  H38  1  0.54100071  0.57770328  0.71747364  1
  H  H39  1  0.83617763  0.92229672  0.78252636  1
  H  H40  1  0.35537013  0.51387410  0.20221825  1
  H  H41  1  0.07146248  0.98612590  0.29778175  1
  H  H42  1  0.64462987  0.48612590  0.79778175  1
  H  H43  1  0.92853752  0.01387410  0.70221825  1
  H  H44  1  0.45475555  0.59097866  0.26892990  1
  H  H45  1  0.31466411  0.90902134  0.23107010  1
  H  H46  1  0.54524445  0.40902134  0.73107010  1
  H  H47  1  0.68533589  0.09097866  0.76892990  1
  H  H48  1  0.37900101  0.34383258  0.39805836  1
  H  H49  1  0.12089195  0.15616742  0.10194164  1
  H  H50  1  0.62099899  0.65616742  0.60194164  1
  H  H51  1  0.87910805  0.84383258  0.89805836  1
  H  H52  1  0.15162044  0.50642495  0.39941621  1
  H  H53  1  0.05746160  0.99357505  0.10058379  1
  H  H54  1  0.84837956  0.49357505  0.60058379  1
  H  H55  1  0.94253840  0.00642495  0.89941621  1
  H  H56  1  0.20622751  0.39170310  0.47715804  1
  H  H57  1  0.07508865  0.10829690  0.02284196  1
  H  H58  1  0.79377249  0.60829690  0.52284196  1
  H  H59  1  0.92491135  0.89170310  0.97715804  1
  H  H60  1  0.45113917  0.47429266  0.42952984  1
  H  H61  1  0.35496168  0.02570734  0.07047016  1
  H  H62  1  0.54886083  0.52570734  0.57047016  1
  H  H63  1  0.64503832  0.97429266  0.92952984  1
