# generated using pymatgen
data_Nb27N37O3
_symmetry_space_group_name_H-M   'P 1'
_cell_length_a   4.23855129
_cell_length_b   5.39534261
_cell_length_c   42.99545752
_cell_angle_alpha   79.09716878
_cell_angle_beta   66.86643926
_cell_angle_gamma   67.00695207
_symmetry_Int_Tables_number   1
_chemical_formula_structural   Nb27N37O3
_chemical_formula_sum   'Nb27 N37 O3'
_cell_volume   831.60362348
_cell_formula_units_Z   1
loop_
 _symmetry_equiv_pos_site_id
 _symmetry_equiv_pos_as_xyz
  1  'x, y, z'
loop_
 _atom_site_type_symbol
 _atom_site_label
 _atom_site_symmetry_multiplicity
 _atom_site_fract_x
 _atom_site_fract_y
 _atom_site_fract_z
 _atom_site_occupancy
  Nb  Nb0  1  0.01919979  0.02121524  0.11796909  1
  Nb  Nb1  1  0.60305079  0.57548673  0.02737296  1
  Nb  Nb2  1  0.01735742  0.00361726  0.37026795  1
  Nb  Nb3  1  0.43700541  0.35531256  0.22093182  1
  Nb  Nb4  1  0.61593041  0.58118348  0.14710557  1
  Nb  Nb5  1  0.78740829  0.87286543  0.06932070  1
  Nb  Nb6  1  0.39441111  0.40646426  0.35044896  1
  Nb  Nb7  1  0.58462395  0.60746608  0.27775415  1
  Nb  Nb8  1  0.78942365  0.79397711  0.20361193  1
  Nb  Nb9  1  0.37453193  0.38754260  0.48257630  1
  Nb  Nb10  1  0.61086646  0.54921732  0.40366546  1
  Nb  Nb11  1  0.78453464  0.87598900  0.31936356  1
  Nb  Nb12  1  0.20351170  0.19244422  0.67497116  1
  Nb  Nb13  1  0.38720954  0.39563076  0.60334735  1
  Nb  Nb14  1  0.59975569  0.57145965  0.52857810  1
  Nb  Nb15  1  0.78029707  0.82496528  0.45205388  1
  Nb  Nb16  1  0.39898312  0.33467038  0.73326323  1
  Nb  Nb17  1  0.58716674  0.64668910  0.64736177  1
  Nb  Nb18  1  0.80171752  0.83547412  0.57063968  1
  Nb  Nb19  1  0.18949347  0.19761345  0.92793797  1
  Nb  Nb20  1  0.39124416  0.39248765  0.85282302  1
  Nb  Nb21  1  0.60484460  0.58039535  0.77632126  1
  Nb  Nb22  1  0.81239132  0.79647739  0.69742863  1
  Nb  Nb23  1  0.41141720  0.32158862  0.98194345  1
  Nb  Nb24  1  0.58481402  0.65269073  0.89721836  1
  Nb  Nb25  1  0.81089967  0.83158545  0.81875162  1
  Nb  Nb26  1  0.81384456  0.79298127  0.94757239  1
  N  N27  1  0.52446229  0.96785683  0.99821405  1
  N  N28  1  0.30332279  0.81128936  0.07294520  1
  N  N29  1  0.54078169  0.95338797  0.12088801  1
  N  N30  1  0.69095513  0.22129931  0.04989148  1
  N  N31  1  0.34094195  0.74523619  0.19674619  1
  N  N32  1  0.52712671  0.98534990  0.24504664  1
  N  N33  1  0.69893546  0.19461701  0.17590338  1
  N  N34  1  0.88381480  0.39304659  0.10516513  1
  N  N35  1  0.09703036  0.61158260  0.39931273  1
  N  N36  1  0.29431435  0.82338537  0.32345052  1
  N  N37  1  0.51933540  0.98620841  0.37195218  1
  N  N38  1  0.68293819  0.23269876  0.29995792  1
  N  N39  1  0.87613957  0.41836918  0.22859846  1
  N  N40  1  0.09143945  0.60642807  0.52633505  1
  N  N41  1  0.33416636  0.74222261  0.44863951  1
  N  N42  1  0.52349172  0.99512098  0.49475418  1
  N  N43  1  0.71103089  0.18764742  0.42376538  1
  N  N44  1  0.88309331  0.42782179  0.35063635  1
  N  N45  1  0.09451004  0.61430823  0.64950970  1
  N  N46  1  0.31292327  0.78628878  0.57357603  1
  N  N47  1  0.49620793  0.01135518  0.62461612  1
  N  N48  1  0.67453396  0.22120885  0.55346488  1
  N  N49  1  0.87096558  0.43167332  0.47805048  1
  N  N50  1  0.09681251  0.59849439  0.77600717  1
  N  N51  1  0.31272672  0.78000490  0.69937713  1
  N  N52  1  0.52535619  0.97222858  0.74724909  1
  N  N53  1  0.67504984  0.21969785  0.67868286  1
  N  N54  1  0.87403520  0.44409709  0.60093990  1
  N  N55  1  0.09657677  0.61044804  0.89948582  1
  N  N56  1  0.32355576  0.77799981  0.82200570  1
  N  N57  1  0.49351769  0.01289404  0.87507536  1
  N  N58  1  0.67292537  0.21770963  0.80434952  1
  N  N59  1  0.89819605  0.40200755  0.72516663  1
  N  N60  1  0.31198914  0.77873674  0.94981622  1
  N  N61  1  0.67643247  0.21791895  0.92865133  1
  N  N62  1  0.86960756  0.44887264  0.85140840  1
  N  N63  1  0.89210505  0.40048907  0.97697486  1
  O  O64  1  0.09781724  0.59265283  0.02659988  1
  O  O65  1  0.08102514  0.63178525  0.15074194  1
  O  O66  1  0.09187585  0.61406947  0.27519830  1
