# generated using pymatgen
data_Cs2Mo5(P3O11)3
_symmetry_space_group_name_H-M   'P 1'
_cell_length_a   6.59940817
_cell_length_b   14.78869960
_cell_length_c   16.01305259
_cell_angle_alpha   90.13795494
_cell_angle_beta   98.14048522
_cell_angle_gamma   90.72223054
_symmetry_Int_Tables_number   1
_chemical_formula_structural   Cs2Mo5(P3O11)3
_chemical_formula_sum   'Cs4 Mo10 P18 O66'
_cell_volume   1546.93652745
_cell_formula_units_Z   2
loop_
 _symmetry_equiv_pos_site_id
 _symmetry_equiv_pos_as_xyz
  1  'x, y, z'
loop_
 _atom_site_type_symbol
 _atom_site_label
 _atom_site_symmetry_multiplicity
 _atom_site_fract_x
 _atom_site_fract_y
 _atom_site_fract_z
 _atom_site_occupancy
  Cs  Cs0  1  0.36636198  0.24074789  0.44252013  1
  Cs  Cs1  1  0.63363802  0.75925211  0.55747987  1
  Cs  Cs2  1  -0.00000000  0.50000000  0.00000000  1
  Cs  Cs3  1  -0.00000000  0.00000000  0.00000000  1
  Mo  Mo4  1  0.87631331  0.37171754  0.59437376  1
  Mo  Mo5  1  0.12368669  0.62828246  0.40562624  1
  Mo  Mo6  1  0.47354868  0.38524052  0.86065714  1
  Mo  Mo7  1  0.52645132  0.61475948  0.13934286  1
  Mo  Mo8  1  0.86577603  0.11434968  0.60337594  1
  Mo  Mo9  1  0.13422397  0.88565032  0.39662406  1
  Mo  Mo10  1  0.47318573  0.13029879  0.87250754  1
  Mo  Mo11  1  0.52681427  0.86970121  0.12749246  1
  Mo  Mo12  1  0.82173794  0.25597981  0.23367200  1
  Mo  Mo13  1  0.17826206  0.74402019  0.76632800  1
  P  P14  1  0.95949750  0.35944351  0.80963067  1
  P  P15  1  0.04050250  0.64055649  0.19036933  1
  P  P16  1  0.37380992  0.08122158  0.65227742  1
  P  P17  1  0.62619008  0.91877842  0.34772258  1
  P  P18  1  0.95898126  0.14940789  0.81793926  1
  P  P19  1  0.04101874  0.85059211  0.18206074  1
  P  P20  1  0.87683081  0.08365880  0.38974387  1
  P  P21  1  0.12316919  0.91634120  0.61025613  1
  P  P22  1  0.38124454  0.40909835  0.63772019  1
  P  P23  1  0.61875546  0.59090165  0.36227981  1
  P  P24  1  0.87857271  0.42627916  0.39051459  1
  P  P25  1  0.12142729  0.57372084  0.60948541  1
  P  P26  1  0.33231083  0.24801366  0.18212243  1
  P  P27  1  0.66768917  0.75198634  0.81787757  1
  P  P28  1  0.54078595  0.10922705  0.09755411  1
  P  P29  1  0.45921405  0.89077295  0.90244589  1
  P  P30  1  0.46275709  0.61341695  0.91012753  1
  P  P31  1  0.53724291  0.38658305  0.08987247  1
  O  O32  1  0.93807073  0.50934133  0.58500437  1
  O  O33  1  0.06192927  0.49065867  0.41499563  1
  O  O34  1  0.83779092  0.36610634  0.46470868  1
  O  O35  1  0.16220908  0.63389366  0.53529132  1
  O  O36  1  0.19372398  0.35520948  0.59615045  1
  O  O37  1  0.80627602  0.64479052  0.40384955  1
  O  O38  1  0.55672357  0.39424425  0.58708090  1
  O  O39  1  0.44327643  0.60575575  0.41291910  1
  O  O40  1  0.91296080  0.39770236  0.72149452  1
  O  O41  1  0.08703920  0.60229764  0.27850548  1
  O  O42  1  0.83875708  0.24347195  0.60348686  1
  O  O43  1  0.16124292  0.75652805  0.39651314  1
  O  O44  1  0.79204924  0.37565110  0.86424691  1
  O  O45  1  0.20795076  0.62434890  0.13575309  1
  O  O46  1  0.50975861  0.52473661  0.86702934  1
  O  O47  1  0.49024139  0.47526339  0.13297066  1
  O  O48  1  0.15905555  0.39683314  0.85870494  1
  O  O49  1  0.84094445  0.60316686  0.14129506  1
  O  O50  1  0.51491093  0.39531878  0.99458036  1
  O  O51  1  0.48508907  0.60468122  0.00541964  1
  O  O52  1  0.45706241  0.25729885  0.86274400  1
  O  O53  1  0.54293759  0.74270115  0.13725600  1
  O  O54  1  0.43715391  0.38928433  0.73159293  1
  O  O55  1  0.56284609  0.61071567  0.26840707  1
  O  O56  1  0.18632815  0.12816872  0.60358082  1
  O  O57  1  0.81367185  0.87183128  0.39641918  1
  O  O58  1  0.80777427  0.11476231  0.47192134  1
  O  O59  1  0.19222573  0.88523769  0.52807866  1
  O  O60  1  0.55288275  0.08859586  0.60049268  1
  O  O61  1  0.44711725  0.91140414  0.39950732  1
  O  O62  1  0.91549131  0.10056169  0.73440169  1
  O  O63  1  0.08450869  0.89943831  0.26559831  1
  O  O64  1  0.93337623  0.97668608  0.59813657  1
  O  O65  1  0.06662377  0.02331392  0.40186343  1
  O  O66  1  0.49764362  0.99223607  0.89445754  1
  O  O67  1  0.50235638  0.00776393  0.10554246  1
  O  O68  1  0.78970321  0.13756109  0.87344925  1
  O  O69  1  0.21029679  0.86243891  0.12655075  1
  O  O70  1  0.43289545  0.11358428  0.74244082  1
  O  O71  1  0.56710455  0.88641572  0.25755918  1
  O  O72  1  0.15811722  0.11962606  0.87191392  1
  O  O73  1  0.84188278  0.88037394  0.12808608  1
  O  O74  1  0.51946167  0.13977955  0.00612322  1
  O  O75  1  0.48053833  0.86022045  0.99387678  1
  O  O76  1  0.90827472  0.16413006  0.33462593  1
  O  O77  1  0.09172528  0.83586994  0.66537407  1
  O  O78  1  0.50781686  0.26046332  0.25353088  1
  O  O79  1  0.49218314  0.73953668  0.74646912  1
  O  O80  1  0.90485206  0.36969051  0.31436442  1
  O  O81  1  0.09514794  0.63030949  0.68563558  1
  O  O82  1  0.12717505  0.25349660  0.20907281  1
  O  O83  1  0.87282495  0.74650340  0.79092719  1
  O  O84  1  0.73617682  0.14260510  0.15046976  1
  O  O85  1  0.26382318  0.85739490  0.84953024  1
  O  O86  1  0.26191332  0.65498459  0.87181579  1
  O  O87  1  0.73808668  0.34501541  0.12818421  1
  O  O88  1  0.31572245  0.97513950  0.65847507  1
  O  O89  1  0.68427755  0.02486050  0.34152493  1
  O  O90  1  0.34791769  0.31919846  0.10760292  1
  O  O91  1  0.65208231  0.68080154  0.89239708  1
  O  O92  1  0.98737550  0.25360563  0.79609758  1
  O  O93  1  0.01262450  0.74639437  0.20390242  1
  O  O94  1  0.34431989  0.15194397  0.13642043  1
  O  O95  1  0.65568011  0.84805603  0.86357957  1
  O  O96  1  0.32885662  0.51568225  0.63165311  1
  O  O97  1  0.67114338  0.48431775  0.36834689  1
