# generated using pymatgen
data_BiH14C4N8Cl5O2
_symmetry_space_group_name_H-M   'P 1'
_cell_length_a   7.86906566
_cell_length_b   11.02947980
_cell_length_c   21.08326907
_cell_angle_alpha   90.00000000
_cell_angle_beta   90.00000000
_cell_angle_gamma   90.00000000
_symmetry_Int_Tables_number   1
_chemical_formula_structural   BiH14C4N8Cl5O2
_chemical_formula_sum   'Bi4 H56 C16 N32 Cl20 O8'
_cell_volume   1829.85277978
_cell_formula_units_Z   4
loop_
 _symmetry_equiv_pos_site_id
 _symmetry_equiv_pos_as_xyz
  1  'x, y, z'
loop_
 _atom_site_type_symbol
 _atom_site_label
 _atom_site_symmetry_multiplicity
 _atom_site_fract_x
 _atom_site_fract_y
 _atom_site_fract_z
 _atom_site_occupancy
  Bi  Bi0  1  0.85554036  0.07345310  0.75000000  1
  Bi  Bi1  1  0.35554036  0.42654690  0.75000000  1
  Bi  Bi2  1  0.14445964  0.92654690  0.25000000  1
  Bi  Bi3  1  0.64445964  0.57345310  0.25000000  1
  H  H4  1  0.32877043  0.22134340  0.59171933  1
  H  H5  1  0.82877043  0.27865660  0.90828067  1
  H  H6  1  0.67122957  0.77865660  0.09171933  1
  H  H7  1  0.17122957  0.72134340  0.40828067  1
  H  H8  1  0.67122957  0.77865660  0.40828067  1
  H  H9  1  0.17122957  0.72134340  0.09171933  1
  H  H10  1  0.32877043  0.22134340  0.90828067  1
  H  H11  1  0.82877043  0.27865660  0.59171933  1
  H  H12  1  0.41833147  0.13891970  0.65260425  1
  H  H13  1  0.91833147  0.36108030  0.84739575  1
  H  H14  1  0.58166853  0.86108030  0.15260425  1
  H  H15  1  0.08166853  0.63891970  0.34739575  1
  H  H16  1  0.58166853  0.86108030  0.34739575  1
  H  H17  1  0.08166853  0.63891970  0.15260425  1
  H  H18  1  0.41833147  0.13891970  0.84739575  1
  H  H19  1  0.91833147  0.36108030  0.65260425  1
  H  H20  1  0.45833589  0.94402924  0.64935685  1
  H  H21  1  0.95833589  0.55597076  0.85064315  1
  H  H22  1  0.54166411  0.05597076  0.14935685  1
  H  H23  1  0.04166411  0.44402924  0.35064315  1
  H  H24  1  0.54166411  0.05597076  0.35064315  1
  H  H25  1  0.04166411  0.44402924  0.14935685  1
  H  H26  1  0.45833589  0.94402924  0.85064315  1
  H  H27  1  0.95833589  0.55597076  0.64935685  1
  H  H28  1  0.30214693  0.70278849  0.51515032  1
  H  H29  1  0.80214693  0.79721151  0.98484968  1
  H  H30  1  0.69785307  0.29721151  0.01515032  1
  H  H31  1  0.19785307  0.20278849  0.48484968  1
  H  H32  1  0.69785307  0.29721151  0.48484968  1
  H  H33  1  0.19785307  0.20278849  0.01515032  1
  H  H34  1  0.30214693  0.70278849  0.98484968  1
  H  H35  1  0.80214693  0.79721151  0.51515032  1
  H  H36  1  0.27714174  0.86371478  0.50415357  1
  H  H37  1  0.77714174  0.63628522  0.99584643  1
  H  H38  1  0.72285826  0.13628522  0.00415357  1
  H  H39  1  0.22285826  0.36371478  0.49584643  1
  H  H40  1  0.72285826  0.13628522  0.49584643  1
  H  H41  1  0.22285826  0.36371478  0.00415357  1
  H  H42  1  0.27714174  0.86371478  0.99584643  1
  H  H43  1  0.77714174  0.63628522  0.50415357  1
  H  H44  1  0.42734636  0.63943576  0.61609646  1
  H  H45  1  0.92734636  0.86056424  0.88390354  1
  H  H46  1  0.57265364  0.36056424  0.11609646  1
  H  H47  1  0.07265364  0.13943576  0.38390354  1
  H  H48  1  0.57265364  0.36056424  0.38390354  1
  H  H49  1  0.07265364  0.13943576  0.11609646  1
  H  H50  1  0.42734636  0.63943576  0.88390354  1
  H  H51  1  0.92734636  0.86056424  0.61609646  1
  H  H52  1  0.49663697  0.75173550  0.66769334  1
  H  H53  1  0.99663697  0.74826450  0.83230666  1
  H  H54  1  0.50336303  0.24826450  0.16769334  1
  H  H55  1  0.00336303  0.25173550  0.33230666  1
  H  H56  1  0.50336303  0.24826450  0.33230666  1
  H  H57  1  0.00336303  0.25173550  0.16769334  1
  H  H58  1  0.49663697  0.75173550  0.83230666  1
  H  H59  1  0.99663697  0.74826450  0.66769334  1
  C  C60  1  0.34320395  0.03776575  0.57448693  1
  C  C61  1  0.84320395  0.46223425  0.92551307  1
  C  C62  1  0.65679605  0.96223425  0.07448693  1
  C  C63  1  0.15679605  0.53776575  0.42551307  1
  C  C64  1  0.65679605  0.96223425  0.42551307  1
  C  C65  1  0.15679605  0.53776575  0.07448693  1
  C  C66  1  0.34320395  0.03776575  0.92551307  1
  C  C67  1  0.84320395  0.46223425  0.57448693  1
  C  C68  1  0.38926334  0.81557244  0.58578365  1
  C  C69  1  0.88926334  0.68442756  0.91421635  1
  C  C70  1  0.61073666  0.18442756  0.08578365  1
  C  C71  1  0.11073666  0.31557244  0.41421635  1
  C  C72  1  0.61073666  0.18442756  0.41421635  1
  C  C73  1  0.11073666  0.31557244  0.08578365  1
  C  C74  1  0.38926334  0.81557244  0.91421635  1
  C  C75  1  0.88926334  0.68442756  0.58578365  1
  N  N76  1  0.36957517  0.13943995  0.60775233  1
  N  N77  1  0.86957517  0.36056005  0.89224767  1
  N  N78  1  0.63042483  0.86056005  0.10775233  1
  N  N79  1  0.13042483  0.63943995  0.39224767  1
  N  N80  1  0.63042483  0.86056005  0.39224767  1
  N  N81  1  0.13042483  0.63943995  0.10775233  1
  N  N82  1  0.36957517  0.13943995  0.89224767  1
  N  N83  1  0.86957517  0.36056005  0.60775233  1
  N  N84  1  0.40165216  0.93288847  0.60603991  1
  N  N85  1  0.90165216  0.56711153  0.89396009  1
  N  N86  1  0.59834784  0.06711153  0.10603991  1
  N  N87  1  0.09834784  0.43288847  0.39396009  1
  N  N88  1  0.59834784  0.06711153  0.39396009  1
  N  N89  1  0.09834784  0.43288847  0.10603991  1
  N  N90  1  0.40165216  0.93288847  0.89396009  1
  N  N91  1  0.90165216  0.56711153  0.60603991  1
  N  N92  1  0.31905768  0.79056748  0.52993290  1
  N  N93  1  0.81905768  0.70943252  0.97006710  1
  N  N94  1  0.68094232  0.20943252  0.02993290  1
  N  N95  1  0.18094232  0.29056748  0.47006710  1
  N  N96  1  0.68094232  0.20943252  0.47006710  1
  N  N97  1  0.18094232  0.29056748  0.02993290  1
  N  N98  1  0.31905768  0.79056748  0.97006710  1
  N  N99  1  0.81905768  0.70943252  0.52993290  1
  N  N100  1  0.45201024  0.72979996  0.62368451  1
  N  N101  1  0.95201024  0.77020004  0.87631549  1
  N  N102  1  0.54798976  0.27020004  0.12368451  1
  N  N103  1  0.04798976  0.22979996  0.37631549  1
  N  N104  1  0.54798976  0.27020004  0.37631549  1
  N  N105  1  0.04798976  0.22979996  0.12368451  1
  N  N106  1  0.45201024  0.72979996  0.87631549  1
  N  N107  1  0.95201024  0.77020004  0.62368451  1
  Cl  Cl108  1  0.86053563  0.06033131  0.62072217  1
  Cl  Cl109  1  0.36053563  0.43966869  0.87927783  1
  Cl  Cl110  1  0.13946437  0.93966869  0.12072217  1
  Cl  Cl111  1  0.63946437  0.56033131  0.37927783  1
  Cl  Cl112  1  0.13946437  0.93966869  0.37927783  1
  Cl  Cl113  1  0.63946437  0.56033131  0.12072217  1
  Cl  Cl114  1  0.86053563  0.06033131  0.87927783  1
  Cl  Cl115  1  0.36053563  0.43966869  0.62072217  1
  Cl  Cl116  1  0.53382035  0.20485467  0.75000000  1
  Cl  Cl117  1  0.03382035  0.29514533  0.75000000  1
  Cl  Cl118  1  0.46617965  0.79514533  0.25000000  1
  Cl  Cl119  1  0.96617965  0.70485467  0.25000000  1
  Cl  Cl120  1  0.11979145  0.93811854  0.75000000  1
  Cl  Cl121  1  0.61979145  0.56188146  0.75000000  1
  Cl  Cl122  1  0.88020855  0.06188146  0.25000000  1
  Cl  Cl123  1  0.38020855  0.43811854  0.25000000  1
  Cl  Cl124  1  0.63312269  0.88860901  0.75000000  1
  Cl  Cl125  1  0.13312269  0.61139099  0.75000000  1
  Cl  Cl126  1  0.36687731  0.11139099  0.25000000  1
  Cl  Cl127  1  0.86687731  0.38860901  0.25000000  1
  O  O128  1  0.27611214  0.03353335  0.52086087  1
  O  O129  1  0.77611214  0.46646665  0.97913913  1
  O  O130  1  0.72388786  0.96646665  0.02086087  1
  O  O131  1  0.22388786  0.53353335  0.47913913  1
  O  O132  1  0.72388786  0.96646665  0.47913913  1
  O  O133  1  0.22388786  0.53353335  0.02086087  1
  O  O134  1  0.27611214  0.03353335  0.97913913  1
  O  O135  1  0.77611214  0.46646665  0.52086087  1
