# generated using pymatgen
data_Ho2CoSi2
_symmetry_space_group_name_H-M   'P 1'
_cell_length_a   4.12790717
_cell_length_b   5.59149492
_cell_length_c   8.95695626
_cell_angle_alpha   82.91633937
_cell_angle_beta   76.67759685
_cell_angle_gamma   68.33841299
_symmetry_Int_Tables_number   1
_chemical_formula_structural   Ho2CoSi2
_chemical_formula_sum   'Ho4 Co2 Si4'
_cell_volume   186.79929325
_cell_formula_units_Z   2
loop_
 _symmetry_equiv_pos_site_id
 _symmetry_equiv_pos_as_xyz
  1  'x, y, z'
loop_
 _atom_site_type_symbol
 _atom_site_label
 _atom_site_symmetry_multiplicity
 _atom_site_fract_x
 _atom_site_fract_y
 _atom_site_fract_z
 _atom_site_occupancy
  Ho  Ho0  1  0.99840034  0.67396186  0.32923747  1
  Ho  Ho1  1  0.00159966  0.32603814  0.67076253  1
  Ho  Ho2  1  0.81343963  0.26543988  0.10768087  1
  Ho  Ho3  1  0.18656037  0.73456012  0.89231913  1
  Co  Co4  1  0.72696646  0.92159261  0.62447446  1
  Co  Co5  1  0.27303354  0.07840739  0.37552554  1
  Si  Si6  1  0.65066035  0.26461234  0.43406696  1
  Si  Si7  1  0.34933965  0.73538766  0.56593304  1
  Si  Si8  1  0.50678020  0.86097942  0.12546018  1
  Si  Si9  1  0.49321980  0.13902058  0.87453982  1
