# generated using pymatgen
data_K2B10H6O19
_symmetry_space_group_name_H-M   'P 1'
_cell_length_a   7.84806996
_cell_length_b   9.28193248
_cell_length_c   11.94171634
_cell_angle_alpha   98.94425571
_cell_angle_beta   106.82986000
_cell_angle_gamma   91.33651545
_symmetry_Int_Tables_number   1
_chemical_formula_structural   K2B10H6O19
_chemical_formula_sum   'K4 B20 H12 O38'
_cell_volume   820.36262213
_cell_formula_units_Z   2
loop_
 _symmetry_equiv_pos_site_id
 _symmetry_equiv_pos_as_xyz
  1  'x, y, z'
loop_
 _atom_site_type_symbol
 _atom_site_label
 _atom_site_symmetry_multiplicity
 _atom_site_fract_x
 _atom_site_fract_y
 _atom_site_fract_z
 _atom_site_occupancy
  K  K0  1  0.97730127  0.04346634  0.75830043  1
  K  K1  1  0.02269873  0.95653366  0.24169957  1
  K  K2  1  0.43277161  0.74477158  0.71231848  1
  K  K3  1  0.56722839  0.25522842  0.28768152  1
  B  B4  1  0.67974166  0.94072303  0.44349133  1
  B  B5  1  0.32025834  0.05927697  0.55650867  1
  B  B6  1  0.45538642  0.74278008  0.40095782  1
  B  B7  1  0.54461358  0.25721992  0.59904218  1
  B  B8  1  0.50178246  0.85250179  0.23288377  1
  B  B9  1  0.49821754  0.14749821  0.76711623  1
  B  B10  1  0.50388985  0.75766249  0.02481901  1
  B  B11  1  0.49611015  0.24233751  0.97518099  1
  B  B12  1  0.32102398  0.95383022  0.05706031  1
  B  B13  1  0.67897602  0.04616978  0.94293969  1
  B  B14  1  0.27308684  0.51583633  0.40514415  1
  B  B15  1  0.72691316  0.48416367  0.59485585  1
  B  B16  1  0.07889237  0.33472080  0.43853624  1
  B  B17  1  0.92110763  0.66527920  0.56146376  1
  B  B18  1  0.09836109  0.33285336  0.23453348  1
  B  B19  1  0.90163891  0.66714664  0.76546652  1
  B  B20  1  0.13008999  0.16650564  0.05813802  1
  B  B21  1  0.86991001  0.83349436  0.94186198  1
  B  B22  1  0.91975972  0.35141375  0.02740713  1
  B  B23  1  0.08024028  0.64858625  0.97259287  1
  H  H24  1  0.86698983  0.11028727  0.50266456  1
  H  H25  1  0.13301017  0.88971273  0.49733544  1
  H  H26  1  0.63197366  0.58855335  0.96700293  1
  H  H27  1  0.36802634  0.41144665  0.03299707  1
  H  H28  1  0.05674096  0.30703780  0.60000615  1
  H  H29  1  0.94325904  0.69296220  0.39999385  1
  H  H30  1  0.75742847  0.38152779  0.86872713  1
  H  H31  1  0.24257153  0.61847221  0.13127287  1
  H  H32  1  0.22156354  0.31257635  0.78674190  1
  H  H33  1  0.77843646  0.68742365  0.21325810  1
  H  H34  1  0.07720799  0.42956138  0.78725679  1
  H  H35  1  0.92279201  0.57043862  0.21274321  1
  O  O36  1  0.79976175  0.03845592  0.52999585  1
  O  O37  1  0.20023825  0.96154408  0.47000415  1
  O  O38  1  0.58756356  0.83940825  0.48308495  1
  O  O39  1  0.41243644  0.16059175  0.51691505  1
  O  O40  1  0.38192863  0.64326933  0.45253764  1
  O  O41  1  0.61807137  0.35673067  0.54746236  1
  O  O42  1  0.64969082  0.94287214  0.32485621  1
  O  O43  1  0.35030918  0.05712786  0.67514379  1
  O  O44  1  0.40641454  0.75023700  0.28290119  1
  O  O45  1  0.59358546  0.24976300  0.71709881  1
  O  O46  1  0.57441699  0.76303029  0.14441627  1
  O  O47  1  0.42558301  0.23696971  0.85558373  1
  O  O48  1  0.38053101  0.85574228  0.97868852  1
  O  O49  1  0.61946899  0.14425772  0.02131148  1
  O  O50  1  0.37350390  0.95346656  0.17563101  1
  O  O51  1  0.62649610  0.04653344  0.82436899  1
  O  O52  1  0.54991605  0.66267479  0.93969474  1
  O  O53  1  0.45008395  0.33732521  0.06030526  1
  O  O54  1  0.19897547  0.45856860  0.48335729  1
  O  O55  1  0.80102453  0.54143140  0.51664271  1
  O  O56  1  0.01542913  0.26437034  0.51290056  1
  O  O57  1  0.98457087  0.73562966  0.48709944  1
  O  O58  1  0.24424495  0.44824412  0.29155708  1
  O  O59  1  0.75575505  0.55175588  0.70844292  1
  O  O60  1  0.01923690  0.28080648  0.31990502  1
  O  O61  1  0.98076310  0.71919352  0.68009498  1
  O  O62  1  0.17280643  0.20637068  0.17713583  1
  O  O63  1  0.82719357  0.79362932  0.82286417  1
  O  O64  1  0.00387066  0.23595294  0.97985392  1
  O  O65  1  0.99612934  0.76404706  0.02014608  1
  O  O66  1  0.95850689  0.39492032  0.14637642  1
  O  O67  1  0.04149311  0.60507968  0.85362358  1
  O  O68  1  0.20210434  0.04983253  0.00400674  1
  O  O69  1  0.79789566  0.95016747  0.99599326  1
  O  O70  1  0.79156141  0.42179058  0.95378868  1
  O  O71  1  0.20843859  0.57820942  0.04621132  1
  O  O72  1  0.09827926  0.33356849  0.74520627  1
  O  O73  1  0.90172074  0.66643151  0.25479373  1
