# generated using pymatgen
data_Nd3RuO7
_symmetry_space_group_name_H-M   'P 1'
_cell_length_a   7.50906125
_cell_length_b   7.60959371
_cell_length_c   10.97169628
_cell_angle_alpha   90.00000000
_cell_angle_beta   90.14461291
_cell_angle_gamma   90.00000000
_symmetry_Int_Tables_number   1
_chemical_formula_structural   Nd3RuO7
_chemical_formula_sum   'Nd12 Ru4 O28'
_cell_volume   626.93066093
_cell_formula_units_Z   4
loop_
 _symmetry_equiv_pos_site_id
 _symmetry_equiv_pos_as_xyz
  1  'x, y, z'
loop_
 _atom_site_type_symbol
 _atom_site_label
 _atom_site_symmetry_multiplicity
 _atom_site_fract_x
 _atom_site_fract_y
 _atom_site_fract_z
 _atom_site_occupancy
  Nd  Nd0  1  -0.00000000  0.50000000  -0.00000000  1
  Nd  Nd1  1  -0.00000000  0.00000000  -0.00000000  1
  Nd  Nd2  1  0.50000000  0.50000000  0.50000000  1
  Nd  Nd3  1  0.50000000  0.00000000  0.50000000  1
  Nd  Nd4  1  0.30895934  0.25000000  0.22397130  1
  Nd  Nd5  1  0.69104066  0.75000000  0.77602870  1
  Nd  Nd6  1  0.30113170  0.25000000  0.78185153  1
  Nd  Nd7  1  0.69886830  0.75000000  0.21814847  1
  Nd  Nd8  1  0.80365268  0.25000000  0.71796053  1
  Nd  Nd9  1  0.19634732  0.75000000  0.28203947  1
  Nd  Nd10  1  0.80747258  0.25000000  0.27509430  1
  Nd  Nd11  1  0.19252742  0.75000000  0.72490570  1
  Ru  Ru12  1  0.50000000  0.50000000  -0.00000000  1
  Ru  Ru13  1  0.50000000  0.00000000  -0.00000000  1
  Ru  Ru14  1  -0.00000000  0.50000000  0.50000000  1
  Ru  Ru15  1  -0.00000000  -0.00000000  0.50000000  1
  O  O16  1  0.41634094  0.25000000  0.00375630  1
  O  O17  1  0.58365906  0.75000000  0.99624370  1
  O  O18  1  0.91810323  0.25000000  0.49405994  1
  O  O19  1  0.08189677  0.75000000  0.50594006  1
  O  O20  1  0.03216678  0.25000000  0.13294648  1
  O  O21  1  0.96783322  0.75000000  0.86705352  1
  O  O22  1  0.01876565  0.25000000  0.86943581  1
  O  O23  1  0.98123435  0.75000000  0.13056419  1
  O  O24  1  0.51732675  0.25000000  0.63243575  1
  O  O25  1  0.48267325  0.75000000  0.36756425  1
  O  O26  1  0.53343974  0.25000000  0.36896343  1
  O  O27  1  0.46656026  0.75000000  0.63103657  1
  O  O28  1  0.32147777  0.54011054  0.12948487  1
  O  O29  1  0.67852223  0.04011054  0.87051513  1
  O  O30  1  0.67852223  0.45988946  0.87051513  1
  O  O31  1  0.32147777  0.95988946  0.12948487  1
  O  O32  1  0.30851531  0.53857183  0.87790648  1
  O  O33  1  0.69148469  0.03857183  0.12209352  1
  O  O34  1  0.69148469  0.46142817  0.12209352  1
  O  O35  1  0.30851531  0.96142817  0.87790648  1
  O  O36  1  0.79872996  0.53674983  0.61598436  1
  O  O37  1  0.20127004  0.03674983  0.38401564  1
  O  O38  1  0.20127004  0.46325017  0.38401564  1
  O  O39  1  0.79872996  0.96325017  0.61598436  1
  O  O40  1  0.83510479  0.54284673  0.36367933  1
  O  O41  1  0.16489521  0.04284673  0.63632067  1
  O  O42  1  0.16489521  0.45715327  0.63632067  1
  O  O43  1  0.83510479  0.95715327  0.36367933  1
