# generated using pymatgen
data_Sm5(Sn5Rh2)2
_symmetry_space_group_name_H-M   'P 1'
_cell_length_a   4.59629077
_cell_length_b   14.17017792
_cell_length_c   14.17017792
_cell_angle_alpha   90.00000000
_cell_angle_beta   90.00000000
_cell_angle_gamma   90.00000000
_symmetry_Int_Tables_number   1
_chemical_formula_structural   Sm5(Sn5Rh2)2
_chemical_formula_sum   'Sm10 Sn20 Rh8'
_cell_volume   922.90734359
_cell_formula_units_Z   2
loop_
 _symmetry_equiv_pos_site_id
 _symmetry_equiv_pos_as_xyz
  1  'x, y, z'
loop_
 _atom_site_type_symbol
 _atom_site_label
 _atom_site_symmetry_multiplicity
 _atom_site_fract_x
 _atom_site_fract_y
 _atom_site_fract_z
 _atom_site_occupancy
  Sm  Sm0  1  -0.00000000  0.50000000  0.50000000  1
  Sm  Sm1  1  -0.00000000  0.00000000  0.00000000  1
  Sm  Sm2  1  0.50000000  0.17664337  0.67664337  1
  Sm  Sm3  1  0.50000000  0.82335663  0.32335663  1
  Sm  Sm4  1  0.50000000  0.32335663  0.17664337  1
  Sm  Sm5  1  0.50000000  0.67664337  0.82335663  1
  Sm  Sm6  1  0.50000000  0.38838278  0.88838278  1
  Sm  Sm7  1  0.50000000  0.61161722  0.11161722  1
  Sm  Sm8  1  0.50000000  0.11161722  0.38838278  1
  Sm  Sm9  1  0.50000000  0.88838278  0.61161722  1
  Sn  Sn10  1  0.00000000  0.06940611  0.56940611  1
  Sn  Sn11  1  -0.00000000  0.93059389  0.43059389  1
  Sn  Sn12  1  -0.00000000  0.43059389  0.06940611  1
  Sn  Sn13  1  0.00000000  0.56940611  0.93059389  1
  Sn  Sn14  1  -0.00000000  0.69777170  0.65485033  1
  Sn  Sn15  1  0.00000000  0.30222830  0.34514967  1
  Sn  Sn16  1  0.00000000  0.80222830  0.15485033  1
  Sn  Sn17  1  -0.00000000  0.19777170  0.84514967  1
  Sn  Sn18  1  0.00000000  0.65485033  0.30222830  1
  Sn  Sn19  1  -0.00000000  0.34514967  0.69777170  1
  Sn  Sn20  1  0.00000000  0.15485033  0.19777170  1
  Sn  Sn21  1  -0.00000000  0.84514967  0.80222830  1
  Sn  Sn22  1  0.50000000  0.50569102  0.66278869  1
  Sn  Sn23  1  0.50000000  0.49430898  0.33721131  1
  Sn  Sn24  1  0.50000000  0.99430898  0.16278869  1
  Sn  Sn25  1  0.50000000  0.00569102  0.83721131  1
  Sn  Sn26  1  0.50000000  0.66278869  0.49430898  1
  Sn  Sn27  1  0.50000000  0.33721131  0.50569102  1
  Sn  Sn28  1  0.50000000  0.16278869  0.00569102  1
  Sn  Sn29  1  0.50000000  0.83721131  0.99430898  1
  Rh  Rh30  1  -0.00000000  0.52716484  0.74686935  1
  Rh  Rh31  1  0.00000000  0.47283516  0.25313065  1
  Rh  Rh32  1  0.00000000  0.97283516  0.24686935  1
  Rh  Rh33  1  -0.00000000  0.02716484  0.75313065  1
  Rh  Rh34  1  -0.00000000  0.74686935  0.47283516  1
  Rh  Rh35  1  0.00000000  0.25313065  0.52716484  1
  Rh  Rh36  1  -0.00000000  0.24686935  0.02716484  1
  Rh  Rh37  1  0.00000000  0.75313065  0.97283516  1
