# generated using pymatgen
data_Sr2(PPd)3
_symmetry_space_group_name_H-M   'P 1'
_cell_length_a   4.22946089
_cell_length_b   4.26791602
_cell_length_c   17.49834814
_cell_angle_alpha   97.00477136
_cell_angle_beta   96.94134434
_cell_angle_gamma   90.00000000
_symmetry_Int_Tables_number   1
_chemical_formula_structural   Sr2(PPd)3
_chemical_formula_sum   'Sr4 P6 Pd6'
_cell_volume   311.17211591
_cell_formula_units_Z   2
loop_
 _symmetry_equiv_pos_site_id
 _symmetry_equiv_pos_as_xyz
  1  'x, y, z'
loop_
 _atom_site_type_symbol
 _atom_site_label
 _atom_site_symmetry_multiplicity
 _atom_site_fract_x
 _atom_site_fract_y
 _atom_site_fract_z
 _atom_site_occupancy
  Sr  Sr0  1  0.57287473  0.57287473  0.14574946  1
  Sr  Sr1  1  0.42712527  0.42712527  0.85425054  1
  Sr  Sr2  1  0.17763059  0.67763059  0.35526117  1
  Sr  Sr3  1  0.82236941  0.32236941  0.64473883  1
  P  P4  1  0.64585996  0.14585996  0.29171992  1
  P  P5  1  0.35414004  0.85414004  0.70828008  1
  P  P6  1  0.28864098  0.78864098  0.57728196  1
  P  P7  1  0.71135902  0.21135902  0.42271804  1
  P  P8  1  0.04022305  0.04022305  0.08044611  1
  P  P9  1  0.95977695  0.95977695  0.91955389  1
  Pd  Pd10  1  0.50000000  -0.00000000  -0.00000000  1
  Pd  Pd11  1  0.75066594  0.75066594  0.50133188  1
  Pd  Pd12  1  0.24933406  0.24933406  0.49866812  1
  Pd  Pd13  1  0.11003708  0.11003708  0.22007416  1
  Pd  Pd14  1  0.88996292  0.88996292  0.77992584  1
  Pd  Pd15  1  -0.00000000  0.50000000  -0.00000000  1
