# generated using pymatgen
data_Li2B3H14N
_symmetry_space_group_name_H-M   'P 1'
_cell_length_a   6.48276157
_cell_length_b   8.25680458
_cell_length_c   12.46032796
_cell_angle_alpha   90.00000000
_cell_angle_beta   90.00000000
_cell_angle_gamma   90.00000000
_symmetry_Int_Tables_number   1
_chemical_formula_structural   Li2B3H14N
_chemical_formula_sum   'Li8 B12 H56 N4'
_cell_volume   666.96267164
_cell_formula_units_Z   4
loop_
 _symmetry_equiv_pos_site_id
 _symmetry_equiv_pos_as_xyz
  1  'x, y, z'
loop_
 _atom_site_type_symbol
 _atom_site_label
 _atom_site_symmetry_multiplicity
 _atom_site_fract_x
 _atom_site_fract_y
 _atom_site_fract_z
 _atom_site_occupancy
  Li  Li0  1  0.53202415  0.83300915  0.92311410  1
  Li  Li1  1  0.96797585  0.33300915  0.57688590  1
  Li  Li2  1  0.46797585  0.16699085  0.42311410  1
  Li  Li3  1  0.03202415  0.66699085  0.07688590  1
  Li  Li4  1  0.46797585  0.16699085  0.07688590  1
  Li  Li5  1  0.03202415  0.66699085  0.42311410  1
  Li  Li6  1  0.53202415  0.83300915  0.57688590  1
  Li  Li7  1  0.96797585  0.33300915  0.92311410  1
  B  B8  1  0.78190005  0.59982309  0.57280610  1
  B  B9  1  0.71809995  0.09982309  0.92719390  1
  B  B10  1  0.21809995  0.40017691  0.07280610  1
  B  B11  1  0.28190005  0.90017691  0.42719390  1
  B  B12  1  0.21809995  0.40017691  0.42719390  1
  B  B13  1  0.28190005  0.90017691  0.07280610  1
  B  B14  1  0.78190005  0.59982309  0.92719390  1
  B  B15  1  0.71809995  0.09982309  0.57280610  1
  B  B16  1  0.18815892  0.28549574  0.75000000  1
  B  B17  1  0.31184108  0.78549574  0.75000000  1
  B  B18  1  0.81184108  0.71450426  0.25000000  1
  B  B19  1  0.68815892  0.21450426  0.25000000  1
  H  H20  1  0.55237434  0.57600446  0.18389133  1
  H  H21  1  0.94762566  0.07600446  0.31610867  1
  H  H22  1  0.44762566  0.42399554  0.68389133  1
  H  H23  1  0.05237434  0.92399554  0.81610867  1
  H  H24  1  0.44762566  0.42399554  0.81610867  1
  H  H25  1  0.05237434  0.92399554  0.68389133  1
  H  H26  1  0.55237434  0.57600446  0.31610867  1
  H  H27  1  0.94762566  0.07600446  0.18389133  1
  H  H28  1  0.52255233  0.26122595  0.75000000  1
  H  H29  1  0.97744767  0.76122595  0.75000000  1
  H  H30  1  0.47744767  0.73877405  0.25000000  1
  H  H31  1  0.02255233  0.23877405  0.25000000  1
  H  H32  1  0.71304372  0.67189598  0.65068018  1
  H  H33  1  0.78695628  0.17189598  0.84931982  1
  H  H34  1  0.28695628  0.32810402  0.15068018  1
  H  H35  1  0.21304372  0.82810402  0.34931982  1
  H  H36  1  0.28695628  0.32810402  0.34931982  1
  H  H37  1  0.21304372  0.82810402  0.15068018  1
  H  H38  1  0.71304372  0.67189598  0.84931982  1
  H  H39  1  0.78695628  0.17189598  0.65068018  1
  H  H40  1  0.72679423  0.66445333  0.48864162  1
  H  H41  1  0.77320577  0.16445333  0.01135838  1
  H  H42  1  0.27320577  0.33554667  0.98864162  1
  H  H43  1  0.22679423  0.83554667  0.51135838  1
  H  H44  1  0.27320577  0.33554667  0.51135838  1
  H  H45  1  0.22679423  0.83554667  0.98864162  1
  H  H46  1  0.72679423  0.66445333  0.01135838  1
  H  H47  1  0.77320577  0.16445333  0.48864162  1
  H  H48  1  0.71543479  0.46103922  0.57360142  1
  H  H49  1  0.78456521  0.96103922  0.92639858  1
  H  H50  1  0.28456521  0.53896078  0.07360142  1
  H  H51  1  0.21543479  0.03896078  0.42639858  1
  H  H52  1  0.28456521  0.53896078  0.42639858  1
  H  H53  1  0.21543479  0.03896078  0.07360142  1
  H  H54  1  0.71543479  0.46103922  0.92639858  1
  H  H55  1  0.78456521  0.96103922  0.57360142  1
  H  H56  1  0.97122396  0.60177279  0.57988954  1
  H  H57  1  0.52877604  0.10177279  0.92011046  1
  H  H58  1  0.02877604  0.39822721  0.07988954  1
  H  H59  1  0.47122396  0.89822721  0.42011046  1
  H  H60  1  0.02877604  0.39822721  0.42011046  1
  H  H61  1  0.47122396  0.89822721  0.07988954  1
  H  H62  1  0.97122396  0.60177279  0.92011046  1
  H  H63  1  0.52877604  0.10177279  0.57988954  1
  H  H64  1  0.83071622  0.79859322  0.17016093  1
  H  H65  1  0.66928378  0.29859322  0.32983907  1
  H  H66  1  0.16928378  0.20140678  0.67016093  1
  H  H67  1  0.33071622  0.70140678  0.82983907  1
  H  H68  1  0.16928378  0.20140678  0.82983907  1
  H  H69  1  0.33071622  0.70140678  0.67016093  1
  H  H70  1  0.83071622  0.79859322  0.32983907  1
  H  H71  1  0.66928378  0.29859322  0.17016093  1
  H  H72  1  0.06870738  0.40047583  0.75000000  1
  H  H73  1  0.43129262  0.90047583  0.75000000  1
  H  H74  1  0.93129262  0.59952417  0.25000000  1
  H  H75  1  0.56870738  0.09952417  0.25000000  1
  N  N76  1  0.41691682  0.35358548  0.75000000  1
  N  N77  1  0.08308318  0.85358548  0.75000000  1
  N  N78  1  0.58308318  0.64641452  0.25000000  1
  N  N79  1  0.91691682  0.14641452  0.25000000  1
