# generated using pymatgen
data_Pu2B6Os
_symmetry_space_group_name_H-M   'P 1'
_cell_length_a   3.57294452
_cell_length_b   9.30744371
_cell_length_c   11.33406486
_cell_angle_alpha   90.00000000
_cell_angle_beta   90.00000000
_cell_angle_gamma   90.00000000
_symmetry_Int_Tables_number   1
_chemical_formula_structural   Pu2B6Os
_chemical_formula_sum   'Pu8 B24 Os4'
_cell_volume   376.91410023
_cell_formula_units_Z   4
loop_
 _symmetry_equiv_pos_site_id
 _symmetry_equiv_pos_as_xyz
  1  'x, y, z'
loop_
 _atom_site_type_symbol
 _atom_site_label
 _atom_site_symmetry_multiplicity
 _atom_site_fract_x
 _atom_site_fract_y
 _atom_site_fract_z
 _atom_site_occupancy
  Pu  Pu0  1  -0.00000000  0.33850005  0.40674479  1
  Pu  Pu1  1  -0.00000000  0.66149995  0.59325521  1
  Pu  Pu2  1  0.00000000  0.83850005  0.09325521  1
  Pu  Pu3  1  0.00000000  0.16149995  0.90674479  1
  Pu  Pu4  1  0.00000000  0.95993526  0.40448136  1
  Pu  Pu5  1  0.00000000  0.04006474  0.59551864  1
  Pu  Pu6  1  -0.00000000  0.45993526  0.09551864  1
  Pu  Pu7  1  -0.00000000  0.54006474  0.90448136  1
  B  B8  1  0.50000000  0.55193448  0.43104923  1
  B  B9  1  0.50000000  0.44806552  0.56895077  1
  B  B10  1  0.50000000  0.05193448  0.06895077  1
  B  B11  1  0.50000000  0.94806552  0.93104923  1
  B  B12  1  0.50000000  0.74296911  0.42325128  1
  B  B13  1  0.50000000  0.25703089  0.57674872  1
  B  B14  1  0.50000000  0.24296911  0.07674872  1
  B  B15  1  0.50000000  0.75703089  0.92325128  1
  B  B16  1  0.50000000  0.80585056  0.27431486  1
  B  B17  1  0.50000000  0.19414944  0.72568514  1
  B  B18  1  0.50000000  0.30585056  0.22568514  1
  B  B19  1  0.50000000  0.69414944  0.77431486  1
  B  B20  1  0.50000000  0.64597775  0.18768451  1
  B  B21  1  0.50000000  0.35402225  0.81231549  1
  B  B22  1  0.50000000  0.14597775  0.31231549  1
  B  B23  1  0.50000000  0.85402225  0.68768451  1
  B  B24  1  0.50000000  0.98797431  0.22168828  1
  B  B25  1  0.50000000  0.01202569  0.77831172  1
  B  B26  1  0.50000000  0.48797431  0.27831172  1
  B  B27  1  0.50000000  0.51202569  0.72168828  1
  B  B28  1  0.50000000  0.64446144  0.03952115  1
  B  B29  1  0.50000000  0.35553856  0.96047885  1
  B  B30  1  0.50000000  0.14446144  0.46047885  1
  B  B31  1  0.50000000  0.85553856  0.53952115  1
  Os  Os32  1  -0.00000000  0.64661218  0.31872570  1
  Os  Os33  1  0.00000000  0.35338782  0.68127430  1
  Os  Os34  1  -0.00000000  0.14661218  0.18127430  1
  Os  Os35  1  0.00000000  0.85338782  0.81872570  1
