# generated using pymatgen
data_V2Pb2Se2O11
_symmetry_space_group_name_H-M   'P 1'
_cell_length_a   6.99437041
_cell_length_b   7.31086711
_cell_length_c   10.06454966
_cell_angle_alpha   96.42228202
_cell_angle_beta   93.90733470
_cell_angle_gamma   95.41165066
_symmetry_Int_Tables_number   1
_chemical_formula_structural   V2Pb2Se2O11
_chemical_formula_sum   'V4 Pb4 Se4 O22'
_cell_volume   507.52740852
_cell_formula_units_Z   2
loop_
 _symmetry_equiv_pos_site_id
 _symmetry_equiv_pos_as_xyz
  1  'x, y, z'
loop_
 _atom_site_type_symbol
 _atom_site_label
 _atom_site_symmetry_multiplicity
 _atom_site_fract_x
 _atom_site_fract_y
 _atom_site_fract_z
 _atom_site_occupancy
  V  V0  1  0.65489975  0.16105985  0.44909924  1
  V  V1  1  0.34510025  0.83894015  0.55090076  1
  V  V2  1  0.33587583  0.94250816  0.24730356  1
  V  V3  1  0.66412417  0.05749184  0.75269644  1
  Pb  Pb4  1  0.82126923  0.85383326  0.10688450  1
  Pb  Pb5  1  0.17873077  0.14616674  0.89311550  1
  Pb  Pb6  1  0.13588285  0.45232578  0.24967142  1
  Pb  Pb7  1  0.86411715  0.54767422  0.75032858  1
  Se  Se8  1  0.66838792  0.33855102  0.04586533  1
  Se  Se9  1  0.33161208  0.66144898  0.95413467  1
  Se  Se10  1  0.65874009  0.59679060  0.39917964  1
  Se  Se11  1  0.34125991  0.40320940  0.60082036  1
  O  O12  1  0.88278393  0.24851006  0.07705849  1
  O  O13  1  0.11721607  0.75148994  0.92294151  1
  O  O14  1  0.73330724  0.52916034  0.96156059  1
  O  O15  1  0.26669276  0.47083966  0.03843941  1
  O  O16  1  0.54935078  0.18021656  0.91051340  1
  O  O17  1  0.45064922  0.81978344  0.08948660  1
  O  O18  1  0.44593253  0.70045015  0.36943958  1
  O  O19  1  0.55406747  0.29954985  0.63056042  1
  O  O20  1  0.76815013  0.60455700  0.25327496  1
  O  O21  1  0.23184987  0.39544300  0.74672504  1
  O  O22  1  0.53674788  0.37011137  0.37398746  1
  O  O23  1  0.46325212  0.62988863  0.62601254  1
  O  O24  1  0.87687634  0.26591745  0.46937434  1
  O  O25  1  0.12312366  0.73408255  0.53062566  1
  O  O26  1  0.63294744  0.02452575  0.29142299  1
  O  O27  1  0.36705256  0.97547425  0.70857701  1
  O  O28  1  0.13326812  0.78349199  0.22600376  1
  O  O29  1  0.86673188  0.21650801  0.77399624  1
  O  O30  1  0.26037545  0.12325908  0.17631933  1
  O  O31  1  0.73962455  0.87674092  0.82368067  1
  O  O32  1  0.33682035  0.02421517  0.43252930  1
  O  O33  1  0.66317965  0.97578483  0.56747070  1
