# generated using pymatgen
data_K5Bi4
_symmetry_space_group_name_H-M   'P 1'
_cell_length_a   5.67287914
_cell_length_b   7.00871831
_cell_length_c   11.49110230
_cell_angle_alpha   74.28735743
_cell_angle_beta   75.70952600
_cell_angle_gamma   66.12757027
_symmetry_Int_Tables_number   1
_chemical_formula_structural   K5Bi4
_chemical_formula_sum   'K5 Bi4'
_cell_volume   397.26497111
_cell_formula_units_Z   1
loop_
 _symmetry_equiv_pos_site_id
 _symmetry_equiv_pos_as_xyz
  1  'x, y, z'
loop_
 _atom_site_type_symbol
 _atom_site_label
 _atom_site_symmetry_multiplicity
 _atom_site_fract_x
 _atom_site_fract_y
 _atom_site_fract_z
 _atom_site_occupancy
  K  K0  1  0.90447677  0.80142934  0.38961712  1
  K  K1  1  0.09552323  0.19857066  0.61038288  1
  K  K2  1  0.24361307  0.34520947  0.16756438  1
  K  K3  1  0.75638693  0.65479053  0.83243562  1
  K  K4  1  0.00000000  0.00000000  -0.00000000  1
  Bi  Bi5  1  0.60970314  0.39043698  0.39015673  1
  Bi  Bi6  1  0.39029686  0.60956302  0.60984327  1
  Bi  Bi7  1  0.54493354  0.74262990  0.16750301  1
  Bi  Bi8  1  0.45506646  0.25737010  0.83249699  1
