# generated using pymatgen
data_Li2MnCoO4
_symmetry_space_group_name_H-M   'P 1'
_cell_length_a   2.98255805
_cell_length_b   2.98255908
_cell_length_c   9.75695688
_cell_angle_alpha   98.79170634
_cell_angle_beta   90.00000000
_cell_angle_gamma   119.99998874
_symmetry_Int_Tables_number   1
_chemical_formula_structural   Li2MnCoO4
_chemical_formula_sum   'Li2 Mn1 Co1 O4'
_cell_volume   73.98637899
_cell_formula_units_Z   1
loop_
 _symmetry_equiv_pos_site_id
 _symmetry_equiv_pos_as_xyz
  1  'x, y, z'
loop_
 _atom_site_type_symbol
 _atom_site_label
 _atom_site_symmetry_multiplicity
 _atom_site_fract_x
 _atom_site_fract_y
 _atom_site_fract_z
 _atom_site_occupancy
  Li  Li0  1  0.25172976  0.50345952  0.75518928  1
  Li  Li1  1  0.74827024  0.49654048  0.24481072  1
  Mn  Mn2  1  0.50000000  -0.00000000  0.50000000  1
  Co  Co3  1  -0.00000000  -0.00000000  -0.00000000  1
  O  O4  1  0.37134525  0.74269049  0.11403574  1
  O  O5  1  0.87156431  0.74312862  0.61469293  1
  O  O6  1  0.12843569  0.25687138  0.38530707  1
  O  O7  1  0.62865475  0.25730951  0.88596426  1
