# generated using pymatgen
data_YGa3(BO3)4
_symmetry_space_group_name_H-M   'P 1'
_cell_length_a   6.06271340
_cell_length_b   6.06271340
_cell_length_c   6.06271392
_cell_angle_alpha   104.09610464
_cell_angle_beta   104.09610464
_cell_angle_gamma   104.09609564
_symmetry_Int_Tables_number   1
_chemical_formula_structural   YGa3(BO3)4
_chemical_formula_sum   'Y1 Ga3 B4 O12'
_cell_volume   198.46377189
_cell_formula_units_Z   1
loop_
 _symmetry_equiv_pos_site_id
 _symmetry_equiv_pos_as_xyz
  1  'x, y, z'
loop_
 _atom_site_type_symbol
 _atom_site_label
 _atom_site_symmetry_multiplicity
 _atom_site_fract_x
 _atom_site_fract_y
 _atom_site_fract_z
 _atom_site_occupancy
  Y  Y0  1  0.50000000  0.50000000  0.50000000  1
  Ga  Ga1  1  0.95360237  0.04639763  0.50000000  1
  Ga  Ga2  1  0.50000000  0.95360237  0.04639763  1
  Ga  Ga3  1  0.04639763  0.50000000  0.95360237  1
  B  B4  1  0.54830016  0.45169984  -0.00000000  1
  B  B5  1  0.00000000  0.54830016  0.45169984  1
  B  B6  1  0.45169984  1.00000000  0.54830016  1
  B  B7  1  -0.00000000  0.00000000  -0.00000000  1
  O  O8  1  0.52391794  0.29418909  0.12974093  1
  O  O9  1  0.12974093  0.52391794  0.29418909  1
  O  O10  1  0.87025907  0.70581091  0.47608206  1
  O  O11  1  0.29418909  0.12974093  0.52391794  1
  O  O12  1  0.70581091  0.47608206  0.87025907  1
  O  O13  1  0.47608206  0.87025907  0.70581091  1
  O  O14  1  0.14493743  0.85506257  -0.00000000  1
  O  O15  1  1.00000000  0.14493743  0.85506257  1
  O  O16  1  0.85506257  0.00000000  0.14493743  1
  O  O17  1  0.40427742  0.59572258  -0.00000000  1
  O  O18  1  0.00000000  0.40427742  0.59572258  1
  O  O19  1  0.59572258  1.00000000  0.40427742  1
