# generated using pymatgen
data_Si(AgP)2
_symmetry_space_group_name_H-M   'P 1'
_cell_length_a   6.33340984
_cell_length_b   6.33340984
_cell_length_c   6.33340984
_cell_angle_alpha   95.04569721
_cell_angle_beta   117.13089600
_cell_angle_gamma   117.13089600
_symmetry_Int_Tables_number   1
_chemical_formula_structural   Si(AgP)2
_chemical_formula_sum   'Si2 Ag4 P4'
_cell_volume   186.64487978
_cell_formula_units_Z   2
loop_
 _symmetry_equiv_pos_site_id
 _symmetry_equiv_pos_as_xyz
  1  'x, y, z'
loop_
 _atom_site_type_symbol
 _atom_site_label
 _atom_site_symmetry_multiplicity
 _atom_site_fract_x
 _atom_site_fract_y
 _atom_site_fract_z
 _atom_site_occupancy
  Si  Si0  1  0.00000000  0.00000000  0.00000000  1
  Si  Si1  1  0.50000000  0.75000000  0.25000000  1
  Ag  Ag2  1  0.19647339  0.32147339  0.62500000  1
  Ag  Ag3  1  0.80352661  0.42852661  0.12500000  1
  Ag  Ag4  1  0.30352661  0.87500000  0.67852661  1
  Ag  Ag5  1  0.69647339  0.37500000  0.57147339  1
  P  P6  1  0.58016484  0.70516484  0.62500000  1
  P  P7  1  0.41983516  0.04483516  0.12500000  1
  P  P8  1  0.91983516  0.87500000  0.29483516  1
  P  P9  1  0.08016484  0.37500000  0.95516484  1
