# generated using pymatgen
data_Y16C7(I7O)2
_symmetry_space_group_name_H-M   'P 1'
_cell_length_a   3.86650873
_cell_length_b   11.14395741
_cell_length_c   26.23215330
_cell_angle_alpha   90.39749893
_cell_angle_beta   94.22640988
_cell_angle_gamma   90.00000000
_symmetry_Int_Tables_number   1
_chemical_formula_structural   Y16C7(I7O)2
_chemical_formula_sum   'Y16 C7 I14 O2'
_cell_volume   1127.19550428
_cell_formula_units_Z   1
loop_
 _symmetry_equiv_pos_site_id
 _symmetry_equiv_pos_as_xyz
  1  'x, y, z'
loop_
 _atom_site_type_symbol
 _atom_site_label
 _atom_site_symmetry_multiplicity
 _atom_site_fract_x
 _atom_site_fract_y
 _atom_site_fract_z
 _atom_site_occupancy
  Y  Y0  1  0.01328972  0.14182724  0.02657945  1
  Y  Y1  1  0.98671028  0.85817276  0.97342055  1
  Y  Y2  1  0.45380724  0.06229289  0.90761447  1
  Y  Y3  1  0.54619276  0.93770711  0.09238553  1
  Y  Y4  1  0.10973715  0.02177833  0.21947431  1
  Y  Y5  1  0.89026285  0.97822167  0.78052569  1
  Y  Y6  1  0.76552282  0.10622730  0.53104565  1
  Y  Y7  1  0.23447718  0.89377270  0.46895435  1
  Y  Y8  1  0.32546916  0.04565319  0.65093833  1
  Y  Y9  1  0.67453084  0.95434681  0.34906167  1
  Y  Y10  1  0.20500965  0.16862636  0.41001931  1
  Y  Y11  1  0.79499035  0.83137364  0.58998069  1
  Y  Y12  1  0.57221487  0.21216597  0.14442974  1
  Y  Y13  1  0.42778513  0.78783403  0.85557026  1
  Y  Y14  1  0.64570843  0.22072595  0.29141685  1
  Y  Y15  1  0.35429157  0.77927405  0.70858315  1
  C  C16  1  0.15892367  0.09416344  0.31784734  1
  C  C17  1  0.84107633  0.90583656  0.68215266  1
  C  C18  1  0.50000000  0.00000000  -0.00000000  1
  C  C19  1  0.05974798  0.08150927  0.11949596  1
  C  C20  1  0.94025202  0.91849073  0.88050404  1
  C  C21  1  0.71908593  0.03118797  0.43817187  1
  C  C22  1  0.28091407  0.96881203  0.56182813  1
  I  I23  1  0.39006184  0.19528555  0.78012367  1
  I  I24  1  0.60993816  0.80471445  0.21987633  1
  I  I25  1  0.31013618  0.60527479  0.62027237  1
  I  I26  1  0.68986382  0.39472521  0.37972763  1
  I  I27  1  0.10832804  0.39023318  0.21665608  1
  I  I28  1  0.89167196  0.60976682  0.78334392  1
  I  I29  1  0.04075342  0.72121287  0.08150685  1
  I  I30  1  0.95924658  0.27878713  0.91849315  1
  I  I31  1  0.52520971  0.36766722  0.05041942  1
  I  I32  1  0.47479029  0.63233278  0.94958058  1
  I  I33  1  0.25457031  0.32200916  0.50914062  1
  I  I34  1  0.74542969  0.67799084  0.49085938  1
  I  I35  1  0.18077986  0.74161967  0.36155972  1
  I  I36  1  0.81922014  0.25838033  0.63844028  1
  O  O37  1  0.60927762  0.12144569  0.21855524  1
  O  O38  1  0.39072238  0.87855431  0.78144476  1
