# generated using pymatgen
data_Tm2(Ga3Ru)3
_symmetry_space_group_name_H-M   'P 1'
_cell_length_a   7.48145024
_cell_length_b   7.48145024
_cell_length_c   9.70251390
_cell_angle_alpha   90.00000000
_cell_angle_beta   90.00000000
_cell_angle_gamma   119.57880305
_symmetry_Int_Tables_number   1
_chemical_formula_structural   Tm2(Ga3Ru)3
_chemical_formula_sum   'Tm4 Ga18 Ru6'
_cell_volume   472.29586641
_cell_formula_units_Z   2
loop_
 _symmetry_equiv_pos_site_id
 _symmetry_equiv_pos_as_xyz
  1  'x, y, z'
loop_
 _atom_site_type_symbol
 _atom_site_label
 _atom_site_symmetry_multiplicity
 _atom_site_fract_x
 _atom_site_fract_y
 _atom_site_fract_z
 _atom_site_occupancy
  Tm  Tm0  1  0.66930579  0.99689065  0.25000000  1
  Tm  Tm1  1  0.33069421  0.00310935  0.75000000  1
  Tm  Tm2  1  0.99689065  0.66930579  0.25000000  1
  Tm  Tm3  1  0.00310935  0.33069421  0.75000000  1
  Ga  Ga4  1  0.12498709  0.12498709  0.25000000  1
  Ga  Ga5  1  0.87501291  0.87501291  0.75000000  1
  Ga  Ga6  1  0.33499202  0.00461966  0.07688474  1
  Ga  Ga7  1  0.66500798  0.99538034  0.92311526  1
  Ga  Ga8  1  0.66500798  0.99538034  0.57688474  1
  Ga  Ga9  1  0.00461966  0.33499202  0.42311526  1
  Ga  Ga10  1  0.33499202  0.00461966  0.42311526  1
  Ga  Ga11  1  0.99538034  0.66500798  0.57688474  1
  Ga  Ga12  1  0.99538034  0.66500798  0.92311526  1
  Ga  Ga13  1  0.00461966  0.33499202  0.07688474  1
  Ga  Ga14  1  0.33654025  0.33654025  0.56114088  1
  Ga  Ga15  1  0.66345975  0.66345975  0.43885912  1
  Ga  Ga16  1  0.66345975  0.66345975  0.06114088  1
  Ga  Ga17  1  0.33654025  0.33654025  0.93885912  1
  Ga  Ga18  1  0.54834462  0.33688900  0.25000000  1
  Ga  Ga19  1  0.45165538  0.66311100  0.75000000  1
  Ga  Ga20  1  0.33688900  0.54834462  0.25000000  1
  Ga  Ga21  1  0.66311100  0.45165538  0.75000000  1
  Ru  Ru22  1  0.32542890  0.67457110  -0.00000000  1
  Ru  Ru23  1  0.67457110  0.32542890  -0.00000000  1
  Ru  Ru24  1  0.67457110  0.32542890  0.50000000  1
  Ru  Ru25  1  0.32542890  0.67457110  0.50000000  1
  Ru  Ru26  1  0.00000000  0.00000000  -0.00000000  1
  Ru  Ru27  1  0.00000000  0.00000000  0.50000000  1
