# generated using pymatgen
data_Li3MnCoO5
_symmetry_space_group_name_H-M   'P 1'
_cell_length_a   2.96875501
_cell_length_b   8.14729581
_cell_length_c   7.80186781
_cell_angle_alpha   75.29558751
_cell_angle_beta   98.31670102
_cell_angle_gamma   89.67862191
_symmetry_Int_Tables_number   1
_chemical_formula_structural   Li3MnCoO5
_chemical_formula_sum   'Li6 Mn2 Co2 O10'
_cell_volume   180.42965359
_cell_formula_units_Z   2
loop_
 _symmetry_equiv_pos_site_id
 _symmetry_equiv_pos_as_xyz
  1  'x, y, z'
loop_
 _atom_site_type_symbol
 _atom_site_label
 _atom_site_symmetry_multiplicity
 _atom_site_fract_x
 _atom_site_fract_y
 _atom_site_fract_z
 _atom_site_occupancy
  Li  Li0  1  0.80467432  0.10866503  0.60026165  1
  Li  Li1  1  0.01375123  0.50011103  0.01282036  1
  Li  Li2  1  0.19334979  0.89619362  0.39922009  1
  Li  Li3  1  0.37633729  0.31050784  0.79009263  1
  Li  Li4  1  0.60893721  0.68344394  0.20758757  1
  Li  Li5  1  0.17916797  0.40754735  0.38932767  1
  Mn  Mn6  1  0.00530348  0.99756209  0.00077387  1
  Mn  Mn7  1  0.61141746  0.20677562  0.20735522  1
  Co  Co8  1  0.39368202  0.79440249  0.79717744  1
  Co  Co9  1  0.79272587  0.59239967  0.59089590  1
  O  O10  1  0.36434765  0.04072607  0.80207154  1
  O  O11  1  0.59555876  0.43407948  0.19730589  1
  O  O12  1  0.80940776  0.82817458  0.60919388  1
  O  O13  1  0.03892881  0.23646626  0.02567682  1
  O  O14  1  0.17759348  0.64614400  0.41621026  1
  O  O15  1  0.18236617  0.15619991  0.37847382  1
  O  O16  1  0.43039631  0.56283025  0.78719311  1
  O  O17  1  0.63626545  0.96374579  0.19245366  1
  O  O18  1  0.80140006  0.37326247  0.60717770  1
  O  O19  1  -0.01561110  0.76076252  0.98873090  1
