# generated using pymatgen
data_SmLuSe3
_symmetry_space_group_name_H-M   'P 1'
_cell_length_a   4.09875449
_cell_length_b   11.54514074
_cell_length_c   11.83752603
_cell_angle_alpha   108.87589804
_cell_angle_beta   90.00000000
_cell_angle_gamma   90.00000000
_symmetry_Int_Tables_number   1
_chemical_formula_structural   SmLuSe3
_chemical_formula_sum   'Sm4 Lu4 Se12'
_cell_volume   530.03544283
_cell_formula_units_Z   4
loop_
 _symmetry_equiv_pos_site_id
 _symmetry_equiv_pos_as_xyz
  1  'x, y, z'
loop_
 _atom_site_type_symbol
 _atom_site_label
 _atom_site_symmetry_multiplicity
 _atom_site_fract_x
 _atom_site_fract_y
 _atom_site_fract_z
 _atom_site_occupancy
  Sm  Sm0  1  0.75000000  0.31887178  0.49720751  1
  Sm  Sm1  1  0.25000000  0.68112822  0.50279249  1
  Sm  Sm2  1  0.75000000  0.95110157  0.30287390  1
  Sm  Sm3  1  0.25000000  0.04889843  0.69712610  1
  Lu  Lu4  1  0.75000000  0.84208052  0.91780625  1
  Lu  Lu5  1  0.25000000  0.15791948  0.08219375  1
  Lu  Lu6  1  0.75000000  0.56221509  0.16324875  1
  Lu  Lu7  1  0.25000000  0.43778491  0.83675125  1
  Se  Se8  1  0.75000000  0.60578420  0.93952891  1
  Se  Se9  1  0.25000000  0.39421580  0.06047109  1
  Se  Se10  1  0.75000000  0.26260042  0.73139269  1
  Se  Se11  1  0.25000000  0.73739958  0.26860731  1
  Se  Se12  1  0.75000000  0.19062141  0.24324744  1
  Se  Se13  1  0.25000000  0.80937859  0.75675256  1
  Se  Se14  1  0.75000000  0.08206002  0.90593807  1
  Se  Se15  1  0.25000000  0.91793998  0.09406193  1
  Se  Se16  1  0.75000000  0.88835879  0.53612656  1
  Se  Se17  1  0.25000000  0.11164121  0.46387344  1
  Se  Se18  1  0.75000000  0.51447940  0.37665070  1
  Se  Se19  1  0.25000000  0.48552060  0.62334930  1
