# generated using pymatgen
data_Tb23Cd4Rh7
_symmetry_space_group_name_H-M   'P 1'
_cell_length_a   9.76506609
_cell_length_b   9.76506609
_cell_length_c   21.99925061
_cell_angle_alpha   90.00000000
_cell_angle_beta   90.00000000
_cell_angle_gamma   120.00000329
_symmetry_Int_Tables_number   1
_chemical_formula_structural   Tb23Cd4Rh7
_chemical_formula_sum   'Tb46 Cd8 Rh14'
_cell_volume   1816.72368373
_cell_formula_units_Z   2
loop_
 _symmetry_equiv_pos_site_id
 _symmetry_equiv_pos_as_xyz
  1  'x, y, z'
loop_
 _atom_site_type_symbol
 _atom_site_label
 _atom_site_symmetry_multiplicity
 _atom_site_fract_x
 _atom_site_fract_y
 _atom_site_fract_z
 _atom_site_occupancy
  Tb  Tb0  1  0.20821886  0.41643771  0.72057010  1
  Tb  Tb1  1  0.20821886  0.79178114  0.72057010  1
  Tb  Tb2  1  0.79178114  0.58356229  0.22057010  1
  Tb  Tb3  1  0.58356229  0.79178114  0.72057010  1
  Tb  Tb4  1  0.79178114  0.20821886  0.22057010  1
  Tb  Tb5  1  0.41643771  0.20821886  0.22057010  1
  Tb  Tb6  1  0.79211034  0.58422069  0.94722062  1
  Tb  Tb7  1  0.79211034  0.20788966  0.94722062  1
  Tb  Tb8  1  0.20788966  0.41577931  0.44722062  1
  Tb  Tb9  1  0.41577931  0.20788966  0.94722062  1
  Tb  Tb10  1  0.20788966  0.79211034  0.44722062  1
  Tb  Tb11  1  0.58422069  0.79211034  0.44722062  1
  Tb  Tb12  1  0.21031949  0.42063898  0.99021725  1
  Tb  Tb13  1  0.21031949  0.78968051  0.99021725  1
  Tb  Tb14  1  0.78968051  0.57936102  0.49021725  1
  Tb  Tb15  1  0.57936102  0.78968051  0.99021725  1
  Tb  Tb16  1  0.78968051  0.21031949  0.49021725  1
  Tb  Tb17  1  0.42063898  0.21031949  0.49021725  1
  Tb  Tb18  1  0.87258021  0.74516042  0.63615368  1
  Tb  Tb19  1  0.87258021  0.12741979  0.63615368  1
  Tb  Tb20  1  0.12741979  0.25483958  0.13615368  1
  Tb  Tb21  1  0.25483958  0.12741979  0.63615368  1
  Tb  Tb22  1  0.12741979  0.87258021  0.13615368  1
  Tb  Tb23  1  0.74516042  0.87258021  0.13615368  1
  Tb  Tb24  1  0.45796049  0.91592098  0.85651202  1
  Tb  Tb25  1  0.45796049  0.54203951  0.85651202  1
  Tb  Tb26  1  0.54203951  0.08407902  0.35651202  1
  Tb  Tb27  1  0.08407902  0.54203951  0.85651202  1
  Tb  Tb28  1  0.54203951  0.45796049  0.35651202  1
  Tb  Tb29  1  0.91592098  0.45796049  0.35651202  1
  Tb  Tb30  1  0.00000000  -0.00000000  0.99675192  1
  Tb  Tb31  1  0.00000000  -0.00000000  0.49675192  1
  Tb  Tb32  1  0.45983108  0.91966216  0.58448575  1
  Tb  Tb33  1  0.45983108  0.54016892  0.58448575  1
  Tb  Tb34  1  0.54016892  0.08033784  0.08448575  1
  Tb  Tb35  1  0.08033784  0.54016892  0.58448575  1
  Tb  Tb36  1  0.54016892  0.45983108  0.08448575  1
  Tb  Tb37  1  0.91966216  0.45983108  0.08448575  1
  Tb  Tb38  1  0.79825167  0.59650333  0.78289588  1
  Tb  Tb39  1  0.79825167  0.20174833  0.78289588  1
  Tb  Tb40  1  0.20174833  0.40349667  0.28289588  1
  Tb  Tb41  1  0.40349667  0.20174833  0.78289588  1
  Tb  Tb42  1  0.20174833  0.79825167  0.28289588  1
  Tb  Tb43  1  0.59650333  0.79825167  0.28289588  1
  Tb  Tb44  1  0.66666700  0.33333300  0.64371738  1
  Tb  Tb45  1  0.33333300  0.66666700  0.14371738  1
  Cd  Cd46  1  0.00000000  -0.00000000  0.74973092  1
  Cd  Cd47  1  0.00000000  -0.00000000  0.24973092  1
  Cd  Cd48  1  0.10766240  0.21532480  0.86350519  1
  Cd  Cd49  1  0.10766240  0.89233760  0.86350519  1
  Cd  Cd50  1  0.89233760  0.78467520  0.36350519  1
  Cd  Cd51  1  0.78467520  0.89233760  0.86350519  1
  Cd  Cd52  1  0.89233760  0.10766240  0.36350519  1
  Cd  Cd53  1  0.21532480  0.10766240  0.36350519  1
  Rh  Rh54  1  0.52186937  0.04373873  0.70928741  1
  Rh  Rh55  1  0.52186937  0.47813063  0.70928741  1
  Rh  Rh56  1  0.47813063  0.95626127  0.20928741  1
  Rh  Rh57  1  0.95626127  0.47813063  0.70928741  1
  Rh  Rh58  1  0.47813063  0.52186937  0.20928741  1
  Rh  Rh59  1  0.04373873  0.52186937  0.20928741  1
  Rh  Rh60  1  0.66666700  0.33333300  0.86255235  1
  Rh  Rh61  1  0.33333300  0.66666700  0.36255235  1
  Rh  Rh62  1  0.14311198  0.28622395  0.56380791  1
  Rh  Rh63  1  0.14311198  0.85688802  0.56380791  1
  Rh  Rh64  1  0.85688802  0.71377605  0.06380791  1
  Rh  Rh65  1  0.71377605  0.85688802  0.56380791  1
  Rh  Rh66  1  0.85688802  0.14311198  0.06380791  1
  Rh  Rh67  1  0.28622395  0.14311198  0.06380791  1
