# generated using pymatgen
data_TbAlGe2O7
_symmetry_space_group_name_H-M   'P 1'
_cell_length_a   6.53956276
_cell_length_b   7.21994247
_cell_length_c   11.34456185
_cell_angle_alpha   96.72881020
_cell_angle_beta   90.00000000
_cell_angle_gamma   90.00000000
_symmetry_Int_Tables_number   1
_chemical_formula_structural   TbAlGe2O7
_chemical_formula_sum   'Tb4 Al4 Ge8 O28'
_cell_volume   531.94697497
_cell_formula_units_Z   4
loop_
 _symmetry_equiv_pos_site_id
 _symmetry_equiv_pos_as_xyz
  1  'x, y, z'
loop_
 _atom_site_type_symbol
 _atom_site_label
 _atom_site_symmetry_multiplicity
 _atom_site_fract_x
 _atom_site_fract_y
 _atom_site_fract_z
 _atom_site_occupancy
  Tb  Tb0  1  0.64577771  0.73006813  0.47187727  1
  Tb  Tb1  1  0.35422229  0.26993187  0.52812273  1
  Tb  Tb2  1  0.14577771  0.76993187  0.02812273  1
  Tb  Tb3  1  0.85422229  0.23006813  0.97187727  1
  Al  Al4  1  0.60168234  0.01792129  0.72880677  1
  Al  Al5  1  0.39831766  0.98207871  0.27119323  1
  Al  Al6  1  0.10168234  0.48207871  0.77119323  1
  Al  Al7  1  0.89831766  0.51792129  0.22880677  1
  Ge  Ge8  1  0.34217938  0.24017070  0.95229692  1
  Ge  Ge9  1  0.65782062  0.75982930  0.04770308  1
  Ge  Ge10  1  0.84217938  0.25982930  0.54770308  1
  Ge  Ge11  1  0.15782062  0.74017070  0.45229692  1
  Ge  Ge12  1  0.08994314  0.91870626  0.72115586  1
  Ge  Ge13  1  0.91005686  0.08129374  0.27884414  1
  Ge  Ge14  1  0.58994314  0.58129374  0.77884414  1
  Ge  Ge15  1  0.41005686  0.41870626  0.22115586  1
  O  O16  1  0.62416554  0.76854297  0.69322681  1
  O  O17  1  0.37583446  0.23145703  0.30677319  1
  O  O18  1  0.12416554  0.73145703  0.80677319  1
  O  O19  1  0.87583446  0.26854297  0.19322681  1
  O  O20  1  0.17163271  0.06681394  0.97748236  1
  O  O21  1  0.82836729  0.93318606  0.02251764  1
  O  O22  1  0.67163271  0.43318606  0.52251764  1
  O  O23  1  0.32836729  0.56681394  0.47748236  1
  O  O24  1  0.38435976  0.44210954  0.72010966  1
  O  O25  1  0.61564024  0.55789046  0.27989034  1
  O  O26  1  0.88435976  0.05789046  0.77989034  1
  O  O27  1  0.11564024  0.94210954  0.22010966  1
  O  O28  1  0.99616267  0.82541285  0.57435867  1
  O  O29  1  0.00383733  0.17458715  0.42564133  1
  O  O30  1  0.49616267  0.67458715  0.92564133  1
  O  O31  1  0.50383733  0.32541285  0.07435867  1
  O  O32  1  0.55615020  0.16117887  0.86708329  1
  O  O33  1  0.44384980  0.83882113  0.13291671  1
  O  O34  1  0.05615020  0.33882113  0.63291671  1
  O  O35  1  0.94384980  0.66117887  0.36708329  1
  O  O36  1  0.15528278  0.40741385  0.91756803  1
  O  O37  1  0.84471722  0.59258615  0.08243197  1
  O  O38  1  0.65528278  0.09258615  0.58243197  1
  O  O39  1  0.34471722  0.90741385  0.41756803  1
  O  O40  1  0.31797373  0.03053147  0.68671334  1
  O  O41  1  0.68202627  0.96946853  0.31328666  1
  O  O42  1  0.81797373  0.46946853  0.81328666  1
  O  O43  1  0.18202627  0.53053147  0.18671334  1
