# generated using pymatgen
data_Sr4Zr3O10
_symmetry_space_group_name_H-M   'P 1'
_cell_length_a   5.87391200
_cell_length_b   5.90186370
_cell_length_c   29.46510042
_cell_angle_alpha   90.00000000
_cell_angle_beta   90.00000000
_cell_angle_gamma   90.00000000
_symmetry_Int_Tables_number   1
_chemical_formula_structural   Sr4Zr3O10
_chemical_formula_sum   'Sr16 Zr12 O40'
_cell_volume   1021.46746157
_cell_formula_units_Z   4
loop_
 _symmetry_equiv_pos_site_id
 _symmetry_equiv_pos_as_xyz
  1  'x, y, z'
loop_
 _atom_site_type_symbol
 _atom_site_label
 _atom_site_symmetry_multiplicity
 _atom_site_fract_x
 _atom_site_fract_y
 _atom_site_fract_z
 _atom_site_occupancy
  Sr  Sr0  1  0.01138467  0.02607318  0.29396373  1
  Sr  Sr1  1  0.98861533  0.97392682  0.70603627  1
  Sr  Sr2  1  0.48861533  0.97392682  0.79396373  1
  Sr  Sr3  1  0.98861533  0.52607318  0.20603627  1
  Sr  Sr4  1  0.51138467  0.02607318  0.20603627  1
  Sr  Sr5  1  0.01138467  0.47392682  0.79396373  1
  Sr  Sr6  1  0.51138467  0.47392682  0.70603627  1
  Sr  Sr7  1  0.48861533  0.52607318  0.29396373  1
  Sr  Sr8  1  0.49672114  0.46866915  0.42989453  1
  Sr  Sr9  1  0.50327886  0.53133085  0.57010547  1
  Sr  Sr10  1  0.00327886  0.53133085  0.92989453  1
  Sr  Sr11  1  0.50327886  0.96866915  0.07010547  1
  Sr  Sr12  1  0.99672114  0.46866915  0.07010547  1
  Sr  Sr13  1  0.49672114  0.03133085  0.92989453  1
  Sr  Sr14  1  0.99672114  0.03133085  0.57010547  1
  Sr  Sr15  1  0.00327886  0.96866915  0.42989453  1
  Zr  Zr16  1  0.00159182  0.99985608  0.14187985  1
  Zr  Zr17  1  0.99840818  0.00014392  0.85812015  1
  Zr  Zr18  1  0.49840818  0.00014392  0.64187985  1
  Zr  Zr19  1  0.99840818  0.49985608  0.35812015  1
  Zr  Zr20  1  0.50159182  0.99985608  0.35812015  1
  Zr  Zr21  1  0.00159182  0.50014392  0.64187985  1
  Zr  Zr22  1  0.50159182  0.50014392  0.85812015  1
  Zr  Zr23  1  0.49840818  0.49985608  0.14187985  1
  Zr  Zr24  1  0.00000000  0.00000000  -0.00000000  1
  Zr  Zr25  1  0.50000000  0.00000000  0.50000000  1
  Zr  Zr26  1  0.00000000  0.50000000  0.50000000  1
  Zr  Zr27  1  0.50000000  0.50000000  -0.00000000  1
  O  O28  1  0.07036067  0.01792686  0.07039567  1
  O  O29  1  0.92963933  0.98207314  0.92960433  1
  O  O30  1  0.42963933  0.98207314  0.57039567  1
  O  O31  1  0.92963933  0.51792686  0.42960433  1
  O  O32  1  0.57036067  0.01792686  0.42960433  1
  O  O33  1  0.07036067  0.48207314  0.57039567  1
  O  O34  1  0.57036067  0.48207314  0.92960433  1
  O  O35  1  0.42963933  0.51792686  0.07039567  1
  O  O36  1  0.21105859  0.21003936  0.36827675  1
  O  O37  1  0.78894141  0.78996064  0.63172325  1
  O  O38  1  0.28894141  0.78996064  0.86827675  1
  O  O39  1  0.78894141  0.71003936  0.13172325  1
  O  O40  1  0.71105859  0.21003936  0.13172325  1
  O  O41  1  0.21105859  0.28996064  0.86827675  1
  O  O42  1  0.71105859  0.28996064  0.63172325  1
  O  O43  1  0.28894141  0.71003936  0.36827675  1
  O  O44  1  0.20933438  0.20921343  0.48967104  1
  O  O45  1  0.79066562  0.79078657  0.51032896  1
  O  O46  1  0.29066562  0.79078657  0.98967104  1
  O  O47  1  0.79066562  0.70921343  0.01032896  1
  O  O48  1  0.70933438  0.20921343  0.01032896  1
  O  O49  1  0.20933438  0.29078657  0.98967104  1
  O  O50  1  0.70933438  0.29078657  0.51032896  1
  O  O51  1  0.29066562  0.70921343  0.48967104  1
  O  O52  1  0.21047986  0.28840462  0.15027436  1
  O  O53  1  0.78952014  0.71159538  0.84972564  1
  O  O54  1  0.28952014  0.71159538  0.65027436  1
  O  O55  1  0.78952014  0.78840462  0.34972564  1
  O  O56  1  0.71047986  0.28840462  0.34972564  1
  O  O57  1  0.21047986  0.21159538  0.65027436  1
  O  O58  1  0.71047986  0.21159538  0.84972564  1
  O  O59  1  0.28952014  0.78840462  0.15027436  1
  O  O60  1  0.05996007  0.48263326  0.28773943  1
  O  O61  1  0.94003993  0.51736674  0.71226057  1
  O  O62  1  0.44003993  0.51736674  0.78773943  1
  O  O63  1  0.94003993  0.98263326  0.21226057  1
  O  O64  1  0.55996007  0.48263326  0.21226057  1
  O  O65  1  0.05996007  0.01736674  0.78773943  1
  O  O66  1  0.55996007  0.01736674  0.71226057  1
  O  O67  1  0.44003993  0.98263326  0.28773943  1
