# generated using pymatgen
data_Sr3Sb4Se9
_symmetry_space_group_name_H-M   'P 1'
_cell_length_a   4.17945811
_cell_length_b   17.48161588
_cell_length_c   25.36414564
_cell_angle_alpha   90.00000000
_cell_angle_beta   90.00000000
_cell_angle_gamma   90.00000000
_symmetry_Int_Tables_number   1
_chemical_formula_structural   Sr3Sb4Se9
_chemical_formula_sum   'Sr12 Sb16 Se36'
_cell_volume   1853.19785261
_cell_formula_units_Z   4
loop_
 _symmetry_equiv_pos_site_id
 _symmetry_equiv_pos_as_xyz
  1  'x, y, z'
loop_
 _atom_site_type_symbol
 _atom_site_label
 _atom_site_symmetry_multiplicity
 _atom_site_fract_x
 _atom_site_fract_y
 _atom_site_fract_z
 _atom_site_occupancy
  Sr  Sr0  1  0.51521511  0.17361165  0.17426734  1
  Sr  Sr1  1  0.01521511  0.82638835  0.82573266  1
  Sr  Sr2  1  0.51521511  0.67361165  0.32573266  1
  Sr  Sr3  1  0.01521511  0.32638835  0.67426734  1
  Sr  Sr4  1  0.01669251  0.12263394  0.55436864  1
  Sr  Sr5  1  0.51669251  0.87736606  0.44563136  1
  Sr  Sr6  1  0.01669251  0.62263394  0.94563136  1
  Sr  Sr7  1  0.51669251  0.37736606  0.05436864  1
  Sr  Sr8  1  0.51609082  0.44195394  0.23492641  1
  Sr  Sr9  1  0.01609082  0.55804606  0.76507359  1
  Sr  Sr10  1  0.51609082  0.94195394  0.26507359  1
  Sr  Sr11  1  0.01609082  0.05804606  0.73492641  1
  Sb  Sb12  1  0.02175276  0.47228799  0.39199902  1
  Sb  Sb13  1  0.52175276  0.52771201  0.60800098  1
  Sb  Sb14  1  0.02175276  0.97228799  0.10800098  1
  Sb  Sb15  1  0.52175276  0.02771201  0.89199902  1
  Sb  Sb16  1  0.03387898  0.25614320  0.32255785  1
  Sb  Sb17  1  0.53387898  0.74385680  0.67744215  1
  Sb  Sb18  1  0.03387898  0.75614320  0.17744215  1
  Sb  Sb19  1  0.53387898  0.24385680  0.82255785  1
  Sb  Sb20  1  0.03764418  0.09096278  0.39241034  1
  Sb  Sb21  1  0.53764418  0.90903722  0.60758966  1
  Sb  Sb22  1  0.03764418  0.59096278  0.10758966  1
  Sb  Sb23  1  0.53764418  0.40903722  0.89241034  1
  Sb  Sb24  1  0.01367822  0.16831436  0.00757288  1
  Sb  Sb25  1  0.51367822  0.83168564  0.99242712  1
  Sb  Sb26  1  0.01367822  0.66831436  0.49242712  1
  Sb  Sb27  1  0.51367822  0.33168564  0.50757288  1
  Se  Se28  1  0.51370643  0.05894524  0.06683142  1
  Se  Se29  1  0.01370643  0.94105476  0.93316858  1
  Se  Se30  1  0.51370643  0.55894524  0.43316858  1
  Se  Se31  1  0.01370643  0.44105476  0.56683142  1
  Se  Se32  1  0.51395962  0.36254095  0.34884555  1
  Se  Se33  1  0.01395962  0.63745905  0.65115445  1
  Se  Se34  1  0.51395962  0.86254095  0.15115445  1
  Se  Se35  1  0.01395962  0.13745905  0.84884555  1
  Se  Se36  1  0.01378648  0.25537827  0.46295518  1
  Se  Se37  1  0.51378648  0.74462173  0.53704482  1
  Se  Se38  1  0.01378648  0.75537827  0.03704482  1
  Se  Se39  1  0.51378648  0.24462173  0.96295518  1
  Se  Se40  1  0.02025264  0.29665559  0.22380997  1
  Se  Se41  1  0.52025264  0.70334441  0.77619003  1
  Se  Se42  1  0.02025264  0.79665559  0.27619003  1
  Se  Se43  1  0.52025264  0.20334441  0.72380997  1
  Se  Se44  1  0.01617409  0.04212290  0.19904110  1
  Se  Se45  1  0.51617409  0.95787710  0.80095890  1
  Se  Se46  1  0.01617409  0.54212290  0.30095890  1
  Se  Se47  1  0.51617409  0.45787710  0.69904110  1
  Se  Se48  1  0.02339489  0.44902665  0.13916754  1
  Se  Se49  1  0.52339489  0.55097335  0.86083246  1
  Se  Se50  1  0.02339489  0.94902665  0.36083246  1
  Se  Se51  1  0.52339489  0.05097335  0.63916754  1
  Se  Se52  1  0.51036091  0.13646628  0.30638752  1
  Se  Se53  1  0.01036091  0.86353372  0.69361248  1
  Se  Se54  1  0.51036091  0.63646628  0.19361248  1
  Se  Se55  1  0.01036091  0.36353372  0.80638752  1
  Se  Se56  1  0.01390069  0.25085050  0.09296259  1
  Se  Se57  1  0.51390069  0.74914950  0.90703741  1
  Se  Se58  1  0.01390069  0.75085050  0.40703741  1
  Se  Se59  1  0.51390069  0.24914950  0.59296259  1
  Se  Se60  1  0.52261168  0.05910409  0.46299455  1
  Se  Se61  1  0.02261168  0.94089591  0.53700545  1
  Se  Se62  1  0.52261168  0.55910409  0.03700545  1
  Se  Se63  1  0.02261168  0.44089591  0.96299455  1
