# generated using pymatgen
data_YCo5Si3
_symmetry_space_group_name_H-M   'P 1'
_cell_length_a   3.68925312
_cell_length_b   14.69475920
_cell_length_c   14.69475919
_cell_angle_alpha   119.99999953
_cell_angle_beta   90.00000000
_cell_angle_gamma   90.00000000
_symmetry_Int_Tables_number   1
_chemical_formula_structural   YCo5Si3
_chemical_formula_sum   'Y6 Co30 Si18'
_cell_volume   689.91253269
_cell_formula_units_Z   6
loop_
 _symmetry_equiv_pos_site_id
 _symmetry_equiv_pos_as_xyz
  1  'x, y, z'
loop_
 _atom_site_type_symbol
 _atom_site_label
 _atom_site_symmetry_multiplicity
 _atom_site_fract_x
 _atom_site_fract_y
 _atom_site_fract_z
 _atom_site_occupancy
  Y  Y0  1  0.75000000  0.70680655  0.09986710  1
  Y  Y1  1  0.25000000  0.29319345  0.90013290  1
  Y  Y2  1  0.75000000  0.39306055  0.29319345  1
  Y  Y3  1  0.25000000  0.60693945  0.70680655  1
  Y  Y4  1  0.75000000  0.90013290  0.60693945  1
  Y  Y5  1  0.25000000  0.09986710  0.39306055  1
  Co  Co6  1  0.75000000  0.58708238  0.85247335  1
  Co  Co7  1  0.25000000  0.41291762  0.14752665  1
  Co  Co8  1  0.75000000  0.26539098  0.41291762  1
  Co  Co9  1  0.25000000  0.73460902  0.58708238  1
  Co  Co10  1  0.75000000  0.14752665  0.73460902  1
  Co  Co11  1  0.25000000  0.85247335  0.26539098  1
  Co  Co12  1  0.75000000  0.45940578  0.53347722  1
  Co  Co13  1  0.25000000  0.54059422  0.46652278  1
  Co  Co14  1  0.75000000  0.07407144  0.54059422  1
  Co  Co15  1  0.25000000  0.92592856  0.45940578  1
  Co  Co16  1  0.75000000  0.46652278  0.92592856  1
  Co  Co17  1  0.25000000  0.53347722  0.07407144  1
  Co  Co18  1  0.75000000  0.90300104  0.02910448  1
  Co  Co19  1  0.25000000  0.09699896  0.97089552  1
  Co  Co20  1  0.75000000  0.12610344  0.09699896  1
  Co  Co21  1  0.25000000  0.87389656  0.90300104  1
  Co  Co22  1  0.75000000  0.97089552  0.87389656  1
  Co  Co23  1  0.25000000  0.02910448  0.12610344  1
  Co  Co24  1  0.75000000  0.77398620  0.34667788  1
  Co  Co25  1  0.25000000  0.22601380  0.65332212  1
  Co  Co26  1  0.75000000  0.57269168  0.22601380  1
  Co  Co27  1  0.25000000  0.42730832  0.77398620  1
  Co  Co28  1  0.75000000  0.65332212  0.42730832  1
  Co  Co29  1  0.25000000  0.34667788  0.57269168  1
  Co  Co30  1  0.75000000  0.95188908  0.21839988  1
  Co  Co31  1  0.25000000  0.04811092  0.78160012  1
  Co  Co32  1  0.75000000  0.26651081  0.04811092  1
  Co  Co33  1  0.25000000  0.73348919  0.95188908  1
  Co  Co34  1  0.75000000  0.78160012  0.73348919  1
  Co  Co35  1  0.25000000  0.21839988  0.26651081  1
  Si  Si36  1  0.75000000  0.44295465  0.68153308  1
  Si  Si37  1  0.25000000  0.55704535  0.31846692  1
  Si  Si38  1  0.75000000  0.23857843  0.55704535  1
  Si  Si39  1  0.25000000  0.76142157  0.44295465  1
  Si  Si40  1  0.75000000  0.31846692  0.76142157  1
  Si  Si41  1  0.25000000  0.68153308  0.23857843  1
  Si  Si42  1  0.75000000  0.75354167  0.87151040  1
  Si  Si43  1  0.25000000  0.24645833  0.12848960  1
  Si  Si44  1  0.75000000  0.11796873  0.24645833  1
  Si  Si45  1  0.25000000  0.88203127  0.75354167  1
  Si  Si46  1  0.75000000  0.12848960  0.88203127  1
  Si  Si47  1  0.25000000  0.87151040  0.11796873  1
  Si  Si48  1  0.75000000  0.93708217  0.36898211  1
  Si  Si49  1  0.25000000  0.06291783  0.63101789  1
  Si  Si50  1  0.75000000  0.43189994  0.06291783  1
  Si  Si51  1  0.25000000  0.56810006  0.93708217  1
  Si  Si52  1  0.75000000  0.63101789  0.56810006  1
  Si  Si53  1  0.25000000  0.36898211  0.43189994  1
