# generated using pymatgen
data_Tb9Mg5Ni4
_symmetry_space_group_name_H-M   'P 1'
_cell_length_a   3.64772452
_cell_length_b   10.93954804
_cell_length_c   10.93954804
_cell_angle_alpha   90.00000000
_cell_angle_beta   90.00000000
_cell_angle_gamma   90.00000000
_symmetry_Int_Tables_number   1
_chemical_formula_structural   Tb9Mg5Ni4
_chemical_formula_sum   'Tb9 Mg5 Ni4'
_cell_volume   436.53673118
_cell_formula_units_Z   1
loop_
 _symmetry_equiv_pos_site_id
 _symmetry_equiv_pos_as_xyz
  1  'x, y, z'
loop_
 _atom_site_type_symbol
 _atom_site_label
 _atom_site_symmetry_multiplicity
 _atom_site_fract_x
 _atom_site_fract_y
 _atom_site_fract_z
 _atom_site_occupancy
  Tb  Tb0  1  0.50000000  0.32412605  0.32412605  1
  Tb  Tb1  1  0.50000000  0.67587395  0.67587395  1
  Tb  Tb2  1  0.50000000  0.67587395  0.32412605  1
  Tb  Tb3  1  0.50000000  0.32412605  0.67587395  1
  Tb  Tb4  1  0.50000000  0.27578999  -0.00000000  1
  Tb  Tb5  1  0.50000000  0.72421001  -0.00000000  1
  Tb  Tb6  1  0.50000000  0.00000000  0.27578999  1
  Tb  Tb7  1  0.50000000  0.00000000  0.72421001  1
  Tb  Tb8  1  -0.00000000  0.00000000  0.00000000  1
  Mg  Mg9  1  0.00000000  0.14192391  0.50000000  1
  Mg  Mg10  1  -0.00000000  0.85807609  0.50000000  1
  Mg  Mg11  1  0.00000000  0.50000000  0.14192391  1
  Mg  Mg12  1  -0.00000000  0.50000000  0.85807609  1
  Mg  Mg13  1  -0.00000000  0.50000000  0.50000000  1
  Ni  Ni14  1  -0.00000000  0.19035532  0.19035532  1
  Ni  Ni15  1  0.00000000  0.80964468  0.80964468  1
  Ni  Ni16  1  -0.00000000  0.80964468  0.19035532  1
  Ni  Ni17  1  0.00000000  0.19035532  0.80964468  1
