# generated using pymatgen
data_SrCa2(TeO3)3
_symmetry_space_group_name_H-M   'P 1'
_cell_length_a   5.79288947
_cell_length_b   8.79071038
_cell_length_c   11.53671761
_cell_angle_alpha   109.71306188
_cell_angle_beta   90.00000000
_cell_angle_gamma   90.00000000
_symmetry_Int_Tables_number   1
_chemical_formula_structural   SrCa2(TeO3)3
_chemical_formula_sum   'Sr2 Ca4 Te6 O18'
_cell_volume   553.06063887
_cell_formula_units_Z   2
loop_
 _symmetry_equiv_pos_site_id
 _symmetry_equiv_pos_as_xyz
  1  'x, y, z'
loop_
 _atom_site_type_symbol
 _atom_site_label
 _atom_site_symmetry_multiplicity
 _atom_site_fract_x
 _atom_site_fract_y
 _atom_site_fract_z
 _atom_site_occupancy
  Sr  Sr0  1  0.00062501  0.99844287  0.86266799  1
  Sr  Sr1  1  0.50062501  0.00155713  0.13733201  1
  Ca  Ca2  1  0.94784813  0.98040776  0.38394365  1
  Ca  Ca3  1  0.44784813  0.01959224  0.61605635  1
  Ca  Ca4  1  0.49150196  0.30273034  0.94897003  1
  Ca  Ca5  1  0.99150196  0.69726966  0.05102997  1
  Te  Te6  1  0.49840961  0.74424462  0.82939431  1
  Te  Te7  1  0.99840961  0.25575538  0.17060569  1
  Te  Te8  1  0.92181252  0.69400644  0.52319392  1
  Te  Te9  1  0.42181252  0.30599356  0.47680608  1
  Te  Te10  1  0.93750401  0.33349716  0.75354540  1
  Te  Te11  1  0.43750401  0.66650284  0.24645460  1
  O  O12  1  0.25636295  0.78979495  0.94732551  1
  O  O13  1  0.75636295  0.21020505  0.05267449  1
  O  O14  1  0.68456314  0.81596748  0.48386077  1
  O  O15  1  0.18456314  0.18403252  0.51613923  1
  O  O16  1  0.70884986  0.76022149  0.20651852  1
  O  O17  1  0.20884986  0.23977851  0.79348148  1
  O  O18  1  0.88363940  0.73805728  0.69306318  1
  O  O19  1  0.38363940  0.26194272  0.30693682  1
  O  O20  1  0.42595304  0.92702322  0.78546711  1
  O  O21  1  0.92595304  0.07297678  0.21453289  1
  O  O22  1  0.83037714  0.46728133  0.91056947  1
  O  O23  1  0.33037714  0.53271867  0.08943053  1
  O  O24  1  0.73982762  0.16244498  0.75466467  1
  O  O25  1  0.23982762  0.83755502  0.24533533  1
  O  O26  1  0.73032755  0.83354808  0.94893381  1
  O  O27  1  0.23032755  0.16645192  0.05106619  1
  O  O28  1  0.15444807  0.83874305  0.51315762  1
  O  O29  1  0.65444807  0.16125695  0.48684238  1
