# generated using pymatgen
data_NaLiBeF4
_symmetry_space_group_name_H-M   'P 1'
_cell_length_a   4.67785866
_cell_length_b   6.28476801
_cell_length_c   10.95634035
_cell_angle_alpha   90.00000000
_cell_angle_beta   90.00000000
_cell_angle_gamma   90.00000000
_symmetry_Int_Tables_number   1
_chemical_formula_structural   NaLiBeF4
_chemical_formula_sum   'Na4 Li4 Be4 F16'
_cell_volume   322.10825983
_cell_formula_units_Z   4
loop_
 _symmetry_equiv_pos_site_id
 _symmetry_equiv_pos_as_xyz
  1  'x, y, z'
loop_
 _atom_site_type_symbol
 _atom_site_label
 _atom_site_symmetry_multiplicity
 _atom_site_fract_x
 _atom_site_fract_y
 _atom_site_fract_z
 _atom_site_occupancy
  Na  Na0  1  0.47706143  0.75000000  0.77674613  1
  Na  Na1  1  0.52293857  0.25000000  0.22325387  1
  Na  Na2  1  0.97706143  0.25000000  0.72325387  1
  Na  Na3  1  0.02293857  0.75000000  0.27674613  1
  Li  Li4  1  0.00000000  0.00000000  0.00000000  1
  Li  Li5  1  0.50000000  0.00000000  0.50000000  1
  Li  Li6  1  0.00000000  0.50000000  0.00000000  1
  Li  Li7  1  0.50000000  0.50000000  0.50000000  1
  Be  Be8  1  0.90448518  0.75000000  0.58111262  1
  Be  Be9  1  0.09551482  0.25000000  0.41888738  1
  Be  Be10  1  0.40448518  0.25000000  0.91888738  1
  Be  Be11  1  0.59551482  0.75000000  0.08111262  1
  F  F12  1  0.77634746  0.95100634  0.64601600  1
  F  F13  1  0.22365254  0.04899366  0.35398400  1
  F  F14  1  0.27634746  0.04899366  0.85398400  1
  F  F15  1  0.22365254  0.45100634  0.35398400  1
  F  F16  1  0.72365254  0.95100634  0.14601600  1
  F  F17  1  0.77634746  0.54899366  0.64601600  1
  F  F18  1  0.72365254  0.54899366  0.14601600  1
  F  F19  1  0.27634746  0.45100634  0.85398400  1
  F  F20  1  0.74673835  0.75000000  0.95109099  1
  F  F21  1  0.25326165  0.25000000  0.04890901  1
  F  F22  1  0.24673835  0.25000000  0.54890901  1
  F  F23  1  0.75326165  0.75000000  0.45109099  1
  F  F24  1  0.23507527  0.75000000  0.57724419  1
  F  F25  1  0.76492473  0.25000000  0.42275581  1
  F  F26  1  0.73507527  0.25000000  0.92275581  1
  F  F27  1  0.26492473  0.75000000  0.07724419  1
