# generated using pymatgen
data_PrSi3N5
_symmetry_space_group_name_H-M   'P 1'
_cell_length_a   4.81845432
_cell_length_b   7.88348679
_cell_length_c   11.31993046
_cell_angle_alpha   90.00000000
_cell_angle_beta   90.00000000
_cell_angle_gamma   90.00000000
_symmetry_Int_Tables_number   1
_chemical_formula_structural   PrSi3N5
_chemical_formula_sum   'Pr4 Si12 N20'
_cell_volume   430.00137993
_cell_formula_units_Z   4
loop_
 _symmetry_equiv_pos_site_id
 _symmetry_equiv_pos_as_xyz
  1  'x, y, z'
loop_
 _atom_site_type_symbol
 _atom_site_label
 _atom_site_symmetry_multiplicity
 _atom_site_fract_x
 _atom_site_fract_y
 _atom_site_fract_z
 _atom_site_occupancy
  Pr  Pr0  1  0.50539927  0.06044016  0.17006757  1
  Pr  Pr1  1  0.99460073  0.93955984  0.67006757  1
  Pr  Pr2  1  0.49460073  0.56044016  0.32993243  1
  Pr  Pr3  1  0.00539927  0.43955984  0.82993243  1
  Si  Si4  1  0.01661763  0.20690947  0.41669115  1
  Si  Si5  1  0.48338237  0.79309053  0.91669115  1
  Si  Si6  1  0.98338237  0.70690947  0.08330885  1
  Si  Si7  1  0.51661763  0.29309053  0.58330885  1
  Si  Si8  1  0.52381168  0.46687651  0.04096116  1
  Si  Si9  1  0.97618832  0.53312349  0.54096116  1
  Si  Si10  1  0.47618832  0.96687651  0.45903884  1
  Si  Si11  1  0.02381168  0.03312349  0.95903884  1
  Si  Si12  1  0.01428885  0.33804314  0.16064263  1
  Si  Si13  1  0.48571115  0.66195686  0.66064263  1
  Si  Si14  1  0.98571115  0.83804314  0.33935737  1
  Si  Si15  1  0.51428885  0.16195686  0.83935737  1
  N  N16  1  0.16569240  0.29339515  0.29475491  1
  N  N17  1  0.33430760  0.70660485  0.79475491  1
  N  N18  1  0.83430760  0.79339515  0.20524509  1
  N  N19  1  0.66569240  0.20660485  0.70524509  1
  N  N20  1  0.18481435  0.51844915  0.09306711  1
  N  N21  1  0.31518565  0.48155085  0.59306711  1
  N  N22  1  0.81518565  0.01844915  0.40693289  1
  N  N23  1  0.68481435  0.98155085  0.90693289  1
  N  N24  1  0.67053724  0.38906723  0.16768615  1
  N  N25  1  0.82946276  0.61093277  0.66768615  1
  N  N26  1  0.32946276  0.88906723  0.33231385  1
  N  N27  1  0.17053724  0.11093277  0.83231385  1
  N  N28  1  0.04611738  0.15754136  0.07967953  1
  N  N29  1  0.45388262  0.84245864  0.57967953  1
  N  N30  1  0.95388262  0.65754136  0.42032047  1
  N  N31  1  0.54611738  0.34245864  0.92032047  1
  N  N32  1  0.29589337  0.14971382  0.51044871  1
  N  N33  1  0.20410663  0.85028618  0.01044871  1
  N  N34  1  0.70410663  0.64971382  0.98955129  1
  N  N35  1  0.79589337  0.35028618  0.48955129  1
