# generated using pymatgen
data_Na2SmCl5
_symmetry_space_group_name_H-M   'P 1'
_cell_length_a   7.78621946
_cell_length_b   8.39299642
_cell_length_c   12.17187941
_cell_angle_alpha   90.00000000
_cell_angle_beta   90.00000000
_cell_angle_gamma   90.00000000
_symmetry_Int_Tables_number   1
_chemical_formula_structural   Na2SmCl5
_chemical_formula_sum   'Na8 Sm4 Cl20'
_cell_volume   795.42881459
_cell_formula_units_Z   4
loop_
 _symmetry_equiv_pos_site_id
 _symmetry_equiv_pos_as_xyz
  1  'x, y, z'
loop_
 _atom_site_type_symbol
 _atom_site_label
 _atom_site_symmetry_multiplicity
 _atom_site_fract_x
 _atom_site_fract_y
 _atom_site_fract_z
 _atom_site_occupancy
  Na  Na0  1  0.54247848  0.49640689  0.67248243  1
  Na  Na1  1  0.45752152  0.50359311  0.32751757  1
  Na  Na2  1  0.04247848  0.50359311  0.82751757  1
  Na  Na3  1  0.45752152  0.99640689  0.32751757  1
  Na  Na4  1  0.95752152  0.49640689  0.17248243  1
  Na  Na5  1  0.54247848  0.00359311  0.67248243  1
  Na  Na6  1  0.95752152  0.00359311  0.17248243  1
  Na  Na7  1  0.04247848  0.99640689  0.82751757  1
  Sm  Sm8  1  0.58206881  0.75000000  0.99246257  1
  Sm  Sm9  1  0.41793119  0.25000000  0.00753743  1
  Sm  Sm10  1  0.08206881  0.25000000  0.50753743  1
  Sm  Sm11  1  0.91793119  0.75000000  0.49246257  1
  Cl  Cl12  1  0.36642005  0.75000000  0.81423230  1
  Cl  Cl13  1  0.63357995  0.25000000  0.18576770  1
  Cl  Cl14  1  0.86642005  0.25000000  0.68576770  1
  Cl  Cl15  1  0.13357995  0.75000000  0.31423230  1
  Cl  Cl16  1  0.66794770  0.45481562  0.91550701  1
  Cl  Cl17  1  0.33205230  0.54518438  0.08449299  1
  Cl  Cl18  1  0.16794770  0.54518438  0.58449299  1
  Cl  Cl19  1  0.33205230  0.95481562  0.08449299  1
  Cl  Cl20  1  0.83205230  0.45481562  0.41550701  1
  Cl  Cl21  1  0.66794770  0.04518438  0.91550701  1
  Cl  Cl22  1  0.83205230  0.04518438  0.41550701  1
  Cl  Cl23  1  0.16794770  0.95481562  0.58449299  1
  Cl  Cl24  1  0.93952903  0.75000000  0.99637486  1
  Cl  Cl25  1  0.06047097  0.25000000  0.00362514  1
  Cl  Cl26  1  0.43952903  0.25000000  0.50362514  1
  Cl  Cl27  1  0.56047097  0.75000000  0.49637486  1
  Cl  Cl28  1  0.83080981  0.75000000  0.71261640  1
  Cl  Cl29  1  0.16919019  0.25000000  0.28738360  1
  Cl  Cl30  1  0.33080981  0.25000000  0.78738360  1
  Cl  Cl31  1  0.66919019  0.75000000  0.21261640  1
