# generated using pymatgen
data_Na3Sm9B8O27
_symmetry_space_group_name_H-M   'P 1'
_cell_length_a   8.41136740
_cell_length_b   8.75378606
_cell_length_c   8.75378606
_cell_angle_alpha   120.00000242
_cell_angle_beta   90.00000000
_cell_angle_gamma   90.00000000
_symmetry_Int_Tables_number   1
_chemical_formula_structural   Na3Sm9B8O27
_chemical_formula_sum   'Na3 Sm9 B8 O27'
_cell_volume   558.19903431
_cell_formula_units_Z   1
loop_
 _symmetry_equiv_pos_site_id
 _symmetry_equiv_pos_as_xyz
  1  'x, y, z'
loop_
 _atom_site_type_symbol
 _atom_site_label
 _atom_site_symmetry_multiplicity
 _atom_site_fract_x
 _atom_site_fract_y
 _atom_site_fract_z
 _atom_site_occupancy
  Na  Na0  1  0.00000000  0.66376851  0.66376851  1
  Na  Na1  1  0.00000000  1.00000000  0.33623149  1
  Na  Na2  1  0.00000000  0.33623149  1.00000000  1
  Sm  Sm3  1  0.76448064  0.34847509  0.34847509  1
  Sm  Sm4  1  0.76448064  1.00000000  0.65152491  1
  Sm  Sm5  1  0.23551936  0.34847509  0.34847509  1
  Sm  Sm6  1  0.23551936  1.00000000  0.65152491  1
  Sm  Sm7  1  0.76448064  0.65152491  1.00000000  1
  Sm  Sm8  1  0.23551936  0.65152491  1.00000000  1
  Sm  Sm9  1  0.50000000  0.71807423  0.71807423  1
  Sm  Sm10  1  0.50000000  1.00000000  0.28192577  1
  Sm  Sm11  1  0.50000000  0.28192577  1.00000000  1
  B  B12  1  0.78995333  -0.00000000  0.00000000  1
  B  B13  1  0.21004667  -0.00000000  0.00000000  1
  B  B14  1  0.00000000  0.66666700  0.33333300  1
  B  B15  1  0.00000000  0.33333300  0.66666700  1
  B  B16  1  0.67551909  0.66666700  0.33333300  1
  B  B17  1  0.32448091  0.66666700  0.33333300  1
  B  B18  1  0.32448091  0.33333300  0.66666700  1
  B  B19  1  0.67551909  0.33333300  0.66666700  1
  O  O20  1  0.68238860  0.82375273  0.33425088  1
  O  O21  1  0.68238860  0.51049815  0.17624727  1
  O  O22  1  0.31761140  0.82375273  0.33425088  1
  O  O23  1  0.31761140  0.48950185  0.66574912  1
  O  O24  1  0.68238860  0.66574912  0.48950185  1
  O  O25  1  0.31761140  0.51049815  0.17624727  1
  O  O26  1  0.31761140  0.33425088  0.82375273  1
  O  O27  1  0.68238860  0.48950185  0.66574912  1
  O  O28  1  0.31761140  0.66574912  0.48950185  1
  O  O29  1  0.68238860  0.33425088  0.82375273  1
  O  O30  1  0.31761140  0.17624727  0.51049815  1
  O  O31  1  0.68238860  0.17624727  0.51049815  1
  O  O32  1  0.00000000  0.67752263  0.17923219  1
  O  O33  1  0.00000000  0.50170956  0.32247737  1
  O  O34  1  0.00000000  0.49829044  0.82076781  1
  O  O35  1  0.00000000  0.82076781  0.49829044  1
  O  O36  1  0.00000000  0.17923219  0.67752263  1
  O  O37  1  0.00000000  0.32247737  0.50170956  1
  O  O38  1  0.50000000  0.25636221  0.25636221  1
  O  O39  1  0.50000000  0.00000000  0.74363779  1
  O  O40  1  0.50000000  0.74363779  0.00000000  1
  O  O41  1  0.78725094  0.84159185  0.84159185  1
  O  O42  1  0.78725094  0.00000000  0.15840815  1
  O  O43  1  0.21274906  0.84159185  0.84159185  1
  O  O44  1  0.21274906  0.00000000  0.15840815  1
  O  O45  1  0.78725094  0.15840815  0.00000000  1
  O  O46  1  0.21274906  0.15840815  0.00000000  1
