# generated using pymatgen
data_NaGaP2O7
_symmetry_space_group_name_H-M   'P 1'
_cell_length_a   7.37408755
_cell_length_b   7.92306501
_cell_length_c   9.57433288
_cell_angle_alpha   90.00000000
_cell_angle_beta   112.15582291
_cell_angle_gamma   90.00000000
_symmetry_Int_Tables_number   1
_chemical_formula_structural   NaGaP2O7
_chemical_formula_sum   'Na4 Ga4 P8 O28'
_cell_volume   518.07999206
_cell_formula_units_Z   4
loop_
 _symmetry_equiv_pos_site_id
 _symmetry_equiv_pos_as_xyz
  1  'x, y, z'
loop_
 _atom_site_type_symbol
 _atom_site_label
 _atom_site_symmetry_multiplicity
 _atom_site_fract_x
 _atom_site_fract_y
 _atom_site_fract_z
 _atom_site_occupancy
  Na  Na0  1  0.28960609  0.47499235  0.29714777  1
  Na  Na1  1  0.71039391  0.52500765  0.70285223  1
  Na  Na2  1  0.71039391  0.97499235  0.20285223  1
  Na  Na3  1  0.28960609  0.02500765  0.79714777  1
  Ga  Ga4  1  0.25807242  0.00680135  0.24914867  1
  Ga  Ga5  1  0.74192758  0.99319865  0.75085133  1
  Ga  Ga6  1  0.74192758  0.50680135  0.25085133  1
  Ga  Ga7  1  0.25807242  0.49319865  0.74914867  1
  P  P8  1  0.32803365  0.71047430  0.04634051  1
  P  P9  1  0.67196635  0.28952570  0.95365949  1
  P  P10  1  0.67196635  0.21047430  0.45365949  1
  P  P11  1  0.32803365  0.78952570  0.54634051  1
  P  P12  1  0.07408311  0.25430245  0.45552648  1
  P  P13  1  0.92591689  0.74569755  0.54447352  1
  P  P14  1  0.92591689  0.75430245  0.04447352  1
  P  P15  1  0.07408311  0.24569755  0.95552648  1
  O  O16  1  0.12340883  0.65217865  0.05993330  1
  O  O17  1  0.87659117  0.34782135  0.94006670  1
  O  O18  1  0.87659117  0.15217865  0.44006670  1
  O  O19  1  0.12340883  0.84782135  0.55993330  1
  O  O20  1  0.53019217  0.08416923  0.34870891  1
  O  O21  1  0.46980783  0.91583077  0.65129109  1
  O  O22  1  0.46980783  0.58416923  0.15129109  1
  O  O23  1  0.53019217  0.41583077  0.84870891  1
  O  O24  1  0.63584537  0.39436323  0.39689072  1
  O  O25  1  0.36415463  0.60563677  0.60310928  1
  O  O26  1  0.36415463  0.89436323  0.10310928  1
  O  O27  1  0.63584537  0.10563677  0.89689072  1
  O  O28  1  0.18457428  0.13345985  0.39417990  1
  O  O29  1  0.81542572  0.86654015  0.60582010  1
  O  O30  1  0.81542572  0.63345985  0.10582010  1
  O  O31  1  0.18457428  0.36654015  0.89417990  1
  O  O32  1  0.19106058  0.21306839  0.12269437  1
  O  O33  1  0.80893942  0.78693161  0.87730563  1
  O  O34  1  0.80893942  0.71306839  0.37730563  1
  O  O35  1  0.19106058  0.28693161  0.62269437  1
  O  O36  1  0.01085261  0.41643501  0.36098764  1
  O  O37  1  0.98914739  0.58356499  0.63901236  1
  O  O38  1  0.98914739  0.91643501  0.13901236  1
  O  O39  1  0.01085261  0.08356499  0.86098764  1
  O  O40  1  0.69314973  0.29726975  0.11873672  1
  O  O41  1  0.30685027  0.70273025  0.88126328  1
  O  O42  1  0.30685027  0.79726975  0.38126328  1
  O  O43  1  0.69314973  0.20273025  0.61873672  1
