# generated using pymatgen
data_Nd2SiS5
_symmetry_space_group_name_H-M   'P 1'
_cell_length_a   7.82848179
_cell_length_b   7.58490929
_cell_length_c   12.53226909
_cell_angle_alpha   90.00000000
_cell_angle_beta   90.00000000
_cell_angle_gamma   101.28606967
_symmetry_Int_Tables_number   1
_chemical_formula_structural   Nd2SiS5
_chemical_formula_sum   'Nd8 Si4 S20'
_cell_volume   729.75505941
_cell_formula_units_Z   4
loop_
 _symmetry_equiv_pos_site_id
 _symmetry_equiv_pos_as_xyz
  1  'x, y, z'
loop_
 _atom_site_type_symbol
 _atom_site_label
 _atom_site_symmetry_multiplicity
 _atom_site_fract_x
 _atom_site_fract_y
 _atom_site_fract_z
 _atom_site_occupancy
  Nd  Nd0  1  0.13267466  0.15985307  0.66469716  1
  Nd  Nd1  1  0.86732534  0.84014693  0.33530284  1
  Nd  Nd2  1  0.36732534  0.84014693  0.16469716  1
  Nd  Nd3  1  0.63267466  0.15985307  0.83530284  1
  Nd  Nd4  1  0.04195433  0.23969030  0.09394614  1
  Nd  Nd5  1  0.95804567  0.76030970  0.90605386  1
  Nd  Nd6  1  0.45804567  0.76030970  0.59394614  1
  Nd  Nd7  1  0.54195433  0.23969030  0.40605386  1
  Si  Si8  1  0.09310659  0.33469930  0.38343214  1
  Si  Si9  1  0.90689341  0.66530070  0.61656786  1
  Si  Si10  1  0.40689341  0.66530070  0.88343214  1
  Si  Si11  1  0.59310659  0.33469930  0.11656786  1
  S  S12  1  0.38520866  0.17336042  0.02832307  1
  S  S13  1  0.61479134  0.82663958  0.97167693  1
  S  S14  1  0.11479134  0.82663958  0.52832307  1
  S  S15  1  0.88520866  0.17336042  0.47167693  1
  S  S16  1  0.19431488  0.13202940  0.29578090  1
  S  S17  1  0.80568512  0.86797060  0.70421910  1
  S  S18  1  0.30568512  0.86797060  0.79578090  1
  S  S19  1  0.69431488  0.13202940  0.20421910  1
  S  S20  1  0.04775912  0.52846817  0.27078213  1
  S  S21  1  0.95224088  0.47153183  0.72921787  1
  S  S22  1  0.45224088  0.47153183  0.77078213  1
  S  S23  1  0.54775912  0.52846817  0.22921787  1
  S  S24  1  0.49867890  0.13624807  0.62138198  1
  S  S25  1  0.50132110  0.86375193  0.37861802  1
  S  S26  1  0.00132110  0.86375193  0.12138198  1
  S  S27  1  0.99867890  0.13624807  0.87861802  1
  S  S28  1  0.21942548  0.57874712  0.00435789  1
  S  S29  1  0.78057452  0.42125288  0.99564211  1
  S  S30  1  0.28057452  0.42125288  0.50435789  1
  S  S31  1  0.71942548  0.57874712  0.49564211  1
