# generated using pymatgen
data_Y3Ga15Ru4
_symmetry_space_group_name_H-M   'P 1'
_cell_length_a   8.82023352
_cell_length_b   9.74049656
_cell_length_c   17.97892923
_cell_angle_alpha   90.00000000
_cell_angle_beta   90.00000000
_cell_angle_gamma   90.00000000
_symmetry_Int_Tables_number   1
_chemical_formula_structural   Y3Ga15Ru4
_chemical_formula_sum   'Y12 Ga60 Ru16'
_cell_volume   1544.63191404
_cell_formula_units_Z   4
loop_
 _symmetry_equiv_pos_site_id
 _symmetry_equiv_pos_as_xyz
  1  'x, y, z'
loop_
 _atom_site_type_symbol
 _atom_site_label
 _atom_site_symmetry_multiplicity
 _atom_site_fract_x
 _atom_site_fract_y
 _atom_site_fract_z
 _atom_site_occupancy
  Y  Y0  1  0.37437042  0.25000000  0.16850696  1
  Y  Y1  1  0.62562958  0.75000000  0.83149304  1
  Y  Y2  1  0.12562958  0.75000000  0.66850696  1
  Y  Y3  1  0.87437042  0.25000000  0.33149304  1
  Y  Y4  1  0.37453703  0.25000000  0.74803270  1
  Y  Y5  1  0.62546297  0.75000000  0.25196730  1
  Y  Y6  1  0.12546297  0.75000000  0.24803270  1
  Y  Y7  1  0.87453703  0.25000000  0.75196730  1
  Y  Y8  1  0.12556451  0.25000000  0.52306401  1
  Y  Y9  1  0.87443549  0.75000000  0.47693599  1
  Y  Y10  1  0.37443549  0.75000000  0.02306401  1
  Y  Y11  1  0.62556451  0.25000000  0.97693599  1
  Ga  Ga12  1  0.12746670  0.06177346  0.25279566  1
  Ga  Ga13  1  0.87253330  0.93822654  0.74720434  1
  Ga  Ga14  1  0.37253330  0.93822654  0.75279566  1
  Ga  Ga15  1  0.87253330  0.56177346  0.74720434  1
  Ga  Ga16  1  0.62746670  0.06177346  0.24720434  1
  Ga  Ga17  1  0.12746670  0.43822654  0.25279566  1
  Ga  Ga18  1  0.62746670  0.43822654  0.24720434  1
  Ga  Ga19  1  0.37253330  0.56177346  0.75279566  1
  Ga  Ga20  1  0.00725191  0.25000000  0.16896186  1
  Ga  Ga21  1  0.99274809  0.75000000  0.83103814  1
  Ga  Ga22  1  0.49274809  0.75000000  0.66896186  1
  Ga  Ga23  1  0.50725191  0.25000000  0.33103814  1
  Ga  Ga24  1  0.13328050  0.25000000  0.04243745  1
  Ga  Ga25  1  0.86671950  0.75000000  0.95756255  1
  Ga  Ga26  1  0.36671950  0.75000000  0.54243745  1
  Ga  Ga27  1  0.63328050  0.25000000  0.45756255  1
  Ga  Ga28  1  0.37406578  0.57684949  0.33280548  1
  Ga  Ga29  1  0.62593422  0.42315051  0.66719452  1
  Ga  Ga30  1  0.12593422  0.42315051  0.83280548  1
  Ga  Ga31  1  0.62593422  0.07684949  0.66719452  1
  Ga  Ga32  1  0.87406578  0.57684949  0.16719452  1
  Ga  Ga33  1  0.37406578  0.92315051  0.33280548  1
  Ga  Ga34  1  0.87406578  0.92315051  0.16719452  1
  Ga  Ga35  1  0.12593422  0.07684949  0.83280548  1
  Ga  Ga36  1  0.22007019  0.25000000  0.35908800  1
  Ga  Ga37  1  0.77992981  0.75000000  0.64091200  1
  Ga  Ga38  1  0.27992981  0.75000000  0.85908800  1
  Ga  Ga39  1  0.72007019  0.25000000  0.14091200  1
  Ga  Ga40  1  0.12375532  0.08553022  0.67123300  1
  Ga  Ga41  1  0.87624468  0.91446978  0.32876700  1
  Ga  Ga42  1  0.37624468  0.91446978  0.17123300  1
  Ga  Ga43  1  0.87624468  0.58553022  0.32876700  1
  Ga  Ga44  1  0.62375532  0.08553022  0.82876700  1
  Ga  Ga45  1  0.12375532  0.41446978  0.67123300  1
  Ga  Ga46  1  0.62375532  0.41446978  0.82876700  1
  Ga  Ga47  1  0.37624468  0.58553022  0.17123300  1
  Ga  Ga48  1  0.37898745  0.06038450  0.46599881  1
  Ga  Ga49  1  0.62101255  0.93961550  0.53400119  1
  Ga  Ga50  1  0.12101255  0.93961550  0.96599881  1
  Ga  Ga51  1  0.62101255  0.56038450  0.53400119  1
  Ga  Ga52  1  0.87898745  0.06038450  0.03400119  1
  Ga  Ga53  1  0.37898745  0.43961550  0.46599881  1
  Ga  Ga54  1  0.87898745  0.43961550  0.03400119  1
  Ga  Ga55  1  0.12101255  0.56038450  0.96599881  1
  Ga  Ga56  1  0.45134582  0.25000000  0.57769879  1
  Ga  Ga57  1  0.54865418  0.75000000  0.42230121  1
  Ga  Ga58  1  0.04865418  0.75000000  0.07769879  1
  Ga  Ga59  1  0.95134582  0.25000000  0.92230121  1
  Ga  Ga60  1  0.30376509  0.25000000  0.91791761  1
  Ga  Ga61  1  0.69623491  0.75000000  0.08208239  1
  Ga  Ga62  1  0.19623491  0.75000000  0.41791761  1
  Ga  Ga63  1  0.80376509  0.25000000  0.58208239  1
  Ga  Ga64  1  0.37228550  0.06867213  0.03213744  1
  Ga  Ga65  1  0.62771450  0.93132787  0.96786256  1
  Ga  Ga66  1  0.12771450  0.93132787  0.53213744  1
  Ga  Ga67  1  0.62771450  0.56867213  0.96786256  1
  Ga  Ga68  1  0.87228550  0.06867213  0.46786256  1
  Ga  Ga69  1  0.37228550  0.43132787  0.03213744  1
  Ga  Ga70  1  0.87228550  0.43132787  0.46786256  1
  Ga  Ga71  1  0.12771450  0.56867213  0.53213744  1
  Ru  Ru72  1  0.11725719  0.00209000  0.39027238  1
  Ru  Ru73  1  0.88274281  0.99791000  0.60972762  1
  Ru  Ru74  1  0.38274281  0.99791000  0.89027238  1
  Ru  Ru75  1  0.88274281  0.50209000  0.60972762  1
  Ru  Ru76  1  0.61725719  0.00209000  0.10972762  1
  Ru  Ru77  1  0.11725719  0.49791000  0.39027238  1
  Ru  Ru78  1  0.61725719  0.49791000  0.10972762  1
  Ru  Ru79  1  0.38274281  0.50209000  0.89027238  1
  Ru  Ru80  1  0.12999864  0.00308400  0.11389611  1
  Ru  Ru81  1  0.87000136  0.99691600  0.88610389  1
  Ru  Ru82  1  0.37000136  0.99691600  0.61389611  1
  Ru  Ru83  1  0.87000136  0.50308400  0.88610389  1
  Ru  Ru84  1  0.62999864  0.00308400  0.38610389  1
  Ru  Ru85  1  0.12999864  0.49691600  0.11389611  1
  Ru  Ru86  1  0.62999864  0.49691600  0.38610389  1
  Ru  Ru87  1  0.37000136  0.50308400  0.61389611  1
