# generated using pymatgen
data_NaCa2Si4O10F
_symmetry_space_group_name_H-M   'P 1'
_cell_length_a   7.04432156
_cell_length_b   7.86575744
_cell_length_c   19.16557841
_cell_angle_alpha   85.70410521
_cell_angle_beta   89.87495987
_cell_angle_gamma   63.53145657
_symmetry_Int_Tables_number   1
_chemical_formula_structural   NaCa2Si4O10F
_chemical_formula_sum   'Na4 Ca8 Si16 O40 F4'
_cell_volume   947.38011159
_cell_formula_units_Z   4
loop_
 _symmetry_equiv_pos_site_id
 _symmetry_equiv_pos_as_xyz
  1  'x, y, z'
loop_
 _atom_site_type_symbol
 _atom_site_label
 _atom_site_symmetry_multiplicity
 _atom_site_fract_x
 _atom_site_fract_y
 _atom_site_fract_z
 _atom_site_occupancy
  Na  Na0  1  0.13223017  0.73516216  0.50965465  1
  Na  Na1  1  0.86776983  0.26483784  0.49034535  1
  Na  Na2  1  0.13563612  0.23931818  0.00269083  1
  Na  Na3  1  0.86436388  0.76068182  0.99730917  1
  Ca  Ca4  1  0.49900663  0.49952574  0.28239005  1
  Ca  Ca5  1  0.50099337  0.50047426  0.71760995  1
  Ca  Ca6  1  0.47963217  0.04534586  0.22001043  1
  Ca  Ca7  1  0.52036783  0.95465414  0.77998957  1
  Ca  Ca8  1  0.00357645  0.49925622  0.28468746  1
  Ca  Ca9  1  0.99642355  0.50074378  0.71531254  1
  Ca  Ca10  1  0.98010504  0.04261197  0.21558900  1
  Ca  Ca11  1  0.01989496  0.95738803  0.78441100  1
  Si  Si12  1  0.23474104  0.47799065  0.12009850  1
  Si  Si13  1  0.76525896  0.52200935  0.87990150  1
  Si  Si14  1  0.21358717  0.01437458  0.37752032  1
  Si  Si15  1  0.78641283  0.98562542  0.62247968  1
  Si  Si16  1  0.77364160  0.01405405  0.37737631  1
  Si  Si17  1  0.22635840  0.98594595  0.62262369  1
  Si  Si18  1  0.65469294  0.19358913  0.06839465  1
  Si  Si19  1  0.34530706  0.80641087  0.93160535  1
  Si  Si20  1  0.34190215  0.82414552  0.09014630  1
  Si  Si21  1  0.65809785  0.17585448  0.90985370  1
  Si  Si22  1  0.79423920  0.47486822  0.11970079  1
  Si  Si23  1  0.20576080  0.52513178  0.88029921  1
  Si  Si24  1  0.33475915  0.33098650  0.58996955  1
  Si  Si25  1  0.66524085  0.66901350  0.41003045  1
  Si  Si26  1  0.35587525  0.29066646  0.43061871  1
  Si  Si27  1  0.64412475  0.70933354  0.56938129  1
  O  O28  1  0.20837159  0.20137181  0.60740755  1
  O  O29  1  0.79162841  0.79862819  0.39259245  1
  O  O30  1  0.29684649  0.39159346  0.19965054  1
  O  O31  1  0.70315351  0.60840654  0.80034946  1
  O  O32  1  0.81627200  0.38947337  0.19928005  1
  O  O33  1  0.18372800  0.61052663  0.80071995  1
  O  O34  1  0.58965676  0.20068165  0.60738029  1
  O  O35  1  0.41034324  0.79931835  0.39261971  1
  O  O36  1  0.00111106  0.50391132  0.09091411  1
  O  O37  1  0.99888894  0.49608868  0.90908589  1
  O  O38  1  0.28398765  0.43724988  0.36308763  1
  O  O39  1  0.71601235  0.56275012  0.63691237  1
  O  O40  1  0.23436270  0.15207437  0.43531014  1
  O  O41  1  0.76563730  0.84792563  0.56468986  1
  O  O42  1  0.21757438  0.69148203  0.10291753  1
  O  O43  1  0.78242562  0.30851797  0.89708247  1
  O  O44  1  0.61478523  0.15105176  0.43519539  1
  O  O45  1  0.38521477  0.84894824  0.56480461  1
  O  O46  1  0.72541364  0.04635524  0.13593108  1
  O  O47  1  0.27458636  0.95364476  0.86406892  1
  O  O48  1  0.25742739  0.99897299  0.13830568  1
  O  O49  1  0.74257261  0.00102701  0.86169432  1
  O  O50  1  0.29660562  0.90974636  0.00630075  1
  O  O51  1  0.70339438  0.09025364  0.99369925  1
  O  O52  1  0.00695875  0.98697467  0.40666822  1
  O  O53  1  0.99304125  0.01302533  0.59333178  1
  O  O54  1  0.59752149  0.68600294  0.09980095  1
  O  O55  1  0.40247851  0.31399706  0.90019905  1
  O  O56  1  0.70677388  0.10524434  0.29829857  1
  O  O57  1  0.29322612  0.89475566  0.70170143  1
  O  O58  1  0.39605662  0.33592743  0.06388447  1
  O  O59  1  0.60394338  0.66407257  0.93611553  1
  O  O60  1  0.23927089  0.52306307  0.62959867  1
  O  O61  1  0.76072911  0.47693693  0.37040133  1
  O  O62  1  0.78186329  0.32791247  0.06398604  1
  O  O63  1  0.21813671  0.67208753  0.93601396  1
  O  O64  1  0.30268557  0.39646097  0.50452787  1
  O  O65  1  0.69731443  0.60353903  0.49547213  1
  O  O66  1  0.19089807  0.10482425  0.29843561  1
  O  O67  1  0.80910193  0.89517575  0.70156439  1
  F  F68  1  0.36053026  0.26503882  0.74501657  1
  F  F69  1  0.63946974  0.73496118  0.25498343  1
  F  F70  1  0.12895217  0.73720788  0.26086330  1
  F  F71  1  0.87104783  0.26279212  0.73913670  1
