# generated using pymatgen
data_Re3Te4Br3
_symmetry_space_group_name_H-M   'P 1'
_cell_length_a   9.59342712
_cell_length_b   9.57398576
_cell_length_c   13.67218406
_cell_angle_alpha   84.38318019
_cell_angle_beta   84.37685677
_cell_angle_gamma   82.49784616
_symmetry_Int_Tables_number   1
_chemical_formula_structural   Re3Te4Br3
_chemical_formula_sum   'Re12 Te16 Br12'
_cell_volume   1234.39812056
_cell_formula_units_Z   4
loop_
 _symmetry_equiv_pos_site_id
 _symmetry_equiv_pos_as_xyz
  1  'x, y, z'
loop_
 _atom_site_type_symbol
 _atom_site_label
 _atom_site_symmetry_multiplicity
 _atom_site_fract_x
 _atom_site_fract_y
 _atom_site_fract_z
 _atom_site_occupancy
  Re  Re0  1  0.53172711  0.31062206  0.05553629  1
  Re  Re1  1  0.46827289  0.68937794  0.94446371  1
  Re  Re2  1  0.57781504  0.56091912  0.10957437  1
  Re  Re3  1  0.42218496  0.43908088  0.89042563  1
  Re  Re4  1  0.81776262  0.11088366  0.49977476  1
  Re  Re5  1  0.18223738  0.88911634  0.50022524  1
  Re  Re6  1  0.31736030  0.51963854  0.06774586  1
  Re  Re7  1  0.68263970  0.48036146  0.93225414  1
  Re  Re8  1  0.08609454  0.16537776  0.49333594  1
  Re  Re9  1  0.91390546  0.83462224  0.50666406  1
  Re  Re10  1  0.01195132  0.01019124  0.35940856  1
  Re  Re11  1  0.98804868  0.98980876  0.64059144  1
  Te  Te12  1  0.27235268  0.26296774  0.01189592  1
  Te  Te13  1  0.72764732  0.73703226  0.98810408  1
  Te  Te14  1  0.10700216  0.72755789  0.36365584  1
  Te  Te15  1  0.89299784  0.27244211  0.63634416  1
  Te  Te16  1  0.36238979  0.77561099  0.12488144  1
  Te  Te17  1  0.63761021  0.22438901  0.87511856  1
  Te  Te18  1  0.26224877  0.04752818  0.63325836  1
  Te  Te19  1  0.73775123  0.95247182  0.36674164  1
  Te  Te20  1  0.08605471  0.70640320  0.64697343  1
  Te  Te21  1  0.91394529  0.29359680  0.35302657  1
  Te  Te22  1  0.41623389  0.39303413  0.23700618  1
  Te  Te23  1  0.58376611  0.60696587  0.76299382  1
  Te  Te24  1  0.28360633  0.06593176  0.34766615  1
  Te  Te25  1  0.71639367  0.93406824  0.65233385  1
  Te  Te26  1  0.79518507  0.34769549  0.09974077  1
  Te  Te27  1  0.20481493  0.65230451  0.90025923  1
  Br  Br28  1  0.06433374  0.55183140  0.15168760  1
  Br  Br29  1  0.93566626  0.44816860  0.84831240  1
  Br  Br30  1  0.31934723  0.36230690  0.74171009  1
  Br  Br31  1  0.68065277  0.63769310  0.25828991  1
  Br  Br32  1  0.20429923  0.39195786  0.48394353  1
  Br  Br33  1  0.79570077  0.60804214  0.51605647  1
  Br  Br34  1  0.57852359  0.05491107  0.13215263  1
  Br  Br35  1  0.42147641  0.94508893  0.86784737  1
  Br  Br36  1  0.02303233  0.02015734  0.16996871  1
  Br  Br37  1  0.97696767  0.97984266  0.83003129  1
  Br  Br38  1  0.57773279  0.25888313  0.50106494  1
  Br  Br39  1  0.42226721  0.74111687  0.49893506  1
