# generated using pymatgen
data_KAgTeS3
_symmetry_space_group_name_H-M   'P 1'
_cell_length_a   6.38252428
_cell_length_b   6.49290142
_cell_length_c   16.48007999
_cell_angle_alpha   90.00000000
_cell_angle_beta   90.00000000
_cell_angle_gamma   95.47655670
_symmetry_Int_Tables_number   1
_chemical_formula_structural   KAgTeS3
_chemical_formula_sum   'K4 Ag4 Te4 S12'
_cell_volume   679.83520590
_cell_formula_units_Z   4
loop_
 _symmetry_equiv_pos_site_id
 _symmetry_equiv_pos_as_xyz
  1  'x, y, z'
loop_
 _atom_site_type_symbol
 _atom_site_label
 _atom_site_symmetry_multiplicity
 _atom_site_fract_x
 _atom_site_fract_y
 _atom_site_fract_z
 _atom_site_occupancy
  K  K0  1  0.02009744  0.77454416  0.39708961  1
  K  K1  1  0.97990256  0.22545584  0.60291039  1
  K  K2  1  0.47990256  0.72545584  0.89708961  1
  K  K3  1  0.52009744  0.27454416  0.10291039  1
  Ag  Ag4  1  0.51786715  0.79438580  0.24251988  1
  Ag  Ag5  1  0.48213285  0.20561420  0.75748012  1
  Ag  Ag6  1  0.98213285  0.70561420  0.74251988  1
  Ag  Ag7  1  0.01786715  0.29438580  0.25748012  1
  Te  Te8  1  0.01471496  0.77228102  0.08882266  1
  Te  Te9  1  0.98528504  0.22771898  0.91117734  1
  Te  Te10  1  0.48528504  0.72771898  0.58882266  1
  Te  Te11  1  0.51471496  0.27228102  0.41117734  1
  S  S12  1  0.14002793  0.92305306  0.21359216  1
  S  S13  1  0.85997207  0.07694694  0.78640784  1
  S  S14  1  0.35997207  0.57694694  0.71359216  1
  S  S15  1  0.64002793  0.42305306  0.28640784  1
  S  S16  1  0.54330107  0.91294958  0.38912683  1
  S  S17  1  0.45669893  0.08705042  0.61087317  1
  S  S18  1  0.95669893  0.58705042  0.88912683  1
  S  S19  1  0.04330107  0.41294958  0.11087317  1
  S  S20  1  0.85761521  0.70672159  0.59653835  1
  S  S21  1  0.14238479  0.29327841  0.40346165  1
  S  S22  1  0.64238479  0.79327841  0.09653835  1
  S  S23  1  0.35761521  0.20672159  0.90346165  1
