# generated using pymatgen
data_Li7PSe6
_symmetry_space_group_name_H-M   'P 1'
_cell_length_a   7.52262353
_cell_length_b   15.02399456
_cell_length_c   10.37697171
_cell_angle_alpha   90.00000000
_cell_angle_beta   90.00000000
_cell_angle_gamma   90.00000000
_symmetry_Int_Tables_number   1
_chemical_formula_structural   Li7PSe6
_chemical_formula_sum   'Li28 P4 Se24'
_cell_volume   1172.80383792
_cell_formula_units_Z   4
loop_
 _symmetry_equiv_pos_site_id
 _symmetry_equiv_pos_as_xyz
  1  'x, y, z'
loop_
 _atom_site_type_symbol
 _atom_site_label
 _atom_site_symmetry_multiplicity
 _atom_site_fract_x
 _atom_site_fract_y
 _atom_site_fract_z
 _atom_site_occupancy
  Li  Li0  1  0.76149260  0.68240825  0.80733965  1
  Li  Li1  1  0.23850740  0.31759175  0.30733965  1
  Li  Li2  1  0.73850740  0.18240825  0.80733965  1
  Li  Li3  1  0.26149260  0.81759175  0.30733965  1
  Li  Li4  1  0.02578365  0.73066898  0.52268192  1
  Li  Li5  1  0.97421635  0.26933102  0.02268192  1
  Li  Li6  1  0.47421635  0.23066898  0.52268192  1
  Li  Li7  1  0.52578365  0.76933102  0.02268192  1
  Li  Li8  1  0.83007765  0.97303818  0.67047040  1
  Li  Li9  1  0.16992235  0.02696182  0.17047040  1
  Li  Li10  1  0.66992235  0.47303818  0.67047040  1
  Li  Li11  1  0.33007765  0.52696182  0.17047040  1
  Li  Li12  1  0.94105521  0.89116176  0.99453912  1
  Li  Li13  1  0.05894479  0.10883824  0.49453912  1
  Li  Li14  1  0.55894479  0.39116176  0.99453912  1
  Li  Li15  1  0.44105521  0.60883824  0.49453912  1
  Li  Li16  1  0.55155582  0.95522095  0.01495800  1
  Li  Li17  1  0.44844418  0.04477905  0.51495800  1
  Li  Li18  1  0.94844418  0.45522095  0.01495800  1
  Li  Li19  1  0.05155582  0.54477905  0.51495800  1
  Li  Li20  1  0.61422886  0.78168574  0.61625198  1
  Li  Li21  1  0.38577114  0.21831426  0.11625198  1
  Li  Li22  1  0.88577114  0.28168574  0.61625198  1
  Li  Li23  1  0.11422886  0.71831426  0.11625198  1
  Li  Li24  1  0.34842730  0.87152118  0.82875409  1
  Li  Li25  1  0.65157270  0.12847882  0.32875409  1
  Li  Li26  1  0.15157270  0.37152118  0.82875409  1
  Li  Li27  1  0.84842730  0.62847882  0.32875409  1
  P  P28  1  0.76782019  0.88441575  0.31523149  1
  P  P29  1  0.23217981  0.11558425  0.81523149  1
  P  P30  1  0.73217981  0.38441575  0.31523149  1
  P  P31  1  0.26782019  0.61558425  0.81523149  1
  Se  Se32  1  0.76218312  0.62968749  0.57066895  1
  Se  Se33  1  0.23781688  0.37031251  0.07066895  1
  Se  Se34  1  0.73781688  0.12968749  0.57066895  1
  Se  Se35  1  0.26218312  0.87031251  0.07066895  1
  Se  Se36  1  0.27800041  0.73491926  0.68884959  1
  Se  Se37  1  0.72199959  0.26508074  0.18884959  1
  Se  Se38  1  0.22199959  0.23491926  0.68884959  1
  Se  Se39  1  0.77800041  0.76508074  0.18884959  1
  Se  Se40  1  0.69742383  0.85637521  0.83129754  1
  Se  Se41  1  0.30257617  0.14362479  0.33129754  1
  Se  Se42  1  0.80257617  0.35637521  0.83129754  1
  Se  Se43  1  0.19742383  0.64362479  0.33129754  1
  Se  Se44  1  0.49621032  0.60580497  0.95069066  1
  Se  Se45  1  0.50378968  0.39419503  0.45069066  1
  Se  Se46  1  0.00378968  0.10580497  0.95069066  1
  Se  Se47  1  0.99621032  0.89419503  0.45069066  1
  Se  Se48  1  0.02017161  0.61358512  0.93370467  1
  Se  Se49  1  0.97982839  0.38641488  0.43370467  1
  Se  Se50  1  0.47982839  0.11358512  0.93370467  1
  Se  Se51  1  0.52017161  0.88641488  0.43370467  1
  Se  Se52  1  0.78916795  0.00201981  0.18506194  1
  Se  Se53  1  0.21083205  0.99798019  0.68506194  1
  Se  Se54  1  0.71083205  0.50201981  0.18506194  1
  Se  Se55  1  0.28916795  0.49798019  0.68506194  1
