# generated using pymatgen
data_Li3La2(BO3)3
_symmetry_space_group_name_H-M   'P 1'
_cell_length_a   5.96697881
_cell_length_b   9.00320249
_cell_length_c   14.44610014
_cell_angle_alpha   90.00000000
_cell_angle_beta   90.00000000
_cell_angle_gamma   103.80359182
_symmetry_Int_Tables_number   1
_chemical_formula_structural   Li3La2(BO3)3
_chemical_formula_sum   'Li12 La8 B12 O36'
_cell_volume   753.65872426
_cell_formula_units_Z   4
loop_
 _symmetry_equiv_pos_site_id
 _symmetry_equiv_pos_as_xyz
  1  'x, y, z'
loop_
 _atom_site_type_symbol
 _atom_site_label
 _atom_site_symmetry_multiplicity
 _atom_site_fract_x
 _atom_site_fract_y
 _atom_site_fract_z
 _atom_site_occupancy
  Li  Li0  1  0.07775743  0.98102156  0.66479358  1
  Li  Li1  1  0.92224257  0.01897844  0.33520642  1
  Li  Li2  1  0.42224257  0.51897844  0.16479358  1
  Li  Li3  1  0.57775743  0.48102156  0.83520642  1
  Li  Li4  1  0.80078538  0.70791988  0.21802420  1
  Li  Li5  1  0.19921462  0.29208012  0.78197580  1
  Li  Li6  1  0.69921462  0.79208012  0.71802420  1
  Li  Li7  1  0.30078538  0.20791988  0.28197580  1
  Li  Li8  1  0.14440201  0.70793982  0.10135978  1
  Li  Li9  1  0.85559799  0.29206018  0.89864022  1
  Li  Li10  1  0.35559799  0.79206018  0.60135978  1
  Li  Li11  1  0.64440201  0.20793982  0.39864022  1
  La  La12  1  0.36408318  0.80879309  0.33408646  1
  La  La13  1  0.63591682  0.19120691  0.66591354  1
  La  La14  1  0.13591682  0.69120691  0.83408646  1
  La  La15  1  0.86408318  0.30879309  0.16591354  1
  La  La16  1  0.81098563  0.66019650  0.49688852  1
  La  La17  1  0.18901437  0.33980350  0.50311148  1
  La  La18  1  0.68901437  0.83980350  0.99688852  1
  La  La19  1  0.31098563  0.16019650  0.00311148  1
  B  B20  1  0.74937331  0.51371682  0.01541151  1
  B  B21  1  0.25062669  0.48628318  0.98458849  1
  B  B22  1  0.75062669  0.98628318  0.51541151  1
  B  B23  1  0.24937331  0.01371682  0.48458849  1
  B  B24  1  0.08453983  0.97184870  0.16413617  1
  B  B25  1  0.91546017  0.02815130  0.83586383  1
  B  B26  1  0.41546017  0.52815130  0.66413617  1
  B  B27  1  0.58453983  0.47184870  0.33586383  1
  B  B28  1  0.59141549  0.97953587  0.17574642  1
  B  B29  1  0.40858451  0.02046413  0.82425358  1
  B  B30  1  0.90858451  0.52046413  0.67574642  1
  B  B31  1  0.09141549  0.47953587  0.32425358  1
  O  O32  1  0.77138508  0.58466466  0.10107442  1
  O  O33  1  0.22861492  0.41533534  0.89892558  1
  O  O34  1  0.72861492  0.91533534  0.60107442  1
  O  O35  1  0.27138508  0.08466466  0.39892558  1
  O  O36  1  0.11130368  0.56609380  0.40515528  1
  O  O37  1  0.88869632  0.43390620  0.59484472  1
  O  O38  1  0.38869632  0.93390620  0.90515528  1
  O  O39  1  0.61130368  0.06609380  0.09484472  1
  O  O40  1  0.05793089  0.88183192  0.24281254  1
  O  O41  1  0.94206911  0.11816808  0.75718746  1
  O  O42  1  0.44206911  0.61816808  0.74281254  1
  O  O43  1  0.55793089  0.38183192  0.25718746  1
  O  O44  1  0.71738106  0.89875803  0.43503026  1
  O  O45  1  0.28261894  0.10124197  0.56496974  1
  O  O46  1  0.78261894  0.60124197  0.93503026  1
  O  O47  1  0.21738106  0.39875803  0.06496974  1
  O  O48  1  0.06757368  0.90669165  0.07617129  1
  O  O49  1  0.93242632  0.09330835  0.92382871  1
  O  O50  1  0.43242632  0.59330835  0.57617129  1
  O  O51  1  0.56757368  0.40669165  0.42382871  1
  O  O52  1  0.53125761  0.82047928  0.16868194  1
  O  O53  1  0.46874239  0.17952072  0.83131806  1
  O  O54  1  0.96874239  0.67952072  0.66868194  1
  O  O55  1  0.03125761  0.32047928  0.33131806  1
  O  O56  1  0.19721331  0.85494301  0.49074249  1
  O  O57  1  0.80278669  0.14505699  0.50925751  1
  O  O58  1  0.30278669  0.64505699  0.99074249  1
  O  O59  1  0.69721331  0.35494301  0.00925751  1
  O  O60  1  0.13778270  0.55196938  0.23937870  1
  O  O61  1  0.86221730  0.44803062  0.76062130  1
  O  O62  1  0.36221730  0.94803062  0.73937870  1
  O  O63  1  0.63778270  0.05196938  0.26062130  1
  O  O64  1  0.63331111  0.63041046  0.33103935  1
  O  O65  1  0.36668889  0.36958954  0.66896065  1
  O  O66  1  0.86668889  0.86958954  0.83103935  1
  O  O67  1  0.13331111  0.13041046  0.16896065  1
