# generated using pymatgen
data_MnH20S2(NO7)2
_symmetry_space_group_name_H-M   'P 1'
_cell_length_a   6.38681631
_cell_length_b   9.35127615
_cell_length_c   12.65514261
_cell_angle_alpha   90.00000000
_cell_angle_beta   90.00000000
_cell_angle_gamma   106.78221799
_symmetry_Int_Tables_number   1
_chemical_formula_structural   MnH20S2(NO7)2
_chemical_formula_sum   'Mn2 H40 S4 N4 O28'
_cell_volume   723.63560412
_cell_formula_units_Z   2
loop_
 _symmetry_equiv_pos_site_id
 _symmetry_equiv_pos_as_xyz
  1  'x, y, z'
loop_
 _atom_site_type_symbol
 _atom_site_label
 _atom_site_symmetry_multiplicity
 _atom_site_fract_x
 _atom_site_fract_y
 _atom_site_fract_z
 _atom_site_occupancy
  Mn  Mn0  1  0.50000000  -0.00000000  0.00000000  1
  Mn  Mn1  1  0.50000000  0.50000000  0.50000000  1
  H  H2  1  0.56232956  0.77082647  0.60253920  1
  H  H3  1  0.43767044  0.22917353  0.39746080  1
  H  H4  1  0.43767044  0.72917353  0.10253920  1
  H  H5  1  0.56232956  0.27082647  0.89746080  1
  H  H6  1  0.12791198  0.83186803  0.57989682  1
  H  H7  1  0.87208802  0.16813197  0.42010318  1
  H  H8  1  0.87208802  0.66813197  0.07989682  1
  H  H9  1  0.12791198  0.33186803  0.92010318  1
  H  H10  1  0.84601830  0.90105089  0.93624172  1
  H  H11  1  0.15398170  0.09894911  0.06375828  1
  H  H12  1  0.15398170  0.59894911  0.43624172  1
  H  H13  1  0.84601830  0.40105089  0.56375828  1
  H  H14  1  0.95294973  0.56936236  0.17714327  1
  H  H15  1  0.04705027  0.43063764  0.82285673  1
  H  H16  1  0.04705027  0.93063764  0.67714327  1
  H  H17  1  0.95294973  0.06936236  0.32285673  1
  H  H18  1  0.83255934  0.52181412  0.64891306  1
  H  H19  1  0.16744066  0.47818588  0.35108694  1
  H  H20  1  0.16744066  0.97818588  0.14891306  1
  H  H21  1  0.83255934  0.02181412  0.85108694  1
  H  H22  1  0.40454436  0.73854593  0.87987110  1
  H  H23  1  0.59545564  0.26145407  0.12012890  1
  H  H24  1  0.59545564  0.76145407  0.37987110  1
  H  H25  1  0.40454436  0.23854593  0.62012890  1
  H  H26  1  0.82350402  0.73332882  0.41169094  1
  H  H27  1  0.17649598  0.26667118  0.58830906  1
  H  H28  1  0.17649598  0.76667118  0.91169094  1
  H  H29  1  0.82350402  0.23332882  0.08830906  1
  H  H30  1  0.88746744  0.72757197  0.20758506  1
  H  H31  1  0.11253256  0.27242803  0.79241494  1
  H  H32  1  0.11253256  0.77242803  0.70758506  1
  H  H33  1  0.88746744  0.22757197  0.29241494  1
  H  H34  1  0.30921355  0.93031018  0.66950185  1
  H  H35  1  0.69078645  0.06968982  0.33049815  1
  H  H36  1  0.69078645  0.56968982  0.16950185  1
  H  H37  1  0.30921355  0.43031018  0.83049815  1
  H  H38  1  0.51001167  0.64735490  0.69253695  1
  H  H39  1  0.48998833  0.35264510  0.30746305  1
  H  H40  1  0.48998833  0.85264510  0.19253695  1
  H  H41  1  0.51001167  0.14735490  0.80746305  1
  S  S42  1  0.76567135  0.58609920  0.86887241  1
  S  S43  1  0.23432865  0.41390080  0.13112759  1
  S  S44  1  0.23432865  0.91390080  0.36887241  1
  S  S45  1  0.76567135  0.08609920  0.63112759  1
  N  N46  1  0.85113773  0.63489241  0.15890034  1
  N  N47  1  0.14886227  0.36510759  0.84109966  1
  N  N48  1  0.14886227  0.86510759  0.65890034  1
  N  N49  1  0.85113773  0.13489241  0.34109966  1
  O  O50  1  0.71689586  0.94656355  0.56950731  1
  O  O51  1  0.28310414  0.05343645  0.43049269  1
  O  O52  1  0.28310414  0.55343645  0.06950731  1
  O  O53  1  0.71689586  0.44656355  0.93049269  1
  O  O54  1  0.80682398  0.99523709  0.92677894  1
  O  O55  1  0.19317602  0.00476291  0.07322106  1
  O  O56  1  0.19317602  0.50476291  0.42677894  1
  O  O57  1  0.80682398  0.49523709  0.57322106  1
  O  O58  1  0.91558612  0.57898850  0.77816522  1
  O  O59  1  0.08441388  0.42101150  0.22183478  1
  O  O60  1  0.08441388  0.92101150  0.27816522  1
  O  O61  1  0.91558612  0.07898850  0.72183478  1
  O  O62  1  0.47248139  0.66692200  0.61906204  1
  O  O63  1  0.52751861  0.33307800  0.38093796  1
  O  O64  1  0.52751861  0.83307800  0.11906204  1
  O  O65  1  0.47248139  0.16692200  0.88093796  1
  O  O66  1  0.88241913  0.71568219  0.93769818  1
  O  O67  1  0.11758087  0.28431781  0.06230182  1
  O  O68  1  0.11758087  0.78431781  0.43769818  1
  O  O69  1  0.88241913  0.21568219  0.56230182  1
  O  O70  1  0.55854383  0.61039556  0.82646050  1
  O  O71  1  0.44145617  0.38960444  0.17353950  1
  O  O72  1  0.44145617  0.88960444  0.32646050  1
  O  O73  1  0.55854383  0.11039556  0.67353950  1
  O  O74  1  0.33105079  0.81646699  0.89285485  1
  O  O75  1  0.66894921  0.18353301  0.10714515  1
  O  O76  1  0.66894921  0.68353301  0.39285485  1
  O  O77  1  0.33105079  0.31646699  0.60714515  1
