# generated using pymatgen
data_Nd5Ti5O17
_symmetry_space_group_name_H-M   'P 1'
_cell_length_a   5.49498879
_cell_length_b   7.78378416
_cell_length_c   31.93903604
_cell_angle_alpha   96.94528132
_cell_angle_beta   90.00000000
_cell_angle_gamma   90.00000000
_symmetry_Int_Tables_number   1
_chemical_formula_structural   Nd5Ti5O17
_chemical_formula_sum   'Nd20 Ti20 O68'
_cell_volume   1356.06602414
_cell_formula_units_Z   4
loop_
 _symmetry_equiv_pos_site_id
 _symmetry_equiv_pos_as_xyz
  1  'x, y, z'
loop_
 _atom_site_type_symbol
 _atom_site_label
 _atom_site_symmetry_multiplicity
 _atom_site_fract_x
 _atom_site_fract_y
 _atom_site_fract_z
 _atom_site_occupancy
  Nd  Nd0  1  0.50470106  0.79256088  0.58324547  1
  Nd  Nd1  1  0.49529894  0.20743912  0.41675453  1
  Nd  Nd2  1  0.00470106  0.70743912  0.91675453  1
  Nd  Nd3  1  0.99529894  0.29256088  0.08324547  1
  Nd  Nd4  1  0.50328770  0.70256774  0.40264817  1
  Nd  Nd5  1  0.49671230  0.29743226  0.59735183  1
  Nd  Nd6  1  0.00328770  0.79743226  0.09735183  1
  Nd  Nd7  1  0.99671230  0.20256774  0.90264817  1
  Nd  Nd8  1  0.50794433  0.24682900  0.99254869  1
  Nd  Nd9  1  0.49205567  0.75317100  0.00745131  1
  Nd  Nd10  1  0.00794433  0.25317100  0.50745131  1
  Nd  Nd11  1  0.99205567  0.74682900  0.49254869  1
  Nd  Nd12  1  0.53316500  0.15443738  0.79710101  1
  Nd  Nd13  1  0.46683500  0.84556262  0.20289899  1
  Nd  Nd14  1  0.03316500  0.34556262  0.70289899  1
  Nd  Nd15  1  0.96683500  0.65443738  0.29710101  1
  Nd  Nd16  1  0.10230116  0.86244605  0.72081883  1
  Nd  Nd17  1  0.89769884  0.13755395  0.27918117  1
  Nd  Nd18  1  0.60230116  0.63755395  0.77918117  1
  Nd  Nd19  1  0.39769884  0.36244605  0.22081883  1
  Ti  Ti20  1  0.51123292  0.95448723  0.90701405  1
  Ti  Ti21  1  0.48876708  0.04551277  0.09298595  1
  Ti  Ti22  1  0.01123292  0.54551277  0.59298595  1
  Ti  Ti23  1  0.98876708  0.45448723  0.40701405  1
  Ti  Ti24  1  0.00956913  0.04854223  0.59389035  1
  Ti  Ti25  1  0.99043087  0.95145777  0.40610965  1
  Ti  Ti26  1  0.50956913  0.45145777  0.90610965  1
  Ti  Ti27  1  0.49043087  0.54854223  0.09389035  1
  Ti  Ti28  1  -0.00000000  0.50000000  -0.00000000  1
  Ti  Ti29  1  0.50000000  -0.00000000  0.50000000  1
  Ti  Ti30  1  0.04212854  0.41635078  0.82156586  1
  Ti  Ti31  1  0.95787146  0.58364922  0.17843414  1
  Ti  Ti32  1  0.54212854  0.08364922  0.67843414  1
  Ti  Ti33  1  0.45787146  0.91635078  0.32156586  1
  Ti  Ti34  1  0.03349232  0.90351766  0.82380927  1
  Ti  Ti35  1  0.96650768  0.09648234  0.17619073  1
  Ti  Ti36  1  0.53349232  0.59648234  0.67619073  1
  Ti  Ti37  1  0.46650768  0.40351766  0.32380927  1
  Ti  Ti38  1  -0.00000000  -0.00000000  -0.00000000  1
  Ti  Ti39  1  0.50000000  0.50000000  0.50000000  1
  O  O40  1  0.78905974  0.55829647  0.53490816  1
  O  O41  1  0.21094026  0.44170353  0.46509184  1
  O  O42  1  0.28905974  0.94170353  0.96509184  1
  O  O43  1  0.71094026  0.05829647  0.03490816  1
  O  O44  1  0.09984788  0.16553657  0.82839798  1
  O  O45  1  0.90015212  0.83446343  0.17160202  1
  O  O46  1  0.59984788  0.33446343  0.67160202  1
  O  O47  1  0.40015212  0.66553657  0.32839798  1
  O  O48  1  0.70547847  0.99232551  0.86214107  1
  O  O49  1  0.29452153  0.00767449  0.13785893  1
  O  O50  1  0.20547847  0.50767449  0.63785893  1
  O  O51  1  0.79452153  0.49232551  0.36214107  1
  O  O52  1  0.07759453  0.25178571  0.00362464  1
  O  O53  1  0.92240547  0.74821429  0.99637536  1
  O  O54  1  0.57759453  0.24821429  0.49637536  1
  O  O55  1  0.42240547  0.75178571  0.50362464  1
  O  O56  1  0.33107002  0.13032682  0.72624503  1
  O  O57  1  0.66892998  0.86967318  0.27375497  1
  O  O58  1  0.83107002  0.36967318  0.77375497  1
  O  O59  1  0.16892998  0.63032682  0.22624503  1
  O  O60  1  0.19945058  0.13291439  0.63903551  1
  O  O61  1  0.80054942  0.86708561  0.36096449  1
  O  O62  1  0.69945058  0.36708561  0.86096449  1
  O  O63  1  0.30054942  0.63291439  0.13903551  1
  O  O64  1  0.06515708  0.79567066  0.59028272  1
  O  O65  1  0.93484292  0.20432934  0.40971728  1
  O  O66  1  0.56515708  0.70432934  0.90971728  1
  O  O67  1  0.43484292  0.29567066  0.09028272  1
  O  O68  1  0.30236190  0.87047045  0.78861949  1
  O  O69  1  0.69763810  0.12952955  0.21138051  1
  O  O70  1  0.80236190  0.62952955  0.71138051  1
  O  O71  1  0.19763810  0.37047045  0.28861949  1
  O  O72  1  0.81453808  0.91005573  0.77912806  1
  O  O73  1  0.18546192  0.08994427  0.22087194  1
  O  O74  1  0.31453808  0.58994427  0.72087194  1
  O  O75  1  0.68546192  0.41005573  0.27912806  1
  O  O76  1  0.43996666  0.83512913  0.66935307  1
  O  O77  1  0.56003334  0.16487087  0.33064693  1
  O  O78  1  0.93996666  0.66487087  0.83064693  1
  O  O79  1  0.06003334  0.33512913  0.16935307  1
  O  O80  1  0.18621199  0.46203927  0.88122395  1
  O  O81  1  0.81378801  0.53796073  0.11877605  1
  O  O82  1  0.68621199  0.03796073  0.61877605  1
  O  O83  1  0.31378801  0.96203927  0.38122395  1
  O  O84  1  0.18975553  0.91803288  0.88076493  1
  O  O85  1  0.81024447  0.08196712  0.11923507  1
  O  O86  1  0.68975553  0.58196712  0.61923507  1
  O  O87  1  0.31024447  0.41803288  0.38076493  1
  O  O88  1  0.28751222  0.06387459  0.55190198  1
  O  O89  1  0.71248778  0.93612541  0.44809802  1
  O  O90  1  0.78751222  0.43612541  0.94809802  1
  O  O91  1  0.21248778  0.56387459  0.05190198  1
  O  O92  1  0.28868266  0.52303684  0.96529087  1
  O  O93  1  0.71131734  0.47696316  0.03470913  1
  O  O94  1  0.78868266  0.97696316  0.53470913  1
  O  O95  1  0.21131734  0.02303684  0.46529087  1
  O  O96  1  0.78728204  0.01247973  0.94852591  1
  O  O97  1  0.21271796  0.98752027  0.05147409  1
  O  O98  1  0.28728204  0.48752027  0.55147409  1
  O  O99  1  0.71271796  0.51247973  0.44852591  1
  O  O100  1  0.32544764  0.42737102  0.79537658  1
  O  O101  1  0.67455236  0.57262898  0.20462342  1
  O  O102  1  0.82544764  0.07262898  0.70462342  1
  O  O103  1  0.17455236  0.92737102  0.29537658  1
  O  O104  1  0.42063175  0.20969302  0.91950525  1
  O  O105  1  0.57936825  0.79030698  0.08049475  1
  O  O106  1  0.92063175  0.29030698  0.58049475  1
  O  O107  1  0.07936825  0.70969302  0.41950525  1
