# generated using pymatgen
data_K6Na4Tl13
_symmetry_space_group_name_H-M   'P 1'
_cell_length_a   10.25273555
_cell_length_b   10.25273555
_cell_length_c   10.25273555
_cell_angle_alpha   109.47122063
_cell_angle_beta   109.47122063
_cell_angle_gamma   109.47122063
_symmetry_Int_Tables_number   1
_chemical_formula_structural   K6Na4Tl13
_chemical_formula_sum   'K6 Na4 Tl13'
_cell_volume   829.65469738
_cell_formula_units_Z   1
loop_
 _symmetry_equiv_pos_site_id
 _symmetry_equiv_pos_as_xyz
  1  'x, y, z'
loop_
 _atom_site_type_symbol
 _atom_site_label
 _atom_site_symmetry_multiplicity
 _atom_site_fract_x
 _atom_site_fract_y
 _atom_site_fract_z
 _atom_site_occupancy
  K  K0  1  0.82789115  0.32789115  0.50000000  1
  K  K1  1  0.17210885  0.67210885  0.50000000  1
  K  K2  1  0.32789115  0.50000000  0.82789115  1
  K  K3  1  0.67210885  0.50000000  0.17210885  1
  K  K4  1  0.50000000  0.82789115  0.32789115  1
  K  K5  1  0.50000000  0.17210885  0.67210885  1
  Na  Na6  1  0.50000000  0.50000000  0.50000000  1
  Na  Na7  1  0.50000000  -0.00000000  -0.00000000  1
  Na  Na8  1  -0.00000000  0.50000000  -0.00000000  1
  Na  Na9  1  -0.00000000  -0.00000000  0.50000000  1
  Tl  Tl10  1  0.85846910  0.75892608  0.61739517  1
  Tl  Tl11  1  0.14153090  0.24107392  0.38260483  1
  Tl  Tl12  1  0.14153090  0.75892608  0.90045698  1
  Tl  Tl13  1  0.85846910  0.24107392  0.09954302  1
  Tl  Tl14  1  0.75892608  0.61739517  0.85846910  1
  Tl  Tl15  1  0.24107392  0.38260483  0.14153090  1
  Tl  Tl16  1  0.75892608  0.90045698  0.14153090  1
  Tl  Tl17  1  0.24107392  0.09954302  0.85846910  1
  Tl  Tl18  1  0.61739517  0.85846910  0.75892608  1
  Tl  Tl19  1  0.38260483  0.14153090  0.24107392  1
  Tl  Tl20  1  0.09954302  0.85846910  0.24107392  1
  Tl  Tl21  1  0.90045698  0.14153090  0.75892608  1
  Tl  Tl22  1  -0.00000000  -0.00000000  -0.00000000  1
