# generated using pymatgen
data_Li2Ni2(MoO4)3
_symmetry_space_group_name_H-M   'P 1'
_cell_length_a   5.14707932
_cell_length_b   10.57965732
_cell_length_c   17.87180705
_cell_angle_alpha   90.00000000
_cell_angle_beta   90.00000000
_cell_angle_gamma   90.00000000
_symmetry_Int_Tables_number   1
_chemical_formula_structural   Li2Ni2(MoO4)3
_chemical_formula_sum   'Li8 Ni8 Mo12 O48'
_cell_volume   973.19737538
_cell_formula_units_Z   4
loop_
 _symmetry_equiv_pos_site_id
 _symmetry_equiv_pos_as_xyz
  1  'x, y, z'
loop_
 _atom_site_type_symbol
 _atom_site_label
 _atom_site_symmetry_multiplicity
 _atom_site_fract_x
 _atom_site_fract_y
 _atom_site_fract_z
 _atom_site_occupancy
  Li  Li0  1  0.09649845  0.25000000  0.24967538  1
  Li  Li1  1  0.90350155  0.75000000  0.75032462  1
  Li  Li2  1  0.40350155  0.75000000  0.74967538  1
  Li  Li3  1  0.59649845  0.25000000  0.25032462  1
  Li  Li4  1  0.23533612  0.25000000  0.69001559  1
  Li  Li5  1  0.76466388  0.75000000  0.30998441  1
  Li  Li6  1  0.26466388  0.75000000  0.19001559  1
  Li  Li7  1  0.73533612  0.25000000  0.80998441  1
  Ni  Ni8  1  0.24691091  0.07220363  0.52718602  1
  Ni  Ni9  1  0.75308909  0.92779637  0.47281398  1
  Ni  Ni10  1  0.25308909  0.92779637  0.02718602  1
  Ni  Ni11  1  0.75308909  0.57220363  0.47281398  1
  Ni  Ni12  1  0.74691091  0.07220363  0.97281398  1
  Ni  Ni13  1  0.24691091  0.42779637  0.52718602  1
  Ni  Ni14  1  0.74691091  0.42779637  0.97281398  1
  Ni  Ni15  1  0.25308909  0.57220363  0.02718602  1
  Mo  Mo16  1  0.28117774  0.52627415  0.34457329  1
  Mo  Mo17  1  0.71882226  0.47372585  0.65542671  1
  Mo  Mo18  1  0.21882226  0.47372585  0.84457329  1
  Mo  Mo19  1  0.71882226  0.02627415  0.65542671  1
  Mo  Mo20  1  0.78117774  0.52627415  0.15542671  1
  Mo  Mo21  1  0.28117774  0.97372585  0.34457329  1
  Mo  Mo22  1  0.78117774  0.97372585  0.15542671  1
  Mo  Mo23  1  0.21882226  0.02627415  0.84457329  1
  Mo  Mo24  1  0.28184728  0.25000000  0.05545805  1
  Mo  Mo25  1  0.71815272  0.75000000  0.94454195  1
  Mo  Mo26  1  0.21815272  0.75000000  0.55545805  1
  Mo  Mo27  1  0.78184728  0.25000000  0.44454195  1
  O  O28  1  0.08234183  0.62334841  0.28812549  1
  O  O29  1  0.91765817  0.37665159  0.71187451  1
  O  O30  1  0.41765817  0.37665159  0.78812549  1
  O  O31  1  0.91765817  0.12334841  0.71187451  1
  O  O32  1  0.58234183  0.62334841  0.21187451  1
  O  O33  1  0.08234183  0.87665159  0.28812549  1
  O  O34  1  0.58234183  0.87665159  0.21187451  1
  O  O35  1  0.41765817  0.12334841  0.78812549  1
  O  O36  1  0.07903161  0.01152111  0.42803017  1
  O  O37  1  0.92096839  0.98847889  0.57196983  1
  O  O38  1  0.42096839  0.98847889  0.92803017  1
  O  O39  1  0.92096839  0.51152111  0.57196983  1
  O  O40  1  0.57903161  0.01152111  0.07196983  1
  O  O41  1  0.07903161  0.48847889  0.42803017  1
  O  O42  1  0.57903161  0.48847889  0.07196983  1
  O  O43  1  0.42096839  0.51152111  0.92803017  1
  O  O44  1  0.35207806  0.11578327  0.29644013  1
  O  O45  1  0.64792194  0.88421673  0.70355987  1
  O  O46  1  0.14792194  0.88421673  0.79644013  1
  O  O47  1  0.64792194  0.61578327  0.70355987  1
  O  O48  1  0.85207806  0.11578327  0.20355987  1
  O  O49  1  0.35207806  0.38421673  0.29644013  1
  O  O50  1  0.85207806  0.38421673  0.20355987  1
  O  O51  1  0.14792194  0.61578327  0.79644013  1
  O  O52  1  0.06829714  0.25000000  0.50696313  1
  O  O53  1  0.93170286  0.75000000  0.49303687  1
  O  O54  1  0.43170286  0.75000000  0.00696313  1
  O  O55  1  0.56829714  0.25000000  0.99303687  1
  O  O56  1  0.35683488  0.25000000  0.15073037  1
  O  O57  1  0.64316512  0.75000000  0.84926963  1
  O  O58  1  0.14316512  0.75000000  0.65073037  1
  O  O59  1  0.85683488  0.25000000  0.34926963  1
  O  O60  1  0.07970247  0.11302420  0.03497127  1
  O  O61  1  0.92029753  0.88697580  0.96502873  1
  O  O62  1  0.42029753  0.88697580  0.53497127  1
  O  O63  1  0.92029753  0.61302420  0.96502873  1
  O  O64  1  0.57970247  0.11302420  0.46502873  1
  O  O65  1  0.07970247  0.38697580  0.03497127  1
  O  O66  1  0.57970247  0.38697580  0.46502873  1
  O  O67  1  0.42029753  0.61302420  0.53497127  1
  O  O68  1  0.07003738  0.61205492  0.12477116  1
  O  O69  1  0.92996262  0.38794508  0.87522884  1
  O  O70  1  0.42996262  0.38794508  0.62477116  1
  O  O71  1  0.92996262  0.11205492  0.87522884  1
  O  O72  1  0.57003738  0.61205492  0.37522884  1
  O  O73  1  0.07003738  0.88794508  0.12477116  1
  O  O74  1  0.57003738  0.88794508  0.37522884  1
  O  O75  1  0.42996262  0.11205492  0.62477116  1
