# generated using pymatgen
data_Nd6Si4Ni7
_symmetry_space_group_name_H-M   'P 1'
_cell_length_a   5.94537785
_cell_length_b   7.51714760
_cell_length_c   29.98988183
_cell_angle_alpha   90.00000000
_cell_angle_beta   90.00000000
_cell_angle_gamma   90.00000000
_symmetry_Int_Tables_number   1
_chemical_formula_structural   Nd6Si4Ni7
_chemical_formula_sum   'Nd24 Si16 Ni28'
_cell_volume   1340.31628097
_cell_formula_units_Z   4
loop_
 _symmetry_equiv_pos_site_id
 _symmetry_equiv_pos_as_xyz
  1  'x, y, z'
loop_
 _atom_site_type_symbol
 _atom_site_label
 _atom_site_symmetry_multiplicity
 _atom_site_fract_x
 _atom_site_fract_y
 _atom_site_fract_z
 _atom_site_occupancy
  Nd  Nd0  1  0.11342304  0.38280746  0.07928484  1
  Nd  Nd1  1  0.88657696  0.61719254  0.92071516  1
  Nd  Nd2  1  0.88657696  0.61719254  0.57928484  1
  Nd  Nd3  1  0.88657696  0.88280746  0.42071516  1
  Nd  Nd4  1  0.11342304  0.38280746  0.42071516  1
  Nd  Nd5  1  0.11342304  0.11719254  0.57928484  1
  Nd  Nd6  1  0.11342304  0.11719254  0.92071516  1
  Nd  Nd7  1  0.88657696  0.88280746  0.07928484  1
  Nd  Nd8  1  0.62267509  0.25000000  -0.00000000  1
  Nd  Nd9  1  0.37732491  0.75000000  -0.00000000  1
  Nd  Nd10  1  0.37732491  0.75000000  0.50000000  1
  Nd  Nd11  1  0.62267509  0.25000000  0.50000000  1
  Nd  Nd12  1  0.12680092  0.02021438  0.25000000  1
  Nd  Nd13  1  0.87319908  0.97978562  0.75000000  1
  Nd  Nd14  1  0.87319908  0.52021438  0.25000000  1
  Nd  Nd15  1  0.12680092  0.47978562  0.75000000  1
  Nd  Nd16  1  0.39352279  0.38880291  0.18169066  1
  Nd  Nd17  1  0.60647721  0.61119709  0.81830934  1
  Nd  Nd18  1  0.60647721  0.61119709  0.68169066  1
  Nd  Nd19  1  0.60647721  0.88880291  0.31830934  1
  Nd  Nd20  1  0.39352279  0.38880291  0.31830934  1
  Nd  Nd21  1  0.39352279  0.11119709  0.68169066  1
  Nd  Nd22  1  0.39352279  0.11119709  0.81830934  1
  Nd  Nd23  1  0.60647721  0.88880291  0.18169066  1
  Si  Si24  1  0.11123453  0.73084383  0.17309490  1
  Si  Si25  1  0.88876547  0.26915617  0.82690510  1
  Si  Si26  1  0.88876547  0.26915617  0.67309490  1
  Si  Si27  1  0.88876547  0.23084383  0.32690510  1
  Si  Si28  1  0.11123453  0.73084383  0.32690510  1
  Si  Si29  1  0.11123453  0.76915617  0.67309490  1
  Si  Si30  1  0.11123453  0.76915617  0.82690510  1
  Si  Si31  1  0.88876547  0.23084383  0.17309490  1
  Si  Si32  1  0.39206267  0.03704767  0.08253171  1
  Si  Si33  1  0.60793733  0.96295233  0.91746829  1
  Si  Si34  1  0.60793733  0.96295233  0.58253171  1
  Si  Si35  1  0.60793733  0.53704767  0.41746829  1
  Si  Si36  1  0.39206267  0.03704767  0.41746829  1
  Si  Si37  1  0.39206267  0.46295233  0.58253171  1
  Si  Si38  1  0.39206267  0.46295233  0.91746829  1
  Si  Si39  1  0.60793733  0.53704767  0.08253171  1
  Ni  Ni40  1  0.68528879  0.17558651  0.25000000  1
  Ni  Ni41  1  0.31471121  0.82441349  0.75000000  1
  Ni  Ni42  1  0.31471121  0.67558651  0.25000000  1
  Ni  Ni43  1  0.68528879  0.32441349  0.75000000  1
  Ni  Ni44  1  0.64668078  0.24275306  0.10982507  1
  Ni  Ni45  1  0.35331922  0.75724694  0.89017493  1
  Ni  Ni46  1  0.35331922  0.75724694  0.60982507  1
  Ni  Ni47  1  0.35331922  0.74275306  0.39017493  1
  Ni  Ni48  1  0.64668078  0.24275306  0.39017493  1
  Ni  Ni49  1  0.64668078  0.25724694  0.60982507  1
  Ni  Ni50  1  0.64668078  0.25724694  0.89017493  1
  Ni  Ni51  1  0.35331922  0.74275306  0.10982507  1
  Ni  Ni52  1  0.14927179  0.09429413  0.01835846  1
  Ni  Ni53  1  0.85072821  0.90570587  0.98164154  1
  Ni  Ni54  1  0.85072821  0.90570587  0.51835846  1
  Ni  Ni55  1  0.85072821  0.59429413  0.48164154  1
  Ni  Ni56  1  0.14927179  0.09429413  0.48164154  1
  Ni  Ni57  1  0.14927179  0.40570587  0.51835846  1
  Ni  Ni58  1  0.14927179  0.40570587  0.98164154  1
  Ni  Ni59  1  0.85072821  0.59429413  0.01835846  1
  Ni  Ni60  1  0.15922236  0.02974449  0.14806801  1
  Ni  Ni61  1  0.84077764  0.97025551  0.85193199  1
  Ni  Ni62  1  0.84077764  0.97025551  0.64806801  1
  Ni  Ni63  1  0.84077764  0.52974449  0.35193199  1
  Ni  Ni64  1  0.15922236  0.02974449  0.35193199  1
  Ni  Ni65  1  0.15922236  0.47025551  0.64806801  1
  Ni  Ni66  1  0.15922236  0.47025551  0.85193199  1
  Ni  Ni67  1  0.84077764  0.52974449  0.14806801  1
