# generated using pymatgen
data_La4CdPt
_symmetry_space_group_name_H-M   'P 1'
_cell_length_a   10.20091316
_cell_length_b   10.20091316
_cell_length_c   10.20091316
_cell_angle_alpha   60.00000000
_cell_angle_beta   60.00000000
_cell_angle_gamma   60.00000000
_symmetry_Int_Tables_number   1
_chemical_formula_structural   La4CdPt
_chemical_formula_sum   'La16 Cd4 Pt4'
_cell_volume   750.58892757
_cell_formula_units_Z   4
loop_
 _symmetry_equiv_pos_site_id
 _symmetry_equiv_pos_as_xyz
  1  'x, y, z'
loop_
 _atom_site_type_symbol
 _atom_site_label
 _atom_site_symmetry_multiplicity
 _atom_site_fract_x
 _atom_site_fract_y
 _atom_site_fract_z
 _atom_site_occupancy
  La  La0  1  0.65095029  0.65095029  0.65095029  1
  La  La1  1  0.04714914  0.65095029  0.65095029  1
  La  La2  1  0.65095029  0.04714914  0.65095029  1
  La  La3  1  0.65095029  0.65095029  0.04714914  1
  La  La4  1  0.80962711  0.80962711  0.19037289  1
  La  La5  1  0.19037289  0.19037289  0.80962711  1
  La  La6  1  0.80962711  0.19037289  0.80962711  1
  La  La7  1  0.19037289  0.80962711  0.19037289  1
  La  La8  1  0.19037289  0.80962711  0.80962711  1
  La  La9  1  0.80962711  0.19037289  0.19037289  1
  La  La10  1  0.43690885  0.43690885  0.06309115  1
  La  La11  1  0.06309115  0.06309115  0.43690885  1
  La  La12  1  0.43690885  0.06309115  0.43690885  1
  La  La13  1  0.06309115  0.43690885  0.06309115  1
  La  La14  1  0.06309115  0.43690885  0.43690885  1
  La  La15  1  0.43690885  0.06309115  0.06309115  1
  Cd  Cd16  1  0.41862992  0.41862992  0.41862992  1
  Cd  Cd17  1  0.74411023  0.41862992  0.41862992  1
  Cd  Cd18  1  0.41862992  0.74411023  0.41862992  1
  Cd  Cd19  1  0.41862992  0.41862992  0.74411023  1
  Pt  Pt20  1  0.85775094  0.85775094  0.85775094  1
  Pt  Pt21  1  0.42674717  0.85775094  0.85775094  1
  Pt  Pt22  1  0.85775094  0.42674717  0.85775094  1
  Pt  Pt23  1  0.85775094  0.85775094  0.42674717  1
