# generated using pymatgen
data_Ho4MgGe4
_symmetry_space_group_name_H-M   'P 1'
_cell_length_a   7.21219718
_cell_length_b   7.76002835
_cell_length_c   14.54427670
_cell_angle_alpha   90.00000000
_cell_angle_beta   90.00000000
_cell_angle_gamma   90.00000000
_symmetry_Int_Tables_number   1
_chemical_formula_structural   Ho4MgGe4
_chemical_formula_sum   'Ho16 Mg4 Ge16'
_cell_volume   813.99741908
_cell_formula_units_Z   4
loop_
 _symmetry_equiv_pos_site_id
 _symmetry_equiv_pos_as_xyz
  1  'x, y, z'
loop_
 _atom_site_type_symbol
 _atom_site_label
 _atom_site_symmetry_multiplicity
 _atom_site_fract_x
 _atom_site_fract_y
 _atom_site_fract_z
 _atom_site_occupancy
  Ho  Ho0  1  0.99001237  0.81728644  0.40524543  1
  Ho  Ho1  1  0.00998763  0.18271356  0.59475457  1
  Ho  Ho2  1  0.50998763  0.31728644  0.59475457  1
  Ho  Ho3  1  0.00998763  0.18271356  0.90524543  1
  Ho  Ho4  1  0.49001237  0.68271356  0.40524543  1
  Ho  Ho5  1  0.99001237  0.81728644  0.09475457  1
  Ho  Ho6  1  0.49001237  0.68271356  0.09475457  1
  Ho  Ho7  1  0.50998763  0.31728644  0.90524543  1
  Ho  Ho8  1  0.66907961  0.82240647  0.87309026  1
  Ho  Ho9  1  0.33092039  0.17759353  0.12690974  1
  Ho  Ho10  1  0.83092039  0.32240647  0.12690974  1
  Ho  Ho11  1  0.33092039  0.17759353  0.37309026  1
  Ho  Ho12  1  0.16907961  0.67759353  0.87309026  1
  Ho  Ho13  1  0.66907961  0.82240647  0.62690974  1
  Ho  Ho14  1  0.16907961  0.67759353  0.62690974  1
  Ho  Ho15  1  0.83092039  0.32240647  0.37309026  1
  Mg  Mg16  1  0.83951854  0.48255603  0.75000000  1
  Mg  Mg17  1  0.16048146  0.51744397  0.25000000  1
  Mg  Mg18  1  0.66048146  0.98255603  0.25000000  1
  Mg  Mg19  1  0.33951854  0.01744397  0.75000000  1
  Ge  Ge20  1  0.97574776  0.91031861  0.75000000  1
  Ge  Ge21  1  0.02425224  0.08968139  0.25000000  1
  Ge  Ge22  1  0.52425224  0.41031861  0.25000000  1
  Ge  Ge23  1  0.47574776  0.58968139  0.75000000  1
  Ge  Ge24  1  0.71152789  0.13844551  0.75000000  1
  Ge  Ge25  1  0.28847211  0.86155449  0.25000000  1
  Ge  Ge26  1  0.78847211  0.63844551  0.25000000  1
  Ge  Ge27  1  0.21152789  0.36155449  0.75000000  1
  Ge  Ge28  1  0.82875980  0.53399910  0.96403415  1
  Ge  Ge29  1  0.17124020  0.46600090  0.03596585  1
  Ge  Ge30  1  0.67124020  0.03399910  0.03596585  1
  Ge  Ge31  1  0.17124020  0.46600090  0.46403415  1
  Ge  Ge32  1  0.32875980  0.96600090  0.96403415  1
  Ge  Ge33  1  0.82875980  0.53399910  0.53596585  1
  Ge  Ge34  1  0.32875980  0.96600090  0.53596585  1
  Ge  Ge35  1  0.67124020  0.03399910  0.46403415  1
