# generated using pymatgen
data_Dy4MgRu
_symmetry_space_group_name_H-M   'P 1'
_cell_length_a   9.71008883
_cell_length_b   9.71008883
_cell_length_c   9.71008883
_cell_angle_alpha   60.00000000
_cell_angle_beta   60.00000000
_cell_angle_gamma   60.00000000
_symmetry_Int_Tables_number   1
_chemical_formula_structural   Dy4MgRu
_chemical_formula_sum   'Dy16 Mg4 Ru4'
_cell_volume   647.37304344
_cell_formula_units_Z   4
loop_
 _symmetry_equiv_pos_site_id
 _symmetry_equiv_pos_as_xyz
  1  'x, y, z'
loop_
 _atom_site_type_symbol
 _atom_site_label
 _atom_site_symmetry_multiplicity
 _atom_site_fract_x
 _atom_site_fract_y
 _atom_site_fract_z
 _atom_site_occupancy
  Dy  Dy0  1  0.65602714  0.65602714  0.65602714  1
  Dy  Dy1  1  0.03191858  0.65602714  0.65602714  1
  Dy  Dy2  1  0.65602714  0.03191858  0.65602714  1
  Dy  Dy3  1  0.65602714  0.65602714  0.03191858  1
  Dy  Dy4  1  0.81366935  0.81366935  0.18633065  1
  Dy  Dy5  1  0.18633065  0.18633065  0.81366935  1
  Dy  Dy6  1  0.81366935  0.18633065  0.81366935  1
  Dy  Dy7  1  0.18633065  0.81366935  0.18633065  1
  Dy  Dy8  1  0.18633065  0.81366935  0.81366935  1
  Dy  Dy9  1  0.81366935  0.18633065  0.18633065  1
  Dy  Dy10  1  0.43720454  0.43720454  0.06279546  1
  Dy  Dy11  1  0.06279546  0.06279546  0.43720454  1
  Dy  Dy12  1  0.43720454  0.06279546  0.43720454  1
  Dy  Dy13  1  0.06279546  0.43720454  0.06279546  1
  Dy  Dy14  1  0.06279546  0.43720454  0.43720454  1
  Dy  Dy15  1  0.43720454  0.06279546  0.06279546  1
  Mg  Mg16  1  0.42094380  0.42094380  0.42094380  1
  Mg  Mg17  1  0.73716860  0.42094380  0.42094380  1
  Mg  Mg18  1  0.42094380  0.73716860  0.42094380  1
  Mg  Mg19  1  0.42094380  0.42094380  0.73716860  1
  Ru  Ru20  1  0.86063445  0.86063445  0.86063445  1
  Ru  Ru21  1  0.41809666  0.86063445  0.86063445  1
  Ru  Ru22  1  0.86063445  0.41809666  0.86063445  1
  Ru  Ru23  1  0.86063445  0.86063445  0.41809666  1
