# generated using pymatgen
data_DyFe3(BO3)4
_symmetry_space_group_name_H-M   'P 1'
_cell_length_a   6.12436732
_cell_length_b   6.12436732
_cell_length_c   6.12436758
_cell_angle_alpha   103.97742456
_cell_angle_beta   103.97742456
_cell_angle_gamma   103.97742027
_symmetry_Int_Tables_number   1
_chemical_formula_structural   DyFe3(BO3)4
_chemical_formula_sum   'Dy1 Fe3 B4 O12'
_cell_volume   205.04836905
_cell_formula_units_Z   1
loop_
 _symmetry_equiv_pos_site_id
 _symmetry_equiv_pos_as_xyz
  1  'x, y, z'
loop_
 _atom_site_type_symbol
 _atom_site_label
 _atom_site_symmetry_multiplicity
 _atom_site_fract_x
 _atom_site_fract_y
 _atom_site_fract_z
 _atom_site_occupancy
  Dy  Dy0  1  0.50000000  0.50000000  0.50000000  1
  Fe  Fe1  1  0.95267782  0.04732218  0.50000000  1
  Fe  Fe2  1  0.50000000  0.95267782  0.04732218  1
  Fe  Fe3  1  0.04732218  0.50000000  0.95267782  1
  B  B4  1  0.54802316  0.45197684  0.00000000  1
  B  B5  1  0.00000000  0.54802316  0.45197684  1
  B  B6  1  0.45197684  1.00000000  0.54802316  1
  B  B7  1  -0.00000000  0.00000000  0.00000000  1
  O  O8  1  0.52538278  0.29812470  0.13200273  1
  O  O9  1  0.13200273  0.52538278  0.29812470  1
  O  O10  1  0.86799727  0.70187530  0.47461722  1
  O  O11  1  0.29812470  0.13200273  0.52538278  1
  O  O12  1  0.70187530  0.47461722  0.86799727  1
  O  O13  1  0.47461722  0.86799727  0.70187530  1
  O  O14  1  0.14345034  0.85654966  0.00000000  1
  O  O15  1  1.00000000  0.14345034  0.85654966  1
  O  O16  1  0.85654966  0.00000000  0.14345034  1
  O  O17  1  0.40486341  0.59513659  0.00000000  1
  O  O18  1  0.00000000  0.40486341  0.59513659  1
  O  O19  1  0.59513659  1.00000000  0.40486341  1
