# generated using pymatgen
data_Er2AlGe3
_symmetry_space_group_name_H-M   'P 1'
_cell_length_a   4.16510207
_cell_length_b   6.82963342
_cell_length_c   17.64028311
_cell_angle_alpha   90.00000000
_cell_angle_beta   90.00000000
_cell_angle_gamma   90.00000000
_symmetry_Int_Tables_number   1
_chemical_formula_structural   Er2AlGe3
_chemical_formula_sum   'Er8 Al4 Ge12'
_cell_volume   501.79761538
_cell_formula_units_Z   4
loop_
 _symmetry_equiv_pos_site_id
 _symmetry_equiv_pos_as_xyz
  1  'x, y, z'
loop_
 _atom_site_type_symbol
 _atom_site_label
 _atom_site_symmetry_multiplicity
 _atom_site_fract_x
 _atom_site_fract_y
 _atom_site_fract_z
 _atom_site_occupancy
  Er  Er0  1  0.75000000  0.83370001  0.79698518  1
  Er  Er1  1  0.25000000  0.16629999  0.20301482  1
  Er  Er2  1  0.25000000  0.66629999  0.29698518  1
  Er  Er3  1  0.75000000  0.33370001  0.70301482  1
  Er  Er4  1  0.75000000  0.83242962  0.58542832  1
  Er  Er5  1  0.25000000  0.16757038  0.41457168  1
  Er  Er6  1  0.25000000  0.66757038  0.08542832  1
  Er  Er7  1  0.75000000  0.33242962  0.91457168  1
  Al  Al8  1  0.75000000  0.54926526  0.43558454  1
  Al  Al9  1  0.25000000  0.45073474  0.56441546  1
  Al  Al10  1  0.25000000  0.95073474  0.93558454  1
  Al  Al11  1  0.75000000  0.04926526  0.06441546  1
  Ge  Ge12  1  0.75000000  0.74861005  0.96527073  1
  Ge  Ge13  1  0.25000000  0.25138995  0.03472927  1
  Ge  Ge14  1  0.25000000  0.75138995  0.46527073  1
  Ge  Ge15  1  0.75000000  0.24861005  0.53472927  1
  Ge  Ge16  1  0.75000000  0.96432289  0.32795411  1
  Ge  Ge17  1  0.25000000  0.03567711  0.67204589  1
  Ge  Ge18  1  0.25000000  0.53567711  0.82795411  1
  Ge  Ge19  1  0.75000000  0.46432289  0.17204589  1
  Ge  Ge20  1  0.75000000  0.85400229  0.18843020  1
  Ge  Ge21  1  0.25000000  0.14599771  0.81156980  1
  Ge  Ge22  1  0.25000000  0.64599771  0.68843020  1
  Ge  Ge23  1  0.75000000  0.35400229  0.31156980  1
