# generated using pymatgen
data_K2Er2(PO4)3
_symmetry_space_group_name_H-M   'P 1'
_cell_length_a   10.68595814
_cell_length_b   10.68595814
_cell_length_c   10.68595814
_cell_angle_alpha   90.00000000
_cell_angle_beta   90.00000000
_cell_angle_gamma   90.00000000
_symmetry_Int_Tables_number   1
_chemical_formula_structural   K2Er2(PO4)3
_chemical_formula_sum   'K8 Er8 P12 O48'
_cell_volume   1220.22636886
_cell_formula_units_Z   4
loop_
 _symmetry_equiv_pos_site_id
 _symmetry_equiv_pos_as_xyz
  1  'x, y, z'
loop_
 _atom_site_type_symbol
 _atom_site_label
 _atom_site_symmetry_multiplicity
 _atom_site_fract_x
 _atom_site_fract_y
 _atom_site_fract_z
 _atom_site_occupancy
  K  K0  1  0.04581429  0.04581429  0.04581429  1
  K  K1  1  0.45418571  0.95418571  0.54581429  1
  K  K2  1  0.95418571  0.54581429  0.45418571  1
  K  K3  1  0.54581429  0.45418571  0.95418571  1
  K  K4  1  0.81887140  0.81887140  0.81887140  1
  K  K5  1  0.68112860  0.18112860  0.31887140  1
  K  K6  1  0.18112860  0.31887140  0.68112860  1
  K  K7  1  0.31887140  0.68112860  0.18112860  1
  Er  Er8  1  0.33357780  0.33357780  0.33357780  1
  Er  Er9  1  0.16642220  0.66642220  0.83357780  1
  Er  Er10  1  0.66642220  0.83357780  0.16642220  1
  Er  Er11  1  0.83357780  0.16642220  0.66642220  1
  Er  Er12  1  0.60232802  0.60232802  0.60232802  1
  Er  Er13  1  0.89767198  0.39767198  0.10232802  1
  Er  Er14  1  0.39767198  0.10232802  0.89767198  1
  Er  Er15  1  0.10232802  0.89767198  0.39767198  1
  P  P16  1  0.01534638  0.21293226  0.37371869  1
  P  P17  1  0.48465362  0.78706774  0.87371869  1
  P  P18  1  0.98465362  0.71293226  0.12628131  1
  P  P19  1  0.37371869  0.01534638  0.21293226  1
  P  P20  1  0.51534638  0.28706774  0.62628131  1
  P  P21  1  0.87371869  0.48465362  0.78706774  1
  P  P22  1  0.12628131  0.98465362  0.71293226  1
  P  P23  1  0.62628131  0.51534638  0.28706774  1
  P  P24  1  0.21293226  0.37371869  0.01534638  1
  P  P25  1  0.71293226  0.12628131  0.98465362  1
  P  P26  1  0.28706774  0.62628131  0.51534638  1
  P  P27  1  0.78706774  0.87371869  0.48465362  1
  O  O28  1  0.15066821  0.25770455  0.40011260  1
  O  O29  1  0.34933179  0.74229545  0.90011260  1
  O  O30  1  0.84933179  0.75770455  0.09988740  1
  O  O31  1  0.40011260  0.15066821  0.25770455  1
  O  O32  1  0.65066821  0.24229545  0.59988740  1
  O  O33  1  0.90011260  0.34933179  0.74229545  1
  O  O34  1  0.09988740  0.84933179  0.75770455  1
  O  O35  1  0.59988740  0.65066821  0.24229545  1
  O  O36  1  0.25770455  0.40011260  0.15066821  1
  O  O37  1  0.75770455  0.09988740  0.84933179  1
  O  O38  1  0.24229545  0.59988740  0.65066821  1
  O  O39  1  0.74229545  0.90011260  0.34933179  1
  O  O40  1  0.04538791  0.79457192  0.22895739  1
  O  O41  1  0.45461209  0.20542808  0.72895739  1
  O  O42  1  0.95461209  0.29457192  0.27104261  1
  O  O43  1  0.22895739  0.04538791  0.79457192  1
  O  O44  1  0.54538791  0.70542808  0.77104261  1
  O  O45  1  0.72895739  0.45461209  0.20542808  1
  O  O46  1  0.27104261  0.95461209  0.29457192  1
  O  O47  1  0.77104261  0.54538791  0.70542808  1
  O  O48  1  0.79457192  0.22895739  0.04538791  1
  O  O49  1  0.29457192  0.27104261  0.95461209  1
  O  O50  1  0.70542808  0.77104261  0.54538791  1
  O  O51  1  0.20542808  0.72895739  0.45461209  1
  O  O52  1  0.01470831  0.07476474  0.33007138  1
  O  O53  1  0.48529169  0.92523526  0.83007138  1
  O  O54  1  0.98529169  0.57476474  0.16992862  1
  O  O55  1  0.33007138  0.01470831  0.07476474  1
  O  O56  1  0.51470831  0.42523526  0.66992862  1
  O  O57  1  0.83007138  0.48529169  0.92523526  1
  O  O58  1  0.16992862  0.98529169  0.57476474  1
  O  O59  1  0.66992862  0.51470831  0.42523526  1
  O  O60  1  0.07476474  0.33007138  0.01470831  1
  O  O61  1  0.57476474  0.16992862  0.98529169  1
  O  O62  1  0.42523526  0.66992862  0.51470831  1
  O  O63  1  0.92523526  0.83007138  0.48529169  1
  O  O64  1  0.27164281  0.50651261  0.43465316  1
  O  O65  1  0.22835719  0.49348739  0.93465316  1
  O  O66  1  0.72835719  0.00651261  0.06534684  1
  O  O67  1  0.43465316  0.27164281  0.50651261  1
  O  O68  1  0.77164281  0.99348739  0.56534684  1
  O  O69  1  0.93465316  0.22835719  0.49348739  1
  O  O70  1  0.06534684  0.72835719  0.00651261  1
  O  O71  1  0.56534684  0.77164281  0.99348739  1
  O  O72  1  0.50651261  0.43465316  0.27164281  1
  O  O73  1  0.00651261  0.06534684  0.72835719  1
  O  O74  1  0.99348739  0.56534684  0.77164281  1
  O  O75  1  0.49348739  0.93465316  0.22835719  1
