# generated using pymatgen
data_Li3MnCoO5
_symmetry_space_group_name_H-M   'P 1'
_cell_length_a   2.97075494
_cell_length_b   5.97652772
_cell_length_c   10.30596303
_cell_angle_alpha   97.28576928
_cell_angle_beta   96.93784570
_cell_angle_gamma   93.62506450
_symmetry_Int_Tables_number   1
_chemical_formula_structural   Li3MnCoO5
_chemical_formula_sum   'Li6 Mn2 Co2 O10'
_cell_volume   179.59976018
_cell_formula_units_Z   2
loop_
 _symmetry_equiv_pos_site_id
 _symmetry_equiv_pos_as_xyz
  1  'x, y, z'
loop_
 _atom_site_type_symbol
 _atom_site_label
 _atom_site_symmetry_multiplicity
 _atom_site_fract_x
 _atom_site_fract_y
 _atom_site_fract_z
 _atom_site_occupancy
  Li  Li0  1  0.99646647  0.50108124  0.99763406  1
  Li  Li1  1  0.60633902  0.31018647  0.20998227  1
  Li  Li2  1  0.39739131  0.69671061  0.79561189  1
  Li  Li3  1  0.79540522  0.89145137  0.59261052  1
  Li  Li4  1  0.20738390  0.08970108  0.40606334  1
  Li  Li5  1  0.19336121  0.61209656  0.40605483  1
  Mn  Mn6  1  0.00539068  0.99997314  0.99641143  1
  Mn  Mn7  1  0.60974091  0.79401562  0.20799160  1
  Co  Co8  1  0.79022711  0.40639227  0.59091362  1
  Co  Co9  1  0.39731745  0.20158693  0.79645488  1
  O  O10  1  0.46670382  0.24319065  0.99122656  1
  O  O11  1  0.12287788  0.02108708  0.19442491  1
  O  O12  1  0.86243305  0.43165740  0.78403528  1
  O  O13  1  0.26865250  0.62849070  0.60141440  1
  O  O14  1  0.68881808  0.84889094  0.38686485  1
  O  O15  1  0.54077806  0.76119137  0.00793628  1
  O  O16  1  0.08303080  0.57933595  0.20118923  1
  O  O17  1  0.92808498  0.96589061  0.80399189  1
  O  O18  1  0.32971568  0.16720799  0.60975120  1
  O  O19  1  0.70988188  0.34986203  0.41943696  1
