# generated using pymatgen
data_HC9N10Cl7
_symmetry_space_group_name_H-M   'P 1'
_cell_length_a   9.47041068
_cell_length_b   8.64772018
_cell_length_c   17.70643554
_cell_angle_alpha   84.40021601
_cell_angle_beta   79.73477731
_cell_angle_gamma   56.79974995
_symmetry_Int_Tables_number   1
_chemical_formula_structural   HC9N10Cl7
_chemical_formula_sum   'H2 C18 N20 Cl14'
_cell_volume   1193.97620777
_cell_formula_units_Z   2
loop_
 _symmetry_equiv_pos_site_id
 _symmetry_equiv_pos_as_xyz
  1  'x, y, z'
loop_
 _atom_site_type_symbol
 _atom_site_label
 _atom_site_symmetry_multiplicity
 _atom_site_fract_x
 _atom_site_fract_y
 _atom_site_fract_z
 _atom_site_occupancy
  H  H0  1  0.31569663  0.36860674  0.75000000  1
  H  H1  1  0.68430337  0.63139326  0.25000000  1
  C  C2  1  0.43665539  0.94435321  0.79969859  1
  C  C3  1  0.56334461  0.05564679  0.20030141  1
  C  C4  1  0.61899140  0.94435321  0.70030141  1
  C  C5  1  0.38100860  0.05564679  0.29969859  1
  C  C6  1  0.66127214  0.67745573  0.75000000  1
  C  C7  1  0.33872786  0.32254427  0.25000000  1
  C  C8  1  0.22995784  0.59667165  0.67936781  1
  C  C9  1  0.77004216  0.40332835  0.32063219  1
  C  C10  1  0.17337051  0.59667165  0.82063219  1
  C  C11  1  0.82662949  0.40332835  0.17936781  1
  C  C12  1  0.21159585  0.82534816  0.60223800  1
  C  C13  1  0.78840415  0.17465184  0.39776200  1
  C  C14  1  0.96305599  0.82534816  0.89776200  1
  C  C15  1  0.03694401  0.17465184  0.10223800  1
  C  C16  1  0.23751099  0.58228619  0.55316068  1
  C  C17  1  0.76248901  0.41771381  0.44683932  1
  C  C18  1  0.18020281  0.58228619  0.94683932  1
  C  C19  1  0.81979719  0.41771381  0.05316068  1
  N  N20  1  0.52344343  0.75989761  0.80346173  1
  N  N21  1  0.47655657  0.24010239  0.19653827  1
  N  N22  1  0.71665895  0.75989761  0.69653827  1
  N  N23  1  0.28334105  0.24010239  0.30346173  1
  N  N24  1  0.25692328  0.49939640  0.87933588  1
  N  N25  1  0.74307672  0.50060360  0.12066412  1
  N  N26  1  0.24368033  0.49939640  0.62066412  1
  N  N27  1  0.75631967  0.50060360  0.37933588  1
  N  N28  1  0.22227086  0.74500872  0.53877343  1
  N  N29  1  0.77772914  0.25499128  0.46122657  1
  N  N30  1  0.03272042  0.74500872  0.96122657  1
  N  N31  1  0.96727958  0.25499128  0.03877343  1
  N  N32  1  0.47697067  0.04605867  0.75000000  1
  N  N33  1  0.52302933  0.95394133  0.25000000  1
  N  N34  1  0.21315192  0.76240016  0.67381284  1
  N  N35  1  0.78684808  0.23759984  0.32618716  1
  N  N36  1  0.02444792  0.76240016  0.82618716  1
  N  N37  1  0.97555208  0.23759984  0.17381284  1
  N  N38  1  0.24458277  0.51083446  0.75000000  1
  N  N39  1  0.75541723  0.48916554  0.25000000  1
  Cl  Cl40  1  0.71747158  0.53276400  0.97561814  1
  Cl  Cl41  1  0.28252842  0.46723600  0.02438186  1
  Cl  Cl42  1  0.74976442  0.53276400  0.52438186  1
  Cl  Cl43  1  0.25023558  0.46723600  0.47561814  1
  Cl  Cl44  1  0.77958439  0.44083121  0.75000000  1
  Cl  Cl45  1  0.22041561  0.55916879  0.25000000  1
  Cl  Cl46  1  0.76842524  0.03128265  0.91180172  1
  Cl  Cl47  1  0.23157476  0.96871735  0.08819828  1
  Cl  Cl48  1  0.20029210  0.03128265  0.58819828  1
  Cl  Cl49  1  0.79970790  0.96871735  0.41180172  1
  Cl  Cl50  1  0.68174711  0.06156832  0.63457152  1
  Cl  Cl51  1  0.31825289  0.93843168  0.36542848  1
  Cl  Cl52  1  0.25668457  0.06156832  0.86542848  1
  Cl  Cl53  1  0.74331543  0.93843168  0.13457152  1
