# generated using pymatgen
data_HoFe3(BO3)4
_symmetry_space_group_name_H-M   'P 1'
_cell_length_a   7.62754791
_cell_length_b   9.60005721
_cell_length_c   9.60005721
_cell_angle_alpha   119.99999785
_cell_angle_beta   90.00000000
_cell_angle_gamma   90.00000000
_symmetry_Int_Tables_number   1
_chemical_formula_structural   HoFe3(BO3)4
_chemical_formula_sum   'Ho3 Fe9 B12 O36'
_cell_volume   608.78399666
_cell_formula_units_Z   3
loop_
 _symmetry_equiv_pos_site_id
 _symmetry_equiv_pos_as_xyz
  1  'x, y, z'
loop_
 _atom_site_type_symbol
 _atom_site_label
 _atom_site_symmetry_multiplicity
 _atom_site_fract_x
 _atom_site_fract_y
 _atom_site_fract_z
 _atom_site_occupancy
  Ho  Ho0  1  0.16666700  0.33556457  0.33556457  1
  Ho  Ho1  1  0.83333300  0.00000000  0.66443543  1
  Ho  Ho2  1  0.50000000  0.66443543  0.00000000  1
  Fe  Fe3  1  0.84505791  0.45074355  0.66287905  1
  Fe  Fe4  1  0.51172491  0.21213550  0.54925645  1
  Fe  Fe5  1  0.15494209  0.78786450  0.33712095  1
  Fe  Fe6  1  0.17839091  0.33712095  0.78786450  1
  Fe  Fe7  1  0.48827509  0.66287905  0.45074355  1
  Fe  Fe8  1  0.82160909  0.54925645  0.21213550  1
  Fe  Fe9  1  0.16666700  0.88395976  0.88395976  1
  Fe  Fe10  1  0.83333300  0.00000000  0.11604024  1
  Fe  Fe11  1  0.50000000  0.11604024  0.00000000  1
  B  B12  1  0.66666700  0.77867960  0.77867960  1
  B  B13  1  0.33333300  1.00000000  0.22132040  1
  B  B14  1  -0.00000000  0.22132040  1.00000000  1
  B  B15  1  0.65067575  0.87471085  0.32327765  1
  B  B16  1  0.31734275  0.44856681  0.12528915  1
  B  B17  1  0.34932425  0.55143319  0.67672235  1
  B  B18  1  0.98400875  0.67672235  0.55143319  1
  B  B19  1  0.68265725  0.32327765  0.87471085  1
  B  B20  1  0.01599125  0.12528915  0.44856681  1
  B  B21  1  0.66666700  0.33123159  0.33123159  1
  B  B22  1  0.33333300  1.00000000  0.66876841  1
  B  B23  1  -0.00000000  0.66876841  1.00000000  1
  O  O24  1  0.67667725  0.87554927  0.18132141  1
  O  O25  1  0.34334425  0.30577215  0.12445073  1
  O  O26  1  0.32332275  0.69422785  0.81867859  1
  O  O27  1  0.01001025  0.81867859  0.69422785  1
  O  O28  1  0.65665575  0.18132141  0.87554927  1
  O  O29  1  0.98998975  0.12445073  0.30577215  1
  O  O30  1  0.68625483  0.63873843  0.78621843  1
  O  O31  1  0.35292183  0.14748000  0.36126157  1
  O  O32  1  0.31374517  0.85252000  0.21378157  1
  O  O33  1  0.01958783  0.21378157  0.85252000  1
  O  O34  1  0.64707817  0.78621843  0.63873843  1
  O  O35  1  0.98041217  0.36126157  0.14748000  1
  O  O36  1  0.99152331  0.67042784  0.14476831  1
  O  O37  1  0.65819031  0.47434047  0.32957216  1
  O  O38  1  0.00847669  0.52565953  0.85523169  1
  O  O39  1  0.32485631  0.85523169  0.52565953  1
  O  O40  1  0.34180969  0.14476831  0.67042784  1
  O  O41  1  0.67514369  0.32957216  0.47434047  1
  O  O42  1  0.66666700  0.92210624  0.92210624  1
  O  O43  1  0.33333300  0.00000000  0.07789376  1
  O  O44  1  -0.00000000  0.07789376  0.00000000  1
  O  O45  1  0.98314517  0.52530695  0.53382976  1
  O  O46  1  0.64981217  0.00852281  0.47469305  1
  O  O47  1  0.01685483  0.99147719  0.46617024  1
  O  O48  1  0.31647817  0.46617024  0.99147719  1
  O  O49  1  0.35018783  0.53382976  0.52530695  1
  O  O50  1  0.68352183  0.47469305  0.00852281  1
  O  O51  1  0.62459768  0.72369958  0.30492365  1
  O  O52  1  0.29126468  0.58122407  0.27630042  1
  O  O53  1  0.37540232  0.41877593  0.69507635  1
  O  O54  1  0.95793068  0.69507635  0.41877593  1
  O  O55  1  0.70873532  0.30492365  0.72369958  1
  O  O56  1  0.04206932  0.27630042  0.58122407  1
  O  O57  1  0.66666700  0.18754325  0.18754325  1
  O  O58  1  0.33333300  1.00000000  0.81245675  1
  O  O59  1  -0.00000000  0.81245675  1.00000000  1
