# generated using pymatgen
data_GaAg(SO4)2
_symmetry_space_group_name_H-M   'P 1'
_cell_length_a   4.80046718
_cell_length_b   4.80046718
_cell_length_c   7.45670026
_cell_angle_alpha   87.84630375
_cell_angle_beta   87.84630375
_cell_angle_gamma   65.45925806
_symmetry_Int_Tables_number   1
_chemical_formula_structural   GaAg(SO4)2
_chemical_formula_sum   'Ga1 Ag1 S2 O8'
_cell_volume   156.15717678
_cell_formula_units_Z   1
loop_
 _symmetry_equiv_pos_site_id
 _symmetry_equiv_pos_as_xyz
  1  'x, y, z'
loop_
 _atom_site_type_symbol
 _atom_site_label
 _atom_site_symmetry_multiplicity
 _atom_site_fract_x
 _atom_site_fract_y
 _atom_site_fract_z
 _atom_site_occupancy
  Ga  Ga0  1  -0.00000000  -0.00000000  0.00000000  1
  Ag  Ag1  1  -0.00000000  -0.00000000  0.50000000  1
  S  S2  1  0.36371900  0.36371900  0.78990984  1
  S  S3  1  0.63628100  0.63628100  0.21009016  1
  O  O4  1  0.29505688  0.29505688  0.61340255  1
  O  O5  1  0.70494312  0.70494312  0.38659745  1
  O  O6  1  0.70761204  0.23861472  0.80849694  1
  O  O7  1  0.29238796  0.76138528  0.19150306  1
  O  O8  1  0.76138528  0.29238796  0.19150306  1
  O  O9  1  0.23861472  0.70761204  0.80849694  1
  O  O10  1  0.24004237  0.24004237  0.94411529  1
  O  O11  1  0.75995763  0.75995763  0.05588471  1
