# generated using pymatgen
data_Ce2Mg
_symmetry_space_group_name_H-M   'P 1'
_cell_length_a   5.20481402
_cell_length_b   5.24631843
_cell_length_c   6.79946845
_cell_angle_alpha   67.30729441
_cell_angle_beta   90.00000000
_cell_angle_gamma   90.00000000
_symmetry_Int_Tables_number   1
_chemical_formula_structural   Ce2Mg
_chemical_formula_sum   'Ce4 Mg2'
_cell_volume   171.29404140
_cell_formula_units_Z   2
loop_
 _symmetry_equiv_pos_site_id
 _symmetry_equiv_pos_as_xyz
  1  'x, y, z'
loop_
 _atom_site_type_symbol
 _atom_site_label
 _atom_site_symmetry_multiplicity
 _atom_site_fract_x
 _atom_site_fract_y
 _atom_site_fract_z
 _atom_site_occupancy
  Ce  Ce0  1  0.00000000  0.91792986  0.00382212  1
  Ce  Ce1  1  0.50000000  0.41158302  0.00382212  1
  Ce  Ce2  1  0.50000000  0.08207014  0.66284388  1
  Ce  Ce3  1  0.00000000  0.58841798  0.66284488  1
  Mg  Mg4  1  0.00000000  0.25389559  0.33333400  1
  Mg  Mg5  1  0.50000000  0.74610241  0.33333400  1
