# generated using pymatgen
data_Ce3Al11
_symmetry_space_group_name_H-M   'P 1'
_cell_length_a   4.35492288
_cell_length_b   8.46336558
_cell_length_c   8.46336558
_cell_angle_alpha   72.38277702
_cell_angle_beta   75.09122111
_cell_angle_gamma   75.09122111
_symmetry_Int_Tables_number   1
_chemical_formula_structural   Ce3Al11
_chemical_formula_sum   'Ce3 Al11'
_cell_volume   281.79483341
_cell_formula_units_Z   1
loop_
 _symmetry_equiv_pos_site_id
 _symmetry_equiv_pos_as_xyz
  1  'x, y, z'
loop_
 _atom_site_type_symbol
 _atom_site_label
 _atom_site_symmetry_multiplicity
 _atom_site_fract_x
 _atom_site_fract_y
 _atom_site_fract_z
 _atom_site_occupancy
  Ce  Ce0  1  0.68331589  0.31668411  0.31668411  1
  Ce  Ce1  1  0.31668411  0.68331589  0.68331589  1
  Ce  Ce2  1  -0.00000000  0.00000000  0.00000000  1
  Al  Al3  1  0.66580086  0.96406164  0.70433664  1
  Al  Al4  1  0.33419914  0.03593836  0.29566336  1
  Al  Al5  1  0.66580086  0.70433664  0.96406164  1
  Al  Al6  1  0.33419914  0.29566336  0.03593836  1
  Al  Al7  1  0.50000000  0.28619641  0.71380359  1
  Al  Al8  1  0.50000000  0.71380359  0.28619641  1
  Al  Al9  1  0.86310707  0.86256299  0.41122286  1
  Al  Al10  1  0.13689293  0.13743701  0.58877714  1
  Al  Al11  1  0.86310707  0.41122286  0.86256299  1
  Al  Al12  1  0.13689293  0.58877714  0.13743701  1
  Al  Al13  1  -0.00000000  0.50000000  0.50000000  1
