# generated using pymatgen
data_Li3MnCoO5
_symmetry_space_group_name_H-M   'P 1'
_cell_length_a   2.95326068
_cell_length_b   8.20188239
_cell_length_c   7.78142125
_cell_angle_alpha   75.02514403
_cell_angle_beta   98.01515722
_cell_angle_gamma   89.57387372
_symmetry_Int_Tables_number   1
_chemical_formula_structural   Li3MnCoO5
_chemical_formula_sum   'Li6 Mn2 Co2 O10'
_cell_volume   180.11789549
_cell_formula_units_Z   2
loop_
 _symmetry_equiv_pos_site_id
 _symmetry_equiv_pos_as_xyz
  1  'x, y, z'
loop_
 _atom_site_type_symbol
 _atom_site_label
 _atom_site_symmetry_multiplicity
 _atom_site_fract_x
 _atom_site_fract_y
 _atom_site_fract_z
 _atom_site_occupancy
  Li  Li0  1  0.79418119  0.08623698  0.60157241  1
  Li  Li1  1  0.99092894  0.51560215  0.99384562  1
  Li  Li2  1  0.22005731  0.89103587  0.40692768  1
  Li  Li3  1  0.40705334  0.30450140  0.79971175  1
  Li  Li4  1  0.58518716  0.70188565  0.18749142  1
  Li  Li5  1  0.42140052  0.79212522  0.81132932  1
  Mn  Mn6  1  0.99522749  0.99141882  0.99461090  1
  Mn  Mn7  1  0.19536382  0.40324647  0.40253553  1
  Co  Co8  1  0.58824420  0.20430514  0.19613176  1
  Co  Co9  1  0.81617384  0.61033067  0.60854251  1
  O  O10  1  0.42816619  0.04496932  0.82215438  1
  O  O11  1  0.55667268  0.44345744  0.20613189  1
  O  O12  1  0.79837564  0.82756724  0.59324382  1
  O  O13  1  0.99447718  0.23381746  0.01410433  1
  O  O14  1  0.18342406  0.63910554  0.41421089  1
  O  O15  1  0.19564772  0.15967318  0.39228002  1
  O  O16  1  0.43167615  0.55353558  0.78404402  1
  O  O17  1  0.56478380  0.96089200  0.17398354  1
  O  O18  1  0.82953214  0.36950027  0.59578451  1
  O  O19  1  0.00342662  0.76679361  0.00136370  1
