# generated using pymatgen
data_CsIn(MoO4)2
_symmetry_space_group_name_H-M   'P 1'
_cell_length_a   6.00482792
_cell_length_b   15.48393025
_cell_length_c   9.17912961
_cell_angle_alpha   90.00000000
_cell_angle_beta   90.00000000
_cell_angle_gamma   90.00000000
_symmetry_Int_Tables_number   1
_chemical_formula_structural   CsIn(MoO4)2
_chemical_formula_sum   'Cs4 In4 Mo8 O32'
_cell_volume   853.46020328
_cell_formula_units_Z   4
loop_
 _symmetry_equiv_pos_site_id
 _symmetry_equiv_pos_as_xyz
  1  'x, y, z'
loop_
 _atom_site_type_symbol
 _atom_site_label
 _atom_site_symmetry_multiplicity
 _atom_site_fract_x
 _atom_site_fract_y
 _atom_site_fract_z
 _atom_site_occupancy
  Cs  Cs0  1  0.75000000  0.62717586  0.53577770  1
  Cs  Cs1  1  0.25000000  0.37282414  0.46422230  1
  Cs  Cs2  1  0.25000000  0.87282414  0.03577770  1
  Cs  Cs3  1  0.75000000  0.12717586  0.96422230  1
  In  In4  1  0.75000000  0.89063758  0.69489744  1
  In  In5  1  0.25000000  0.10936242  0.30510256  1
  In  In6  1  0.25000000  0.60936242  0.19489744  1
  In  In7  1  0.75000000  0.39063758  0.80510256  1
  Mo  Mo8  1  0.75000000  0.96354359  0.29412950  1
  Mo  Mo9  1  0.25000000  0.03645641  0.70587050  1
  Mo  Mo10  1  0.25000000  0.53645641  0.79412950  1
  Mo  Mo11  1  0.75000000  0.46354359  0.20587050  1
  Mo  Mo12  1  0.75000000  0.71503604  0.99608410  1
  Mo  Mo13  1  0.25000000  0.28496396  0.00391590  1
  Mo  Mo14  1  0.25000000  0.78496396  0.49608410  1
  Mo  Mo15  1  0.75000000  0.21503604  0.50391590  1
  O  O16  1  0.75000000  0.85952906  0.21937623  1
  O  O17  1  0.25000000  0.14047094  0.78062377  1
  O  O18  1  0.25000000  0.64047094  0.71937623  1
  O  O19  1  0.75000000  0.35952906  0.28062377  1
  O  O20  1  0.75000000  0.96032415  0.48889217  1
  O  O21  1  0.25000000  0.03967585  0.51110783  1
  O  O22  1  0.25000000  0.53967585  0.98889217  1
  O  O23  1  0.75000000  0.46032415  0.01110783  1
  O  O24  1  0.75000000  0.63741425  0.86001622  1
  O  O25  1  0.25000000  0.36258575  0.13998378  1
  O  O26  1  0.25000000  0.86258575  0.36001622  1
  O  O27  1  0.75000000  0.13741425  0.63998378  1
  O  O28  1  0.75000000  0.82047093  0.90330870  1
  O  O29  1  0.25000000  0.17952907  0.09669130  1
  O  O30  1  0.25000000  0.67952907  0.40330870  1
  O  O31  1  0.75000000  0.32047093  0.59669130  1
  O  O32  1  0.00122828  0.80300655  0.60480781  1
  O  O33  1  0.99877172  0.19699345  0.39519219  1
  O  O34  1  0.99877172  0.69699345  0.10480781  1
  O  O35  1  0.50122828  0.19699345  0.39519219  1
  O  O36  1  0.00122828  0.30300655  0.89519219  1
  O  O37  1  0.49877172  0.80300655  0.60480781  1
  O  O38  1  0.49877172  0.30300655  0.89519219  1
  O  O39  1  0.50122828  0.69699345  0.10480781  1
  O  O40  1  0.49215893  0.97796783  0.77678868  1
  O  O41  1  0.50784107  0.02203217  0.22321132  1
  O  O42  1  0.50784107  0.52203217  0.27678868  1
  O  O43  1  0.99215893  0.02203217  0.22321132  1
  O  O44  1  0.49215893  0.47796783  0.72321132  1
  O  O45  1  0.00784107  0.97796783  0.77678868  1
  O  O46  1  0.00784107  0.47796783  0.72321132  1
  O  O47  1  0.99215893  0.52203217  0.27678868  1
