# generated using pymatgen
data_Dy7Ru2C11
_symmetry_space_group_name_H-M   'P 1'
_cell_length_a   3.44755205
_cell_length_b   8.46989464
_cell_length_c   19.97229973
_cell_angle_alpha   90.00000000
_cell_angle_beta   90.00000000
_cell_angle_gamma   101.74275800
_symmetry_Int_Tables_number   1
_chemical_formula_structural   Dy7Ru2C11
_chemical_formula_sum   'Dy14 Ru4 C22'
_cell_volume   570.99353709
_cell_formula_units_Z   2
loop_
 _symmetry_equiv_pos_site_id
 _symmetry_equiv_pos_as_xyz
  1  'x, y, z'
loop_
 _atom_site_type_symbol
 _atom_site_label
 _atom_site_symmetry_multiplicity
 _atom_site_fract_x
 _atom_site_fract_y
 _atom_site_fract_z
 _atom_site_occupancy
  Dy  Dy0  1  0.89767446  0.79534893  0.25000000  1
  Dy  Dy1  1  0.10232554  0.20465107  0.75000000  1
  Dy  Dy2  1  0.27820164  0.55640328  0.65516896  1
  Dy  Dy3  1  0.72179836  0.44359672  0.34483104  1
  Dy  Dy4  1  0.72179836  0.44359672  0.15516896  1
  Dy  Dy5  1  0.27820164  0.55640328  0.84483104  1
  Dy  Dy6  1  0.33879782  0.67759564  0.01933030  1
  Dy  Dy7  1  0.66120218  0.32240436  0.98066970  1
  Dy  Dy8  1  0.66120218  0.32240436  0.51933030  1
  Dy  Dy9  1  0.33879782  0.67759564  0.48066970  1
  Dy  Dy10  1  0.52262707  0.04525415  0.12711907  1
  Dy  Dy11  1  0.47737293  0.95474585  0.87288093  1
  Dy  Dy12  1  0.47737293  0.95474585  0.62711907  1
  Dy  Dy13  1  0.52262707  0.04525415  0.37288093  1
  Ru  Ru14  1  0.08128561  0.16257123  0.25000000  1
  Ru  Ru15  1  0.91871439  0.83742877  0.75000000  1
  Ru  Ru16  1  0.00000000  0.00000000  -0.00000000  1
  Ru  Ru17  1  0.00000000  0.00000000  0.50000000  1
  C  C18  1  0.27873129  0.55746258  0.25000000  1
  C  C19  1  0.72126871  0.44253742  0.75000000  1
  C  C20  1  0.50452865  0.00905729  0.25000000  1
  C  C21  1  0.49547135  0.99094271  0.75000000  1
  C  C22  1  0.07359642  0.14719284  0.57916804  1
  C  C23  1  0.92640358  0.85280716  0.42083196  1
  C  C24  1  0.92640358  0.85280716  0.07916804  1
  C  C25  1  0.07359642  0.14719284  0.92083196  1
  C  C26  1  0.13254376  0.26508751  0.62260047  1
  C  C27  1  0.86745624  0.73491249  0.37739953  1
  C  C28  1  0.86745624  0.73491249  0.12260047  1
  C  C29  1  0.13254376  0.26508751  0.87739953  1
  C  C30  1  0.20584007  0.41168013  0.06323865  1
  C  C31  1  0.79415993  0.58831987  0.93676135  1
  C  C32  1  0.79415993  0.58831987  0.56323865  1
  C  C33  1  0.20584007  0.41168013  0.43676135  1
  C  C34  1  0.19835409  0.39670817  0.25000000  1
  C  C35  1  0.80164591  0.60329183  0.75000000  1
  C  C36  1  0.12709353  0.25418706  0.08398554  1
  C  C37  1  0.87290647  0.74581294  0.91601446  1
  C  C38  1  0.87290647  0.74581294  0.58398554  1
  C  C39  1  0.12709353  0.25418706  0.41601446  1
