# generated using pymatgen
data_Cs2U(N2O7)2
_symmetry_space_group_name_H-M   'P 1'
_cell_length_a   6.83434842
_cell_length_b   8.24372058
_cell_length_c   13.33053029
_cell_angle_alpha   90.00000000
_cell_angle_beta   103.77964508
_cell_angle_gamma   90.00000000
_symmetry_Int_Tables_number   1
_chemical_formula_structural   Cs2U(N2O7)2
_chemical_formula_sum   'Cs4 U2 N8 O28'
_cell_volume   729.43224373
_cell_formula_units_Z   2
loop_
 _symmetry_equiv_pos_site_id
 _symmetry_equiv_pos_as_xyz
  1  'x, y, z'
loop_
 _atom_site_type_symbol
 _atom_site_label
 _atom_site_symmetry_multiplicity
 _atom_site_fract_x
 _atom_site_fract_y
 _atom_site_fract_z
 _atom_site_occupancy
  Cs  Cs0  1  0.15866002  0.98230082  0.34146478  1
  Cs  Cs1  1  0.84133998  0.01769918  0.65853522  1
  Cs  Cs2  1  0.34133998  0.48230082  0.15853522  1
  Cs  Cs3  1  0.65866002  0.51769918  0.84146478  1
  U  U4  1  0.50000000  0.00000000  0.00000000  1
  U  U5  1  -0.00000000  0.50000000  0.50000000  1
  N  N6  1  0.86844816  0.27102953  0.11000273  1
  N  N7  1  0.13155184  0.72897047  0.88999727  1
  N  N8  1  0.63155184  0.77102953  0.38999727  1
  N  N9  1  0.36844816  0.22897047  0.61000273  1
  N  N10  1  0.79904926  0.76414420  0.12518454  1
  N  N11  1  0.20095074  0.23585580  0.87481546  1
  N  N12  1  0.70095074  0.26414420  0.37481546  1
  N  N13  1  0.29904926  0.73585580  0.62518454  1
  O  O14  1  0.81973925  0.72449802  0.40267602  1
  O  O15  1  0.18026075  0.27550198  0.59732398  1
  O  O16  1  0.68026075  0.22449802  0.09732398  1
  O  O17  1  0.31973925  0.77550198  0.90267602  1
  O  O18  1  0.15706835  0.49632308  0.40907289  1
  O  O19  1  0.84293165  0.50367692  0.59092711  1
  O  O20  1  0.34293165  0.99632308  0.09092711  1
  O  O21  1  0.65706835  0.00367692  0.90907289  1
  O  O22  1  0.92407370  0.66932507  0.17414349  1
  O  O23  1  0.07592630  0.33067493  0.82585651  1
  O  O24  1  0.57592630  0.16932507  0.32585651  1
  O  O25  1  0.42407370  0.83067493  0.67414349  1
  O  O26  1  0.81457110  0.91883962  0.13660144  1
  O  O27  1  0.18542890  0.08116038  0.86339856  1
  O  O28  1  0.68542890  0.41883962  0.36339856  1
  O  O29  1  0.31457110  0.58116038  0.63660144  1
  O  O30  1  0.63970960  0.71701898  0.05807882  1
  O  O31  1  0.36029040  0.28298102  0.94192118  1
  O  O32  1  0.86029040  0.21701898  0.44192118  1
  O  O33  1  0.13970960  0.78298102  0.55807882  1
  O  O34  1  0.97730269  0.26996961  0.19964536  1
  O  O35  1  0.02269731  0.73003039  0.80035464  1
  O  O36  1  0.52269731  0.76996961  0.30035464  1
  O  O37  1  0.47730269  0.23003039  0.69964536  1
  O  O38  1  0.92884414  0.31731556  0.03354604  1
  O  O39  1  0.07115586  0.68268444  0.96645396  1
  O  O40  1  0.57115586  0.81731556  0.46645396  1
  O  O41  1  0.42884414  0.18268444  0.53354604  1
