# generated using pymatgen
data_AlPbF5
_symmetry_space_group_name_H-M   'P 1'
_cell_length_a   7.25956977
_cell_length_b   10.86812870
_cell_length_c   10.86812870
_cell_angle_alpha   83.59558288
_cell_angle_beta   70.48921149
_cell_angle_gamma   70.48921149
_symmetry_Int_Tables_number   1
_chemical_formula_structural   AlPbF5
_chemical_formula_sum   'Al8 Pb8 F40'
_cell_volume   761.82566384
_cell_formula_units_Z   8
loop_
 _symmetry_equiv_pos_site_id
 _symmetry_equiv_pos_as_xyz
  1  'x, y, z'
loop_
 _atom_site_type_symbol
 _atom_site_label
 _atom_site_symmetry_multiplicity
 _atom_site_fract_x
 _atom_site_fract_y
 _atom_site_fract_z
 _atom_site_occupancy
  Al  Al0  1  0.28300595  0.00000000  -0.00000000  1
  Al  Al1  1  0.35687054  0.84469393  0.48390604  1
  Al  Al2  1  0.68547050  0.15530607  0.51609396  1
  Al  Al3  1  0.84077657  0.51609396  0.84469393  1
  Al  Al4  1  0.20156446  0.48390604  0.15530607  1
  Al  Al5  1  0.77870823  0.00000000  -0.00000000  1
  Al  Al6  1  0.02726823  0.50000000  0.50000000  1
  Al  Al7  1  0.52726823  0.50000000  0.50000000  1
  Pb  Pb8  1  0.06917595  0.17189271  0.72212873  1
  Pb  Pb9  1  0.96319738  0.82810729  0.27787127  1
  Pb  Pb10  1  0.79130467  0.27787127  0.17189271  1
  Pb  Pb11  1  0.24106865  0.72212873  0.82810729  1
  Pb  Pb12  1  0.27764637  0.16918154  0.31428343  1
  Pb  Pb13  1  0.76111134  0.83081846  0.68571657  1
  Pb  Pb14  1  0.59192980  0.68571657  0.16918154  1
  Pb  Pb15  1  0.44682791  0.31428343  0.83081846  1
  F  F16  1  0.48683755  0.81577153  0.60664046  1
  F  F17  1  0.90924955  0.18422847  0.39335954  1
  F  F18  1  0.09347802  0.39335954  0.81577153  1
  F  F19  1  0.30260909  0.60664046  0.18422847  1
  F  F20  1  0.27693557  0.50000000  0.50000000  1
  F  F21  1  0.77693557  0.50000000  0.50000000  1
  F  F22  1  0.53169376  0.00000000  -0.00000000  1
  F  F23  1  0.58519055  0.85913868  0.35206050  1
  F  F24  1  0.79638973  0.14086132  0.64793950  1
  F  F25  1  0.93725105  0.64793950  0.85913868  1
  F  F26  1  0.44432923  0.35206050  0.14086132  1
  F  F27  1  0.25195167  0.02011488  0.51041585  1
  F  F28  1  0.78248240  0.97988512  0.48958415  1
  F  F29  1  0.76236752  0.48958415  0.02011488  1
  F  F30  1  0.27206655  0.51041585  0.97988512  1
  F  F31  1  0.45105946  0.14538500  0.64184465  1
  F  F32  1  0.23828912  0.85461500  0.35815535  1
  F  F33  1  0.09290412  0.35815535  0.14538500  1
  F  F34  1  0.59644446  0.64184465  0.85461500  1
  F  F35  1  0.03147674  0.00000000  -0.00000000  1
  F  F36  1  0.09024067  0.32618607  0.54374828  1
  F  F37  1  0.96017501  0.67381393  0.45625172  1
  F  F38  1  0.63398894  0.45625172  0.32618607  1
  F  F39  1  0.41642673  0.54374828  0.67381393  1
  F  F40  1  0.67076037  0.06592005  0.16394717  1
  F  F41  1  0.90062759  0.93407995  0.83605283  1
  F  F42  1  0.83470754  0.83605283  0.06592005  1
  F  F43  1  0.73668042  0.16394717  0.93407995  1
  F  F44  1  0.47311259  0.66634358  0.44397737  1
  F  F45  1  0.58343354  0.33365642  0.55602263  1
  F  F46  1  0.91708996  0.55602263  0.66634358  1
  F  F47  1  0.13945617  0.44397737  0.33365642  1
  F  F48  1  0.39429929  0.92837415  0.83808880  1
  F  F49  1  0.16076225  0.07162585  0.16191120  1
  F  F50  1  0.23238810  0.16191120  0.92837415  1
  F  F51  1  0.32267344  0.83808880  0.07162585  1
  F  F52  1  0.56511305  0.19235041  0.38784394  1
  F  F53  1  0.14530740  0.80764959  0.61215606  1
  F  F54  1  0.95295699  0.61215606  0.19235041  1
  F  F55  1  0.75746346  0.38784394  0.80764959  1
