# generated using pymatgen
data_Zr4GeSb7
_symmetry_space_group_name_H-M   'P 1'
_cell_length_a   3.99310150
_cell_length_b   7.38083312
_cell_length_c   9.68274440
_cell_angle_alpha   90.44916749
_cell_angle_beta   90.00000000
_cell_angle_gamma   90.00000000
_symmetry_Int_Tables_number   1
_chemical_formula_structural   Zr4GeSb7
_chemical_formula_sum   'Zr4 Ge1 Sb7'
_cell_volume   285.36509992
_cell_formula_units_Z   1
loop_
 _symmetry_equiv_pos_site_id
 _symmetry_equiv_pos_as_xyz
  1  'x, y, z'
loop_
 _atom_site_type_symbol
 _atom_site_label
 _atom_site_symmetry_multiplicity
 _atom_site_fract_x
 _atom_site_fract_y
 _atom_site_fract_z
 _atom_site_occupancy
  Zr  Zr0  1  0.75000000  0.24159215  0.66050278  1
  Zr  Zr1  1  0.75000000  0.73640804  0.83170991  1
  Zr  Zr2  1  0.25000000  0.75815246  0.34138121  1
  Zr  Zr3  1  0.25000000  0.26009786  0.16519031  1
  Ge  Ge4  1  0.75000000  0.63192089  0.54561296  1
  Sb  Sb5  1  0.75000000  0.56725611  0.14960253  1
  Sb  Sb6  1  0.75000000  0.06903746  0.35482915  1
  Sb  Sb7  1  0.25000000  0.43180570  0.84983037  1
  Sb  Sb8  1  0.25000000  0.92067806  0.64127720  1
  Sb  Sb9  1  0.75000000  0.13140054  0.95321351  1
  Sb  Sb10  1  0.25000000  0.38582893  0.46084776  1
  Sb  Sb11  1  0.25000000  0.86582178  0.04600232  1
