# generated using pymatgen
data_YErNi2
_symmetry_space_group_name_H-M   'P 1'
_cell_length_a   4.14186409
_cell_length_b   5.44216718
_cell_length_c   7.11764578
_cell_angle_alpha   90.00000000
_cell_angle_beta   90.00000000
_cell_angle_gamma   90.00000000
_symmetry_Int_Tables_number   1
_chemical_formula_structural   YErNi2
_chemical_formula_sum   'Y2 Er2 Ni4'
_cell_volume   160.43683791
_cell_formula_units_Z   2
loop_
 _symmetry_equiv_pos_site_id
 _symmetry_equiv_pos_as_xyz
  1  'x, y, z'
loop_
 _atom_site_type_symbol
 _atom_site_label
 _atom_site_symmetry_multiplicity
 _atom_site_fract_x
 _atom_site_fract_y
 _atom_site_fract_z
 _atom_site_occupancy
  Y  Y0  1  0.75000000  0.62778096  0.32053008  1
  Y  Y1  1  0.75000000  0.87221904  0.82053008  1
  Er  Er2  1  0.25000000  0.37124932  0.68009760  1
  Er  Er3  1  0.25000000  0.12875068  0.18009760  1
  Ni  Ni4  1  0.25000000  0.88210710  0.53709661  1
  Ni  Ni5  1  0.25000000  0.61789290  0.03709661  1
  Ni  Ni6  1  0.75000000  0.12017463  0.46227571  1
  Ni  Ni7  1  0.75000000  0.37982537  0.96227571  1
