# generated using pymatgen
data_YbSm3S4
_symmetry_space_group_name_H-M   'P 1'
_cell_length_a   3.99088039
_cell_length_b   3.99088039
_cell_length_c   13.35272242
_cell_angle_alpha   81.40548776
_cell_angle_beta   98.59451224
_cell_angle_gamma   119.99999988
_symmetry_Int_Tables_number   1
_chemical_formula_structural   YbSm3S4
_chemical_formula_sum   'Yb1 Sm3 S4'
_cell_volume   181.41522519
_cell_formula_units_Z   1
loop_
 _symmetry_equiv_pos_site_id
 _symmetry_equiv_pos_as_xyz
  1  'x, y, z'
loop_
 _atom_site_type_symbol
 _atom_site_label
 _atom_site_symmetry_multiplicity
 _atom_site_fract_x
 _atom_site_fract_y
 _atom_site_fract_z
 _atom_site_occupancy
  Yb  Yb0  1  0.00000000  0.00000000  0.00000000  1
  Sm  Sm1  1  0.75079376  0.24920624  0.25238127  1
  Sm  Sm2  1  0.50000000  0.50000000  0.50000000  1
  Sm  Sm3  1  0.24920624  0.75079376  0.74761873  1
  S  S4  1  0.62601894  0.37398106  0.87805681  1
  S  S5  1  0.87524825  0.12475175  0.62574475  1
  S  S6  1  0.37398106  0.62601894  0.12194319  1
  S  S7  1  0.12475175  0.87524825  0.37425525  1
