# generated using pymatgen
data_Zr3NbC4
_symmetry_space_group_name_H-M   'P 1'
_cell_length_a   3.29887685
_cell_length_b   3.29887685
_cell_length_c   10.95149521
_cell_angle_alpha   98.66246171
_cell_angle_beta   90.00000000
_cell_angle_gamma   120.00000000
_symmetry_Int_Tables_number   1
_chemical_formula_structural   Zr3NbC4
_chemical_formula_sum   'Zr3 Nb1 C4'
_cell_volume   101.64057136
_cell_formula_units_Z   1
loop_
 _symmetry_equiv_pos_site_id
 _symmetry_equiv_pos_as_xyz
  1  'x, y, z'
loop_
 _atom_site_type_symbol
 _atom_site_label
 _atom_site_symmetry_multiplicity
 _atom_site_fract_x
 _atom_site_fract_y
 _atom_site_fract_z
 _atom_site_occupancy
  Zr  Zr0  1  0.74878322  0.49756645  0.24634967  1
  Zr  Zr1  1  0.50000000  -0.00000000  0.50000000  1
  Zr  Zr2  1  0.25121678  0.50243355  0.75365033  1
  Nb  Nb3  1  -0.00000000  -0.00000000  -0.00000000  1
  C  C4  1  0.62774476  0.25548952  0.88323428  1
  C  C5  1  0.87592052  0.75184103  0.62776155  1
  C  C6  1  0.37225524  0.74451048  0.11676572  1
  C  C7  1  0.12407948  0.24815897  0.37223845  1
