# generated using pymatgen
data_Yb4SmS5
_symmetry_space_group_name_H-M   'P 1'
_cell_length_a   3.98661148
_cell_length_b   3.98661149
_cell_length_c   16.58929018
_cell_angle_alpha   83.09888648
_cell_angle_beta   90.00000000
_cell_angle_gamma   120.00000006
_symmetry_Int_Tables_number   1
_chemical_formula_structural   Yb4SmS5
_chemical_formula_sum   'Yb4 Sm1 S5'
_cell_volume   226.12335536
_cell_formula_units_Z   1
loop_
 _symmetry_equiv_pos_site_id
 _symmetry_equiv_pos_as_xyz
  1  'x, y, z'
loop_
 _atom_site_type_symbol
 _atom_site_label
 _atom_site_symmetry_multiplicity
 _atom_site_fract_x
 _atom_site_fract_y
 _atom_site_fract_z
 _atom_site_occupancy
  Yb  Yb0  1  0.89968099  0.79936197  0.30095704  1
  Yb  Yb1  1  0.50005896  0.00011791  0.49982313  1
  Yb  Yb2  1  0.09994104  0.19988209  0.70017687  1
  Yb  Yb3  1  0.70031901  0.40063803  0.89904296  1
  Sm  Sm4  1  0.30000000  0.60000000  0.10000000  1
  S  S5  1  0.39985023  0.79970046  0.80044931  1
  S  S6  1  0.20014977  0.40029954  0.39955069  1
  S  S7  1  0.80000000  0.60000000  0.60000000  1
  S  S8  1  0.00064237  0.00128474  0.99807289  1
  S  S9  1  0.59935763  0.19871526  0.20192711  1
