# generated using pymatgen
data_Zn2CrFe3O8
_symmetry_space_group_name_H-M   'P 1'
_cell_length_a   6.02587273
_cell_length_b   6.02587273
_cell_length_c   6.03905326
_cell_angle_alpha   60.07217198
_cell_angle_beta   119.92782802
_cell_angle_gamma   120.00000000
_symmetry_Int_Tables_number   1
_chemical_formula_structural   Zn2CrFe3O8
_chemical_formula_sum   'Zn2 Cr1 Fe3 O8'
_cell_volume   155.22678902
_cell_formula_units_Z   1
loop_
 _symmetry_equiv_pos_site_id
 _symmetry_equiv_pos_as_xyz
  1  'x, y, z'
loop_
 _atom_site_type_symbol
 _atom_site_label
 _atom_site_symmetry_multiplicity
 _atom_site_fract_x
 _atom_site_fract_y
 _atom_site_fract_z
 _atom_site_occupancy
  Zn  Zn0  1  0.25026541  0.74973459  0.75079623  1
  Zn  Zn1  1  0.99973459  0.00026541  0.99920377  1
  Cr  Cr2  1  0.62500000  0.37500000  0.87500000  1
  Fe  Fe3  1  0.62500000  0.37500000  0.37500000  1
  Fe  Fe4  1  0.62500000  0.87500000  0.37500000  1
  Fe  Fe5  1  0.12500000  0.37500000  0.37500000  1
  O  O6  1  0.86478290  0.13521710  0.59434871  1
  O  O7  1  0.86372536  0.13627464  0.13455887  1
  O  O8  1  0.86372536  0.59289185  0.13455887  1
  O  O9  1  0.40710815  0.13627464  0.13455887  1
  O  O10  1  0.38521710  0.61478290  0.15565129  1
  O  O11  1  0.38627464  0.61372536  0.61544113  1
  O  O12  1  0.38627464  0.15710815  0.61544113  1
  O  O13  1  0.84289185  0.61372536  0.61544113  1
