# generated using pymatgen
data_Zn3CrH80S8(NO7)8
_symmetry_space_group_name_H-M   'P 1'
_cell_length_a   9.61293326
_cell_length_b   14.06733817
_cell_length_c   12.70751028
_cell_angle_alpha   70.98635687
_cell_angle_beta   111.50992072
_cell_angle_gamma   79.73028977
_symmetry_Int_Tables_number   1
_chemical_formula_structural   Zn3CrH80S8(NO7)8
_chemical_formula_sum   'Zn3 Cr1 H80 S8 N8 O56'
_cell_volume   1422.28307464
_cell_formula_units_Z   1
loop_
 _symmetry_equiv_pos_site_id
 _symmetry_equiv_pos_as_xyz
  1  'x, y, z'
loop_
 _atom_site_type_symbol
 _atom_site_label
 _atom_site_symmetry_multiplicity
 _atom_site_fract_x
 _atom_site_fract_y
 _atom_site_fract_z
 _atom_site_occupancy
  Zn  Zn0  1  -0.00000000  0.50000000  0.50000000  1
  Zn  Zn1  1  -0.00000000  0.00000000  0.00000000  1
  Zn  Zn2  1  0.50000000  0.00000000  0.50000000  1
  Cr  Cr3  1  0.50000000  0.50000000  0.00000000  1
  H  H4  1  0.56091603  0.92138579  0.89217790  1
  H  H5  1  0.06086199  0.92137739  0.39213955  1
  H  H6  1  0.01768141  0.42148263  0.18640670  1
  H  H7  1  0.51761364  0.42140755  0.68643868  1
  H  H8  1  0.93913801  0.07862261  0.60786045  1
  H  H9  1  0.43908397  0.07861421  0.10782210  1
  H  H10  1  0.48238636  0.57859245  0.31356132  1
  H  H11  1  0.98231859  0.57851737  0.81359330  1
  H  H12  1  0.46679569  0.83048741  0.89630086  1
  H  H13  1  0.96651759  0.83056992  0.39624311  1
  H  H14  1  0.20298387  0.33045349  0.27318713  1
  H  H15  1  0.70297776  0.33044269  0.77324329  1
  H  H16  1  0.03348241  0.16943008  0.60375689  1
  H  H17  1  0.53320431  0.16951259  0.10369914  1
  H  H18  1  0.29702224  0.66955731  0.22675671  1
  H  H19  1  0.79701613  0.66954651  0.72681287  1
  H  H20  1  0.73345053  0.58961005  0.00173887  1
  H  H21  1  0.23001974  0.58796412  0.50303025  1
  H  H22  1  0.18202850  0.08796974  0.40897787  1
  H  H23  1  0.68199578  0.08797000  0.90895820  1
  H  H24  1  0.76998026  0.41203588  0.49696975  1
  H  H25  1  0.26654947  0.41038995  0.99826113  1
  H  H26  1  0.31800422  0.91203000  0.09104180  1
  H  H27  1  0.81797150  0.91203026  0.59102213  1
  H  H28  1  0.62103484  0.62144881  0.85741658  1
  H  H29  1  0.11714222  0.61960060  0.35919830  1
  H  H30  1  0.26321849  0.11958689  0.52122238  1
  H  H31  1  0.76319218  0.11957928  0.02117323  1
  H  H32  1  0.88285778  0.38039940  0.64080170  1
  H  H33  1  0.37896516  0.37855119  0.14258342  1
  H  H34  1  0.23680782  0.88042072  0.97882677  1
  H  H35  1  0.73678151  0.88041311  0.47877762  1
  H  H36  1  0.60164668  0.82189959  0.03118545  1
  H  H37  1  0.10160817  0.82191827  0.53119084  1
  H  H38  1  0.07662954  0.32187323  0.14683336  1
  H  H39  1  0.57656539  0.32185738  0.64687849  1
  H  H40  1  0.89839183  0.17808173  0.46880916  1
  H  H41  1  0.39835332  0.17810041  0.96881455  1
  H  H42  1  0.42343461  0.67814262  0.35312151  1
  H  H43  1  0.92337046  0.67812677  0.85316664  1
  H  H44  1  0.64833375  0.44060073  0.24692963  1
  H  H45  1  0.14733088  0.44084543  0.74592323  1
  H  H46  1  0.41137300  0.94096258  0.31311231  1
  H  H47  1  0.91134346  0.94095900  0.81314554  1
  H  H48  1  0.85266912  0.55915457  0.25407677  1
  H  H49  1  0.35166625  0.55939927  0.75307037  1
  H  H50  1  0.08865654  0.05904100  0.18685446  1
  H  H51  1  0.58862700  0.05903742  0.68688769  1
  H  H52  1  0.78696963  0.59847511  0.55387865  1
  H  H53  1  0.28453878  0.59992666  0.05416019  1
  H  H54  1  0.61457138  0.09841948  0.34764639  1
  H  H55  1  0.11465118  0.09841864  0.84769453  1
  H  H56  1  0.71546122  0.40007334  0.94583981  1
  H  H57  1  0.21303037  0.40152489  0.44612135  1
  H  H58  1  0.88534882  0.90158136  0.15230547  1
  H  H59  1  0.38542862  0.90158052  0.65235361  1
  H  H60  1  0.66303281  0.79237333  0.93313146  1
  H  H61  1  0.16332129  0.79264161  0.43317675  1
  H  H62  1  0.04429713  0.29269436  0.27413800  1
  H  H63  1  0.54420667  0.29271626  0.77415073  1
  H  H64  1  0.83667871  0.20735839  0.56682325  1
  H  H65  1  0.33696719  0.20762667  0.06686854  1
  H  H66  1  0.45579333  0.70728374  0.22584927  1
  H  H67  1  0.95570287  0.70730564  0.72586200  1
  H  H68  1  0.83198398  0.68853799  0.47326380  1
  H  H69  1  0.33017250  0.69017193  0.97353070  1
  H  H70  1  0.47927389  0.18854631  0.33805415  1
  H  H71  1  0.97937134  0.18854663  0.83822139  1
  H  H72  1  0.66982750  0.30982807  0.02646930  1
  H  H73  1  0.16801602  0.31146201  0.52673620  1
  H  H74  1  0.02062866  0.81145337  0.16177861  1
  H  H75  1  0.52072611  0.81145369  0.66194585  1
  H  H76  1  0.74650254  0.35414060  0.22320453  1
  H  H77  1  0.24538701  0.35473817  0.72218152  1
  H  H78  1  0.89989360  0.85477828  0.92306267  1
  H  H79  1  0.39991089  0.85480526  0.42303021  1
  H  H80  1  0.75461299  0.64526183  0.27781848  1
  H  H81  1  0.25349746  0.64585940  0.77679547  1
  H  H82  1  0.60008911  0.14519474  0.57696979  1
  H  H83  1  0.10010640  0.14522172  0.07693733  1
  S  S84  1  0.64156678  0.86767824  0.22712316  1
  S  S85  1  0.14164606  0.86764670  0.72712442  1
  S  S86  1  0.49086330  0.36767450  0.40529870  1
  S  S87  1  0.99061100  0.36769053  0.90502907  1
  S  S88  1  0.85835394  0.13235330  0.27287558  1
  S  S89  1  0.35843322  0.13232176  0.77287684  1
  S  S90  1  0.00938900  0.63230947  0.09497093  1
  S  S91  1  0.50913670  0.63232550  0.59470130  1
  N  N92  1  0.57400201  0.84142699  0.93784655  1
  N  N93  1  0.07390512  0.84139275  0.43782639  1
  N  N94  1  0.08469773  0.34136704  0.22072121  1
  N  N95  1  0.58468789  0.34133848  0.72076428  1
  N  N96  1  0.92609488  0.15860725  0.56217361  1
  N  N97  1  0.42599799  0.15857301  0.06215345  1
  N  N98  1  0.41531211  0.65866152  0.27923572  1
  N  N99  1  0.91530227  0.65863296  0.77927879  1
  O  O100  1  0.37494990  0.61624995  0.04008717  1
  O  O101  1  0.87725019  0.61447584  0.53948992  1
  O  O102  1  0.00824160  0.11449299  0.84604218  1
  O  O103  1  0.50830587  0.11441428  0.34621795  1
  O  O104  1  0.12274981  0.38552416  0.46051008  1
  O  O105  1  0.62505010  0.38375005  0.95991283  1
  O  O106  1  0.49169413  0.88558572  0.65378205  1
  O  O107  1  0.99175840  0.88550701  0.15395782  1
  O  O108  1  0.70332421  0.93161567  0.14964467  1
  O  O109  1  0.20324698  0.93156216  0.64956213  1
  O  O110  1  0.86474258  0.43192020  0.91862790  1
  O  O111  1  0.36497583  0.43192433  0.41876914  1
  O  O112  1  0.79675302  0.06843784  0.35043787  1
  O  O113  1  0.29667579  0.06838433  0.85035533  1
  O  O114  1  0.63502417  0.56807567  0.58123086  1
  O  O115  1  0.13525742  0.56807980  0.08137210  1
  O  O116  1  0.62197827  0.61461073  0.93726976  1
  O  O117  1  0.11840405  0.60814566  0.44044789  1
  O  O118  1  0.27323767  0.10823728  0.45131560  1
  O  O119  1  0.77326821  0.10819155  0.95131675  1
  O  O120  1  0.88159595  0.39185434  0.55955211  1
  O  O121  1  0.37802173  0.38538927  0.06273024  1
  O  O122  1  0.22673179  0.89180845  0.04868325  1
  O  O123  1  0.72676233  0.89176272  0.54868440  1
  O  O124  1  0.68096778  0.43088560  0.18455762  1
  O  O125  1  0.18184012  0.43170626  0.68428810  1
  O  O126  1  0.38674621  0.93161894  0.38422058  1
  O  O127  1  0.88678217  0.93160586  0.88426389  1
  O  O128  1  0.81815988  0.56829374  0.31571190  1
  O  O129  1  0.31903222  0.56911440  0.81544238  1
  O  O130  1  0.11321783  0.06839414  0.11573611  1
  O  O131  1  0.61325379  0.06838106  0.61577942  1
  O  O132  1  0.61860570  0.77558401  0.19505380  1
  O  O133  1  0.11887924  0.77536596  0.69517814  1
  O  O134  1  0.60633300  0.27564212  0.52963158  1
  O  O135  1  0.10562254  0.27558270  0.02926455  1
  O  O136  1  0.88112076  0.22463404  0.30482186  1
  O  O137  1  0.38139430  0.22441599  0.80494620  1
  O  O138  1  0.89437746  0.72441730  0.97073545  1
  O  O139  1  0.39366700  0.72435788  0.47036842  1
  O  O140  1  0.75459094  0.82467134  0.36386345  1
  O  O141  1  0.25448523  0.82472059  0.86380440  1
  O  O142  1  0.42094598  0.32457022  0.31196827  1
  O  O143  1  0.92069939  0.32474108  0.81135117  1
  O  O144  1  0.74551477  0.17527941  0.13619560  1
  O  O145  1  0.24540906  0.17532866  0.63613655  1
  O  O146  1  0.07930061  0.67525892  0.18864883  1
  O  O147  1  0.57905402  0.67542978  0.68803173  1
  O  O148  1  0.48215477  0.93594604  0.20008747  1
  O  O149  1  0.98216375  0.93587484  0.69997849  1
  O  O150  1  0.58181161  0.43575141  0.36382251  1
  O  O151  1  0.08098740  0.43601199  0.86339979  1
  O  O152  1  0.01783625  0.06412516  0.30002151  1
  O  O153  1  0.51784523  0.06405396  0.79991253  1
  O  O154  1  0.91901260  0.56398801  0.13660021  1
  O  O155  1  0.41818839  0.56424859  0.63617749  1
