# generated using pymatgen
data_ZnCr8Cu3Se16
_symmetry_space_group_name_H-M   'P 1'
_cell_length_a   7.39215063
_cell_length_b   7.39215063
_cell_length_c   12.75294103
_cell_angle_alpha   73.15273284
_cell_angle_beta   90.00000000
_cell_angle_gamma   120.00000000
_symmetry_Int_Tables_number   1
_chemical_formula_structural   ZnCr8Cu3Se16
_chemical_formula_sum   'Zn1 Cr8 Cu3 Se16'
_cell_volume   568.70917017
_cell_formula_units_Z   1
loop_
 _symmetry_equiv_pos_site_id
 _symmetry_equiv_pos_as_xyz
  1  'x, y, z'
loop_
 _atom_site_type_symbol
 _atom_site_label
 _atom_site_symmetry_multiplicity
 _atom_site_fract_x
 _atom_site_fract_y
 _atom_site_fract_z
 _atom_site_occupancy
  Zn  Zn0  1  0.93763522  0.37527043  0.18709435  1
  Cr  Cr1  1  0.24870065  0.99740130  0.25389805  1
  Cr  Cr2  1  0.75025609  0.00051219  0.74923172  1
  Cr  Cr3  1  0.50232091  0.50464182  0.99802057  1
  Cr  Cr4  1  0.00083589  0.50167178  0.50092194  1
  Cr  Cr5  1  0.00083589  0.99824217  0.50092194  1
  Cr  Cr6  1  0.50232091  0.99965852  0.99802057  1
  Cr  Cr7  1  0.99733761  0.99965852  0.99802057  1
  Cr  Cr8  1  0.49740628  0.99824217  0.50092194  1
  Cu  Cu9  1  0.43752693  0.37505386  0.68741921  1
  Cu  Cu10  1  0.56241571  0.62483143  0.31275286  1
  Cu  Cu11  1  0.06247177  0.62494354  0.81258469  1
  Se  Se12  1  0.86969007  0.23938015  0.39092978  1
  Se  Se13  1  0.37100929  0.24201858  0.88697213  1
  Se  Se14  1  0.14034830  0.78069660  0.11988720  1
  Se  Se15  1  0.63671043  0.77342086  0.62098351  1
  Se  Se16  1  0.14034830  0.23976450  0.11988720  1
  Se  Se17  1  0.63671043  0.24230606  0.62098351  1
  Se  Se18  1  0.59941620  0.23976450  0.11988720  1
  Se  Se19  1  0.10559563  0.24230606  0.62098351  1
  Se  Se20  1  0.62906387  0.75812774  0.11280839  1
  Se  Se21  1  0.12887080  0.75774159  0.61338761  1
  Se  Se22  1  0.36336084  0.22672169  0.37916387  1
  Se  Se23  1  0.86332053  0.22664106  0.87866331  1
  Se  Se24  1  0.36336084  0.75747529  0.37916387  1
  Se  Se25  1  0.86332053  0.75801616  0.87866331  1
  Se  Se26  1  0.89411444  0.75747529  0.37916387  1
  Se  Se27  1  0.39469562  0.75801616  0.87866331  1
