# generated using pymatgen
data_Zn2Cr3FeO8
_symmetry_space_group_name_H-M   'P 1'
_cell_length_a   6.01489823
_cell_length_b   6.01489823
_cell_length_c   6.01158872
_cell_angle_alpha   90.00000000
_cell_angle_beta   59.98178721
_cell_angle_gamma   120.00000000
_symmetry_Int_Tables_number   1
_chemical_formula_structural   Zn2Cr3FeO8
_chemical_formula_sum   'Zn2 Cr3 Fe1 O8'
_cell_volume   153.74861814
_cell_formula_units_Z   1
loop_
 _symmetry_equiv_pos_site_id
 _symmetry_equiv_pos_as_xyz
  1  'x, y, z'
loop_
 _atom_site_type_symbol
 _atom_site_label
 _atom_site_symmetry_multiplicity
 _atom_site_fract_x
 _atom_site_fract_y
 _atom_site_fract_z
 _atom_site_occupancy
  Zn  Zn0  1  0.50129168  0.75064584  0.74806248  1
  Zn  Zn1  1  -0.00129168  -0.00064584  0.00193752  1
  Cr  Cr2  1  0.25000000  0.37500000  0.37500000  1
  Cr  Cr3  1  0.25000000  0.87500000  0.37500000  1
  Cr  Cr4  1  0.75000000  0.37500000  0.37500000  1
  Fe  Fe5  1  0.75000000  0.37500000  0.87500000  1
  O  O6  1  0.27414209  0.13707105  0.58878686  1
  O  O7  1  0.72668489  0.13504524  0.13826987  1
  O  O8  1  0.72668489  0.59163966  0.13826987  1
  O  O9  1  0.27009047  0.13504524  0.13826987  1
  O  O10  1  0.22585791  0.61292895  0.16121314  1
  O  O11  1  0.77331511  0.61495476  0.61173013  1
  O  O12  1  0.77331511  0.15836034  0.61173013  1
  O  O13  1  0.22990953  0.61495476  0.61173013  1
