# generated using pymatgen
data_Li3MnCoO5
_symmetry_space_group_name_H-M   'P 1'
_cell_length_a   2.97991134
_cell_length_b   12.50547862
_cell_length_c   5.09955827
_cell_angle_alpha   100.73961700
_cell_angle_beta   75.50272735
_cell_angle_gamma   91.05599699
_symmetry_Int_Tables_number   1
_chemical_formula_structural   Li3MnCoO5
_chemical_formula_sum   'Li6 Mn2 Co2 O10'
_cell_volume   180.68309619
_cell_formula_units_Z   2
loop_
 _symmetry_equiv_pos_site_id
 _symmetry_equiv_pos_as_xyz
  1  'x, y, z'
loop_
 _atom_site_type_symbol
 _atom_site_label
 _atom_site_symmetry_multiplicity
 _atom_site_fract_x
 _atom_site_fract_y
 _atom_site_fract_z
 _atom_site_occupancy
  Li  Li0  1  0.70062503  0.10351443  0.59961376  1
  Li  Li1  1  0.09468605  0.30201050  0.79876026  1
  Li  Li2  1  0.50298597  0.50180615  0.98902115  1
  Li  Li3  1  0.92833953  0.68938486  0.18553384  1
  Li  Li4  1  0.28574353  0.90194062  0.41439974  1
  Li  Li5  1  0.18138780  0.59809214  0.61635098  1
  Mn  Mn6  1  0.00537271  0.00182250  0.99536962  1
  Mn  Mn7  1  0.60736768  0.79211917  0.79743285  1
  Co  Co8  1  0.39314948  0.20520769  0.20130137  1
  Co  Co9  1  0.79123937  0.40824684  0.40776642  1
  O  O10  1  0.32295914  0.05621002  0.28670293  1
  O  O11  1  0.76342031  0.25959957  0.48013770  1
  O  O12  1  0.13310884  0.44447958  0.67253787  1
  O  O13  1  0.54480401  0.66004479  0.90676132  1
  O  O14  1  0.99160496  0.84950154  0.06330614  1
  O  O15  1  0.03628899  0.14817078  0.91272564  1
  O  O16  1  0.47088152  0.34640322  0.11855820  1
  O  O17  1  0.85002851  0.53247246  0.29993776  1
  O  O18  1  0.21536951  0.75464315  0.54247844  1
  O  O19  1  0.68063708  0.94432999  0.71130401  1
