# generated using pymatgen
data_V9GaSiGe
_symmetry_space_group_name_H-M   'P 1'
_cell_length_a   4.76905049
_cell_length_b   4.76455290
_cell_length_c   14.19323356
_cell_angle_alpha   90.00000000
_cell_angle_beta   90.00000000
_cell_angle_gamma   90.00000000
_symmetry_Int_Tables_number   1
_chemical_formula_structural   V9GaSiGe
_chemical_formula_sum   'V18 Ga2 Si2 Ge2'
_cell_volume   322.50423575
_cell_formula_units_Z   2
loop_
 _symmetry_equiv_pos_site_id
 _symmetry_equiv_pos_as_xyz
  1  'x, y, z'
loop_
 _atom_site_type_symbol
 _atom_site_label
 _atom_site_symmetry_multiplicity
 _atom_site_fract_x
 _atom_site_fract_y
 _atom_site_fract_z
 _atom_site_occupancy
  V  V0  1  0.00000000  0.50000000  0.24946362  1
  V  V1  1  0.00000000  0.50000000  0.58372688  1
  V  V2  1  0.00000000  0.50000000  0.91751962  1
  V  V3  1  0.50000000  0.24317635  0.99650651  1
  V  V4  1  0.50000000  0.24594741  0.33335083  1
  V  V5  1  0.50000000  0.24955946  0.67025153  1
  V  V6  1  0.75192735  -0.00000000  0.16362926  1
  V  V7  1  0.74959630  -0.00000000  0.50023608  1
  V  V8  1  0.74503946  -0.00000000  0.83597590  1
  V  V9  1  0.00000000  0.50000000  0.08144985  1
  V  V10  1  0.00000000  0.50000000  0.41650481  1
  V  V11  1  0.00000000  0.50000000  0.75133896  1
  V  V12  1  0.50000000  0.75682365  0.99650651  1
  V  V13  1  0.50000000  0.75405259  0.33335083  1
  V  V14  1  0.50000000  0.75044054  0.67025153  1
  V  V15  1  0.24807265  0.00000000  0.16362926  1
  V  V16  1  0.25040370  0.00000000  0.50023608  1
  V  V17  1  0.25496054  -0.00000000  0.83597590  1
  Ga  Ga18  1  0.50000000  0.50000000  0.16552500  1
  Ga  Ga19  1  0.50000000  0.50000000  0.50097825  1
  Si  Si20  1  0.50000000  0.50000000  0.83352841  1
  Si  Si21  1  0.00000000  -0.00000000  0.99932809  1
  Ge  Ge22  1  0.00000000  0.00000000  0.33275894  1
  Ge  Ge23  1  0.00000000  -0.00000000  0.66797737  1
