# generated using pymatgen
data_TmTaTiO6
_symmetry_space_group_name_H-M   'P 1'
_cell_length_a   5.20077921
_cell_length_b   5.59296887
_cell_length_c   14.63997479
_cell_angle_alpha   90.00000000
_cell_angle_beta   90.00000000
_cell_angle_gamma   89.65832680
_symmetry_Int_Tables_number   1
_chemical_formula_structural   TmTaTiO6
_chemical_formula_sum   'Tm4 Ta4 Ti4 O24'
_cell_volume   425.83703117
_cell_formula_units_Z   4
loop_
 _symmetry_equiv_pos_site_id
 _symmetry_equiv_pos_as_xyz
  1  'x, y, z'
loop_
 _atom_site_type_symbol
 _atom_site_label
 _atom_site_symmetry_multiplicity
 _atom_site_fract_x
 _atom_site_fract_y
 _atom_site_fract_z
 _atom_site_occupancy
  Tm  Tm0  1  0.25342577  0.22933554  0.99977088  1
  Tm  Tm1  1  0.74657423  0.27066446  0.49977088  1
  Tm  Tm2  1  0.74657423  0.77066446  0.00022912  1
  Tm  Tm3  1  0.25342577  0.72933554  0.50022912  1
  Ta  Ta4  1  0.17686439  0.17696974  0.66779523  1
  Ta  Ta5  1  0.82313561  0.32303026  0.16779523  1
  Ta  Ta6  1  0.82313561  0.82303026  0.33220477  1
  Ta  Ta7  1  0.17686439  0.67696974  0.83220477  1
  Ti  Ti8  1  0.68141254  0.31392113  0.83580834  1
  Ti  Ti9  1  0.31858746  0.18607887  0.33580834  1
  Ti  Ti10  1  0.31858746  0.68607887  0.16419166  1
  Ti  Ti11  1  0.68141254  0.81392113  0.66419166  1
  O  O12  1  0.03163243  0.56851659  0.09154614  1
  O  O13  1  0.53044361  0.93495395  0.40880565  1
  O  O14  1  0.96836757  0.93148341  0.59154614  1
  O  O15  1  0.46955639  0.56504605  0.90880565  1
  O  O16  1  0.96836757  0.43148341  0.90845386  1
  O  O17  1  0.46955639  0.06504605  0.59119435  1
  O  O18  1  0.03163243  0.06851659  0.40845386  1
  O  O19  1  0.53044361  0.43495395  0.09119435  1
  O  O20  1  0.85224713  0.13969240  0.74095209  1
  O  O21  1  0.34846262  0.36582511  0.76111184  1
  O  O22  1  0.14775287  0.36030760  0.24095209  1
  O  O23  1  0.65153738  0.13417489  0.26111184  1
  O  O24  1  0.14775287  0.86030760  0.25904791  1
  O  O25  1  0.65153738  0.63417489  0.23888816  1
  O  O26  1  0.85224713  0.63969240  0.75904791  1
  O  O27  1  0.34846262  0.86582511  0.73888816  1
  O  O28  1  0.58032415  0.09149553  0.91511683  1
  O  O29  1  0.08001580  0.41131923  0.58352841  1
  O  O30  1  0.41967585  0.40850447  0.41511683  1
  O  O31  1  0.91998420  0.08868077  0.08352841  1
  O  O32  1  0.41967585  0.90850447  0.08488317  1
  O  O33  1  0.91998420  0.58868077  0.41647159  1
  O  O34  1  0.58032415  0.59149553  0.58488317  1
  O  O35  1  0.08001580  0.91131923  0.91647159  1
