# generated using pymatgen
data_U5P4S
_symmetry_space_group_name_H-M   'P 1'
_cell_length_a   3.92725954
_cell_length_b   3.92725954
_cell_length_c   15.98405506
_cell_angle_alpha   82.94342828
_cell_angle_beta   90.00000000
_cell_angle_gamma   120.00000000
_symmetry_Int_Tables_number   1
_chemical_formula_structural   U5P4S
_chemical_formula_sum   'U5 P4 S1'
_cell_volume   211.34047346
_cell_formula_units_Z   1
loop_
 _symmetry_equiv_pos_site_id
 _symmetry_equiv_pos_as_xyz
  1  'x, y, z'
loop_
 _atom_site_type_symbol
 _atom_site_label
 _atom_site_symmetry_multiplicity
 _atom_site_fract_x
 _atom_site_fract_y
 _atom_site_fract_z
 _atom_site_occupancy
  U  U0  1  0.39964801  0.79929602  0.80105597  1
  U  U1  1  0.20035199  0.40070398  0.39894403  1
  U  U2  1  0.80000000  0.60000000  0.60000000  1
  U  U3  1  0.99969497  0.99938994  0.00091508  1
  U  U4  1  0.60030503  0.20061006  0.19908492  1
  P  P5  1  0.90036256  0.80072513  0.29891231  1
  P  P6  1  0.50006036  0.00012072  0.49981892  1
  P  P7  1  0.09993964  0.19987928  0.70018108  1
  P  P8  1  0.69963744  0.39927487  0.90108769  1
  S  S9  1  0.30000000  0.60000000  0.10000000  1
