# generated using pymatgen
data_Tm2Mn3Sb3O14
_symmetry_space_group_name_H-M   'P 1'
_cell_length_a   7.36710884
_cell_length_b   7.25780849
_cell_length_c   7.32345555
_cell_angle_alpha   90.00000000
_cell_angle_beta   60.19581884
_cell_angle_gamma   121.45190418
_symmetry_Int_Tables_number   1
_chemical_formula_structural   Tm2Mn3Sb3O14
_chemical_formula_sum   'Tm2 Mn3 Sb3 O14'
_cell_volume   271.49026283
_cell_formula_units_Z   1
loop_
 _symmetry_equiv_pos_site_id
 _symmetry_equiv_pos_as_xyz
  1  'x, y, z'
loop_
 _atom_site_type_symbol
 _atom_site_label
 _atom_site_symmetry_multiplicity
 _atom_site_fract_x
 _atom_site_fract_y
 _atom_site_fract_z
 _atom_site_occupancy
  Tm  Tm0  1  -0.00000000  -0.00000000  0.50000000  1
  Tm  Tm1  1  -0.00000000  -0.00000000  0.00000000  1
  Mn  Mn2  1  0.50000000  -0.00000000  0.50000000  1
  Mn  Mn3  1  0.50000000  0.50000000  0.00000000  1
  Mn  Mn4  1  0.50000000  -0.00000000  0.00000000  1
  Sb  Sb5  1  0.50000000  0.50000000  0.50000000  1
  Sb  Sb6  1  -0.00000000  0.50000000  0.00000000  1
  Sb  Sb7  1  -0.00000000  0.50000000  0.50000000  1
  O  O8  1  0.25808179  0.13293216  0.12095911  1
  O  O9  1  0.74191821  0.86706784  0.87904089  1
  O  O10  1  0.68886981  0.83329091  0.40556510  1
  O  O11  1  0.83986693  0.41113881  0.83006653  1
  O  O12  1  0.24275474  0.83466201  0.82813581  1
  O  O13  1  0.24961483  0.42406622  0.42028128  1
  O  O14  1  0.24961483  0.42406622  0.83010389  1
  O  O15  1  0.24275474  0.83466201  0.42910945  1
  O  O16  1  0.31113019  0.16670909  0.59443490  1
  O  O17  1  0.16013307  0.58886119  0.16993347  1
  O  O18  1  0.75724526  0.16533799  0.17186419  1
  O  O19  1  0.75038517  0.57593378  0.57971872  1
  O  O20  1  0.75038517  0.57593378  0.16989611  1
  O  O21  1  0.75724526  0.16533799  0.57089055  1
