# generated using pymatgen
data_Li4Co3O7
_symmetry_space_group_name_H-M   'P 1'
_cell_length_a   2.94774218
_cell_length_b   5.91719110
_cell_length_c   14.52875054
_cell_angle_alpha   83.62483705
_cell_angle_beta   84.17760558
_cell_angle_gamma   89.99999938
_symmetry_Int_Tables_number   1
_chemical_formula_structural   Li4Co3O7
_chemical_formula_sum   'Li8 Co6 O14'
_cell_volume   250.53300789
_cell_formula_units_Z   2
loop_
 _symmetry_equiv_pos_site_id
 _symmetry_equiv_pos_as_xyz
  1  'x, y, z'
loop_
 _atom_site_type_symbol
 _atom_site_label
 _atom_site_symmetry_multiplicity
 _atom_site_fract_x
 _atom_site_fract_y
 _atom_site_fract_z
 _atom_site_occupancy
  Li  Li0  1  0.42857100  0.21428600  0.14285700  1
  Li  Li1  1  0.28714890  0.64233211  0.42570121  1
  Li  Li2  1  0.14347656  0.07229929  0.71304688  1
  Li  Li3  1  0.85852985  0.92501602  0.28294029  1
  Li  Li4  1  0.71366644  0.35627271  0.57266812  1
  Li  Li5  1  0.56999410  0.78623889  0.86001279  1
  Li  Li6  1  0.99861315  0.50355498  0.00277371  1
  Li  Li7  1  0.42857100  0.71428600  0.14285700  1
  Co  Co8  1  0.99607950  0.98940785  0.00784100  1
  Co  Co9  1  0.86106350  0.43916315  0.27787300  1
  Co  Co10  1  0.71456633  0.86006682  0.57086835  1
  Co  Co11  1  0.56892937  0.28718400  0.86214226  1
  Co  Co12  1  0.28821363  0.14138700  0.42357174  1
  Co  Co13  1  0.14257667  0.56850518  0.71484665  1
  O  O14  1  0.50021070  0.23798546  0.99957859  1
  O  O15  1  0.35733089  0.66118281  0.28533822  1
  O  O16  1  0.21617100  0.09510114  0.56765801  1
  O  O17  1  0.93607108  0.96802964  0.12785883  1
  O  O18  1  0.79273374  0.37994839  0.41453152  1
  O  O19  1  0.64381106  0.80504436  0.71237688  1
  O  O20  1  0.07262643  0.51515875  0.85474814  1
  O  O21  1  0.35693230  0.19058654  0.28613641  1
  O  O22  1  0.21333194  0.62352664  0.57333712  1
  O  O23  1  0.06440826  0.04862361  0.87118248  1
  O  O24  1  0.78451657  0.91341325  0.43096686  1
  O  O25  1  0.64097200  0.33346986  0.71805599  1
  O  O26  1  0.49981211  0.76738819  0.00037578  1
  O  O27  1  0.92107192  0.46054136  0.15785517  1
