# generated using pymatgen
data_Tm2PbS4
_symmetry_space_group_name_H-M   'P 1'
_cell_length_a   7.88379178
_cell_length_b   12.07741845
_cell_length_c   14.79789041
_cell_angle_alpha   90.00000000
_cell_angle_beta   74.55089352
_cell_angle_gamma   90.00000000
_symmetry_Int_Tables_number   1
_chemical_formula_structural   Tm2PbS4
_chemical_formula_sum   'Tm16 Pb8 S32'
_cell_volume   1358.08321060
_cell_formula_units_Z   8
loop_
 _symmetry_equiv_pos_site_id
 _symmetry_equiv_pos_as_xyz
  1  'x, y, z'
loop_
 _atom_site_type_symbol
 _atom_site_label
 _atom_site_symmetry_multiplicity
 _atom_site_fract_x
 _atom_site_fract_y
 _atom_site_fract_z
 _atom_site_occupancy
  Tm  Tm0  1  0.93171454  0.58805216  0.13657092  1
  Tm  Tm1  1  0.06828546  0.08805216  0.86342908  1
  Tm  Tm2  1  0.43116166  0.58013642  0.13767667  1
  Tm  Tm3  1  0.56883834  0.08013642  0.86232333  1
  Tm  Tm4  1  0.56979082  0.71259469  0.36042110  1
  Tm  Tm5  1  0.06978808  0.71259469  0.36042110  1
  Tm  Tm6  1  0.43020918  0.21259469  0.63957890  1
  Tm  Tm7  1  0.93021192  0.21259469  0.63957890  1
  Tm  Tm8  1  0.67319372  0.23329697  0.15464082  1
  Tm  Tm9  1  0.17216546  0.23329697  0.15464082  1
  Tm  Tm10  1  0.32680628  0.73329697  0.84535918  1
  Tm  Tm11  1  0.82783454  0.73329697  0.84535918  1
  Tm  Tm12  1  0.32569291  0.06699216  0.34861417  1
  Tm  Tm13  1  0.67430709  0.56699216  0.65138583  1
  Tm  Tm14  1  0.82487438  0.07013820  0.35025124  1
  Tm  Tm15  1  0.17512562  0.57013820  0.64974876  1
  Pb  Pb16  1  0.46203458  0.88026083  0.07593084  1
  Pb  Pb17  1  0.53796542  0.38026083  0.92406916  1
  Pb  Pb18  1  0.95287709  0.93636026  0.09424582  1
  Pb  Pb19  1  0.04712291  0.43636026  0.90575418  1
  Pb  Pb20  1  0.53782652  0.40353373  0.42128785  1
  Pb  Pb21  1  0.04088563  0.40353373  0.42128785  1
  Pb  Pb22  1  0.46217348  0.90353373  0.57871215  1
  Pb  Pb23  1  0.95911437  0.90353373  0.57871215  1
  S  S24  1  0.48339162  0.18206054  0.03321676  1
  S  S25  1  0.51660838  0.68206054  0.96678324  1
  S  S26  1  0.29182642  0.85444472  0.41634717  1
  S  S27  1  0.70817358  0.35444472  0.58365283  1
  S  S28  1  0.83803607  0.56353646  0.32392785  1
  S  S29  1  0.16196393  0.06353646  0.67607215  1
  S  S30  1  0.33716443  0.56150174  0.32567113  1
  S  S31  1  0.66283557  0.06150174  0.67432887  1
  S  S32  1  0.63890876  0.02419123  0.22437564  1
  S  S33  1  0.13671560  0.02419123  0.22437564  1
  S  S34  1  0.36109124  0.52419123  0.77562436  1
  S  S35  1  0.86328440  0.52419123  0.77562436  1
  S  S36  1  0.79142939  0.85504660  0.41714123  1
  S  S37  1  0.20857061  0.35504660  0.58285877  1
  S  S38  1  0.51379057  0.11583087  0.46910197  1
  S  S39  1  0.01710747  0.11583087  0.46910197  1
  S  S40  1  0.48620943  0.61583087  0.53089803  1
  S  S41  1  0.98289253  0.61583087  0.53089803  1
  S  S42  1  0.36011432  0.27458579  0.27977135  1
  S  S43  1  0.63988568  0.77458579  0.72022865  1
  S  S44  1  0.71170312  0.44197687  0.08158580  1
  S  S45  1  0.20671108  0.44197687  0.08158580  1
  S  S46  1  0.28829688  0.94197687  0.91841420  1
  S  S47  1  0.79328892  0.94197687  0.91841420  1
  S  S48  1  0.98004831  0.16601922  0.03990339  1
  S  S49  1  0.01995169  0.66601922  0.96009661  1
  S  S50  1  0.66029022  0.73251929  0.17405580  1
  S  S51  1  0.16565398  0.73251929  0.17405580  1
  S  S52  1  0.33970978  0.23251929  0.82594420  1
  S  S53  1  0.83434602  0.23251929  0.82594420  1
  S  S54  1  0.85969576  0.27717759  0.28060847  1
  S  S55  1  0.14030424  0.77717759  0.71939153  1
