# generated using pymatgen
data_TiSb4Mo
_symmetry_space_group_name_H-M   'P 1'
_cell_length_a   3.63818694
_cell_length_b   5.44410402
_cell_length_c   7.46882766
_cell_angle_alpha   87.60669470
_cell_angle_beta   75.90336212
_cell_angle_gamma   109.52025646
_symmetry_Int_Tables_number   1
_chemical_formula_structural   TiSb4Mo
_chemical_formula_sum   'Ti1 Sb4 Mo1'
_cell_volume   133.99860711
_cell_formula_units_Z   1
loop_
 _symmetry_equiv_pos_site_id
 _symmetry_equiv_pos_as_xyz
  1  'x, y, z'
loop_
 _atom_site_type_symbol
 _atom_site_label
 _atom_site_symmetry_multiplicity
 _atom_site_fract_x
 _atom_site_fract_y
 _atom_site_fract_z
 _atom_site_occupancy
  Ti  Ti0  1  0.03852238  0.88731940  0.81027463  1
  Sb  Sb1  1  0.61357218  0.76281038  0.53566602  1
  Sb  Sb2  1  0.38847339  0.23565804  0.45871126  1
  Sb  Sb3  1  0.70419708  0.30142593  0.89303177  1
  Sb  Sb4  1  0.29406331  0.70004158  0.11191496  1
  Mo  Mo5  1  0.96117165  0.11274467  0.19040137  1
