# generated using pymatgen
data_VCr3GaSe8
_symmetry_space_group_name_H-M   'P 1'
_cell_length_a   7.40449175
_cell_length_b   7.40449175
_cell_length_c   7.34164128
_cell_angle_alpha   90.00000000
_cell_angle_beta   59.71640391
_cell_angle_gamma   120.00000000
_symmetry_Int_Tables_number   1
_chemical_formula_structural   VCr3GaSe8
_chemical_formula_sum   'V1 Cr3 Ga1 Se8'
_cell_volume   283.39597821
_cell_formula_units_Z   1
loop_
 _symmetry_equiv_pos_site_id
 _symmetry_equiv_pos_as_xyz
  1  'x, y, z'
loop_
 _atom_site_type_symbol
 _atom_site_label
 _atom_site_symmetry_multiplicity
 _atom_site_fract_x
 _atom_site_fract_y
 _atom_site_fract_z
 _atom_site_occupancy
  V  V0  1  0.78538137  0.39269069  0.82192794  1
  Cr  Cr1  1  0.23125683  0.38213427  0.38660891  1
  Cr  Cr2  1  0.23125683  0.84912256  0.38660891  1
  Cr  Cr3  1  0.76426853  0.38213427  0.38660891  1
  Ga  Ga4  1  0.99486000  0.99743000  0.00771000  1
  Se  Se5  1  0.26872615  0.13436308  0.59691077  1
  Se  Se6  1  0.72579083  0.13795033  0.13625884  1
  Se  Se7  1  0.72579083  0.58784050  0.13625884  1
  Se  Se8  1  0.27590066  0.13795033  0.13625884  1
  Se  Se9  1  0.23948714  0.61974357  0.14076928  1
  Se  Se10  1  0.75402578  0.62461463  0.62135959  1
  Se  Se11  1  0.75402578  0.12941116  0.62135959  1
  Se  Se12  1  0.24922926  0.62461463  0.62135959  1
