# generated using pymatgen
data_Sr9CaSi6
_symmetry_space_group_name_H-M   'P 1'
_cell_length_a   8.02207633
_cell_length_b   8.02207633
_cell_length_c   9.74929317
_cell_angle_alpha   65.70603187
_cell_angle_beta   65.70603187
_cell_angle_gamma   90.00000000
_symmetry_Int_Tables_number   1
_chemical_formula_structural   Sr9CaSi6
_chemical_formula_sum   'Sr9 Ca1 Si6'
_cell_volume   510.27197476
_cell_formula_units_Z   1
loop_
 _symmetry_equiv_pos_site_id
 _symmetry_equiv_pos_as_xyz
  1  'x, y, z'
loop_
 _atom_site_type_symbol
 _atom_site_label
 _atom_site_symmetry_multiplicity
 _atom_site_fract_x
 _atom_site_fract_y
 _atom_site_fract_z
 _atom_site_occupancy
  Sr  Sr0  1  0.32249220  0.81809392  0.72071704  1
  Sr  Sr1  1  0.95679076  0.46118904  0.72071704  1
  Sr  Sr2  1  0.46118904  0.32249220  0.72071704  1
  Sr  Sr3  1  0.81809392  0.95679076  0.72071704  1
  Sr  Sr4  1  0.67750780  0.18190608  0.27928296  1
  Sr  Sr5  1  0.04320924  0.53881096  0.27928296  1
  Sr  Sr6  1  0.53881096  0.67750780  0.27928296  1
  Sr  Sr7  1  0.18190608  0.04320924  0.27928296  1
  Sr  Sr8  1  -0.00000000  0.00000000  -0.00000000  1
  Ca  Ca9  1  0.50000000  0.50000000  -0.00000000  1
  Si  Si10  1  0.75012421  0.75012421  0.49975157  1
  Si  Si11  1  0.24987579  0.24987579  0.50024843  1
  Si  Si12  1  0.39410423  0.88754301  0.00000000  1
  Si  Si13  1  0.60589577  0.11245699  1.00000000  1
  Si  Si14  1  0.11245699  0.39410423  1.00000000  1
  Si  Si15  1  0.88754301  0.60589577  0.00000000  1
