# generated using pymatgen
data_Li4MnCo2O7
_symmetry_space_group_name_H-M   'P 1'
_cell_length_a   2.91382224
_cell_length_b   17.51198982
_cell_length_c   5.18548768
_cell_angle_alpha   103.88629921
_cell_angle_beta   90.00000000
_cell_angle_gamma   85.22775799
_symmetry_Int_Tables_number   1
_chemical_formula_structural   Li4MnCo2O7
_chemical_formula_sum   'Li8 Mn2 Co4 O14'
_cell_volume   255.92077120
_cell_formula_units_Z   2
loop_
 _symmetry_equiv_pos_site_id
 _symmetry_equiv_pos_as_xyz
  1  'x, y, z'
loop_
 _atom_site_type_symbol
 _atom_site_label
 _atom_site_symmetry_multiplicity
 _atom_site_fract_x
 _atom_site_fract_y
 _atom_site_fract_z
 _atom_site_occupancy
  Li  Li0  1  0.49799399  0.00401203  0.50361712  1
  Li  Li1  1  0.92474690  0.15050520  0.79270421  1
  Li  Li2  1  0.35590223  0.28819554  0.08474279  1
  Li  Li3  1  0.78642935  0.42714030  0.35215778  1
  Li  Li4  1  0.21895806  0.56208488  0.62211393  1
  Li  Li5  1  0.07144064  0.85711972  0.21333428  1
  Li  Li6  1  0.64502859  0.70994282  0.92855463  1
  Li  Li7  1  0.28590627  0.42818646  0.85570860  1
  Mn  Mn8  1  0.99979316  0.00041368  0.00747053  1
  Mn  Mn9  1  0.14324008  0.71351985  0.42840755  1
  Co  Co10  1  0.42463989  0.15071922  0.30274008  1
  Co  Co11  1  0.85170677  0.29658647  0.60342856  1
  Co  Co12  1  0.71980455  0.56039191  0.10462190  1
  Co  Co13  1  0.57128331  0.85743437  0.71219203  1
  O  O14  1  0.53180124  0.93639851  0.10555255  1
  O  O15  1  0.96535647  0.06928707  0.35981418  1
  O  O16  1  0.39461245  0.21077410  0.65132111  1
  O  O17  1  0.82471069  0.35057861  0.94125018  1
  O  O18  1  0.24663861  0.50672178  0.24073642  1
  O  O19  1  0.10765967  0.78468067  0.78654815  1
  O  O20  1  0.67325955  0.65348191  0.52810852  1
  O  O21  1  0.46838324  0.06323252  0.91458859  1
  O  O22  1  0.89592001  0.20815997  0.17795779  1
  O  O23  1  0.32459347  0.35081207  0.47012872  1
  O  O24  1  0.74626313  0.50747475  0.76545021  1
  O  O25  1  0.17840897  0.64318207  0.07966969  1
  O  O26  1  0.03401452  0.93197096  0.64445002  1
  O  O27  1  0.61150421  0.77699258  0.32262986  1
