# generated using pymatgen
data_TbNi3Sn2
_symmetry_space_group_name_H-M   'P 1'
_cell_length_a   4.23956145
_cell_length_b   9.28552057
_cell_length_c   9.28552096
_cell_angle_alpha   60.06173926
_cell_angle_beta   90.00000000
_cell_angle_gamma   90.00000000
_symmetry_Int_Tables_number   1
_chemical_formula_structural   TbNi3Sn2
_chemical_formula_sum   'Tb3 Ni9 Sn6'
_cell_volume   316.76263498
_cell_formula_units_Z   3
loop_
 _symmetry_equiv_pos_site_id
 _symmetry_equiv_pos_as_xyz
  1  'x, y, z'
loop_
 _atom_site_type_symbol
 _atom_site_label
 _atom_site_symmetry_multiplicity
 _atom_site_fract_x
 _atom_site_fract_y
 _atom_site_fract_z
 _atom_site_occupancy
  Tb  Tb0  1  0.50000000  0.33329709  0.33341320  1
  Tb  Tb1  1  0.50000000  0.66658680  0.66670291  1
  Tb  Tb2  1  0.00000000  0.00032317  0.99967683  1
  Ni  Ni3  1  -0.00000000  0.20388800  0.16863271  1
  Ni  Ni4  1  0.00000000  0.16844949  0.62702928  1
  Ni  Ni5  1  0.00000000  0.62737132  0.20440628  1
  Ni  Ni6  1  -0.00000000  0.83136729  0.79611200  1
  Ni  Ni7  1  0.00000000  0.37297072  0.83155051  1
  Ni  Ni8  1  0.00000000  0.79559372  0.37262868  1
  Ni  Ni9  1  0.50000000  0.29804511  0.70195489  1
  Ni  Ni10  1  0.50000000  0.70194109  0.99987801  1
  Ni  Ni11  1  0.50000000  0.00012199  0.29805891  1
  Sn  Sn12  1  0.50000000  0.74718739  0.25281261  1
  Sn  Sn13  1  0.50000000  0.25304374  0.99995561  1
  Sn  Sn14  1  0.50000000  0.00004439  0.74695626  1
  Sn  Sn15  1  0.00000000  0.47292277  0.52707723  1
  Sn  Sn16  1  0.00000000  0.52691618  0.00017027  1
  Sn  Sn17  1  0.00000000  0.99982973  0.47308382  1
