# generated using pymatgen
data_Sr4Bi2O
_symmetry_space_group_name_H-M   'P 1'
_cell_length_a   5.04790436
_cell_length_b   5.04790436
_cell_length_c   9.56873525
_cell_angle_alpha   74.70607846
_cell_angle_beta   74.70607846
_cell_angle_gamma   90.00000000
_symmetry_Int_Tables_number   1
_chemical_formula_structural   Sr4Bi2O
_chemical_formula_sum   'Sr4 Bi2 O1'
_cell_volume   226.22495999
_cell_formula_units_Z   1
loop_
 _symmetry_equiv_pos_site_id
 _symmetry_equiv_pos_as_xyz
  1  'x, y, z'
loop_
 _atom_site_type_symbol
 _atom_site_label
 _atom_site_symmetry_multiplicity
 _atom_site_fract_x
 _atom_site_fract_y
 _atom_site_fract_z
 _atom_site_occupancy
  Sr  Sr0  1  0.16552024  0.16552024  0.66895953  1
  Sr  Sr1  1  0.82984871  0.82984871  0.34030258  1
  Sr  Sr2  1  0.50174724  0.00174724  0.99650551  1
  Sr  Sr3  1  0.00174724  0.50174724  0.99650551  1
  Bi  Bi4  1  0.36203508  0.36203508  0.27592985  1
  Bi  Bi5  1  0.63996703  0.63996703  0.72006593  1
  O  O6  1  0.00953446  0.00953446  0.98093109  1
