# generated using pymatgen
data_Sr3CaAl8
_symmetry_space_group_name_H-M   'P 1'
_cell_length_a   5.85544095
_cell_length_b   5.85544095
_cell_length_c   9.96800370
_cell_angle_alpha   72.91969168
_cell_angle_beta   90.00000000
_cell_angle_gamma   120.00000000
_symmetry_Int_Tables_number   1
_chemical_formula_structural   Sr3CaAl8
_chemical_formula_sum   'Sr3 Ca1 Al8'
_cell_volume   278.43525700
_cell_formula_units_Z   1
loop_
 _symmetry_equiv_pos_site_id
 _symmetry_equiv_pos_as_xyz
  1  'x, y, z'
loop_
 _atom_site_type_symbol
 _atom_site_label
 _atom_site_symmetry_multiplicity
 _atom_site_fract_x
 _atom_site_fract_y
 _atom_site_fract_z
 _atom_site_occupancy
  Sr  Sr0  1  0.43794779  0.37589557  0.68615664  1
  Sr  Sr1  1  0.56272588  0.62545176  0.31182236  1
  Sr  Sr2  1  0.06152498  0.62304996  0.81542505  1
  Ca  Ca3  1  0.93748397  0.37496794  0.18754810  1
  Al  Al4  1  0.24988262  0.99976525  0.25035213  1
  Al  Al5  1  0.75022484  0.00044968  0.74932548  1
  Al  Al6  1  0.49940899  0.49881798  0.00245214  1
  Al  Al7  1  0.00026468  0.50052936  0.49733795  1
  Al  Al8  1  0.49940899  0.99813888  0.00245214  1
  Al  Al9  1  0.00026468  0.00239738  0.49733795  1
  Al  Al10  1  0.99872989  0.99813888  0.00245214  1
  Al  Al11  1  0.50213270  0.00239738  0.49733795  1
