# generated using pymatgen
data_ThUSb4
_symmetry_space_group_name_H-M   'P 1'
_cell_length_a   4.36526384
_cell_length_b   4.36526384
_cell_length_c   8.94090930
_cell_angle_alpha   90.00000000
_cell_angle_beta   90.00000000
_cell_angle_gamma   90.00000000
_symmetry_Int_Tables_number   1
_chemical_formula_structural   ThUSb4
_chemical_formula_sum   'Th1 U1 Sb4'
_cell_volume   170.37375102
_cell_formula_units_Z   1
loop_
 _symmetry_equiv_pos_site_id
 _symmetry_equiv_pos_as_xyz
  1  'x, y, z'
loop_
 _atom_site_type_symbol
 _atom_site_label
 _atom_site_symmetry_multiplicity
 _atom_site_fract_x
 _atom_site_fract_y
 _atom_site_fract_z
 _atom_site_occupancy
  Th  Th0  1  0.75000000  0.75000000  0.72334765  1
  U  U1  1  0.25000000  0.25000000  0.27948163  1
  Sb  Sb2  1  0.75000000  0.25000000  0.00923740  1
  Sb  Sb3  1  0.25000000  0.75000000  0.00923740  1
  Sb  Sb4  1  0.75000000  0.75000000  0.35162031  1
  Sb  Sb5  1  0.25000000  0.25000000  0.62707561  1
