# generated using pymatgen
data_Ti24Pb19
_symmetry_space_group_name_H-M   'P 1'
_cell_length_a   5.81415768
_cell_length_b   9.45487509
_cell_length_c   16.35614674
_cell_angle_alpha   89.97941839
_cell_angle_beta   89.95030550
_cell_angle_gamma   90.03564860
_symmetry_Int_Tables_number   1
_chemical_formula_structural   Ti24Pb19
_chemical_formula_sum   'Ti24 Pb19'
_cell_volume   899.13173049
_cell_formula_units_Z   1
loop_
 _symmetry_equiv_pos_site_id
 _symmetry_equiv_pos_as_xyz
  1  'x, y, z'
loop_
 _atom_site_type_symbol
 _atom_site_label
 _atom_site_symmetry_multiplicity
 _atom_site_fract_x
 _atom_site_fract_y
 _atom_site_fract_z
 _atom_site_occupancy
  Ti  Ti0  1  0.50000000  0.50000000  -0.00000000  1
  Ti  Ti1  1  0.50000000  0.00000000  0.50000000  1
  Ti  Ti2  1  0.49974244  0.24941498  0.24935484  1
  Ti  Ti3  1  0.50025756  0.75058502  0.75064516  1
  Ti  Ti4  1  0.49990851  0.75044167  0.24947327  1
  Ti  Ti5  1  0.50009149  0.24955833  0.75052673  1
  Ti  Ti6  1  -0.00000000  0.50000000  -0.00000000  1
  Ti  Ti7  1  -0.00000000  0.00000000  0.50000000  1
  Ti  Ti8  1  0.99972593  0.24975958  0.24976135  1
  Ti  Ti9  1  0.00027407  0.75024042  0.75023865  1
  Ti  Ti10  1  -0.00024882  0.75016715  0.24975614  1
  Ti  Ti11  1  0.00024882  0.24983285  0.75024386  1
  Ti  Ti12  1  0.24932582  0.50007369  0.34253853  1
  Ti  Ti13  1  0.24697733  -0.00006540  0.84238095  1
  Ti  Ti14  1  0.24790970  0.76406638  0.07881679  1
  Ti  Ti15  1  0.25045627  0.26299863  0.57889822  1
  Ti  Ti16  1  0.24784369  0.23609250  0.07888492  1
  Ti  Ti17  1  0.25046231  0.73716351  0.57882944  1
  Ti  Ti18  1  0.75302267  0.00006540  0.15761905  1
  Ti  Ti19  1  0.75067418  0.49992631  0.65746147  1
  Ti  Ti20  1  0.74954373  0.73700137  0.42110178  1
  Ti  Ti21  1  0.75209030  0.23593362  0.92118321  1
  Ti  Ti22  1  0.74953769  0.26283649  0.42117056  1
  Ti  Ti23  1  0.75215631  0.76390750  0.92111508  1
  Pb  Pb24  1  0.25091352  0.49992242  0.16644924  1
  Pb  Pb25  1  0.24989664  -0.00000006  0.66690689  1
  Pb  Pb26  1  0.75010336  0.00000006  0.33309311  1
  Pb  Pb27  1  0.74908648  0.50007758  0.83355076  1
  Pb  Pb28  1  0.74896703  0.70178264  0.09946000  1
  Pb  Pb29  1  0.74997972  0.19688086  0.60100600  1
  Pb  Pb30  1  0.74936685  0.29863315  0.09962464  1
  Pb  Pb31  1  0.75024852  0.80297459  0.60102516  1
  Pb  Pb32  1  0.74977499  0.49986759  0.29786493  1
  Pb  Pb33  1  0.74911036  -0.00003074  0.80082532  1
  Pb  Pb34  1  0.25002028  0.80311914  0.39899400  1
  Pb  Pb35  1  0.25103297  0.29821736  0.90054000  1
  Pb  Pb36  1  0.24975148  0.19702541  0.39897484  1
  Pb  Pb37  1  0.25063315  0.70136685  0.90037536  1
  Pb  Pb38  1  0.25088964  0.00003074  0.19917468  1
  Pb  Pb39  1  0.25022501  0.50013241  0.70213507  1
  Pb  Pb40  1  0.50000000  0.50000000  0.50000000  1
  Pb  Pb41  1  -0.00000000  0.00000000  -0.00000000  1
  Pb  Pb42  1  -0.00000000  0.50000000  0.50000000  1
