# generated using pymatgen
data_SmHo3Ni4
_symmetry_space_group_name_H-M   'P 1'
_cell_length_a   4.17635700
_cell_length_b   5.44216640
_cell_length_c   21.32689546
_cell_angle_alpha   96.75120860
_cell_angle_beta   90.00000000
_cell_angle_gamma   90.00000000
_symmetry_Int_Tables_number   1
_chemical_formula_structural   SmHo3Ni4
_chemical_formula_sum   'Sm3 Ho9 Ni12'
_cell_volume   481.36573816
_cell_formula_units_Z   3
loop_
 _symmetry_equiv_pos_site_id
 _symmetry_equiv_pos_as_xyz
  1  'x, y, z'
loop_
 _atom_site_type_symbol
 _atom_site_label
 _atom_site_symmetry_multiplicity
 _atom_site_fract_x
 _atom_site_fract_y
 _atom_site_fract_z
 _atom_site_occupancy
  Sm  Sm0  1  0.25000000  0.89600038  0.05946601  1
  Sm  Sm1  1  0.25000000  0.89559581  0.55987340  1
  Sm  Sm2  1  0.75000000  0.10450960  0.44020361  1
  Ho  Ho3  1  0.75000000  0.10513460  0.94002525  1
  Ho  Ho4  1  0.25000000  0.58252070  0.39300439  1
  Ho  Ho5  1  0.25000000  0.58298426  0.89346691  1
  Ho  Ho6  1  0.75000000  0.41698521  0.10677837  1
  Ho  Ho7  1  0.75000000  0.41732096  0.60702367  1
  Ho  Ho8  1  0.25000000  0.74278700  0.22707887  1
  Ho  Ho9  1  0.25000000  0.74291560  0.72707736  1
  Ho  Ho10  1  0.75000000  0.25725561  0.27277305  1
  Ho  Ho11  1  0.75000000  0.25673113  0.77289633  1
  Ni  Ni12  1  0.25000000  0.37945142  0.01154658  1
  Ni  Ni13  1  0.25000000  0.38134783  0.51219050  1
  Ni  Ni14  1  0.75000000  0.61864707  0.48782172  1
  Ni  Ni15  1  0.75000000  0.61806768  0.98746359  1
  Ni  Ni16  1  0.25000000  0.21225609  0.17943712  1
  Ni  Ni17  1  0.25000000  0.21212899  0.67946770  1
  Ni  Ni18  1  0.75000000  0.78800188  0.32058469  1
  Ni  Ni19  1  0.75000000  0.78914576  0.82103461  1
  Ni  Ni20  1  0.25000000  0.05105529  0.34484537  1
  Ni  Ni21  1  0.25000000  0.05171657  0.84564798  1
  Ni  Ni22  1  0.75000000  0.94867170  0.15513992  1
  Ni  Ni23  1  0.75000000  0.94876889  0.65515302  1
