# generated using pymatgen
data_Pr2InCuS5
_symmetry_space_group_name_H-M   'P 1'
_cell_length_a   3.92997923
_cell_length_b   11.57028497
_cell_length_c   16.79560163
_cell_angle_alpha   90.00000000
_cell_angle_beta   90.00000000
_cell_angle_gamma   90.00000000
_symmetry_Int_Tables_number   1
_chemical_formula_structural   Pr2InCuS5
_chemical_formula_sum   'Pr8 In4 Cu4 S20'
_cell_volume   763.71245938
_cell_formula_units_Z   4
loop_
 _symmetry_equiv_pos_site_id
 _symmetry_equiv_pos_as_xyz
  1  'x, y, z'
loop_
 _atom_site_type_symbol
 _atom_site_label
 _atom_site_symmetry_multiplicity
 _atom_site_fract_x
 _atom_site_fract_y
 _atom_site_fract_z
 _atom_site_occupancy
  Pr  Pr0  1  0.75000000  0.36533341  0.09336736  1
  Pr  Pr1  1  0.75000000  0.86533341  0.40663264  1
  Pr  Pr2  1  0.25000000  0.63466659  0.90663264  1
  Pr  Pr3  1  0.25000000  0.13466659  0.59336736  1
  Pr  Pr4  1  0.75000000  0.02211892  0.17905492  1
  Pr  Pr5  1  0.75000000  0.52211892  0.32094508  1
  Pr  Pr6  1  0.25000000  0.97788108  0.82094508  1
  Pr  Pr7  1  0.25000000  0.47788108  0.67905492  1
  In  In8  1  0.75000000  0.30350525  0.85916833  1
  In  In9  1  0.75000000  0.80350525  0.64083167  1
  In  In10  1  0.25000000  0.69649475  0.14083167  1
  In  In11  1  0.25000000  0.19649475  0.35916833  1
  Cu  Cu12  1  0.75000000  0.91285897  0.00202195  1
  Cu  Cu13  1  0.75000000  0.41285897  0.49797805  1
  Cu  Cu14  1  0.25000000  0.08714103  0.99797805  1
  Cu  Cu15  1  0.25000000  0.58714103  0.50202195  1
  S  S16  1  0.75000000  0.81669366  0.88466354  1
  S  S17  1  0.75000000  0.31669366  0.61533646  1
  S  S18  1  0.25000000  0.18330634  0.11533646  1
  S  S19  1  0.25000000  0.68330634  0.38466354  1
  S  S20  1  0.75000000  0.09866747  0.92415389  1
  S  S21  1  0.75000000  0.59866747  0.57584611  1
  S  S22  1  0.25000000  0.90133253  0.07584611  1
  S  S23  1  0.25000000  0.40133253  0.42415389  1
  S  S24  1  0.75000000  0.01186338  0.69397014  1
  S  S25  1  0.75000000  0.51186338  0.80602986  1
  S  S26  1  0.25000000  0.98813662  0.30602986  1
  S  S27  1  0.25000000  0.48813662  0.19397014  1
  S  S28  1  0.75000000  0.61284863  0.03775274  1
  S  S29  1  0.75000000  0.11284863  0.46224726  1
  S  S30  1  0.25000000  0.38715137  0.96224726  1
  S  S31  1  0.25000000  0.88715137  0.53775274  1
  S  S32  1  0.75000000  0.76354097  0.23031512  1
  S  S33  1  0.75000000  0.26354097  0.26968488  1
  S  S34  1  0.25000000  0.23645903  0.76968488  1
  S  S35  1  0.25000000  0.73645903  0.73031512  1
