# generated using pymatgen
data_P6(Pb2O5)5
_symmetry_space_group_name_H-M   'P 1'
_cell_length_a   7.49571175
_cell_length_b   10.03035998
_cell_length_c   10.03032442
_cell_angle_alpha   59.99976834
_cell_angle_beta   90.00002783
_cell_angle_gamma   89.99924279
_symmetry_Int_Tables_number   1
_chemical_formula_structural   P6(Pb2O5)5
_chemical_formula_sum   'P6 Pb10 O25'
_cell_volume   653.09144475
_cell_formula_units_Z   1
loop_
 _symmetry_equiv_pos_site_id
 _symmetry_equiv_pos_as_xyz
  1  'x, y, z'
loop_
 _atom_site_type_symbol
 _atom_site_label
 _atom_site_symmetry_multiplicity
 _atom_site_fract_x
 _atom_site_fract_y
 _atom_site_fract_z
 _atom_site_occupancy
  P  P0  1  0.75064475  0.02868149  0.37531045  1
  P  P1  1  0.75064689  0.59600100  0.02868670  1
  P  P2  1  0.75064329  0.37530984  0.59600394  1
  P  P3  1  0.25090683  0.97183021  0.63123490  1
  P  P4  1  0.25090394  0.39693672  0.97182506  1
  P  P5  1  0.25090281  0.63124025  0.39693976  1
  Pb  Pb6  1  0.50482995  0.33334159  0.33333047  1
  Pb  Pb7  1  0.98858935  0.66666328  0.66666771  1
  Pb  Pb8  1  0.50930593  0.66666997  0.66666742  1
  Pb  Pb9  1  0.99499082  0.33333569  0.33333183  1
  Pb  Pb10  1  0.73069319  0.22411381  0.00267128  1
  Pb  Pb11  1  0.73069734  0.77320976  0.22412208  1
  Pb  Pb12  1  0.73070560  0.00266579  0.77320602  1
  Pb  Pb13  1  0.24479780  0.74284635  0.99359790  1
  Pb  Pb14  1  0.24479792  0.26355430  0.74284191  1
  Pb  Pb15  1  0.24479190  0.99359844  0.26355720  1
  O  O16  1  0.58111452  0.07635149  0.27011704  1
  O  O17  1  0.58110886  0.65352055  0.07636269  1
  O  O18  1  0.58111281  0.27012268  0.65351473  1
  O  O19  1  0.08650567  0.90864036  0.74042031  1
  O  O20  1  0.08650062  0.35094655  0.90863151  1
  O  O21  1  0.08649804  0.74042250  0.35094810  1
  O  O22  1  0.41954736  0.91079689  0.73690515  1
  O  O23  1  0.41955040  0.35229201  0.91079447  1
  O  O24  1  0.41954557  0.73690666  0.35230388  1
  O  O25  1  0.91724053  0.06946411  0.26848186  1
  O  O26  1  0.91724670  0.66205446  0.06947453  1
  O  O27  1  0.91723451  0.26847296  0.66204881  1
  O  O28  1  0.74729268  0.85401855  0.49698005  1
  O  O29  1  0.74729027  0.64900880  0.85402067  1
  O  O30  1  0.74729035  0.49696999  0.64901303  1
  O  O31  1  0.25054520  0.14880882  0.52908522  1
  O  O32  1  0.25054209  0.32211085  0.14880283  1
  O  O33  1  0.25054092  0.52908935  0.32210979  1
  O  O34  1  0.75449421  0.12781748  0.45597454  1
  O  O35  1  0.75450297  0.41619780  0.12781323  1
  O  O36  1  0.75449541  0.45598268  0.41620660  1
  O  O37  1  0.24999875  0.89488436  0.52668251  1
  O  O38  1  0.24999804  0.57844338  0.89487905  1
  O  O39  1  0.24999877  0.52668269  0.57843924  1
  O  O40  1  0.68515642  0.99999557  0.99999552  1
