# generated using pymatgen
data_Sr3Sn3Au8
_symmetry_space_group_name_H-M   'P 1'
_cell_length_a   4.77575678
_cell_length_b   8.98052605
_cell_length_c   9.10652686
_cell_angle_alpha   74.73810995
_cell_angle_beta   105.20160123
_cell_angle_gamma   74.57985001
_symmetry_Int_Tables_number   1
_chemical_formula_structural   Sr3Sn3Au8
_chemical_formula_sum   'Sr3 Sn3 Au8'
_cell_volume   339.26534895
_cell_formula_units_Z   1
loop_
 _symmetry_equiv_pos_site_id
 _symmetry_equiv_pos_as_xyz
  1  'x, y, z'
loop_
 _atom_site_type_symbol
 _atom_site_label
 _atom_site_symmetry_multiplicity
 _atom_site_fract_x
 _atom_site_fract_y
 _atom_site_fract_z
 _atom_site_occupancy
  Sr  Sr0  1  0.02775591  0.67033940  0.72585122  1
  Sr  Sr1  1  0.97224409  0.32966060  0.27414878  1
  Sr  Sr2  1  -0.00000000  0.00000000  0.00000000  1
  Sn  Sn3  1  0.50000000  0.50000000  0.50000000  1
  Sn  Sn4  1  0.35312137  0.97600461  0.68224735  1
  Sn  Sn5  1  0.64687863  0.02399539  0.31775265  1
  Au  Au6  1  0.27455718  0.59830096  0.14741531  1
  Au  Au7  1  0.72544282  0.40169904  0.85258469  1
  Au  Au8  1  0.28547395  0.85150045  0.42244836  1
  Au  Au9  1  0.71452605  0.14849955  0.57755164  1
  Au  Au10  1  0.20073432  0.29573257  0.69720122  1
  Au  Au11  1  0.79926568  0.70426743  0.30279878  1
  Au  Au12  1  0.37032486  0.28894697  0.02959669  1
  Au  Au13  1  0.62967514  0.71105303  0.97040331  1
