# generated using pymatgen
data_Pb4SeS3
_symmetry_space_group_name_H-M   'P 1'
_cell_length_a   4.29121597
_cell_length_b   4.29121597
_cell_length_c   14.07750397
_cell_angle_alpha   90.00000000
_cell_angle_beta   81.23315551
_cell_angle_gamma   120.00000000
_symmetry_Int_Tables_number   1
_chemical_formula_structural   Pb4SeS3
_chemical_formula_sum   'Pb4 Se1 S3'
_cell_volume   220.99624536
_cell_formula_units_Z   1
loop_
 _symmetry_equiv_pos_site_id
 _symmetry_equiv_pos_as_xyz
  1  'x, y, z'
loop_
 _atom_site_type_symbol
 _atom_site_label
 _atom_site_symmetry_multiplicity
 _atom_site_fract_x
 _atom_site_fract_y
 _atom_site_fract_z
 _atom_site_occupancy
  Pb  Pb0  1  0.99948576  0.49974288  0.50077136  1
  Pb  Pb1  1  0.50051424  0.75025712  0.74922864  1
  Pb  Pb2  1  0.00364687  0.00182343  0.99452970  1
  Pb  Pb3  1  0.49635313  0.24817657  0.25547030  1
  Se  Se4  1  0.25000000  0.62500000  0.12500000  1
  S  S5  1  0.74900679  0.87450340  0.37648981  1
  S  S6  1  0.25000000  0.12500000  0.62500000  1
  S  S7  1  0.75099321  0.37549660  0.87351019  1
