# generated using pymatgen
data_Li4MnCo2O7
_symmetry_space_group_name_H-M   'P 1'
_cell_length_a   2.91327054
_cell_length_b   5.12552022
_cell_length_c   17.91226261
_cell_angle_alpha   101.47071818
_cell_angle_beta   94.66448500
_cell_angle_gamma   73.48940142
_symmetry_Int_Tables_number   1
_chemical_formula_structural   Li4MnCo2O7
_chemical_formula_sum   'Li8 Mn2 Co4 O14'
_cell_volume   251.22844214
_cell_formula_units_Z   2
loop_
 _symmetry_equiv_pos_site_id
 _symmetry_equiv_pos_as_xyz
  1  'x, y, z'
loop_
 _atom_site_type_symbol
 _atom_site_label
 _atom_site_symmetry_multiplicity
 _atom_site_fract_x
 _atom_site_fract_y
 _atom_site_fract_z
 _atom_site_occupancy
  Li  Li0  1  0.28926134  0.49727290  0.07579658  1
  Li  Li1  1  0.85081601  0.51286356  0.21449558  1
  Li  Li2  1  0.43239622  0.50003661  0.36483004  1
  Li  Li3  1  0.99256428  0.51851342  0.50364198  1
  Li  Li4  1  0.57729750  0.48567758  0.64027157  1
  Li  Li5  1  0.14797076  0.48294447  0.77888598  1
  Li  Li6  1  0.71087128  0.50020069  0.92194225  1
  Li  Li7  1  0.27904525  0.01418935  0.57228085  1
  Mn  Mn8  1  0.99953334  0.00018064  0.99924733  1
  Mn  Mn9  1  0.14412192  0.99949723  0.28774106  1
  Co  Co10  1  0.56989140  0.00432749  0.14410928  1
  Co  Co11  1  0.71069747  0.02133060  0.44272453  1
  Co  Co12  1  0.85986525  0.98746935  0.70719984  1
  Co  Co13  1  0.43312659  0.98519808  0.85145227  1
  O  O14  1  0.37490098  0.21521775  0.96501972  1
  O  O15  1  0.93269584  0.23313972  0.09853040  1
  O  O16  1  0.51561206  0.22620904  0.25743416  1
  O  O17  1  0.08492477  0.21866122  0.38851075  1
  O  O18  1  0.63645336  0.25871296  0.53162068  1
  O  O19  1  0.23110073  0.21949763  0.68169908  1
  O  O20  1  0.80027302  0.21188662  0.81243166  1
  O  O21  1  0.20766845  0.76985597  0.18519386  1
  O  O22  1  0.76765249  0.78311846  0.31842345  1
  O  O23  1  0.34354100  0.77548603  0.46256704  1
  O  O24  1  0.92320926  0.77305728  0.61947579  1
  O  O25  1  0.49383152  0.76011898  0.74778103  1
  O  O26  1  0.06526076  0.76686345  0.89738598  1
  O  O27  1  0.62541718  0.77847290  0.02930726  1
