# generated using pymatgen
data_Ni3Te4
_symmetry_space_group_name_H-M   'P 1'
_cell_length_a   4.01307341
_cell_length_b   6.62544420
_cell_length_c   6.57804976
_cell_angle_alpha   73.13104432
_cell_angle_beta   107.99614862
_cell_angle_gamma   72.41859053
_symmetry_Int_Tables_number   1
_chemical_formula_structural   Ni3Te4
_chemical_formula_sum   'Ni3 Te4'
_cell_volume   143.68838438
_cell_formula_units_Z   1
loop_
 _symmetry_equiv_pos_site_id
 _symmetry_equiv_pos_as_xyz
  1  'x, y, z'
loop_
 _atom_site_type_symbol
 _atom_site_label
 _atom_site_symmetry_multiplicity
 _atom_site_fract_x
 _atom_site_fract_y
 _atom_site_fract_z
 _atom_site_occupancy
  Ni  Ni0  1  -0.00000000  0.75000000  0.75000000  1
  Ni  Ni1  1  0.01095117  0.99112426  0.01352865  1
  Ni  Ni2  1  0.98904883  0.50887574  0.48647135  1
  Te  Te3  1  0.33987138  0.53364622  0.21680929  1
  Te  Te4  1  0.33138994  0.04662665  0.71076196  1
  Te  Te5  1  0.66861006  0.45337335  0.78923804  1
  Te  Te6  1  0.66012862  0.96635378  0.28319071  1
