# generated using pymatgen
data_NdBi3(Ru2O7)2
_symmetry_space_group_name_H-M   'P 1'
_cell_length_a   7.32996431
_cell_length_b   7.32996431
_cell_length_c   7.38241854
_cell_angle_alpha   90.00000000
_cell_angle_beta   60.23476410
_cell_angle_gamma   120.00000000
_symmetry_Int_Tables_number   1
_chemical_formula_structural   NdBi3(Ru2O7)2
_chemical_formula_sum   'Nd1 Bi3 Ru4 O14'
_cell_volume   281.46174897
_cell_formula_units_Z   1
loop_
 _symmetry_equiv_pos_site_id
 _symmetry_equiv_pos_as_xyz
  1  'x, y, z'
loop_
 _atom_site_type_symbol
 _atom_site_label
 _atom_site_symmetry_multiplicity
 _atom_site_fract_x
 _atom_site_fract_y
 _atom_site_fract_z
 _atom_site_occupancy
  Nd  Nd0  1  0.75000000  0.37500000  0.87500000  1
  Bi  Bi1  1  0.25000000  0.37500000  0.37500000  1
  Bi  Bi2  1  0.25000000  0.87500000  0.37500000  1
  Bi  Bi3  1  0.75000000  0.37500000  0.37500000  1
  Ru  Ru4  1  0.75000000  0.87500000  0.37500000  1
  Ru  Ru5  1  0.25000000  0.87500000  0.87500000  1
  Ru  Ru6  1  0.25000000  0.37500000  0.87500000  1
  Ru  Ru7  1  0.75000000  0.87500000  0.87500000  1
  O  O8  1  0.50095724  0.25047862  0.24856414  1
  O  O9  1  0.99904276  0.49952138  0.50143586  1
  O  O10  1  0.90630191  0.95315096  0.54660333  1
  O  O11  1  0.50024571  0.54709475  0.54660333  1
  O  O12  1  0.50024571  0.95315096  0.54660333  1
  O  O13  1  0.09321764  0.54660882  0.95623730  1
  O  O14  1  0.49715388  0.95054506  0.95623730  1
  O  O15  1  0.49715388  0.54660882  0.95623730  1
  O  O16  1  0.59369809  0.79684904  0.20339667  1
  O  O17  1  0.99975429  0.20290525  0.20339667  1
  O  O18  1  0.99975429  0.79684904  0.20339667  1
  O  O19  1  0.40678236  0.20339118  0.79376270  1
  O  O20  1  0.00284612  0.79945494  0.79376270  1
  O  O21  1  0.00284612  0.20339118  0.79376270  1
