# generated using pymatgen
data_NdBiRu2O7
_symmetry_space_group_name_H-M   'P 1'
_cell_length_a   7.36630917
_cell_length_b   7.36630917
_cell_length_c   7.36630917
_cell_angle_alpha   89.92289049
_cell_angle_beta   59.60972455
_cell_angle_gamma   119.52259937
_symmetry_Int_Tables_number   1
_chemical_formula_structural   NdBiRu2O7
_chemical_formula_sum   'Nd2 Bi2 Ru4 O14'
_cell_volume   282.80637547
_cell_formula_units_Z   2
loop_
 _symmetry_equiv_pos_site_id
 _symmetry_equiv_pos_as_xyz
  1  'x, y, z'
loop_
 _atom_site_type_symbol
 _atom_site_label
 _atom_site_symmetry_multiplicity
 _atom_site_fract_x
 _atom_site_fract_y
 _atom_site_fract_z
 _atom_site_occupancy
  Nd  Nd0  1  0.25000000  0.87500000  0.37500000  1
  Nd  Nd1  1  0.75000000  0.37500000  0.37500000  1
  Bi  Bi2  1  0.75000000  0.37500000  0.87500000  1
  Bi  Bi3  1  0.25000000  0.37500000  0.37500000  1
  Ru  Ru4  1  0.75000000  0.87500000  0.37500000  1
  Ru  Ru5  1  0.25000000  0.87500000  0.87500000  1
  Ru  Ru6  1  0.25000000  0.37500000  0.87500000  1
  Ru  Ru7  1  0.75000000  0.87500000  0.87500000  1
  O  O8  1  0.50000000  0.24862551  0.25137449  1
  O  O9  1  0.00000000  0.50137449  0.49862551  1
  O  O10  1  0.90453278  0.95566345  0.54796694  1
  O  O11  1  0.49636961  0.54750028  0.54796694  1
  O  O12  1  0.50000000  0.95387507  0.54612493  1
  O  O13  1  0.09546722  0.54750028  0.94886933  1
  O  O14  1  0.50363039  0.95566345  0.94886933  1
  O  O15  1  0.50000000  0.54777182  0.95222818  1
  O  O16  1  0.59546722  0.79433655  0.20203306  1
  O  O17  1  0.00363039  0.20249972  0.20203306  1
  O  O18  1  0.00000000  0.79612493  0.20387507  1
  O  O19  1  0.40453278  0.20249972  0.80113067  1
  O  O20  1  0.99636961  0.79433655  0.80113067  1
  O  O21  1  0.00000000  0.20222818  0.79777182  1
