# generated using pymatgen
data_Nd4Mn3NiO12
_symmetry_space_group_name_H-M   'P 1'
_cell_length_a   5.46275880
_cell_length_b   5.66814826
_cell_length_c   7.80979580
_cell_angle_alpha   90.18809747
_cell_angle_beta   89.62962497
_cell_angle_gamma   90.56841832
_symmetry_Int_Tables_number   1
_chemical_formula_structural   Nd4Mn3NiO12
_chemical_formula_sum   'Nd4 Mn3 Ni1 O12'
_cell_volume   241.80217838
_cell_formula_units_Z   1
loop_
 _symmetry_equiv_pos_site_id
 _symmetry_equiv_pos_as_xyz
  1  'x, y, z'
loop_
 _atom_site_type_symbol
 _atom_site_label
 _atom_site_symmetry_multiplicity
 _atom_site_fract_x
 _atom_site_fract_y
 _atom_site_fract_z
 _atom_site_occupancy
  Nd  Nd0  1  0.51230664  0.55441259  0.24749156  1
  Nd  Nd1  1  0.98419876  0.05892492  0.24603604  1
  Nd  Nd2  1  0.48769336  0.44558741  0.75250844  1
  Nd  Nd3  1  0.01580124  0.94107508  0.75396396  1
  Mn  Mn4  1  0.50000000  0.00000000  0.50000000  1
  Mn  Mn5  1  -0.00000000  0.50000000  0.50000000  1
  Mn  Mn6  1  0.50000000  0.00000000  0.00000000  1
  Ni  Ni7  1  -0.00000000  0.50000000  0.00000000  1
  O  O8  1  0.78482946  0.80111903  0.04441835  1
  O  O9  1  0.70751597  0.29826836  0.45154958  1
  O  O10  1  0.21729437  0.19476673  0.54956352  1
  O  O11  1  0.30315184  0.71530840  0.95315954  1
  O  O12  1  0.21517054  0.19888097  0.95558165  1
  O  O13  1  0.29248403  0.70173164  0.54845042  1
  O  O14  1  0.78270563  0.80523327  0.45043648  1
  O  O15  1  0.69684816  0.28469160  0.04684046  1
  O  O16  1  0.40850196  0.97533192  0.24275422  1
  O  O17  1  0.08646343  0.47762684  0.25663655  1
  O  O18  1  0.59149804  0.02466808  0.75724578  1
  O  O19  1  0.91353657  0.52237316  0.74336345  1
