# generated using pymatgen
data_Na3V(H14O11)2
_symmetry_space_group_name_H-M   'P 1'
_cell_length_a   7.68818200
_cell_length_b   8.82813097
_cell_length_c   9.25871514
_cell_angle_alpha   117.40484653
_cell_angle_beta   99.84628669
_cell_angle_gamma   68.72346508
_symmetry_Int_Tables_number   1
_chemical_formula_structural   Na3V(H14O11)2
_chemical_formula_sum   'Na3 V1 H28 O22'
_cell_volume   519.85597189
_cell_formula_units_Z   1
loop_
 _symmetry_equiv_pos_site_id
 _symmetry_equiv_pos_as_xyz
  1  'x, y, z'
loop_
 _atom_site_type_symbol
 _atom_site_label
 _atom_site_symmetry_multiplicity
 _atom_site_fract_x
 _atom_site_fract_y
 _atom_site_fract_z
 _atom_site_occupancy
  Na  Na0  1  0.35776105  0.22285721  0.62229118  1
  Na  Na1  1  0.64136377  0.77760164  0.37854506  1
  Na  Na2  1  0.49995284  0.50290218  0.50286944  1
  V  V3  1  0.99678414  0.00453278  0.00259225  1
  H  H4  1  0.48996965  0.85456069  0.07956945  1
  H  H5  1  0.51133866  0.13636741  0.91927994  1
  H  H6  1  0.26022876  0.87318353  0.46275719  1
  H  H7  1  0.74190378  0.12838605  0.54308351  1
  H  H8  1  0.74955497  0.57612623  0.00019312  1
  H  H9  1  0.24004880  0.43029264  0.99492446  1
  H  H10  1  0.36410400  0.61680642  0.82502024  1
  H  H11  1  0.63456759  0.38564641  0.17811850  1
  H  H12  1  0.18644895  0.64583350  0.07805584  1
  H  H13  1  0.85765276  0.36751990  0.94956256  1
  H  H14  1  0.24760650  0.93517251  0.32501922  1
  H  H15  1  0.77870479  0.02214252  0.65048328  1
  H  H16  1  0.72967784  0.76515638  0.70473867  1
  H  H17  1  0.26936206  0.23428820  0.29087462  1
  H  H18  1  0.14020929  0.80188652  0.62858969  1
  H  H19  1  0.82023069  0.20033702  0.35688805  1
  H  H20  1  0.56328597  0.47217055  0.80195216  1
  H  H21  1  0.43255852  0.52206398  0.19962586  1
  H  H22  1  0.11938414  0.67155691  0.44773044  1
  H  H23  1  0.89367722  0.31672274  0.53369537  1
  H  H24  1  0.03083091  0.55026647  0.73051763  1
  H  H25  1  0.96943189  0.45556629  0.27036825  1
  H  H26  1  0.96100357  0.43822341  0.78345429  1
  H  H27  1  0.03321580  0.56801301  0.21532278  1
  H  H28  1  0.30175110  0.13687325  0.91013997  1
  H  H29  1  0.67764624  0.90593101  0.11706601  1
  H  H30  1  0.52188124  0.87318615  0.69587154  1
  H  H31  1  0.47762224  0.13177090  0.30668788  1
  O  O32  1  0.26211097  0.85181756  0.98309518  1
  O  O33  1  0.73281665  0.14963661  0.03470191  1
  O  O34  1  0.61688854  0.75679255  0.63548711  1
  O  O35  1  0.37899987  0.24560851  0.36402880  1
  O  O36  1  0.30455713  0.94741971  0.43189378  1
  O  O37  1  0.69029666  0.05771387  0.57216997  1
  O  O38  1  0.43954270  0.49479171  0.74905410  1
  O  O39  1  0.55749170  0.50793024  0.25216906  1
  O  O40  1  0.61268337  0.83724278  0.13587628  1
  O  O41  1  0.39735669  0.13630444  0.85031347  1
  O  O42  1  0.93248180  0.80139093  0.82378220  1
  O  O43  1  0.06434920  0.21229940  0.16690702  1
  O  O44  1  0.79105274  0.45702258  0.90576189  1
  O  O45  1  0.21091222  0.53803211  0.09916773  1
  O  O46  1  0.04261342  0.42445932  0.70250663  1
  O  O47  1  0.95678764  0.58220753  0.30015747  1
  O  O48  1  0.20862443  0.73044348  0.52314469  1
  O  O49  1  0.79282874  0.26631054  0.47512964  1
  O  O50  1  0.96643885  0.92001174  0.76944296  1
  O  O51  1  0.15980293  0.85339022  0.10397893  1
  O  O52  1  0.06516527  0.19597316  0.00193867  1
  O  O53  1  0.79563877  0.05615660  0.13960409  1
