# generated using pymatgen
data_NaAlSi3O8
_symmetry_space_group_name_H-M   'P 1'
_cell_length_a   4.80729599
_cell_length_b   8.32720544
_cell_length_c   8.77938178
_cell_angle_alpha   91.80510035
_cell_angle_beta   90.00000000
_cell_angle_gamma   90.00000000
_symmetry_Int_Tables_number   1
_chemical_formula_structural   NaAlSi3O8
_chemical_formula_sum   'Na2 Al2 Si6 O16'
_cell_volume   351.27602512
_cell_formula_units_Z   2
loop_
 _symmetry_equiv_pos_site_id
 _symmetry_equiv_pos_as_xyz
  1  'x, y, z'
loop_
 _atom_site_type_symbol
 _atom_site_label
 _atom_site_symmetry_multiplicity
 _atom_site_fract_x
 _atom_site_fract_y
 _atom_site_fract_z
 _atom_site_occupancy
  Na  Na0  1  0.59689597  0.49620406  0.01417708  1
  Na  Na1  1  0.90310403  0.99620406  0.51417708  1
  Al  Al2  1  0.63911300  0.69273929  0.34272509  1
  Al  Al3  1  0.86088700  0.19273929  0.84272509  1
  Si  Si4  1  0.36504510  0.68743966  0.66028723  1
  Si  Si5  1  0.13733938  0.81353834  0.15839839  1
  Si  Si6  1  0.85353031  0.80903016  0.84595841  1
  Si  Si7  1  0.36266062  0.31353834  0.65839839  1
  Si  Si8  1  0.64646969  0.30903016  0.34595841  1
  Si  Si9  1  0.13495490  0.18743966  0.16028723  1
  O  O10  1  0.92923852  0.81325695  0.30367955  1
  O  O11  1  0.08238670  0.78821083  0.70686908  1
  O  O12  1  0.41151820  0.70513361  0.18579293  1
  O  O13  1  0.58351408  0.69256301  0.80626868  1
  O  O14  1  0.08848180  0.20513361  0.68579293  1
  O  O15  1  0.91648592  0.19256301  0.30626868  1
  O  O16  1  0.57076148  0.31325695  0.80367955  1
  O  O17  1  0.41761330  0.28821083  0.20686908  1
  O  O18  1  0.73922533  0.49257694  0.35730574  1
  O  O19  1  0.27728028  0.50063177  0.62591362  1
  O  O20  1  0.22271972  0.00063177  0.12591362  1
  O  O21  1  0.76077467  0.99257694  0.85730574  1
  O  O22  1  0.50290618  0.77237854  0.51539449  1
  O  O23  1  0.98120424  0.73629686  0.00342971  1
  O  O24  1  0.51879576  0.23629686  0.50342971  1
  O  O25  1  0.99709382  0.27237854  0.01539449  1
