# generated using pymatgen
data_NbCo
_symmetry_space_group_name_H-M   'P 1'
_cell_length_a   4.94082195
_cell_length_b   4.94082195
_cell_length_c   17.74425482
_cell_angle_alpha   98.00289580
_cell_angle_beta   98.00289580
_cell_angle_gamma   59.99999713
_symmetry_Int_Tables_number   1
_chemical_formula_structural   NbCo
_chemical_formula_sum   'Nb13 Co13'
_cell_volume   370.25507716
_cell_formula_units_Z   13
loop_
 _symmetry_equiv_pos_site_id
 _symmetry_equiv_pos_as_xyz
  1  'x, y, z'
loop_
 _atom_site_type_symbol
 _atom_site_label
 _atom_site_symmetry_multiplicity
 _atom_site_fract_x
 _atom_site_fract_y
 _atom_site_fract_z
 _atom_site_occupancy
  Nb  Nb0  1  0.41664805  0.41664805  0.24994416  1
  Nb  Nb1  1  0.91762156  0.91762156  0.75286469  1
  Nb  Nb2  1  0.08237844  0.08237844  0.24713531  1
  Nb  Nb3  1  0.58335195  0.58335195  0.75005584  1
  Nb  Nb4  1  0.77447931  0.77447931  0.32343793  1
  Nb  Nb5  1  0.27571344  0.27571344  0.82714032  1
  Nb  Nb6  1  0.72428656  0.72428656  0.17285968  1
  Nb  Nb7  1  0.22552069  0.22552069  0.67656207  1
  Nb  Nb8  1  0.82621179  0.82621179  0.47863538  1
  Nb  Nb9  1  0.32814102  0.32814102  0.98442306  1
  Nb  Nb10  1  0.67185898  0.67185898  0.01557694  1
  Nb  Nb11  1  0.17378821  0.17378821  0.52136462  1
  Nb  Nb12  1  0.50000000  0.50000000  0.50000000  1
  Co  Co13  1  0.70697276  0.20317007  0.11331290  1
  Co  Co14  1  0.19776803  0.71026150  0.61829104  1
  Co  Co15  1  0.20317007  0.20317007  0.11331290  1
  Co  Co16  1  0.71026150  0.71026150  0.61829104  1
  Co  Co17  1  0.20317007  0.70697276  0.11331290  1
  Co  Co18  1  0.71026150  0.19776803  0.61829104  1
  Co  Co19  1  0.80223197  0.28973850  0.38170896  1
  Co  Co20  1  0.29302724  0.79682993  0.88668710  1
  Co  Co21  1  0.28973850  0.28973850  0.38170896  1
  Co  Co22  1  0.79682993  0.79682993  0.88668710  1
  Co  Co23  1  0.28973850  0.80223197  0.38170896  1
  Co  Co24  1  0.79682993  0.29302724  0.88668710  1
  Co  Co25  1  -0.00000000  -0.00000000  -0.00000000  1
