# generated using pymatgen
data_Li4MnCo2O7
_symmetry_space_group_name_H-M   'P 1'
_cell_length_a   2.88071580
_cell_length_b   5.11233089
_cell_length_c   18.25557905
_cell_angle_alpha   99.38431635
_cell_angle_beta   94.52532687
_cell_angle_gamma   73.63580305
_symmetry_Int_Tables_number   1
_chemical_formula_structural   Li4MnCo2O7
_chemical_formula_sum   'Li8 Mn2 Co4 O14'
_cell_volume   254.35521992
_cell_formula_units_Z   2
loop_
 _symmetry_equiv_pos_site_id
 _symmetry_equiv_pos_as_xyz
  1  'x, y, z'
loop_
 _atom_site_type_symbol
 _atom_site_label
 _atom_site_symmetry_multiplicity
 _atom_site_fract_x
 _atom_site_fract_y
 _atom_site_fract_z
 _atom_site_occupancy
  Li  Li0  1  0.28396964  0.50645791  0.07439818  1
  Li  Li1  1  0.85748926  0.50951121  0.22448973  1
  Li  Li2  1  0.41628490  0.53646751  0.36903831  1
  Li  Li3  1  0.00939838  0.47374303  0.49253978  1
  Li  Li4  1  0.57019789  0.49648632  0.63688110  1
  Li  Li5  1  0.14965486  0.48393116  0.78324088  1
  Li  Li6  1  0.71372907  0.48944829  0.91690544  1
  Li  Li7  1  0.71431953  0.00309589  0.43173394  1
  Mn  Mn8  1  0.99889461  0.99884977  0.99663899  1
  Mn  Mn9  1  0.56847908  0.01025791  0.14721507  1
  Co  Co10  1  0.13718290  0.02849519  0.30286098  1
  Co  Co11  1  0.29049243  0.97958043  0.56056628  1
  Co  Co12  1  0.85679962  0.99827504  0.71187429  1
  Co  Co13  1  0.43525802  0.98065252  0.85116957  1
  O  O14  1  0.36850087  0.22683061  0.96383236  1
  O  O15  1  0.93920975  0.23618880  0.11460730  1
  O  O16  1  0.51435663  0.21482646  0.24354072  1
  O  O17  1  0.06745938  0.25348308  0.38840184  1
  O  O18  1  0.65592422  0.23022738  0.54207682  1
  O  O19  1  0.23438189  0.21368622  0.68245001  1
  O  O20  1  0.79837677  0.21471051  0.81146304  1
  O  O21  1  0.19666334  0.77866518  0.17199287  1
  O  O22  1  0.77255746  0.77375766  0.31887257  1
  O  O23  1  0.36002968  0.75435611  0.47441446  1
  O  O24  1  0.91295953  0.79120083  0.61711990  1
  O  O25  1  0.48247102  0.77829003  0.74323108  1
  O  O26  1  0.07192622  0.74435665  0.88821010  1
  O  O27  1  0.62303306  0.79416829  0.04023441  1
