# generated using pymatgen
data_Na5H7(Se2O9)2
_symmetry_space_group_name_H-M   'P 1'
_cell_length_a   7.22710388
_cell_length_b   11.29154183
_cell_length_c   11.29154183
_cell_angle_alpha   73.28389888
_cell_angle_beta   81.25942379
_cell_angle_gamma   81.25942379
_symmetry_Int_Tables_number   1
_chemical_formula_structural   Na5H7(Se2O9)2
_chemical_formula_sum   'Na10 H14 Se8 O36'
_cell_volume   866.53783784
_cell_formula_units_Z   2
loop_
 _symmetry_equiv_pos_site_id
 _symmetry_equiv_pos_as_xyz
  1  'x, y, z'
loop_
 _atom_site_type_symbol
 _atom_site_label
 _atom_site_symmetry_multiplicity
 _atom_site_fract_x
 _atom_site_fract_y
 _atom_site_fract_z
 _atom_site_occupancy
  Na  Na0  1  0.06267780  0.93425673  0.75070905  1
  Na  Na1  1  0.56267780  0.25070905  0.43425673  1
  Na  Na2  1  0.92962278  0.05588330  0.25233699  1
  Na  Na3  1  0.42962278  0.75233699  0.55588330  1
  Na  Na4  1  0.75001803  0.50100956  0.99935902  1
  Na  Na5  1  0.25001803  0.49935902  0.00100956  1
  Na  Na6  1  0.18557099  0.53459708  0.37636907  1
  Na  Na7  1  0.68557099  0.87636907  0.03459708  1
  Na  Na8  1  0.81488899  0.47243565  0.62280460  1
  Na  Na9  1  0.31488899  0.12280460  0.97243565  1
  H  H10  1  0.48696778  0.42390655  0.19569006  1
  H  H11  1  0.98696778  0.69569006  0.92390655  1
  H  H12  1  0.51376013  0.57554439  0.80364431  1
  H  H13  1  0.01376013  0.30364431  0.07554439  1
  H  H14  1  0.06728659  0.80181917  0.28710415  1
  H  H15  1  0.56728659  0.78710415  0.30181917  1
  H  H16  1  0.93374616  0.19531431  0.71807083  1
  H  H17  1  0.43374616  0.21807083  0.69531431  1
  H  H18  1  0.50603103  0.29930942  0.15827787  1
  H  H19  1  0.00603103  0.65827787  0.79930942  1
  H  H20  1  0.49397504  0.69827061  0.84341371  1
  H  H21  1  0.99397504  0.34341371  0.19827061  1
  H  H22  1  0.71468170  0.98265929  0.53332049  1
  H  H23  1  0.21468170  0.03332049  0.48265929  1
  Se  Se24  1  0.17246128  0.80077771  0.07839280  1
  Se  Se25  1  0.67246128  0.57839280  0.30077771  1
  Se  Se26  1  0.82734844  0.19875530  0.92210575  1
  Se  Se27  1  0.32734844  0.42210575  0.69875530  1
  Se  Se28  1  0.53613823  0.96775875  0.73013694  1
  Se  Se29  1  0.03613823  0.23013694  0.46775875  1
  Se  Se30  1  0.45231022  0.02798263  0.27664294  1
  Se  Se31  1  0.95231022  0.77664294  0.52798263  1
  O  O32  1  0.04090390  0.85979803  0.19727247  1
  O  O33  1  0.54090390  0.69727247  0.35979803  1
  O  O34  1  0.96253136  0.13768027  0.80385733  1
  O  O35  1  0.46253136  0.30385733  0.63768027  1
  O  O36  1  0.02143113  0.83148859  0.97213928  1
  O  O37  1  0.52143113  0.47213928  0.33148859  1
  O  O38  1  0.97634520  0.16789313  0.02908218  1
  O  O39  1  0.47634520  0.52908218  0.66789313  1
  O  O40  1  0.35278500  0.88262646  0.02242574  1
  O  O41  1  0.85278500  0.52242574  0.38262646  1
  O  O42  1  0.64762287  0.11632593  0.97462139  1
  O  O43  1  0.14762287  0.47462139  0.61632593  1
  O  O44  1  0.61817911  0.04353904  0.57722849  1
  O  O45  1  0.11817911  0.07722849  0.54353904  1
  O  O46  1  0.35418516  0.95958803  0.42136683  1
  O  O47  1  0.85418516  0.92136683  0.45958803  1
  O  O48  1  0.22822961  0.65017610  0.13878827  1
  O  O49  1  0.72822961  0.63878827  0.15017610  1
  O  O50  1  0.77326097  0.34894534  0.85966905  1
  O  O51  1  0.27326097  0.35966905  0.84894534  1
  O  O52  1  0.71920385  0.91003241  0.80842058  1
  O  O53  1  0.21920385  0.30842058  0.41003241  1
  O  O54  1  0.28023912  0.09180946  0.18831131  1
  O  O55  1  0.78023912  0.68831131  0.59180946  1
  O  O56  1  0.40598894  0.85950988  0.72786313  1
  O  O57  1  0.90598894  0.22786313  0.35950988  1
  O  O58  1  0.58817896  0.13556421  0.27692312  1
  O  O59  1  0.08817896  0.77692312  0.63556421  1
  O  O60  1  0.49301466  0.39035059  0.12331404  1
  O  O61  1  0.99301466  0.62331404  0.89035059  1
  O  O62  1  0.50748952  0.60728466  0.87720637  1
  O  O63  1  0.00748952  0.37720637  0.10728466  1
  O  O64  1  0.40065892  0.08456304  0.77364423  1
  O  O65  1  0.90065892  0.27364423  0.58456304  1
  O  O66  1  0.59476652  0.91337176  0.22966023  1
  O  O67  1  0.09476652  0.72966023  0.41337176  1
