# generated using pymatgen
data_Na2Mg2Fe2Se3(SO8)3
_symmetry_space_group_name_H-M   'P 1'
_cell_length_a   8.77260336
_cell_length_b   8.77260335
_cell_length_c   9.13134590
_cell_angle_alpha   61.29131023
_cell_angle_beta   61.29131025
_cell_angle_gamma   59.99999747
_symmetry_Int_Tables_number   1
_chemical_formula_structural   Na2Mg2Fe2Se3(SO8)3
_chemical_formula_sum   'Na2 Mg2 Fe2 Se3 S3 O24'
_cell_volume   506.38776966
_cell_formula_units_Z   1
loop_
 _symmetry_equiv_pos_site_id
 _symmetry_equiv_pos_as_xyz
  1  'x, y, z'
loop_
 _atom_site_type_symbol
 _atom_site_label
 _atom_site_symmetry_multiplicity
 _atom_site_fract_x
 _atom_site_fract_y
 _atom_site_fract_z
 _atom_site_occupancy
  Na  Na0  1  0.00085580  0.00085580  0.99743259  1
  Na  Na1  1  0.49916709  0.49916709  0.50249874  1
  Mg  Mg2  1  0.64327312  0.64327312  0.07018064  1
  Mg  Mg3  1  0.34908010  0.34908010  0.95275969  1
  Fe  Fe4  1  0.15100800  0.15100800  0.54697601  1
  Fe  Fe5  1  0.85680751  0.85680751  0.42957748  1
  Se  Se6  1  0.04082353  0.75115598  0.74951556  1
  Se  Se7  1  0.75115598  0.45850493  0.74951556  1
  Se  Se8  1  0.45850493  0.04082353  0.74951556  1
  S  S9  1  0.95855864  0.24702799  0.25205254  1
  S  S10  1  0.24702799  0.54236083  0.25205254  1
  S  S11  1  0.54236083  0.95855864  0.25205254  1
  O  O12  1  0.99331331  0.19658969  0.41786021  1
  O  O13  1  0.19658969  0.39223678  0.41786021  1
  O  O14  1  0.39223678  0.99331331  0.41786021  1
  O  O15  1  0.01175912  0.80647030  0.55929944  1
  O  O16  1  0.80647030  0.62247115  0.55929944  1
  O  O17  1  0.62247115  0.01175912  0.55929944  1
  O  O18  1  0.74996591  0.47161734  0.92465993  1
  O  O19  1  0.47161734  0.85375682  0.92465993  1
  O  O20  1  0.85375682  0.74996591  0.92465993  1
  O  O21  1  0.26261822  0.51442566  0.09862326  1
  O  O22  1  0.51442566  0.12433286  0.09862326  1
  O  O23  1  0.12433286  0.26261822  0.09862326  1
  O  O24  1  0.10340985  0.91207249  0.73351900  1
  O  O25  1  0.91207249  0.25099866  0.73351900  1
  O  O26  1  0.25099866  0.10340985  0.73351900  1
  O  O27  1  0.91524252  0.09645275  0.26145222  1
  O  O28  1  0.09645275  0.72685251  0.26145222  1
  O  O29  1  0.72685251  0.91524252  0.26145222  1
  O  O30  1  0.42101106  0.54276935  0.24074664  1
  O  O31  1  0.54276935  0.79547296  0.24074664  1
  O  O32  1  0.79547296  0.42101106  0.24074664  1
  O  O33  1  0.55175235  0.46933817  0.76246282  1
  O  O34  1  0.46933817  0.21644666  0.76246282  1
  O  O35  1  0.21644666  0.55175235  0.76246282  1
