# generated using pymatgen
data_Na3Ag(TeS3)2
_symmetry_space_group_name_H-M   'P 1'
_cell_length_a   5.84802179
_cell_length_b   8.38481782
_cell_length_c   12.24200200
_cell_angle_alpha   90.00000000
_cell_angle_beta   90.00000000
_cell_angle_gamma   92.67895657
_symmetry_Int_Tables_number   1
_chemical_formula_structural   Na3Ag(TeS3)2
_chemical_formula_sum   'Na6 Ag2 Te4 S12'
_cell_volume   599.62559550
_cell_formula_units_Z   2
loop_
 _symmetry_equiv_pos_site_id
 _symmetry_equiv_pos_as_xyz
  1  'x, y, z'
loop_
 _atom_site_type_symbol
 _atom_site_label
 _atom_site_symmetry_multiplicity
 _atom_site_fract_x
 _atom_site_fract_y
 _atom_site_fract_z
 _atom_site_occupancy
  Na  Na0  1  0.74576596  0.86349799  0.58190249  1
  Na  Na1  1  0.25423404  0.63650201  0.08190249  1
  Na  Na2  1  0.25451537  0.13524172  0.41734211  1
  Na  Na3  1  0.74548463  0.36475828  0.91734211  1
  Na  Na4  1  0.24207202  0.12850778  0.76376668  1
  Na  Na5  1  0.75792798  0.37149222  0.26376668  1
  Ag  Ag6  1  0.72652257  0.87005812  0.22945134  1
  Ag  Ag7  1  0.27347743  0.62994188  0.72945134  1
  Te  Te8  1  0.79155978  0.31939977  0.59219792  1
  Te  Te9  1  0.20844022  0.18060023  0.09219792  1
  Te  Te10  1  0.21199503  0.68294872  0.41092509  1
  Te  Te11  1  0.78800497  0.81705128  0.91092509  1
  S  S12  1  0.73867365  0.13097160  0.73764984  1
  S  S13  1  0.26132635  0.36902840  0.23764984  1
  S  S14  1  0.28214596  0.86926867  0.26503867  1
  S  S15  1  0.71785404  0.63073133  0.76503867  1
  S  S16  1  0.19740900  0.37749656  0.60265083  1
  S  S17  1  0.80259100  0.12250344  0.10265083  1
  S  S18  1  0.80451707  0.65634651  0.39312991  1
  S  S19  1  0.19548293  0.84365349  0.89312991  1
  S  S20  1  0.75705337  0.14663326  0.43903093  1
  S  S21  1  0.24294663  0.35336674  0.93903093  1
  S  S22  1  0.24888052  0.85098049  0.56691419  1
  S  S23  1  0.75111948  0.64901951  0.06691419  1
