# generated using pymatgen
data_Na4Li4MnFe3P4(O4F)4
_symmetry_space_group_name_H-M   'P 1'
_cell_length_a   6.44012319
_cell_length_b   11.12278907
_cell_length_c   11.62788962
_cell_angle_alpha   90.00000000
_cell_angle_beta   90.23401582
_cell_angle_gamma   90.00000000
_symmetry_Int_Tables_number   1
_chemical_formula_structural   Na4Li4MnFe3P4(O4F)4
_chemical_formula_sum   'Na8 Li8 Mn2 Fe6 P8 O32 F8'
_cell_volume   832.92357467
_cell_formula_units_Z   2
loop_
 _symmetry_equiv_pos_site_id
 _symmetry_equiv_pos_as_xyz
  1  'x, y, z'
loop_
 _atom_site_type_symbol
 _atom_site_label
 _atom_site_symmetry_multiplicity
 _atom_site_fract_x
 _atom_site_fract_y
 _atom_site_fract_z
 _atom_site_occupancy
  Na  Na0  1  0.99293894  0.27347571  0.84649004  1
  Na  Na1  1  0.50706106  0.77347571  0.65350996  1
  Na  Na2  1  0.49284135  0.72647668  0.15315548  1
  Na  Na3  1  0.00715865  0.22647668  0.34684452  1
  Na  Na4  1  0.00706106  0.72652429  0.15350996  1
  Na  Na5  1  0.49293894  0.22652429  0.34649004  1
  Na  Na6  1  0.50715865  0.27352332  0.84684452  1
  Na  Na7  1  0.99284135  0.77352332  0.65315548  1
  Li  Li8  1  0.74980729  0.22275352  0.09194119  1
  Li  Li9  1  0.75019271  0.72275352  0.40805881  1
  Li  Li10  1  0.25019271  0.77724648  0.90805881  1
  Li  Li11  1  0.24980729  0.27724648  0.59194119  1
  Li  Li12  1  0.75026795  0.54936510  0.76778390  1
  Li  Li13  1  0.74973205  0.04936510  0.73221610  1
  Li  Li14  1  0.24973205  0.45063490  0.23221610  1
  Li  Li15  1  0.25026795  0.95063490  0.26778390  1
  Mn  Mn16  1  -0.00000000  0.50000000  -0.00000000  1
  Mn  Mn17  1  0.50000000  0.00000000  0.50000000  1
  Fe  Fe18  1  0.50000000  0.50000000  -0.00000000  1
  Fe  Fe19  1  -0.00000000  0.00000000  0.50000000  1
  Fe  Fe20  1  -0.00000000  0.50000000  0.50000000  1
  Fe  Fe21  1  0.50000000  0.00000000  -0.00000000  1
  Fe  Fe22  1  0.50000000  0.50000000  0.50000000  1
  Fe  Fe23  1  -0.00000000  0.00000000  -0.00000000  1
  P  P24  1  0.75075957  0.25394555  0.58033903  1
  P  P25  1  0.74924043  0.75394555  0.91966097  1
  P  P26  1  0.24924043  0.74605445  0.41966097  1
  P  P27  1  0.25075957  0.24605445  0.08033903  1
  P  P28  1  0.74979656  0.45978917  0.24321269  1
  P  P29  1  0.75020344  0.95978917  0.25678731  1
  P  P30  1  0.25020344  0.54021083  0.75678731  1
  P  P31  1  0.24979656  0.04021083  0.74321269  1
  O  O32  1  0.75161717  0.00939494  0.13056427  1
  O  O33  1  0.74838283  0.50939494  0.36943573  1
  O  O34  1  0.24838283  0.99060506  0.86943573  1
  O  O35  1  0.25161717  0.49060506  0.63056427  1
  O  O36  1  0.75153843  0.12767665  0.51834093  1
  O  O37  1  0.74846157  0.62767665  0.98165907  1
  O  O38  1  0.24846157  0.87232335  0.48165907  1
  O  O39  1  0.25153843  0.37232335  0.01834093  1
  O  O40  1  0.74964331  0.32119736  0.24130158  1
  O  O41  1  0.75035669  0.82119736  0.25869842  1
  O  O42  1  0.25035669  0.67880264  0.75869842  1
  O  O43  1  0.24964331  0.17880264  0.74130158  1
  O  O44  1  0.44998289  0.49121375  0.81997380  1
  O  O45  1  0.05001711  0.99121375  0.68002620  1
  O  O46  1  0.95038712  0.50938623  0.18349647  1
  O  O47  1  0.54961288  0.00938623  0.31650353  1
  O  O48  1  0.55001711  0.50878625  0.18002620  1
  O  O49  1  0.94998289  0.00878625  0.31997380  1
  O  O50  1  0.04961288  0.49061377  0.81650353  1
  O  O51  1  0.45038712  0.99061377  0.68349647  1
  O  O52  1  0.94917628  0.32036558  0.53787067  1
  O  O53  1  0.55082372  0.82036558  0.96212933  1
  O  O54  1  0.44870826  0.68033305  0.46238786  1
  O  O55  1  0.05129174  0.18033305  0.03761214  1
  O  O56  1  0.05082372  0.67963442  0.46212933  1
  O  O57  1  0.44917628  0.17963442  0.03787067  1
  O  O58  1  0.55129174  0.31966695  0.53761214  1
  O  O59  1  0.94870826  0.81966695  0.96238786  1
  O  O60  1  0.75012753  0.23449724  0.71013834  1
  O  O61  1  0.74987247  0.73449724  0.78986166  1
  O  O62  1  0.24987247  0.76550276  0.28986166  1
  O  O63  1  0.25012753  0.26550276  0.21013834  1
  F  F64  1  0.74997628  0.06324583  0.89327354  1
  F  F65  1  0.75002372  0.56324583  0.60672646  1
  F  F66  1  0.25002372  0.93675417  0.10672646  1
  F  F67  1  0.24997628  0.43675417  0.39327354  1
  F  F68  1  0.74837861  0.36842235  0.97150824  1
  F  F69  1  0.75162139  0.86842235  0.52849176  1
  F  F70  1  0.25162139  0.63157765  0.02849176  1
  F  F71  1  0.24837861  0.13157765  0.47150824  1
