# generated using pymatgen
data_Na4TiP2O9
_symmetry_space_group_name_H-M   'P 1'
_cell_length_a   7.08194523
_cell_length_b   7.61464597
_cell_length_c   8.66428100
_cell_angle_alpha   90.00000000
_cell_angle_beta   65.87766893
_cell_angle_gamma   90.00000000
_symmetry_Int_Tables_number   1
_chemical_formula_structural   Na4TiP2O9
_chemical_formula_sum   'Na8 Ti2 P4 O18'
_cell_volume   426.43313675
_cell_formula_units_Z   2
loop_
 _symmetry_equiv_pos_site_id
 _symmetry_equiv_pos_as_xyz
  1  'x, y, z'
loop_
 _atom_site_type_symbol
 _atom_site_label
 _atom_site_symmetry_multiplicity
 _atom_site_fract_x
 _atom_site_fract_y
 _atom_site_fract_z
 _atom_site_occupancy
  Na  Na0  1  0.50000000  0.00000000  0.50000000  1
  Na  Na1  1  -0.00000000  -0.00000000  0.50000000  1
  Na  Na2  1  0.25000000  0.50000000  0.00000000  1
  Na  Na3  1  0.75000000  0.50000000  0.00000000  1
  Na  Na4  1  0.11350595  0.23585169  0.77298810  1
  Na  Na5  1  0.88649405  0.76414831  0.22701190  1
  Na  Na6  1  0.61350595  0.76414831  0.77298810  1
  Na  Na7  1  0.38649405  0.23585169  0.22701190  1
  Ti  Ti8  1  0.50000000  0.50000000  0.50000000  1
  Ti  Ti9  1  -0.00000000  0.50000000  0.50000000  1
  P  P10  1  0.61972213  0.24088418  0.76055573  1
  P  P11  1  0.38027787  0.75911582  0.23944427  1
  P  P12  1  0.11972213  0.75911582  0.76055573  1
  P  P13  1  0.88027787  0.24088418  0.23944427  1
  O  O14  1  0.64464713  0.04704784  0.71070574  1
  O  O15  1  0.35535287  0.95295216  0.28929426  1
  O  O16  1  0.14464713  0.95295216  0.71070574  1
  O  O17  1  0.85535287  0.04704784  0.28929426  1
  O  O18  1  0.52374611  0.67345787  0.31903634  1
  O  O19  1  0.84278245  0.32654213  0.68096366  1
  O  O20  1  0.65721755  0.32654213  0.31903634  1
  O  O21  1  0.97625389  0.67345787  0.68096366  1
  O  O22  1  0.47625389  0.32654213  0.68096366  1
  O  O23  1  0.15721755  0.67345787  0.31903634  1
  O  O24  1  0.34278245  0.67345787  0.68096366  1
  O  O25  1  0.02374611  0.32654213  0.31903634  1
  O  O26  1  0.52585989  0.29024707  0.94828022  1
  O  O27  1  0.47414011  0.70975293  0.05171978  1
  O  O28  1  0.02585989  0.70975293  0.94828022  1
  O  O29  1  0.97414011  0.29024707  0.05171978  1
  O  O30  1  0.75000000  0.59250258  0.50000000  1
  O  O31  1  0.25000000  0.40749742  0.50000000  1
