# generated using pymatgen
data_Mg3Fe3(PO4)4
_symmetry_space_group_name_H-M   'P 1'
_cell_length_a   5.18037026
_cell_length_b   7.72518797
_cell_length_c   8.43903047
_cell_angle_alpha   90.08248873
_cell_angle_beta   89.80750040
_cell_angle_gamma   93.96911502
_symmetry_Int_Tables_number   1
_chemical_formula_structural   Mg3Fe3(PO4)4
_chemical_formula_sum   'Mg3 Fe3 P4 O16'
_cell_volume   336.91220103
_cell_formula_units_Z   1
loop_
 _symmetry_equiv_pos_site_id
 _symmetry_equiv_pos_as_xyz
  1  'x, y, z'
loop_
 _atom_site_type_symbol
 _atom_site_label
 _atom_site_symmetry_multiplicity
 _atom_site_fract_x
 _atom_site_fract_y
 _atom_site_fract_z
 _atom_site_occupancy
  Mg  Mg0  1  0.00027436  0.50180590  0.50064854  1
  Mg  Mg1  1  0.50109782  0.99862391  0.99875224  1
  Mg  Mg2  1  0.40703786  0.88993601  0.64463629  1
  Fe  Fe3  1  0.90949338  0.38468594  0.85492044  1
  Fe  Fe4  1  0.58878853  0.11483725  0.35559908  1
  Fe  Fe5  1  0.09014612  0.61706217  0.14498000  1
  P  P6  1  0.46655336  0.29957218  0.69421159  1
  P  P7  1  0.96767774  0.80068440  0.80313626  1
  P  P8  1  0.53189912  0.70009503  0.30835016  1
  P  P9  1  0.03284272  0.19958444  0.19410448  1
  O  O10  1  0.44940004  0.14030407  0.58187969  1
  O  O11  1  0.95314997  0.64553817  0.92070469  1
  O  O12  1  0.54410222  0.85392211  0.42700186  1
  O  O13  1  0.04748677  0.35625427  0.07898624  1
  O  O14  1  0.68032909  0.43619050  0.64014114  1
  O  O15  1  0.18577817  0.93746354  0.85315596  1
  O  O16  1  0.31815267  0.56140535  0.35847437  1
  O  O17  1  0.81908675  0.06170052  0.14167327  1
  O  O18  1  0.55027163  0.24068624  0.86319942  1
  O  O19  1  0.05821229  0.73954542  0.63646988  1
  O  O20  1  0.45036572  0.76161017  0.13969293  1
  O  O21  1  0.94893452  0.25948439  0.36300812  1
  O  O22  1  0.19955780  0.37906857  0.69493058  1
  O  O23  1  0.69881634  0.87759897  0.80029304  1
  O  O24  1  0.79999028  0.62179100  0.30578903  1
  O  O25  1  0.30055474  0.12054949  0.19526072  1
