# generated using pymatgen
data_Mn3Cr8CuS16
_symmetry_space_group_name_H-M   'P 1'
_cell_length_a   7.12339583
_cell_length_b   7.12339583
_cell_length_c   12.28640884
_cell_angle_alpha   73.14867790
_cell_angle_beta   90.00000000
_cell_angle_gamma   120.00000000
_symmetry_Int_Tables_number   1
_chemical_formula_structural   Mn3Cr8CuS16
_chemical_formula_sum   'Mn3 Cr8 Cu1 S16'
_cell_volume   508.77361334
_cell_formula_units_Z   1
loop_
 _symmetry_equiv_pos_site_id
 _symmetry_equiv_pos_as_xyz
  1  'x, y, z'
loop_
 _atom_site_type_symbol
 _atom_site_label
 _atom_site_symmetry_multiplicity
 _atom_site_fract_x
 _atom_site_fract_y
 _atom_site_fract_z
 _atom_site_occupancy
  Mn  Mn0  1  0.43772757  0.37545514  0.68681730  1
  Mn  Mn1  1  0.56235628  0.62471255  0.31293117  1
  Mn  Mn2  1  0.06249461  0.62498922  0.81251618  1
  Cr  Cr3  1  0.25145740  0.00291480  0.24562780  1
  Cr  Cr4  1  0.74987193  -0.00025614  0.75038421  1
  Cr  Cr5  1  0.49675426  0.49350851  0.00379531  1
  Cr  Cr6  1  0.99924394  0.49848787  0.49770247  1
  Cr  Cr7  1  0.49675426  -0.00054957  0.00379531  1
  Cr  Cr8  1  0.99924394  0.00305360  0.49770247  1
  Cr  Cr9  1  0.00269618  -0.00054957  0.00379531  1
  Cr  Cr10  1  0.50380966  0.00305360  0.49770247  1
  Cu  Cu11  1  0.93760749  0.37521498  0.18717753  1
  S  S12  1  0.87047182  0.24094363  0.38858455  1
  S  S13  1  0.37006613  0.24013227  0.88980160  1
  S  S14  1  0.13784042  0.77568085  0.12054581  1
  S  S15  1  0.64017316  0.78034633  0.62016025  1
  S  S16  1  0.13784042  0.24161377  0.12054581  1
  S  S17  1  0.64017316  0.23966659  0.62016025  1
  S  S18  1  0.60377335  0.24161377  0.12054581  1
  S  S19  1  0.09949343  0.23966659  0.62016025  1
  S  S20  1  0.62983150  0.75966300  0.11050550  1
  S  S21  1  0.13086093  0.76172187  0.60741720  1
  S  S22  1  0.36011701  0.22023401  0.37959597  1
  S  S23  1  0.85859694  0.21719389  0.88094586  1
  S  S24  1  0.36011701  0.76028702  0.37959597  1
  S  S25  1  0.85859694  0.76045720  0.88094586  1
  S  S26  1  0.90017002  0.76028702  0.37959597  1
  S  S27  1  0.40186025  0.76045720  0.88094586  1
