# generated using pymatgen
data_LiMoP2WO11
_symmetry_space_group_name_H-M   'P 1'
_cell_length_a   5.26311426
_cell_length_b   5.26311426
_cell_length_c   7.88027882
_cell_angle_alpha   80.25559614
_cell_angle_beta   80.25559614
_cell_angle_gamma   75.91777390
_symmetry_Int_Tables_number   1
_chemical_formula_structural   LiMoP2WO11
_chemical_formula_sum   'Li1 Mo1 P2 W1 O11'
_cell_volume   206.79076835
_cell_formula_units_Z   1
loop_
 _symmetry_equiv_pos_site_id
 _symmetry_equiv_pos_as_xyz
  1  'x, y, z'
loop_
 _atom_site_type_symbol
 _atom_site_label
 _atom_site_symmetry_multiplicity
 _atom_site_fract_x
 _atom_site_fract_y
 _atom_site_fract_z
 _atom_site_occupancy
  Li  Li0  1  0.49550395  0.49550395  0.00526427  1
  Mo  Mo1  1  0.84602009  0.84602009  0.22630813  1
  P  P2  1  0.25266161  0.25266161  0.32873045  1
  P  P3  1  0.74722372  0.74722372  0.66986043  1
  W  W4  1  0.14983763  0.14983763  0.78075136  1
  O  O5  1  0.67683766  0.67683766  0.13241040  1
  O  O6  1  0.33141543  0.33141543  0.86036018  1
  O  O7  1  0.17113102  0.53900157  0.23473356  1
  O  O8  1  0.53900157  0.17113102  0.23473356  1
  O  O9  1  0.83624161  0.45984863  0.76542733  1
  O  O10  1  0.45984863  0.83624161  0.76542733  1
  O  O11  1  0.00465390  0.00465390  0.99159093  1
  O  O12  1  0.07365366  0.07365366  0.31162426  1
  O  O13  1  0.92597309  0.92597309  0.68646958  1
  O  O14  1  0.73072651  0.73072651  0.48070909  1
  O  O15  1  0.25926993  0.25926993  0.52559917  1
