# generated using pymatgen
data_Mn2CdTeO6
_symmetry_space_group_name_H-M   'P 1'
_cell_length_a   6.42175007
_cell_length_b   6.40553910
_cell_length_c   6.42172827
_cell_angle_alpha   90.64109415
_cell_angle_beta   90.54413142
_cell_angle_gamma   90.76736446
_symmetry_Int_Tables_number   1
_chemical_formula_structural   Mn2CdTeO6
_chemical_formula_sum   'Mn4 Cd2 Te2 O12'
_cell_volume   264.10380492
_cell_formula_units_Z   2
loop_
 _symmetry_equiv_pos_site_id
 _symmetry_equiv_pos_as_xyz
  1  'x, y, z'
loop_
 _atom_site_type_symbol
 _atom_site_label
 _atom_site_symmetry_multiplicity
 _atom_site_fract_x
 _atom_site_fract_y
 _atom_site_fract_z
 _atom_site_occupancy
  Mn  Mn0  1  0.74779231  0.56107397  0.05245537  1
  Mn  Mn1  1  0.43638272  0.94787464  0.24954550  1
  Mn  Mn2  1  0.94884489  0.25193883  0.43491521  1
  Mn  Mn3  1  0.25096397  0.43776372  0.94999363  1
  Cd  Cd4  1  0.56110538  0.05372041  0.75074122  1
  Cd  Cd5  1  0.05236573  0.74765438  0.56284786  1
  Te  Te6  1  0.49852238  0.49494329  0.49470096  1
  Te  Te7  1  0.99901862  0.00287199  0.00407616  1
  O  O8  1  0.43326991  0.78905817  0.54862346  1
  O  O9  1  0.79070120  0.55143719  0.42498298  1
  O  O10  1  0.55873533  0.44324269  0.79114925  1
  O  O11  1  0.56661329  0.20471695  0.42753493  1
  O  O12  1  0.20928346  0.42414365  0.56625604  1
  O  O13  1  0.43745580  0.56310838  0.20144272  1
  O  O14  1  0.92506959  0.05417407  0.71252077  1
  O  O15  1  0.04430189  0.70728591  0.93088883  1
  O  O16  1  0.71029504  0.91309010  0.05507201  1
  O  O17  1  0.08523645  0.96891944  0.29462367  1
  O  O18  1  0.95312993  0.29607193  0.08139964  1
  O  O19  1  0.29091210  0.08691030  0.96622977  1
