# generated using pymatgen
data_Li5Mn2CoO8
_symmetry_space_group_name_H-M   'P 1'
_cell_length_a   2.96858966
_cell_length_b   10.07361405
_cell_length_c   5.07517172
_cell_angle_alpha   79.29095278
_cell_angle_beta   75.90662508
_cell_angle_gamma   92.60647709
_symmetry_Int_Tables_number   1
_chemical_formula_structural   Li5Mn2CoO8
_chemical_formula_sum   'Li5 Mn2 Co1 O8'
_cell_volume   143.98121179
_cell_formula_units_Z   1
loop_
 _symmetry_equiv_pos_site_id
 _symmetry_equiv_pos_as_xyz
  1  'x, y, z'
loop_
 _atom_site_type_symbol
 _atom_site_label
 _atom_site_symmetry_multiplicity
 _atom_site_fract_x
 _atom_site_fract_y
 _atom_site_fract_z
 _atom_site_occupancy
  Li  Li0  1  0.74713765  0.12948639  0.49302338  1
  Li  Li1  1  0.25443865  0.37824454  0.48731740  1
  Li  Li2  1  0.77252191  0.61331790  0.49579837  1
  Li  Li3  1  0.23816450  0.87682465  0.51293172  1
  Li  Li4  1  0.98136743  0.49919699  0.01788944  1
  Mn  Mn5  1  0.00649496  0.00358794  0.99472007  1
  Mn  Mn6  1  0.50486475  0.74106804  0.00466055  1
  Co  Co7  1  0.49239637  0.26210201  0.99564392  1
  O  O8  1  0.36123160  0.07268795  0.22434198  1
  O  O9  1  0.85290820  0.30614237  0.22631364  1
  O  O10  1  0.37396096  0.57605899  0.24578781  1
  O  O11  1  0.91901664  0.81268009  0.21430776  1
  O  O12  1  0.13685397  0.18550061  0.77043497  1
  O  O13  1  0.61898861  0.41795058  0.76587220  1
  O  O14  1  0.08805520  0.69409343  0.78606264  1
  O  O15  1  0.65159859  0.93105751  0.76489416  1
