# generated using pymatgen
data_Mg4FeO5
_symmetry_space_group_name_H-M   'P 1'
_cell_length_a   3.04258035
_cell_length_b   6.73435371
_cell_length_c   5.25523311
_cell_angle_alpha   104.29839767
_cell_angle_beta   73.17311402
_cell_angle_gamma   103.05579498
_symmetry_Int_Tables_number   1
_chemical_formula_structural   Mg4FeO5
_chemical_formula_sum   'Mg4 Fe1 O5'
_cell_volume   98.48194929
_cell_formula_units_Z   1
loop_
 _symmetry_equiv_pos_site_id
 _symmetry_equiv_pos_as_xyz
  1  'x, y, z'
loop_
 _atom_site_type_symbol
 _atom_site_label
 _atom_site_symmetry_multiplicity
 _atom_site_fract_x
 _atom_site_fract_y
 _atom_site_fract_z
 _atom_site_occupancy
  Mg  Mg0  1  0.79957374  0.19895572  0.59980825  1
  Mg  Mg1  1  0.59845112  0.40016248  0.20326023  1
  Mg  Mg2  1  0.40154888  0.59983752  0.79673977  1
  Mg  Mg3  1  0.20042626  0.80104428  0.40019175  1
  Fe  Fe4  1  -0.00000000  0.00000000  0.00000000  1
  O  O5  1  0.79995725  0.69742236  0.09750785  1
  O  O6  1  0.20004275  0.30257764  0.90249215  1
  O  O7  1  -0.00000000  0.50000000  0.50000000  1
  O  O8  1  0.39625017  0.10639518  0.31389485  1
  O  O9  1  0.60374983  0.89360482  0.68610515  1
