# generated using pymatgen
data_Mn2CrAs3
_symmetry_space_group_name_H-M   'P 1'
_cell_length_a   3.43451413
_cell_length_b   5.57286775
_cell_length_c   18.27033749
_cell_angle_alpha   89.88238949
_cell_angle_beta   90.00000000
_cell_angle_gamma   90.00000000
_symmetry_Int_Tables_number   1
_chemical_formula_structural   Mn2CrAs3
_chemical_formula_sum   'Mn8 Cr4 As12'
_cell_volume   349.69522240
_cell_formula_units_Z   4
loop_
 _symmetry_equiv_pos_site_id
 _symmetry_equiv_pos_as_xyz
  1  'x, y, z'
loop_
 _atom_site_type_symbol
 _atom_site_label
 _atom_site_symmetry_multiplicity
 _atom_site_fract_x
 _atom_site_fract_y
 _atom_site_fract_z
 _atom_site_occupancy
  Mn  Mn0  1  0.75000000  0.99734043  0.60338161  1
  Mn  Mn1  1  0.75000000  0.99766592  0.93560666  1
  Mn  Mn2  1  0.25000000  0.50362345  0.10126420  1
  Mn  Mn3  1  0.25000000  0.50227753  0.43562575  1
  Mn  Mn4  1  0.25000000  0.50238503  0.76927525  1
  Mn  Mn5  1  0.25000000  0.00378124  0.06303137  1
  Mn  Mn6  1  0.25000000  0.00311110  0.39962914  1
  Mn  Mn7  1  0.25000000  0.00310937  0.73102559  1
  Cr  Cr8  1  0.75000000  0.49621187  0.23148828  1
  Cr  Cr9  1  0.75000000  0.49675746  0.56522547  1
  Cr  Cr10  1  0.75000000  0.49638450  0.89756560  1
  Cr  Cr11  1  0.75000000  0.99559172  0.26837589  1
  As  As12  1  0.75000000  0.30201451  0.02615616  1
  As  As13  1  0.75000000  0.29920707  0.36078403  1
  As  As14  1  0.75000000  0.30171478  0.69397594  1
  As  As15  1  0.75000000  0.79994935  0.13937554  1
  As  As16  1  0.75000000  0.80151570  0.47345972  1
  As  As17  1  0.75000000  0.80070435  0.80604049  1
  As  As18  1  0.25000000  0.70056557  0.30737368  1
  As  As19  1  0.25000000  0.70076573  0.64022099  1
  As  As20  1  0.25000000  0.70029860  0.97214522  1
  As  As21  1  0.25000000  0.20172047  0.19276305  1
  As  As22  1  0.25000000  0.19624911  0.52677961  1
  As  As23  1  0.25000000  0.19705514  0.85943076  1
