# generated using pymatgen
data_MgCd3(CO3)4
_symmetry_space_group_name_H-M   'P 1'
_cell_length_a   4.93907014
_cell_length_b   4.93907037
_cell_length_c   11.15903366
_cell_angle_alpha   77.21438422
_cell_angle_beta   90.00000270
_cell_angle_gamma   120.00000158
_symmetry_Int_Tables_number   1
_chemical_formula_structural   MgCd3(CO3)4
_chemical_formula_sum   'Mg1 Cd3 C4 O12'
_cell_volume   227.92063480
_cell_formula_units_Z   1
loop_
 _symmetry_equiv_pos_site_id
 _symmetry_equiv_pos_as_xyz
  1  'x, y, z'
loop_
 _atom_site_type_symbol
 _atom_site_label
 _atom_site_symmetry_multiplicity
 _atom_site_fract_x
 _atom_site_fract_y
 _atom_site_fract_z
 _atom_site_occupancy
  Mg  Mg0  1  0.25000000  0.50000000  0.25000000  1
  Cd  Cd1  1  0.75000000  0.50000000  0.75000000  1
  Cd  Cd2  1  0.99623065  0.99246130  0.01130805  1
  Cd  Cd3  1  0.50376935  0.00753870  0.48869195  1
  C  C4  1  0.87856822  0.75713645  0.36429533  1
  C  C5  1  0.37401420  0.74802839  0.87795741  1
  C  C6  1  0.62143178  0.24286355  0.13570467  1
  C  C7  1  0.12598580  0.25197161  0.62204259  1
  O  O8  1  0.91177689  0.03541443  0.36450993  1
  O  O9  1  0.36875396  0.00789780  0.87796292  1
  O  O10  1  0.12363755  0.72371318  0.36450993  1
  O  O11  1  0.63914384  0.75328311  0.87796292  1
  O  O12  1  0.60007564  0.51185252  0.36450993  1
  O  O13  1  0.11413928  0.48289324  0.87796292  1
  O  O14  1  0.37636245  0.27628682  0.13549007  1
  O  O15  1  0.86085616  0.24671689  0.62203708  1
  O  O16  1  0.89992436  0.48814748  0.13549007  1
  O  O17  1  0.38586072  0.51710676  0.62203708  1
  O  O18  1  0.58822311  0.96458557  0.13549007  1
  O  O19  1  0.13124604  0.99210220  0.62203708  1
