# generated using pymatgen
data_Li2MgGeO4
_symmetry_space_group_name_H-M   'P 1'
_cell_length_a   5.17441486
_cell_length_b   6.47527412
_cell_length_c   11.07307946
_cell_angle_alpha   90.00000000
_cell_angle_beta   90.00000000
_cell_angle_gamma   90.00000000
_symmetry_Int_Tables_number   1
_chemical_formula_structural   Li2MgGeO4
_chemical_formula_sum   'Li8 Mg4 Ge4 O16'
_cell_volume   371.01188338
_cell_formula_units_Z   4
loop_
 _symmetry_equiv_pos_site_id
 _symmetry_equiv_pos_as_xyz
  1  'x, y, z'
loop_
 _atom_site_type_symbol
 _atom_site_label
 _atom_site_symmetry_multiplicity
 _atom_site_fract_x
 _atom_site_fract_y
 _atom_site_fract_z
 _atom_site_occupancy
  Li  Li0  1  0.69368939  0.75360025  0.92505535  1
  Li  Li1  1  0.80631061  0.75360025  0.42505535  1
  Li  Li2  1  0.30631061  0.25360025  0.07494465  1
  Li  Li3  1  0.19368939  0.25360025  0.57494465  1
  Li  Li4  1  0.81428159  0.50144196  0.66408877  1
  Li  Li5  1  0.18571841  0.00144196  0.33591123  1
  Li  Li6  1  0.31428159  0.00144196  0.83591123  1
  Li  Li7  1  0.68571841  0.50144196  0.16408877  1
  Mg  Mg8  1  0.68399607  0.99657167  0.16789385  1
  Mg  Mg9  1  0.31600393  0.49657167  0.83210615  1
  Mg  Mg10  1  0.18399607  0.49657167  0.33210615  1
  Mg  Mg11  1  0.81600393  0.99657167  0.66789385  1
  Ge  Ge12  1  0.18357572  0.74920136  0.08465134  1
  Ge  Ge13  1  0.31642428  0.74920136  0.58465134  1
  Ge  Ge14  1  0.81642428  0.24920136  0.91534866  1
  Ge  Ge15  1  0.68357572  0.24920136  0.41534866  1
  O  O16  1  0.83815453  0.75388161  0.08960454  1
  O  O17  1  0.66184547  0.75388161  0.58960454  1
  O  O18  1  0.16184547  0.25388161  0.91039546  1
  O  O19  1  0.33815453  0.25388161  0.41039546  1
  O  O20  1  0.29751728  0.97359774  0.16143284  1
  O  O21  1  0.20676957  0.52496631  0.66275411  1
  O  O22  1  0.70248272  0.47359774  0.83856716  1
  O  O23  1  0.79323043  0.02496631  0.33724589  1
  O  O24  1  0.70676957  0.02496631  0.83724589  1
  O  O25  1  0.79751728  0.47359774  0.33856716  1
  O  O26  1  0.29323043  0.52496631  0.16275411  1
  O  O27  1  0.20248272  0.97359774  0.66143284  1
  O  O28  1  0.29475794  0.74673910  0.93369842  1
  O  O29  1  0.20524206  0.74673910  0.43369842  1
  O  O30  1  0.70524206  0.24673910  0.06630158  1
  O  O31  1  0.79475794  0.24673910  0.56630158  1
