# generated using pymatgen
data_Li2Al2CrSbO8
_symmetry_space_group_name_H-M   'P 1'
_cell_length_a   5.84329676
_cell_length_b   5.81789333
_cell_length_c   9.55486011
_cell_angle_alpha   89.78124805
_cell_angle_beta   90.00011802
_cell_angle_gamma   59.85513500
_symmetry_Int_Tables_number   1
_chemical_formula_structural   Li2Al2CrSbO8
_chemical_formula_sum   'Li4 Al4 Cr2 Sb2 O16'
_cell_volume   280.89150864
_cell_formula_units_Z   2
loop_
 _symmetry_equiv_pos_site_id
 _symmetry_equiv_pos_as_xyz
  1  'x, y, z'
loop_
 _atom_site_type_symbol
 _atom_site_label
 _atom_site_symmetry_multiplicity
 _atom_site_fract_x
 _atom_site_fract_y
 _atom_site_fract_z
 _atom_site_occupancy
  Li  Li0  1  0.66848811  0.66302192  0.55567847  1
  Li  Li1  1  0.33235265  0.33529516  0.05204236  1
  Li  Li2  1  0.00021619  0.99956712  0.96451210  1
  Li  Li3  1  0.99832671  0.00335134  0.47011410  1
  Al  Al4  1  0.82976560  0.34045909  0.24104860  1
  Al  Al5  1  0.65957018  0.16962006  0.74116451  1
  Al  Al6  1  0.17081158  0.16961938  0.74116481  1
  Al  Al7  1  0.17063141  0.65874005  0.74101770  1
  Cr  Cr8  1  0.33979903  0.83000158  0.24150247  1
  Cr  Cr9  1  0.83021415  0.82999401  0.24150631  1
  Sb  Sb10  1  0.66815669  0.66368876  0.96503374  1
  Sb  Sb11  1  0.33347006  0.33305746  0.47104577  1
  O  O12  1  0.99025530  0.01946924  0.15075004  1
  O  O13  1  0.99984466  0.00031539  0.65955567  1
  O  O14  1  0.32861036  0.83487695  0.85328925  1
  O  O15  1  0.83651821  0.83487283  0.85328956  1
  O  O16  1  0.83613908  0.32772473  0.85214778  1
  O  O17  1  0.66961872  0.17265521  0.35843374  1
  O  O18  1  0.15772265  0.17266244  0.35843072  1
  O  O19  1  0.16263770  0.67472596  0.36284236  1
  O  O20  1  0.67600141  0.64797913  0.34633762  1
  O  O21  1  0.33411858  0.33176934  0.84080706  1
  O  O22  1  0.96592472  0.51150864  0.11240648  1
  O  O23  1  0.52256434  0.51150975  0.11240428  1
  O  O24  1  0.51682799  0.96634287  0.10947530  1
  O  O25  1  0.03667587  0.48179808  0.61753760  1
  O  O26  1  0.48152469  0.48179577  0.61753691  1
  O  O27  1  0.48321334  0.03357776  0.61672472  1
