# generated using pymatgen
data_LaSm3Cr4O12
_symmetry_space_group_name_H-M   'P 1'
_cell_length_a   5.45994474
_cell_length_b   5.61053108
_cell_length_c   7.79154009
_cell_angle_alpha   90.00000000
_cell_angle_beta   90.00000000
_cell_angle_gamma   90.06190990
_symmetry_Int_Tables_number   1
_chemical_formula_structural   LaSm3Cr4O12
_chemical_formula_sum   'La1 Sm3 Cr4 O12'
_cell_volume   238.67958578
_cell_formula_units_Z   1
loop_
 _symmetry_equiv_pos_site_id
 _symmetry_equiv_pos_as_xyz
  1  'x, y, z'
loop_
 _atom_site_type_symbol
 _atom_site_label
 _atom_site_symmetry_multiplicity
 _atom_site_fract_x
 _atom_site_fract_y
 _atom_site_fract_z
 _atom_site_occupancy
  La  La0  1  0.51007962  0.54421516  0.25000000  1
  Sm  Sm1  1  0.98532719  0.05421788  0.25000000  1
  Sm  Sm2  1  0.48508621  0.44295731  0.75000000  1
  Sm  Sm3  1  0.01344382  0.94630157  0.75000000  1
  Cr  Cr4  1  0.99931527  0.50059655  0.99748345  1
  Cr  Cr5  1  0.50083995  0.99832843  0.50184893  1
  Cr  Cr6  1  0.99931527  0.50059655  0.50251655  1
  Cr  Cr7  1  0.50083995  0.99832843  0.99815107  1
  O  O8  1  0.80103551  0.79906139  0.04747412  1
  O  O9  1  0.70772214  0.29053784  0.45452674  1
  O  O10  1  0.20621096  0.20696515  0.55281559  1
  O  O11  1  0.29592232  0.70518077  0.94608379  1
  O  O12  1  0.20621096  0.20696515  0.94718441  1
  O  O13  1  0.29592232  0.70518077  0.55391621  1
  O  O14  1  0.80103551  0.79906139  0.45252588  1
  O  O15  1  0.70772214  0.29053784  0.04547326  1
  O  O16  1  0.40317522  0.98048833  0.25000000  1
  O  O17  1  0.08233709  0.47064565  0.25000000  1
  O  O18  1  0.59723552  0.02864062  0.75000000  1
  O  O19  1  0.90122304  0.53119320  0.75000000  1
