# generated using pymatgen
data_LaPr3Al4O12
_symmetry_space_group_name_H-M   'P 1'
_cell_length_a   5.36642060
_cell_length_b   5.36642060
_cell_length_c   7.62676407
_cell_angle_alpha   90.03807036
_cell_angle_beta   90.03807036
_cell_angle_gamma   90.03713762
_symmetry_Int_Tables_number   1
_chemical_formula_structural   LaPr3Al4O12
_chemical_formula_sum   'La1 Pr3 Al4 O12'
_cell_volume   219.63899382
_cell_formula_units_Z   1
loop_
 _symmetry_equiv_pos_site_id
 _symmetry_equiv_pos_as_xyz
  1  'x, y, z'
loop_
 _atom_site_type_symbol
 _atom_site_label
 _atom_site_symmetry_multiplicity
 _atom_site_fract_x
 _atom_site_fract_y
 _atom_site_fract_z
 _atom_site_occupancy
  La  La0  1  0.00012687  0.00012687  0.74974409  1
  Pr  Pr1  1  0.99947446  0.99947446  0.25065685  1
  Pr  Pr2  1  0.49942366  0.49942366  0.74971490  1
  Pr  Pr3  1  0.50058438  0.50058438  0.25018628  1
  Al  Al4  1  0.00002925  0.49992441  0.49951075  1
  Al  Al5  1  0.49996165  0.00007313  0.00047975  1
  Al  Al6  1  0.49992441  0.00002925  0.49951075  1
  Al  Al7  1  0.00007313  0.49996165  0.00047975  1
  O  O8  1  0.28563563  0.28563563  0.49613316  1
  O  O9  1  0.78474013  0.78474013  0.99791518  1
  O  O10  1  0.21525786  0.21525786  0.00575541  1
  O  O11  1  0.71416739  0.71416739  0.50396311  1
  O  O12  1  0.99559871  0.50443767  0.24965308  1
  O  O13  1  0.49620934  0.00428557  0.75025584  1
  O  O14  1  0.50443767  0.99559871  0.24965308  1
  O  O15  1  0.00428557  0.49620934  0.75025584  1
  O  O16  1  0.21541236  0.78458209  0.49825577  1
  O  O17  1  0.71460097  0.28547447  0.99981032  1
  O  O18  1  0.78458209  0.21541236  0.49825577  1
  O  O19  1  0.28547447  0.71460097  0.99981032  1
