# generated using pymatgen
data_Li7Mn(BO3)3
_symmetry_space_group_name_H-M   'P 1'
_cell_length_a   8.46431595
_cell_length_b   9.28140933
_cell_length_c   11.40943439
_cell_angle_alpha   71.60967754
_cell_angle_beta   79.11812622
_cell_angle_gamma   71.51020800
_symmetry_Int_Tables_number   1
_chemical_formula_structural   Li7Mn(BO3)3
_chemical_formula_sum   'Li28 Mn4 B12 O36'
_cell_volume   802.72157463
_cell_formula_units_Z   4
loop_
 _symmetry_equiv_pos_site_id
 _symmetry_equiv_pos_as_xyz
  1  'x, y, z'
loop_
 _atom_site_type_symbol
 _atom_site_label
 _atom_site_symmetry_multiplicity
 _atom_site_fract_x
 _atom_site_fract_y
 _atom_site_fract_z
 _atom_site_occupancy
  Li  Li0  1  0.58154715  0.83617446  0.24331607  1
  Li  Li1  1  0.41845285  0.16382554  0.75668393  1
  Li  Li2  1  0.65186141  0.99023852  0.95866950  1
  Li  Li3  1  0.34813859  0.00976148  0.04133050  1
  Li  Li4  1  0.94371573  0.15461085  0.48620445  1
  Li  Li5  1  0.05628427  0.84538915  0.51379555  1
  Li  Li6  1  0.16840415  0.57849314  0.95767924  1
  Li  Li7  1  0.83159585  0.42150686  0.04232076  1
  Li  Li8  1  0.79664174  0.95535757  0.40745625  1
  Li  Li9  1  0.20335826  0.04464243  0.59254375  1
  Li  Li10  1  0.98994178  0.34721903  0.61466849  1
  Li  Li11  1  0.01005822  0.65278097  0.38533151  1
  Li  Li12  1  0.67472987  0.34589324  0.69436972  1
  Li  Li13  1  0.32527013  0.65410676  0.30563028  1
  Li  Li14  1  0.49499171  0.91878508  0.62032926  1
  Li  Li15  1  0.50500829  0.08121492  0.37967074  1
  Li  Li16  1  0.78730564  0.89228585  0.65017919  1
  Li  Li17  1  0.21269436  0.10771415  0.34982081  1
  Li  Li18  1  0.88980165  0.83592904  0.19188963  1
  Li  Li19  1  0.11019835  0.16407096  0.80811037  1
  Li  Li20  1  0.96257658  0.88931101  0.96638534  1
  Li  Li21  1  0.03742342  0.11068899  0.03361466  1
  Li  Li22  1  0.15486481  0.73391124  0.72698751  1
  Li  Li23  1  0.84513519  0.26608876  0.27301249  1
  Li  Li24  1  0.80029862  0.23953211  0.89931861  1
  Li  Li25  1  0.19970138  0.76046789  0.10068139  1
  Li  Li26  1  0.83085423  0.70534027  0.87447615  1
  Li  Li27  1  0.16914577  0.29465973  0.12552385  1
  Mn  Mn28  1  0.53870099  0.60638985  0.84364519  1
  Mn  Mn29  1  0.46129901  0.39361015  0.15635481  1
  Mn  Mn30  1  0.70334645  0.52899200  0.41934935  1
  Mn  Mn31  1  0.29665355  0.47100800  0.58065065  1
  B  B32  1  0.77926155  0.66069802  0.60089355  1
  B  B33  1  0.22073845  0.33930198  0.39910645  1
  B  B34  1  0.90657396  0.02515564  0.73688168  1
  B  B35  1  0.09342604  0.97484436  0.26311832  1
  B  B36  1  0.45270406  0.30308765  0.93090437  1
  B  B37  1  0.54729594  0.69691235  0.06909563  1
  B  B38  1  0.37777619  0.78170388  0.47958813  1
  B  B39  1  0.62222381  0.21829612  0.52041187  1
  B  B40  1  0.94388345  0.57504239  0.17440692  1
  B  B41  1  0.05611655  0.42495761  0.82559308  1
  B  B42  1  0.26724649  0.89919107  0.84563633  1
  B  B43  1  0.73275351  0.10080893  0.15436367  1
  O  O44  1  0.29025292  0.74279643  0.84798768  1
  O  O45  1  0.70974708  0.25720357  0.15201232  1
  O  O46  1  0.88290258  0.74699470  0.52173675  1
  O  O47  1  0.11709742  0.25300530  0.47826325  1
  O  O48  1  0.27307093  0.70305773  0.56817716  1
  O  O49  1  0.72692907  0.29694227  0.43182284  1
  O  O50  1  0.82572241  0.92670081  0.82910737  1
  O  O51  1  0.17427759  0.07329919  0.17089263  1
  O  O52  1  0.67296069  0.72580634  0.69253270  1
  O  O53  1  0.32703931  0.27419366  0.30746730  1
  O  O54  1  0.47744851  0.70797163  0.39067064  1
  O  O55  1  0.52255149  0.29202837  0.60932936  1
  O  O56  1  0.17905904  0.95277136  0.94746635  1
  O  O57  1  0.82094096  0.04722864  0.05253365  1
  O  O58  1  0.37129452  0.93376041  0.47626783  1
  O  O59  1  0.62870548  0.06623959  0.52373217  1
  O  O60  1  0.99492786  0.96746298  0.63619943  1
  O  O61  1  0.00507214  0.03253702  0.36380057  1
  O  O62  1  0.68179838  0.99361215  0.25907612  1
  O  O63  1  0.31820162  0.00638785  0.74092388  1
  O  O64  1  0.65624512  0.62166348  0.98408107  1
  O  O65  1  0.34375488  0.37833652  0.01591893  1
  O  O66  1  0.95502557  0.42684156  0.16850222  1
  O  O67  1  0.04497443  0.57315844  0.83149778  1
  O  O68  1  0.98190700  0.31938279  0.91798543  1
  O  O69  1  0.01809300  0.68061721  0.08201457  1
  O  O70  1  0.85597306  0.63116782  0.27722144  1
  O  O71  1  0.14402694  0.36883218  0.72277856  1
  O  O72  1  0.77713171  0.51658666  0.58862427  1
  O  O73  1  0.22286829  0.48341334  0.41137573  1
  O  O74  1  0.44696205  0.16170073  0.92053844  1
  O  O75  1  0.55303795  0.83829927  0.07946156  1
  O  O76  1  0.90090713  0.17436618  0.74081038  1
  O  O77  1  0.09909287  0.82563382  0.25918962  1
  O  O78  1  0.57530647  0.37365984  0.85595105  1
  O  O79  1  0.42469353  0.62634016  0.14404895  1
