# generated using pymatgen
data_Li4MnCo2O7
_symmetry_space_group_name_H-M   'P 1'
_cell_length_a   2.91795346
_cell_length_b   16.84140716
_cell_length_c   5.12455606
_cell_angle_alpha   92.37213591
_cell_angle_beta   90.99192360
_cell_angle_gamma   88.01476480
_symmetry_Int_Tables_number   1
_chemical_formula_structural   Li4MnCo2O7
_chemical_formula_sum   'Li8 Mn2 Co4 O14'
_cell_volume   251.43458263
_cell_formula_units_Z   2
loop_
 _symmetry_equiv_pos_site_id
 _symmetry_equiv_pos_as_xyz
  1  'x, y, z'
loop_
 _atom_site_type_symbol
 _atom_site_label
 _atom_site_symmetry_multiplicity
 _atom_site_fract_x
 _atom_site_fract_y
 _atom_site_fract_z
 _atom_site_occupancy
  Li  Li0  1  0.92857100  0.14285700  0.35714300  1
  Li  Li1  1  0.36817774  0.28122811  0.20713461  1
  Li  Li2  1  0.78206425  0.43035290  0.07776137  1
  Li  Li3  1  0.21082309  0.57184107  0.93011153  1
  Li  Li4  1  0.64631991  0.71387393  0.78417347  1
  Li  Li5  1  0.07507875  0.85536110  0.63652463  1
  Li  Li6  1  0.48896526  0.00448589  0.50715139  1
  Li  Li7  1  0.42857100  0.14285700  0.85714300  1
  Mn  Mn8  1  0.99342605  0.00452834  0.98662726  1
  Mn  Mn9  1  0.86371695  0.28118566  0.72765874  1
  Co  Co10  1  0.29460873  0.42876792  0.56665633  1
  Co  Co11  1  0.71775899  0.57204796  0.42613392  1
  Co  Co12  1  0.13938401  0.71366704  0.28815108  1
  Co  Co13  1  0.56253427  0.85694608  0.14762967  1
  O  O14  1  0.48495089  0.06249343  0.15805567  1
  O  O15  1  0.88347553  0.22101645  0.01461960  1
  O  O16  1  0.35225088  0.35082658  0.87150328  1
  O  O17  1  0.74725468  0.49907699  0.72519758  1
  O  O18  1  0.14088582  0.64043222  0.58606252  1
  O  O19  1  0.56101291  0.78153895  0.45486178  1
  O  O20  1  0.01749042  0.92537576  0.29281982  1
  O  O21  1  0.37219211  0.22322057  0.55623033  1
  O  O22  1  0.83965258  0.36033824  0.42146618  1
  O  O23  1  0.29612909  0.50417505  0.25942422  1
  O  O24  1  0.71625718  0.64528178  0.12822348  1
  O  O25  1  0.10988832  0.78663701  0.98908842  1
  O  O26  1  0.50489212  0.93488842  0.84278172  1
  O  O27  1  0.97366747  0.06469855  0.69966540  1
