# generated using pymatgen
data_KRbMnF6
_symmetry_space_group_name_H-M   'P 1'
_cell_length_a   6.04157184
_cell_length_b   6.04157184
_cell_length_c   6.04157184
_cell_angle_alpha   90.00000000
_cell_angle_beta   60.00000000
_cell_angle_gamma   120.00000000
_symmetry_Int_Tables_number   1
_chemical_formula_structural   KRbMnF6
_chemical_formula_sum   'K1 Rb1 Mn1 F6'
_cell_volume   155.93185132
_cell_formula_units_Z   1
loop_
 _symmetry_equiv_pos_site_id
 _symmetry_equiv_pos_as_xyz
  1  'x, y, z'
loop_
 _atom_site_type_symbol
 _atom_site_label
 _atom_site_symmetry_multiplicity
 _atom_site_fract_x
 _atom_site_fract_y
 _atom_site_fract_z
 _atom_site_occupancy
  K  K0  1  0.50000000  0.75000000  0.75000000  1
  Rb  Rb1  1  0.50000000  0.25000000  0.25000000  1
  Mn  Mn2  1  0.00000000  0.00000000  0.00000000  1
  F  F3  1  0.43292528  0.21646264  0.78353736  1
  F  F4  1  0.00000000  0.78353736  0.78353736  1
  F  F5  1  0.00000000  0.21646264  0.78353736  1
  F  F6  1  0.56707472  0.78353736  0.21646264  1
  F  F7  1  0.00000000  0.21646264  0.21646264  1
  F  F8  1  0.00000000  0.78353736  0.21646264  1
