# generated using pymatgen
data_La4Fe(NiO4)3
_symmetry_space_group_name_H-M   'P 1'
_cell_length_a   5.47421727
_cell_length_b   5.47053037
_cell_length_c   9.57882042
_cell_angle_alpha   73.95730377
_cell_angle_beta   91.02339676
_cell_angle_gamma   61.07132622
_symmetry_Int_Tables_number   1
_chemical_formula_structural   La4Fe(NiO4)3
_chemical_formula_sum   'La4 Fe1 Ni3 O12'
_cell_volume   237.33718187
_cell_formula_units_Z   1
loop_
 _symmetry_equiv_pos_site_id
 _symmetry_equiv_pos_as_xyz
  1  'x, y, z'
loop_
 _atom_site_type_symbol
 _atom_site_label
 _atom_site_symmetry_multiplicity
 _atom_site_fract_x
 _atom_site_fract_y
 _atom_site_fract_z
 _atom_site_occupancy
  La  La0  1  0.37257315  0.25405305  0.12034438  1
  La  La1  1  0.87891946  0.24710223  0.63022294  1
  La  La2  1  0.12108054  0.75289777  0.36977706  1
  La  La3  1  0.62742685  0.74594695  0.87965562  1
  Fe  Fe4  1  0.50000000  -0.00000000  0.50000000  1
  Ni  Ni5  1  0.74792854  0.50146108  0.24891768  1
  Ni  Ni6  1  0.25207146  0.49853892  0.75108232  1
  Ni  Ni7  1  0.00000000  -0.00000000  -0.00000000  1
  O  O8  1  0.93571741  0.69035120  0.12469483  1
  O  O9  1  0.43777591  0.69043926  0.62365019  1
  O  O10  1  0.09699346  0.24757092  0.40712587  1
  O  O11  1  0.59813589  0.24881618  0.90586923  1
  O  O12  1  0.59256973  0.81437853  0.34532081  1
  O  O13  1  0.09550678  0.81048704  0.84516920  1
  O  O14  1  0.40186411  0.75118382  0.09413077  1
  O  O15  1  0.90300654  0.75242908  0.59287413  1
  O  O16  1  0.90449322  0.18951296  0.15483080  1
  O  O17  1  0.40743027  0.18562147  0.65467919  1
  O  O18  1  0.56222409  0.30956074  0.37634981  1
  O  O19  1  0.06428259  0.30964880  0.87530517  1
