# generated using pymatgen
data_La3Ga5SiO14
_symmetry_space_group_name_H-M   'P 1'
_cell_length_a   5.14873260
_cell_length_b   8.26298256
_cell_length_c   8.26290991
_cell_angle_alpha   120.00068911
_cell_angle_beta   89.99980977
_cell_angle_gamma   90.00063795
_symmetry_Int_Tables_number   1
_chemical_formula_structural   La3Ga5SiO14
_chemical_formula_sum   'La3 Ga5 Si1 O14'
_cell_volume   304.43726180
_cell_formula_units_Z   1
loop_
 _symmetry_equiv_pos_site_id
 _symmetry_equiv_pos_as_xyz
  1  'x, y, z'
loop_
 _atom_site_type_symbol
 _atom_site_label
 _atom_site_symmetry_multiplicity
 _atom_site_fract_x
 _atom_site_fract_y
 _atom_site_fract_z
 _atom_site_occupancy
  La  La0  1  0.00460001  0.41129171  0.42003250  1
  La  La1  1  0.00461102  0.57998577  0.99125198  1
  La  La2  1  0.00460648  0.00877712  0.58874348  1
  Ga  Ga3  1  0.49500412  0.76386092  0.76160114  1
  Ga  Ga4  1  0.49500331  0.23839282  0.00224717  1
  Ga  Ga5  1  0.49500867  0.99774433  0.23614186  1
  Ga  Ga6  1  0.99834268  0.99999629  -0.00000106  1
  Ga  Ga7  1  0.47365950  0.33334219  0.66667035  1
  Si  Si8  1  0.54272415  0.66663992  0.33331682  1
  O  O9  1  0.22617045  0.66663930  0.33332090  1
  O  O10  1  0.82668425  0.33335732  0.66668218  1
  O  O11  1  0.30353215  0.14473074  0.45854105  1
  O  O12  1  0.30351799  0.54147079  0.68619924  1
  O  O13  1  0.30352222  0.31380695  0.85526497  1
  O  O14  1  0.67668527  0.83877771  0.31330705  1
  O  O15  1  0.67669308  0.68668235  0.52547284  1
  O  O16  1  0.67669927  0.47452037  0.16121948  1
  O  O17  1  0.76282612  0.13864444  0.22451098  1
  O  O18  1  0.76280832  0.77549769  0.91414232  1
  O  O19  1  0.76280789  0.08585600  0.86134573  1
  O  O20  1  0.23482866  0.85401028  0.07623841  1
  O  O21  1  0.23483484  0.92376046  0.77776657  1
  O  O22  1  0.23482957  0.22221452  0.14598405  1
