# generated using pymatgen
data_KRb(Fe2S3)2
_symmetry_space_group_name_H-M   'P 1'
_cell_length_a   5.17762599
_cell_length_b   7.19365701
_cell_length_c   7.19365701
_cell_angle_alpha   102.78310649
_cell_angle_beta   90.00000000
_cell_angle_gamma   90.00000000
_symmetry_Int_Tables_number   1
_chemical_formula_structural   KRb(Fe2S3)2
_chemical_formula_sum   'K1 Rb1 Fe4 S6'
_cell_volume   261.29454296
_cell_formula_units_Z   1
loop_
 _symmetry_equiv_pos_site_id
 _symmetry_equiv_pos_as_xyz
  1  'x, y, z'
loop_
 _atom_site_type_symbol
 _atom_site_label
 _atom_site_symmetry_multiplicity
 _atom_site_fract_x
 _atom_site_fract_y
 _atom_site_fract_z
 _atom_site_occupancy
  K  K0  1  0.25000000  0.67046558  0.32953442  1
  Rb  Rb1  1  0.75000000  0.32935729  0.67064271  1
  Fe  Fe2  1  0.50023350  0.85856203  0.85783970  1
  Fe  Fe3  1  0.99976650  0.85856203  0.85783970  1
  Fe  Fe4  1  0.50023350  0.14216030  0.14143797  1
  Fe  Fe5  1  0.99976650  0.14216030  0.14143797  1
  S  S6  1  0.75000000  0.83031839  0.61736183  1
  S  S7  1  0.25000000  0.61968484  0.83434941  1
  S  S8  1  0.25000000  0.16565059  0.38031516  1
  S  S9  1  0.75000000  0.38263817  0.16968161  1
  S  S10  1  0.75000000  0.89194436  0.10805564  1
  S  S11  1  0.25000000  0.10849613  0.89150387  1
