# generated using pymatgen
data_La3NdMn4O12
_symmetry_space_group_name_H-M   'P 1'
_cell_length_a   5.76977670
_cell_length_b   5.56553194
_cell_length_c   7.84989304
_cell_angle_alpha   90.00000000
_cell_angle_beta   90.00000000
_cell_angle_gamma   89.93000470
_symmetry_Int_Tables_number   1
_chemical_formula_structural   La3NdMn4O12
_chemical_formula_sum   'La3 Nd1 Mn4 O12'
_cell_volume   252.07460800
_cell_formula_units_Z   1
loop_
 _symmetry_equiv_pos_site_id
 _symmetry_equiv_pos_as_xyz
  1  'x, y, z'
loop_
 _atom_site_type_symbol
 _atom_site_label
 _atom_site_symmetry_multiplicity
 _atom_site_fract_x
 _atom_site_fract_y
 _atom_site_fract_z
 _atom_site_occupancy
  La  La0  1  0.95019034  0.00972927  0.75000000  1
  La  La1  1  0.54752049  0.50900707  0.25000000  1
  La  La2  1  0.04962707  0.98990771  0.25000000  1
  Nd  Nd3  1  0.44318995  0.48826324  0.75000000  1
  Mn  Mn4  1  0.50027361  0.99971091  0.99872252  1
  Mn  Mn5  1  0.99928057  0.50037882  0.50067659  1
  Mn  Mn6  1  0.50027361  0.99971091  0.50127748  1
  Mn  Mn7  1  0.99928057  0.50037882  0.99932341  1
  O  O8  1  0.02280946  0.58267070  0.75000000  1
  O  O9  1  0.51811966  0.90988159  0.75000000  1
  O  O10  1  0.98222319  0.41760433  0.25000000  1
  O  O11  1  0.48333419  0.08101574  0.25000000  1
  O  O12  1  0.19899403  0.22057642  0.95514918  1
  O  O13  1  0.69418616  0.28415480  0.54636706  1
  O  O14  1  0.80469353  0.78366010  0.45737287  1
  O  O15  1  0.30406494  0.71747912  0.04140140  1
  O  O16  1  0.80469353  0.78366010  0.04262713  1
  O  O17  1  0.30406494  0.71747912  0.45859860  1
  O  O18  1  0.19899403  0.22057642  0.54485082  1
  O  O19  1  0.69418616  0.28415480  0.95363294  1
