# generated using pymatgen
data_La3NdCr4O12
_symmetry_space_group_name_H-M   'P 1'
_cell_length_a   5.57505345
_cell_length_b   5.57383848
_cell_length_c   7.87286150
_cell_angle_alpha   90.00000000
_cell_angle_beta   90.00000000
_cell_angle_gamma   89.93659268
_symmetry_Int_Tables_number   1
_chemical_formula_structural   La3NdCr4O12
_chemical_formula_sum   'La3 Nd1 Cr4 O12'
_cell_volume   244.64467099
_cell_formula_units_Z   1
loop_
 _symmetry_equiv_pos_site_id
 _symmetry_equiv_pos_as_xyz
  1  'x, y, z'
loop_
 _atom_site_type_symbol
 _atom_site_label
 _atom_site_symmetry_multiplicity
 _atom_site_fract_x
 _atom_site_fract_y
 _atom_site_fract_z
 _atom_site_occupancy
  La  La0  1  0.97061169  0.00737069  0.75000000  1
  La  La1  1  0.52818766  0.50703680  0.25000000  1
  La  La2  1  0.02948822  0.99180581  0.25000000  1
  Nd  Nd3  1  0.46332001  0.48938623  0.75000000  1
  Cr  Cr4  1  0.50030733  0.99977393  0.99899547  1
  Cr  Cr5  1  0.99917504  0.50015093  0.50064662  1
  Cr  Cr6  1  0.50030733  0.99977393  0.50100453  1
  Cr  Cr7  1  0.99917504  0.50015093  0.99935338  1
  O  O8  1  0.78362674  0.78353582  0.04308531  1
  O  O9  1  0.28285623  0.71754436  0.45798341  1
  O  O10  1  0.22012263  0.22058757  0.54597230  1
  O  O11  1  0.71517372  0.28473443  0.95364998  1
  O  O12  1  0.22012263  0.22058757  0.95402770  1
  O  O13  1  0.71517372  0.28473443  0.54635002  1
  O  O14  1  0.78362674  0.78353582  0.45691469  1
  O  O15  1  0.28285623  0.71754436  0.04201659  1
  O  O16  1  0.01986441  0.58031183  0.75000000  1
  O  O17  1  0.51443222  0.91227684  0.75000000  1
  O  O18  1  0.98565534  0.41941975  0.25000000  1
  O  O19  1  0.48591708  0.07973797  0.25000000  1
