# generated using pymatgen
data_Li4MnCo2O7
_symmetry_space_group_name_H-M   'P 1'
_cell_length_a   2.94506137
_cell_length_b   11.25942974
_cell_length_c   7.76245404
_cell_angle_alpha   99.28452978
_cell_angle_beta   98.00114290
_cell_angle_gamma   83.03385740
_symmetry_Int_Tables_number   1
_chemical_formula_structural   Li4MnCo2O7
_chemical_formula_sum   'Li8 Mn2 Co4 O14'
_cell_volume   250.26624835
_cell_formula_units_Z   2
loop_
 _symmetry_equiv_pos_site_id
 _symmetry_equiv_pos_as_xyz
  1  'x, y, z'
loop_
 _atom_site_type_symbol
 _atom_site_label
 _atom_site_symmetry_multiplicity
 _atom_site_fract_x
 _atom_site_fract_y
 _atom_site_fract_z
 _atom_site_occupancy
  Li  Li0  1  0.76489985  0.07848731  0.64014608  1
  Li  Li1  1  0.93651180  0.34485352  0.21427095  1
  Li  Li2  1  0.06890271  0.64164983  0.78396975  1
  Li  Li3  1  0.22235666  0.93222540  0.35997933  1
  Li  Li4  1  0.37004641  0.21434626  0.93947434  1
  Li  Li5  1  0.49805348  0.49853869  0.49939386  1
  Li  Li6  1  0.64106315  0.78574436  0.06998272  1
  Li  Li7  1  0.55126182  0.14770454  0.27895832  1
  Mn  Mn8  1  0.00275888  0.00724264  0.00848191  1
  Mn  Mn9  1  0.28063970  0.57191058  0.14374696  1
  Co  Co10  1  0.14030206  0.27872734  0.55902460  1
  Co  Co11  1  0.44610399  0.85516706  0.71481142  1
  Co  Co12  1  0.70849588  0.42443004  0.85396075  1
  Co  Co13  1  0.86363733  0.71430632  0.43002730  1
  O  O14  1  0.43393807  0.02946077  0.84300051  1
  O  O15  1  0.51681404  0.31931784  0.40710125  1
  O  O16  1  0.64114789  0.59901817  0.96145768  1
  O  O17  1  0.82397174  0.88512975  0.54127099  1
  O  O18  1  0.96022770  0.16773138  0.09870231  1
  O  O19  1  0.11861490  0.44739319  0.67883837  1
  O  O20  1  0.21929628  0.74417324  0.25479973  1
  O  O21  1  0.18105086  0.12311186  0.48115998  1
  O  O22  1  0.30893056  0.40112778  0.03313426  1
  O  O23  1  0.49289621  0.68309708  0.59784933  1
  O  O24  1  0.57487041  0.96849999  0.15757336  1
  O  O25  1  0.77501260  0.25835187  0.74209994  1
  O  O26  1  0.91214861  0.54664950  0.32164473  1
  O  O27  1  0.04604639  0.83160367  0.88513927  1
