# generated using pymatgen
data_La5Mg2Mn3O15
_symmetry_space_group_name_H-M   'P 1'
_cell_length_a   7.85598693
_cell_length_b   9.49860832
_cell_length_c   9.64818677
_cell_angle_alpha   81.34380172
_cell_angle_beta   113.66617429
_cell_angle_gamma   113.23381173
_symmetry_Int_Tables_number   1
_chemical_formula_structural   La5Mg2Mn3O15
_chemical_formula_sum   'La10 Mg4 Mn6 O30'
_cell_volume   605.90569421
_cell_formula_units_Z   2
loop_
 _symmetry_equiv_pos_site_id
 _symmetry_equiv_pos_as_xyz
  1  'x, y, z'
loop_
 _atom_site_type_symbol
 _atom_site_label
 _atom_site_symmetry_multiplicity
 _atom_site_fract_x
 _atom_site_fract_y
 _atom_site_fract_z
 _atom_site_occupancy
  La  La0  1  0.65251835  0.10219517  0.69928779  1
  La  La1  1  0.44937786  0.30327055  0.10174040  1
  La  La2  1  0.85040330  0.89920109  0.30205064  1
  La  La3  1  0.24995814  0.50118529  0.50089395  1
  La  La4  1  0.04658978  0.69988488  0.89827221  1
  La  La5  1  0.75004186  0.49881471  0.49910605  1
  La  La6  1  0.55062214  0.69672945  0.89825960  1
  La  La7  1  0.95341022  0.30011512  0.10172779  1
  La  La8  1  0.34748165  0.89780483  0.30071221  1
  La  La9  1  0.14959670  0.10079891  0.69794936  1
  Mg  Mg10  1  0.89962502  0.59971968  0.19955414  1
  Mg  Mg11  1  0.30002666  0.19955753  0.40023218  1
  Mg  Mg12  1  0.69997334  0.80044247  0.59976782  1
  Mg  Mg13  1  0.10037498  0.40028032  0.80044586  1
  Mn  Mn14  1  0.80033240  0.20019803  0.40047244  1
  Mn  Mn15  1  0.60025297  0.40047027  0.79969285  1
  Mn  Mn16  1  -0.00000000  0.00000000  0.00000000  1
  Mn  Mn17  1  0.39974703  0.59952973  0.20030715  1
  Mn  Mn18  1  0.19966760  0.79980197  0.59952756  1
  Mn  Mn19  1  0.50000000  0.00000000  0.00000000  1
  O  O20  1  0.79273815  0.38013263  0.27749941  1
  O  O21  1  0.19346207  0.98037605  0.47786906  1
  O  O22  1  0.59260607  0.58179996  0.67707929  1
  O  O23  1  0.99378683  0.18080712  0.87735028  1
  O  O24  1  0.39162060  0.78039543  0.07747070  1
  O  O25  1  0.78391322  0.52529971  0.97870524  1
  O  O26  1  0.18391305  0.12591378  0.17904960  1
  O  O27  1  0.58405420  0.72575994  0.37857779  1
  O  O28  1  0.98606368  0.32604241  0.58030964  1
  O  O29  1  0.38557293  0.92592557  0.77878543  1
  O  O30  1  0.17339920  0.58814409  0.24152369  1
  O  O31  1  0.57370503  0.18822119  0.44161452  1
  O  O32  1  0.97346756  0.78918970  0.64096419  1
  O  O33  1  0.37472621  0.38979608  0.84232809  1
  O  O34  1  0.76827994  0.98818814  0.04260044  1
  O  O35  1  0.00621317  0.81919288  0.12264972  1
  O  O36  1  0.40739393  0.41820004  0.32292071  1
  O  O37  1  0.80653793  0.01962395  0.52213094  1
  O  O38  1  0.20726185  0.61986737  0.72250059  1
  O  O39  1  0.60837940  0.21960457  0.92252930  1
  O  O40  1  0.01393632  0.67395759  0.41969036  1
  O  O41  1  0.41594580  0.27424006  0.62142221  1
  O  O42  1  0.81608695  0.87408622  0.82095040  1
  O  O43  1  0.21608678  0.47470029  0.02129476  1
  O  O44  1  0.61442707  0.07407443  0.22121457  1
  O  O45  1  0.62527379  0.61020392  0.15767191  1
  O  O46  1  0.02653244  0.21081030  0.35903581  1
  O  O47  1  0.42629497  0.81177881  0.55838548  1
  O  O48  1  0.82660080  0.41185591  0.75847631  1
  O  O49  1  0.23172006  0.01181186  0.95739956  1
