# generated using pymatgen
data_La3Sm(FeO3)4
_symmetry_space_group_name_H-M   'P 1'
_cell_length_a   5.55545297
_cell_length_b   5.66910517
_cell_length_c   7.91368510
_cell_angle_alpha   90.00000000
_cell_angle_beta   90.00000000
_cell_angle_gamma   89.85675692
_symmetry_Int_Tables_number   1
_chemical_formula_structural   La3Sm(FeO3)4
_chemical_formula_sum   'La3 Sm1 Fe4 O12'
_cell_volume   249.23635824
_cell_formula_units_Z   1
loop_
 _symmetry_equiv_pos_site_id
 _symmetry_equiv_pos_as_xyz
  1  'x, y, z'
loop_
 _atom_site_type_symbol
 _atom_site_label
 _atom_site_symmetry_multiplicity
 _atom_site_fract_x
 _atom_site_fract_y
 _atom_site_fract_z
 _atom_site_occupancy
  La  La0  1  0.99187685  0.04442869  0.25000000  1
  La  La1  1  0.49182208  0.45820003  0.75000000  1
  La  La2  1  0.00920504  0.95636009  0.75000000  1
  Sm  Sm3  1  0.50958898  0.55358802  0.25000000  1
  Fe  Fe4  1  0.49954010  0.00139420  0.00154894  1
  Fe  Fe5  1  0.00029015  0.49929309  0.49763462  1
  Fe  Fe6  1  0.49954010  0.00139420  0.49845106  1
  Fe  Fe7  1  0.00029015  0.49929309  0.00236538  1
  O  O8  1  0.79263095  0.79297051  0.04572650  1
  O  O9  1  0.69985238  0.30066171  0.45068774  1
  O  O10  1  0.20197112  0.20171299  0.54287134  1
  O  O11  1  0.29628436  0.70307700  0.95888487  1
  O  O12  1  0.20197112  0.20171299  0.95712866  1
  O  O13  1  0.29628436  0.70307700  0.54111513  1
  O  O14  1  0.79263095  0.79297051  0.45427350  1
  O  O15  1  0.69985238  0.30066171  0.04931226  1
  O  O16  1  0.41845474  0.96861583  0.25000000  1
  O  O17  1  0.09621739  0.47786997  0.25000000  1
  O  O18  1  0.58206719  0.02228463  0.75000000  1
  O  O19  1  0.91962963  0.52043375  0.75000000  1
