# generated using pymatgen
data_KAlCo3Si3(HO6)2
_symmetry_space_group_name_H-M   'P 1'
_cell_length_a   5.37125213
_cell_length_b   10.57146081
_cell_length_c   5.37427715
_cell_angle_alpha   80.31977657
_cell_angle_beta   60.07761261
_cell_angle_gamma   85.37812239
_symmetry_Int_Tables_number   1
_chemical_formula_structural   KAlCo3Si3(HO6)2
_chemical_formula_sum   'K1 Al1 Co3 Si3 H2 O12'
_cell_volume   260.71679012
_cell_formula_units_Z   1
loop_
 _symmetry_equiv_pos_site_id
 _symmetry_equiv_pos_as_xyz
  1  'x, y, z'
loop_
 _atom_site_type_symbol
 _atom_site_label
 _atom_site_symmetry_multiplicity
 _atom_site_fract_x
 _atom_site_fract_y
 _atom_site_fract_z
 _atom_site_occupancy
  K  K0  1  0.99973635  0.01951530  0.99361539  1
  Al  Al1  1  0.66634720  0.23022733  0.59025916  1
  Co  Co2  1  0.33713334  0.49496477  0.83444176  1
  Co  Co3  1  0.66374767  0.49573249  0.17101509  1
  Co  Co4  1  0.00082794  0.49619272  0.49669737  1
  Si  Si5  1  0.33411038  0.22473368  0.25805311  1
  Si  Si6  1  0.33176333  0.76793568  0.41118091  1
  Si  Si7  1  0.66563802  0.76785193  0.74656066  1
  H  H8  1  0.99986582  0.30797328  0.88744168  1
  H  H9  1  0.00397537  0.69448392  0.10876778  1
  O  O10  1  0.00002146  0.40078653  0.86238999  1
  O  O11  1  0.00454650  0.60184088  0.12993650  1
  O  O12  1  0.01189783  0.16997838  0.49810739  1
  O  O13  1  0.99903074  0.82674816  0.53567106  1
  O  O14  1  0.66420037  0.39928723  0.53506269  1
  O  O15  1  0.33605972  0.38481426  0.20405009  1
  O  O16  1  0.32918175  0.61348641  0.46063120  1
  O  O17  1  0.66524704  0.61341390  0.80206082  1
  O  O18  1  0.55393943  0.16859663  0.37781565  1
  O  O19  1  0.43373216  0.16879084  0.95597772  1
  O  O20  1  0.47734471  0.82516180  0.58143783  1
  O  O21  1  0.52165288  0.82748389  0.05882616  1
