# generated using pymatgen
data_KH3(SeO3)2
_symmetry_space_group_name_H-M   'P 1'
_cell_length_a   6.43851907
_cell_length_b   6.47697740
_cell_length_c   16.20575417
_cell_angle_alpha   90.00000000
_cell_angle_beta   90.00000000
_cell_angle_gamma   90.00000000
_symmetry_Int_Tables_number   1
_chemical_formula_structural   KH3(SeO3)2
_chemical_formula_sum   'K4 H12 Se8 O24'
_cell_volume   675.81466981
_cell_formula_units_Z   4
loop_
 _symmetry_equiv_pos_site_id
 _symmetry_equiv_pos_as_xyz
  1  'x, y, z'
loop_
 _atom_site_type_symbol
 _atom_site_label
 _atom_site_symmetry_multiplicity
 _atom_site_fract_x
 _atom_site_fract_y
 _atom_site_fract_z
 _atom_site_occupancy
  K  K0  1  0.81139243  0.74809721  0.49519871  1
  K  K1  1  0.68860757  0.25190279  0.99519871  1
  K  K2  1  0.18860757  0.24809721  0.49519871  1
  K  K3  1  0.31139243  0.75190279  0.99519871  1
  H  H4  1  0.56192979  0.96447079  0.17407541  1
  H  H5  1  0.93995891  0.46851332  0.32496646  1
  H  H6  1  0.93807021  0.03552921  0.67407541  1
  H  H7  1  0.56004109  0.53148668  0.82496646  1
  H  H8  1  0.43995891  0.03148668  0.82496646  1
  H  H9  1  0.06192979  0.53552921  0.67407541  1
  H  H10  1  0.06004109  0.96851332  0.32496646  1
  H  H11  1  0.43807021  0.46447079  0.17407541  1
  H  H12  1  0.87395570  0.76653210  0.01020662  1
  H  H13  1  0.62604430  0.23346790  0.51020662  1
  H  H14  1  0.37395570  0.73346790  0.51020662  1
  H  H15  1  0.12604430  0.26653210  0.01020662  1
  Se  Se16  1  0.80614637  0.70605386  0.15284911  1
  Se  Se17  1  0.69050536  0.21244636  0.35099174  1
  Se  Se18  1  0.69385363  0.29394614  0.65284911  1
  Se  Se19  1  0.80949464  0.78755364  0.85099174  1
  Se  Se20  1  0.19050536  0.28755364  0.85099174  1
  Se  Se21  1  0.30614637  0.79394614  0.65284911  1
  Se  Se22  1  0.30949464  0.71244636  0.35099174  1
  Se  Se23  1  0.19385363  0.20605386  0.15284911  1
  O  O24  1  0.60700253  0.57133547  0.11192722  1
  O  O25  1  0.89326813  0.07334052  0.38869351  1
  O  O26  1  0.89299747  0.42866453  0.61192722  1
  O  O27  1  0.60673187  0.92665948  0.88869351  1
  O  O28  1  0.39326813  0.42665948  0.88869351  1
  O  O29  1  0.10700253  0.92866453  0.61192722  1
  O  O30  1  0.10673187  0.57334052  0.38869351  1
  O  O31  1  0.39299747  0.07133547  0.11192722  1
  O  O32  1  0.68261054  0.90928915  0.20823012  1
  O  O33  1  0.82261574  0.40792742  0.29031121  1
  O  O34  1  0.81738946  0.09071085  0.70823012  1
  O  O35  1  0.67738426  0.59207258  0.79031121  1
  O  O36  1  0.32261574  0.09207258  0.79031121  1
  O  O37  1  0.18261054  0.59071085  0.70823012  1
  O  O38  1  0.17738426  0.90792742  0.29031121  1
  O  O39  1  0.31738946  0.40928915  0.20823012  1
  O  O40  1  0.88472855  0.85754502  0.06616710  1
  O  O41  1  0.61433128  0.35230070  0.43638279  1
  O  O42  1  0.61527145  0.14245498  0.56616710  1
  O  O43  1  0.88566872  0.64769930  0.93638279  1
  O  O44  1  0.11433128  0.14769930  0.93638279  1
  O  O45  1  0.38472855  0.64245498  0.56616710  1
  O  O46  1  0.38566872  0.85230070  0.43638279  1
  O  O47  1  0.11527145  0.35754502  0.06616710  1
