# generated using pymatgen
data_K5Bi4
_symmetry_space_group_name_H-M   'P 1'
_cell_length_a   5.67821816
_cell_length_b   7.00005633
_cell_length_c   11.49997449
_cell_angle_alpha   85.86299750
_cell_angle_beta   75.70706282
_cell_angle_gamma   113.92770900
_symmetry_Int_Tables_number   1
_chemical_formula_structural   K5Bi4
_chemical_formula_sum   'K5 Bi4'
_cell_volume   397.15079520
_cell_formula_units_Z   1
loop_
 _symmetry_equiv_pos_site_id
 _symmetry_equiv_pos_as_xyz
  1  'x, y, z'
loop_
 _atom_site_type_symbol
 _atom_site_label
 _atom_site_symmetry_multiplicity
 _atom_site_fract_x
 _atom_site_fract_y
 _atom_site_fract_z
 _atom_site_occupancy
  K  K0  1  0.58657097  0.84069057  0.66754864  1
  K  K1  1  0.40662967  0.14794187  0.33468254  1
  K  K2  1  0.70578998  0.30039862  0.88881866  1
  K  K3  1  0.29123765  0.69673755  0.11426226  1
  K  K4  1  0.99686682  0.49047133  0.49673769  1
  Bi  Bi5  1  0.28386459  0.24056255  0.67283337  1
  Bi  Bi6  1  0.71105180  0.75447908  0.33237549  1
  Bi  Bi7  1  0.99588248  0.88505571  0.89329076  1
  Bi  Bi8  1  0.99910605  0.10866271  0.11045060  1
