# generated using pymatgen
data_K5BrCl4
_symmetry_space_group_name_H-M   'P 1'
_cell_length_a   4.56607168
_cell_length_b   4.56607168
_cell_length_c   18.85235480
_cell_angle_alpha   96.95564173
_cell_angle_beta   83.04435827
_cell_angle_gamma   120.00000000
_symmetry_Int_Tables_number   1
_chemical_formula_structural   K5BrCl4
_chemical_formula_sum   'K5 Br1 Cl4'
_cell_volume   337.04939258
_cell_formula_units_Z   1
loop_
 _symmetry_equiv_pos_site_id
 _symmetry_equiv_pos_as_xyz
  1  'x, y, z'
loop_
 _atom_site_type_symbol
 _atom_site_label
 _atom_site_symmetry_multiplicity
 _atom_site_fract_x
 _atom_site_fract_y
 _atom_site_fract_z
 _atom_site_occupancy
  K  K0  1  0.40008516  0.59991484  0.79974452  1
  K  K1  1  0.19991484  0.80008516  0.40025548  1
  K  K2  1  0.80000000  0.20000000  0.60000000  1
  K  K3  1  0.00176954  0.99823046  0.99469139  1
  K  K4  1  0.59823046  0.40176954  0.20530861  1
  Br  Br5  1  0.30000000  0.70000000  0.10000000  1
  Cl  Cl6  1  0.89948588  0.10051412  0.30154236  1
  Cl  Cl7  1  0.49999879  0.50000121  0.50000364  1
  Cl  Cl8  1  0.10000121  0.89999879  0.69999636  1
  Cl  Cl9  1  0.70051412  0.29948588  0.89845764  1
