# generated using pymatgen
data_LaCeSb2(SBr)4
_symmetry_space_group_name_H-M   'P 1'
_cell_length_a   8.76112392
_cell_length_b   9.35497257
_cell_length_c   17.57773069
_cell_angle_alpha   90.00000000
_cell_angle_beta   104.26436600
_cell_angle_gamma   90.00000000
_symmetry_Int_Tables_number   1
_chemical_formula_structural   LaCeSb2(SBr)4
_chemical_formula_sum   'La4 Ce4 Sb8 S16 Br16'
_cell_volume   1396.25497601
_cell_formula_units_Z   4
loop_
 _symmetry_equiv_pos_site_id
 _symmetry_equiv_pos_as_xyz
  1  'x, y, z'
loop_
 _atom_site_type_symbol
 _atom_site_label
 _atom_site_symmetry_multiplicity
 _atom_site_fract_x
 _atom_site_fract_y
 _atom_site_fract_z
 _atom_site_occupancy
  La  La0  1  0.87755987  0.63151377  0.25601608  1
  La  La1  1  0.12244013  0.13151377  0.24398392  1
  La  La2  1  0.12244013  0.36848623  0.74398392  1
  La  La3  1  0.87755987  0.86848623  0.75601608  1
  Ce  Ce4  1  0.38784298  0.63679212  0.26334594  1
  Ce  Ce5  1  0.61215702  0.13679212  0.23665406  1
  Ce  Ce6  1  0.61215702  0.36320788  0.73665406  1
  Ce  Ce7  1  0.38784298  0.86320788  0.76334594  1
  Sb  Sb8  1  0.73013503  0.45687808  0.45336126  1
  Sb  Sb9  1  0.26986497  0.95687808  0.04663874  1
  Sb  Sb10  1  0.26986497  0.54312192  0.54663874  1
  Sb  Sb11  1  0.73013503  0.04312192  0.95336126  1
  Sb  Sb12  1  0.27401422  0.34155777  0.05478408  1
  Sb  Sb13  1  0.72598578  0.84155777  0.44521592  1
  Sb  Sb14  1  0.72598578  0.65844223  0.94521592  1
  Sb  Sb15  1  0.27401422  0.15844223  0.55478408  1
  S  S16  1  0.34021745  0.33591389  0.19760193  1
  S  S17  1  0.65978255  0.83591389  0.30239807  1
  S  S18  1  0.65978255  0.66408611  0.80239807  1
  S  S19  1  0.34021745  0.16408611  0.69760193  1
  S  S20  1  0.07329568  0.14984242  0.05264892  1
  S  S21  1  0.92670432  0.64984242  0.44735108  1
  S  S22  1  0.92670432  0.85015758  0.94735108  1
  S  S23  1  0.07329568  0.35015758  0.55264892  1
  S  S24  1  0.47570607  0.15115249  0.05401840  1
  S  S25  1  0.52429393  0.65115249  0.44598160  1
  S  S26  1  0.52429393  0.84884751  0.94598160  1
  S  S27  1  0.47570607  0.34884751  0.55401840  1
  S  S28  1  0.66154397  0.43705851  0.30966859  1
  S  S29  1  0.33845603  0.93705851  0.19033141  1
  S  S30  1  0.33845603  0.56294149  0.69033141  1
  S  S31  1  0.66154397  0.06294149  0.80966859  1
  Br  Br32  1  0.07955803  0.62906708  0.13395653  1
  Br  Br33  1  0.92044197  0.12906708  0.36604347  1
  Br  Br34  1  0.92044197  0.37093292  0.86604347  1
  Br  Br35  1  0.07955803  0.87093292  0.63395653  1
  Br  Br36  1  0.83765793  0.94208310  0.15999926  1
  Br  Br37  1  0.16234207  0.44208310  0.34000074  1
  Br  Br38  1  0.16234207  0.05791690  0.84000074  1
  Br  Br39  1  0.83765793  0.55791690  0.65999926  1
  Br  Br40  1  0.55468003  0.62684228  0.12887436  1
  Br  Br41  1  0.44531997  0.12684228  0.37112564  1
  Br  Br42  1  0.44531997  0.37315772  0.87112564  1
  Br  Br43  1  0.55468003  0.87315772  0.62887436  1
  Br  Br44  1  0.15824868  0.82590411  0.33387208  1
  Br  Br45  1  0.84175132  0.32590411  0.16612792  1
  Br  Br46  1  0.84175132  0.17409589  0.66612792  1
  Br  Br47  1  0.15824868  0.67409589  0.83387208  1
