# generated using pymatgen
data_KIn5S8
_symmetry_space_group_name_H-M   'P 1'
_cell_length_a   3.91280803
_cell_length_b   9.36588633
_cell_length_c   9.86234278
_cell_angle_alpha   102.77017112
_cell_angle_beta   78.55827998
_cell_angle_gamma   90.00000000
_symmetry_Int_Tables_number   1
_chemical_formula_structural   KIn5S8
_chemical_formula_sum   'K1 In5 S8'
_cell_volume   345.11584707
_cell_formula_units_Z   1
loop_
 _symmetry_equiv_pos_site_id
 _symmetry_equiv_pos_as_xyz
  1  'x, y, z'
loop_
 _atom_site_type_symbol
 _atom_site_label
 _atom_site_symmetry_multiplicity
 _atom_site_fract_x
 _atom_site_fract_y
 _atom_site_fract_z
 _atom_site_occupancy
  K  K0  1  0.47904648  0.48368417  0.04190703  1
  In  In1  1  0.00032538  0.99948472  0.99934924  1
  In  In2  1  0.28631624  0.33752940  0.42736752  1
  In  In3  1  0.71246243  0.66208784  0.57507514  1
  In  In4  1  0.64480374  0.09191569  0.71039252  1
  In  In5  1  0.35505881  0.90811667  0.28988239  1
  S  S6  1  0.06889826  0.21637808  0.86220347  1
  S  S7  1  0.93092787  0.78383296  0.13814426  1
  S  S8  1  0.41443807  0.12427680  0.17112386  1
  S  S9  1  0.58554094  0.87650161  0.82891813  1
  S  S10  1  0.76219694  0.15301411  0.47560612  1
  S  S11  1  0.23790038  0.84693252  0.52419923  1
  S  S12  1  0.83511046  0.47563833  0.32977909  1
  S  S13  1  0.16598400  0.52412710  0.66803199  1
