# generated using pymatgen
data_KAlSiO4
_symmetry_space_group_name_H-M   'P 1'
_cell_length_a   5.21854424
_cell_length_b   5.23984279
_cell_length_c   8.84935983
_cell_angle_alpha   90.63551037
_cell_angle_beta   89.60867712
_cell_angle_gamma   119.78880327
_symmetry_Int_Tables_number   1
_chemical_formula_structural   KAlSiO4
_chemical_formula_sum   'K2 Al2 Si2 O8'
_cell_volume   209.99222470
_cell_formula_units_Z   2
loop_
 _symmetry_equiv_pos_site_id
 _symmetry_equiv_pos_as_xyz
  1  'x, y, z'
loop_
 _atom_site_type_symbol
 _atom_site_label
 _atom_site_symmetry_multiplicity
 _atom_site_fract_x
 _atom_site_fract_y
 _atom_site_fract_z
 _atom_site_occupancy
  K  K0  1  0.00312639  0.00259257  0.25891891  1
  K  K1  1  0.00193679  0.99946204  0.75904971  1
  Al  Al2  1  0.33967887  0.67043616  0.45319273  1
  Al  Al3  1  0.67481034  0.33643264  0.95307132  1
  Si  Si4  1  0.34122823  0.67196314  0.07118357  1
  Si  Si5  1  0.67303047  0.33518928  0.57081502  1
  O  O6  1  0.60527748  0.98588236  0.00739451  1
  O  O7  1  0.01642538  0.61888310  0.02025548  1
  O  O8  1  0.38840515  0.40111509  0.01109419  1
  O  O9  1  0.40002942  0.01522583  0.51768498  1
  O  O10  1  0.98681473  0.38347153  0.50294853  1
  O  O11  1  0.61821297  0.60294848  0.51824883  1
  O  O12  1  0.35696649  0.68466917  0.25530891  1
  O  O13  1  0.69115730  0.34112862  0.75543330  1
