# generated using pymatgen
data_K5Sb4
_symmetry_space_group_name_H-M   'P 1'
_cell_length_a   5.53202359
_cell_length_b   6.85225689
_cell_length_c   11.13277715
_cell_angle_alpha   86.06206679
_cell_angle_beta   75.61380039
_cell_angle_gamma   113.80745519
_symmetry_Int_Tables_number   1
_chemical_formula_structural   K5Sb4
_chemical_formula_sum   'K5 Sb4'
_cell_volume   367.13103851
_cell_formula_units_Z   1
loop_
 _symmetry_equiv_pos_site_id
 _symmetry_equiv_pos_as_xyz
  1  'x, y, z'
loop_
 _atom_site_type_symbol
 _atom_site_label
 _atom_site_symmetry_multiplicity
 _atom_site_fract_x
 _atom_site_fract_y
 _atom_site_fract_z
 _atom_site_occupancy
  K  K0  1  0.78986755  0.68932937  0.10959426  1
  K  K1  1  0.20713840  0.30774210  0.89346530  1
  K  K2  1  0.91346507  0.16147253  0.33454240  1
  K  K3  1  0.09143547  0.84962352  0.66675257  1
  K  K4  1  0.50779758  0.52840209  0.51280692  1
  Sb  Sb5  1  0.21902593  0.76214773  0.32409588  1
  Sb  Sb6  1  0.78016273  0.23555508  0.67522962  1
  Sb  Sb7  1  0.49554701  0.10040025  0.10930622  1
  Sb  Sb8  1  0.50326026  0.89802734  0.89150683  1
