# generated using pymatgen
data_Li4MnCo2O7
_symmetry_space_group_name_H-M   'P 1'
_cell_length_a   2.97866632
_cell_length_b   9.78384352
_cell_length_c   9.74360873
_cell_angle_alpha   64.01380687
_cell_angle_beta   82.91913305
_cell_angle_gamma   92.68999105
_symmetry_Int_Tables_number   1
_chemical_formula_structural   Li4MnCo2O7
_chemical_formula_sum   'Li8 Mn2 Co4 O14'
_cell_volume   251.67429798
_cell_formula_units_Z   2
loop_
 _symmetry_equiv_pos_site_id
 _symmetry_equiv_pos_as_xyz
  1  'x, y, z'
loop_
 _atom_site_type_symbol
 _atom_site_label
 _atom_site_symmetry_multiplicity
 _atom_site_fract_x
 _atom_site_fract_y
 _atom_site_fract_z
 _atom_site_occupancy
  Li  Li0  1  0.92947164  0.21353665  0.14304826  1
  Li  Li1  1  0.20092706  0.36530867  0.57396330  1
  Li  Li2  1  0.49260523  0.50612989  0.99401146  1
  Li  Li3  1  0.77652286  0.63937157  0.43928004  1
  Li  Li4  1  0.08054954  0.78735011  0.85406760  1
  Li  Li5  1  0.35712988  0.92688635  0.29121663  1
  Li  Li6  1  0.65764475  0.06766270  0.70756563  1
  Li  Li7  1  0.16175070  0.57024579  0.70500979  1
  Mn  Mn8  1  0.98723066  0.99746459  0.00428580  1
  Mn  Mn9  1  0.56763236  0.29645074  0.85163476  1
  Co  Co10  1  0.28908585  0.14272497  0.42900842  1
  Co  Co11  1  0.86234491  0.42913500  0.28520014  1
  Co  Co12  1  0.43219041  0.71088556  0.14391782  1
  Co  Co13  1  0.71372391  0.84589952  0.57784472  1
  O  O14  1  0.42438910  0.10996131  0.06314068  1
  O  O15  1  0.76605951  0.25184351  0.48781113  1
  O  O16  1  0.04852439  0.38294674  0.91846553  1
  O  O17  1  0.34268513  0.53737440  0.34348612  1
  O  O18  1  0.61696933  0.69936100  0.76611672  1
  O  O19  1  0.86715000  0.81598826  0.20660141  1
  O  O20  1  0.15463852  0.96854098  0.63141458  1
  O  O21  1  0.38665798  0.31768764  0.22496988  1
  O  O22  1  0.67611448  0.45193643  0.65494409  1
  O  O23  1  0.99526546  0.60436428  0.07879820  1
  O  O24  1  0.27526081  0.76009474  0.50516125  1
  O  O25  1  0.55555166  0.88872186  0.94050878  1
  O  O26  1  0.80699234  0.02653371  0.37759928  1
  O  O27  1  0.07493155  0.18559300  0.80092801  1
