# generated using pymatgen
data_Cs3I
_symmetry_space_group_name_H-M   'P 1'
_cell_length_a   13.45632068
_cell_length_b   13.45632241
_cell_length_c   5.08461410
_cell_angle_alpha   90.00000000
_cell_angle_beta   90.00000000
_cell_angle_gamma   120.00001302
_symmetry_Int_Tables_number   1
_chemical_formula_structural   Cs3I
_chemical_formula_sum   'Cs6 I2'
_cell_volume   797.33583734
_cell_formula_units_Z   2
loop_
 _symmetry_equiv_pos_site_id
 _symmetry_equiv_pos_as_xyz
  1  'x, y, z'
loop_
 _atom_site_type_symbol
 _atom_site_label
 _atom_site_symmetry_multiplicity
 _atom_site_fract_x
 _atom_site_fract_y
 _atom_site_fract_z
 _atom_site_occupancy
  Cs  Cs0  1  0.20445815  0.40891529  0.24999900  1
  Cs  Cs1  1  0.59108471  0.79554285  0.24999900  1
  Cs  Cs2  1  0.20445915  0.79554285  0.24999900  1
  Cs  Cs3  1  0.79554185  0.59108371  0.75000000  1
  Cs  Cs4  1  0.40891529  0.20445715  0.75000000  1
  Cs  Cs5  1  0.79554185  0.20445715  0.75000000  1
  I  I6  1  0.33333300  0.66666700  0.75000000  1
  I  I7  1  0.66666700  0.33333300  0.24999900  1
