# generated using pymatgen
data_HfSb4Mo
_symmetry_space_group_name_H-M   'P 1'
_cell_length_a   3.68122720
_cell_length_b   5.51536572
_cell_length_c   7.63298866
_cell_angle_alpha   87.53511553
_cell_angle_beta   76.04620704
_cell_angle_gamma   109.49500439
_symmetry_Int_Tables_number   1
_chemical_formula_structural   HfSb4Mo
_chemical_formula_sum   'Hf1 Sb4 Mo1'
_cell_volume   140.48189389
_cell_formula_units_Z   1
loop_
 _symmetry_equiv_pos_site_id
 _symmetry_equiv_pos_as_xyz
  1  'x, y, z'
loop_
 _atom_site_type_symbol
 _atom_site_label
 _atom_site_symmetry_multiplicity
 _atom_site_fract_x
 _atom_site_fract_y
 _atom_site_fract_z
 _atom_site_occupancy
  Hf  Hf0  1  0.03758474  0.88635656  0.81118708  1
  Sb  Sb1  1  0.61942309  0.76157235  0.52272617  1
  Sb  Sb2  1  0.39106840  0.23512943  0.45299263  1
  Sb  Sb3  1  0.70073702  0.30361246  0.90213843  1
  Sb  Sb4  1  0.28971009  0.69956150  0.12014133  1
  Mo  Mo5  1  0.96147666  0.11376769  0.19081436  1
