# generated using pymatgen
data_Li4MnCo2O7
_symmetry_space_group_name_H-M   'P 1'
_cell_length_a   2.98593766
_cell_length_b   13.63284856
_cell_length_c   6.45147913
_cell_angle_alpha   83.33861109
_cell_angle_beta   76.76705816
_cell_angle_gamma   86.16226119
_symmetry_Int_Tables_number   1
_chemical_formula_structural   Li4MnCo2O7
_chemical_formula_sum   'Li8 Mn2 Co4 O14'
_cell_volume   253.69872996
_cell_formula_units_Z   2
loop_
 _symmetry_equiv_pos_site_id
 _symmetry_equiv_pos_as_xyz
  1  'x, y, z'
loop_
 _atom_site_type_symbol
 _atom_site_label
 _atom_site_symmetry_multiplicity
 _atom_site_fract_x
 _atom_site_fract_y
 _atom_site_fract_z
 _atom_site_occupancy
  Li  Li0  1  0.85305072  0.21436562  0.07593962  1
  Li  Li1  1  0.01526288  0.49160506  0.49897779  1
  Li  Li2  1  0.15144606  0.78598846  0.93156657  1
  Li  Li3  1  0.43767988  0.35665671  0.77045127  1
  Li  Li4  1  0.56909613  0.64359916  0.21421081  1
  Li  Li5  1  0.71566808  0.92987328  0.63848196  1
  Li  Li6  1  0.26870275  0.07219529  0.37136769  1
  Li  Li7  1  0.11351426  0.29175379  0.43742214  1
  Mn  Mn8  1  0.99684961  0.00070821  0.00012844  1
  Mn  Mn9  1  0.70469577  0.42474887  0.15059320  1
  Co  Co10  1  0.29720263  0.56973369  0.84279684  1
  Co  Co11  1  0.44695405  0.85637301  0.28712502  1
  Co  Co12  1  0.54993397  0.14987503  0.70483952  1
  Co  Co13  1  0.87333115  0.71665273  0.57186060  1
  O  O14  1  0.40079150  0.10734989  0.01502857  1
  O  O15  1  0.57211284  0.39676281  0.44222679  1
  O  O16  1  0.73875790  0.67431940  0.87790662  1
  O  O17  1  0.95348318  0.24044647  0.75149304  1
  O  O18  1  0.16672572  0.52417780  0.16021247  1
  O  O19  1  0.32214257  0.81922692  0.59087102  1
  O  O20  1  0.84293424  0.95942935  0.30851740  1
  O  O21  1  0.25094435  0.33548929  0.11101654  1
  O  O22  1  0.42842513  0.61257871  0.54429772  1
  O  O23  1  0.59803747  0.89317894  0.98198103  1
  O  O24  1  0.84216102  0.46847668  0.83488594  1
  O  O25  1  0.04403705  0.75326877  0.26394514  1
  O  O26  1  0.15229880  0.03938673  0.69507588  1
  O  O27  1  0.69376030  0.17177934  0.42678036  1
