# generated using pymatgen
data_HoAlFe
_symmetry_space_group_name_H-M   'P 1'
_cell_length_a   5.30285596
_cell_length_b   5.37508134
_cell_length_c   8.68733445
_cell_angle_alpha   90.00000000
_cell_angle_beta   90.00000000
_cell_angle_gamma   120.44263313
_symmetry_Int_Tables_number   1
_chemical_formula_structural   HoAlFe
_chemical_formula_sum   'Ho4 Al4 Fe4'
_cell_volume   213.48022177
_cell_formula_units_Z   4
loop_
 _symmetry_equiv_pos_site_id
 _symmetry_equiv_pos_as_xyz
  1  'x, y, z'
loop_
 _atom_site_type_symbol
 _atom_site_label
 _atom_site_symmetry_multiplicity
 _atom_site_fract_x
 _atom_site_fract_y
 _atom_site_fract_z
 _atom_site_occupancy
  Ho  Ho0  1  0.66804857  0.33388597  0.55437063  1
  Ho  Ho1  1  0.33699571  0.66855767  0.42602433  1
  Ho  Ho2  1  0.33699571  0.66855767  0.07397567  1
  Ho  Ho3  1  0.66804857  0.33388597  0.94562937  1
  Al  Al4  1  0.99013410  0.99538392  0.48453126  1
  Al  Al5  1  0.99013410  0.99538392  0.01546874  1
  Al  Al6  1  0.17402136  0.33996594  0.75000000  1
  Al  Al7  1  0.17388468  0.83408950  0.75000000  1
  Fe  Fe8  1  0.66588242  0.83300855  0.75000000  1
  Fe  Fe9  1  0.82410599  0.64296860  0.25000000  1
  Fe  Fe10  1  0.82404074  0.18050739  0.25000000  1
  Fe  Fe11  1  0.34770804  0.17380490  0.25000000  1
