# generated using pymatgen
data_HoCoRu
_symmetry_space_group_name_H-M   'P 1'
_cell_length_a   5.19107997
_cell_length_b   5.19107997
_cell_length_c   5.19107997
_cell_angle_alpha   90.80284377
_cell_angle_beta   59.46430655
_cell_angle_gamma   120.39355744
_symmetry_Int_Tables_number   1
_chemical_formula_structural   HoCoRu
_chemical_formula_sum   'Ho2 Co2 Ru2'
_cell_volume   98.20878979
_cell_formula_units_Z   2
loop_
 _symmetry_equiv_pos_site_id
 _symmetry_equiv_pos_as_xyz
  1  'x, y, z'
loop_
 _atom_site_type_symbol
 _atom_site_label
 _atom_site_symmetry_multiplicity
 _atom_site_fract_x
 _atom_site_fract_y
 _atom_site_fract_z
 _atom_site_occupancy
  Ho  Ho0  1  0.50000000  0.75077827  0.74922173  1
  Ho  Ho1  1  -0.00000000  0.99922173  0.00077827  1
  Co  Co2  1  0.75000000  0.37500000  0.87500000  1
  Co  Co3  1  0.25000000  0.37500000  0.37500000  1
  Ru  Ru4  1  0.25000000  0.87500000  0.37500000  1
  Ru  Ru5  1  0.75000000  0.37500000  0.37500000  1
