# generated using pymatgen
data_Hf10(InSb)3
_symmetry_space_group_name_H-M   'P 1'
_cell_length_a   5.74874891
_cell_length_b   8.48061878
_cell_length_c   8.48061926
_cell_angle_alpha   59.97143057
_cell_angle_beta   89.99144957
_cell_angle_gamma   90.00855050
_symmetry_Int_Tables_number   1
_chemical_formula_structural   Hf10(InSb)3
_chemical_formula_sum   'Hf10 In3 Sb3'
_cell_volume   357.95955611
_cell_formula_units_Z   1
loop_
 _symmetry_equiv_pos_site_id
 _symmetry_equiv_pos_as_xyz
  1  'x, y, z'
loop_
 _atom_site_type_symbol
 _atom_site_label
 _atom_site_symmetry_multiplicity
 _atom_site_fract_x
 _atom_site_fract_y
 _atom_site_fract_z
 _atom_site_occupancy
  Hf  Hf0  1  0.50003087  0.33330496  0.33327331  1
  Hf  Hf1  1  0.50003087  0.66672669  0.66669504  1
  Hf  Hf2  1  -0.00015039  0.66649585  0.66666971  1
  Hf  Hf3  1  -0.00015039  0.33333029  0.33350415  1
  Hf  Hf4  1  0.75028346  0.24748600  0.75251400  1
  Hf  Hf5  1  0.74992585  0.75263122  0.00016139  1
  Hf  Hf6  1  0.74992585  0.99983861  0.24736878  1
  Hf  Hf7  1  0.25045622  0.75162212  0.24837788  1
  Hf  Hf8  1  0.24991934  0.24836873  0.99981662  1
  Hf  Hf9  1  0.24991934  0.00018338  0.75163127  1
  In  In10  1  0.74970319  0.60922695  0.39077305  1
  In  In11  1  0.75012721  0.39061815  0.00011905  1
  In  In12  1  0.75012721  0.99988095  0.60938185  1
  Sb  Sb13  1  0.24981337  0.39019882  0.60980118  1
  Sb  Sb14  1  0.25001901  0.61009462  0.00000733  1
  Sb  Sb15  1  0.25001901  -0.00000733  0.38990538  1
