# generated using pymatgen
data_In5AgSe8
_symmetry_space_group_name_H-M   'P 1'
_cell_length_a   7.25985586
_cell_length_b   7.25985586
_cell_length_c   8.51025825
_cell_angle_alpha   89.71698556
_cell_angle_beta   90.28301444
_cell_angle_gamma   71.33329262
_symmetry_Int_Tables_number   1
_chemical_formula_structural   In5AgSe8
_chemical_formula_sum   'In5 Ag1 Se8'
_cell_volume   424.92754854
_cell_formula_units_Z   1
loop_
 _symmetry_equiv_pos_site_id
 _symmetry_equiv_pos_as_xyz
  1  'x, y, z'
loop_
 _atom_site_type_symbol
 _atom_site_label
 _atom_site_symmetry_multiplicity
 _atom_site_fract_x
 _atom_site_fract_y
 _atom_site_fract_z
 _atom_site_occupancy
  In  In0  1  0.01155725  0.01155725  0.50000000  1
  In  In1  1  0.48884214  0.48884214  -0.00000000  1
  In  In2  1  0.49929372  0.49929372  0.50000000  1
  In  In3  1  0.01145863  0.48729776  0.75429480  1
  In  In4  1  0.48729776  0.01145863  0.24570520  1
  Ag  Ag5  1  0.00071727  0.00071727  0.00000000  1
  Se  Se6  1  0.61436055  0.11170858  0.98426805  1
  Se  Se7  1  0.11305973  0.62104285  0.48176649  1
  Se  Se8  1  0.11170858  0.61436055  0.01573195  1
  Se  Se9  1  0.62104285  0.11305973  0.51823351  1
  Se  Se10  1  0.11168874  0.16160658  0.25040897  1
  Se  Se11  1  0.61966483  0.64770137  0.75182186  1
  Se  Se12  1  0.16160658  0.11168874  0.74959103  1
  Se  Se13  1  0.64770137  0.61966483  0.24817814  1
