# generated using pymatgen
data_InGa(AgSe2)2
_symmetry_space_group_name_H-M   'P 1'
_cell_length_a   6.12883479
_cell_length_b   6.12883479
_cell_length_c   7.26583292
_cell_angle_alpha   65.05441903
_cell_angle_beta   65.05441903
_cell_angle_gamma   90.00000000
_symmetry_Int_Tables_number   1
_chemical_formula_structural   InGa(AgSe2)2
_chemical_formula_sum   'In1 Ga1 Ag2 Se4'
_cell_volume   219.06128096
_cell_formula_units_Z   1
loop_
 _symmetry_equiv_pos_site_id
 _symmetry_equiv_pos_as_xyz
  1  'x, y, z'
loop_
 _atom_site_type_symbol
 _atom_site_label
 _atom_site_symmetry_multiplicity
 _atom_site_fract_x
 _atom_site_fract_y
 _atom_site_fract_z
 _atom_site_occupancy
  In  In0  1  0.50000000  0.50000000  -0.00000000  1
  Ga  Ga1  1  0.25000000  0.75000000  0.50000000  1
  Ag  Ag2  1  0.75000000  0.25000000  0.50000000  1
  Ag  Ag3  1  0.00000000  -0.00000000  -0.00000000  1
  Se  Se4  1  0.36732902  0.86461966  0.73730299  1
  Se  Se5  1  0.89536798  0.39807735  0.73730299  1
  Se  Se6  1  0.13538034  0.10463202  0.26269701  1
  Se  Se7  1  0.60192265  0.63267098  0.26269701  1
