# generated using pymatgen
data_InAgSnSe4
_symmetry_space_group_name_H-M   'P 1'
_cell_length_a   6.02806669
_cell_length_b   6.02806669
_cell_length_c   7.13760020
_cell_angle_alpha   65.02167014
_cell_angle_beta   65.02167014
_cell_angle_gamma   90.00000000
_symmetry_Int_Tables_number   1
_chemical_formula_structural   InAgSnSe4
_chemical_formula_sum   'In1 Ag1 Sn1 Se4'
_cell_volume   208.03560314
_cell_formula_units_Z   1
loop_
 _symmetry_equiv_pos_site_id
 _symmetry_equiv_pos_as_xyz
  1  'x, y, z'
loop_
 _atom_site_type_symbol
 _atom_site_label
 _atom_site_symmetry_multiplicity
 _atom_site_fract_x
 _atom_site_fract_y
 _atom_site_fract_z
 _atom_site_occupancy
  In  In0  1  0.50000000  0.50000000  -0.00000000  1
  Ag  Ag1  1  0.75000000  0.25000000  0.50000000  1
  Sn  Sn2  1  0.25000000  0.75000000  0.50000000  1
  Se  Se3  1  0.33760533  0.87534386  0.77127209  1
  Se  Se4  1  0.89112258  0.35338405  0.77127209  1
  Se  Se5  1  0.12465614  0.10887742  0.22872791  1
  Se  Se6  1  0.64661595  0.66239467  0.22872791  1
