# generated using pymatgen
data_KVFeP2H5O11
_symmetry_space_group_name_H-M   'P 1'
_cell_length_a   9.80013293
_cell_length_b   9.84633566
_cell_length_c   9.87866980
_cell_angle_alpha   77.84172274
_cell_angle_beta   90.00000000
_cell_angle_gamma   90.00000000
_symmetry_Int_Tables_number   1
_chemical_formula_structural   KVFeP2H5O11
_chemical_formula_sum   'K4 V4 Fe4 P8 H20 O44'
_cell_volume   931.86440989
_cell_formula_units_Z   4
loop_
 _symmetry_equiv_pos_site_id
 _symmetry_equiv_pos_as_xyz
  1  'x, y, z'
loop_
 _atom_site_type_symbol
 _atom_site_label
 _atom_site_symmetry_multiplicity
 _atom_site_fract_x
 _atom_site_fract_y
 _atom_site_fract_z
 _atom_site_occupancy
  K  K0  1  0.19594722  0.98218982  0.89945991  1
  K  K1  1  0.69594722  0.51781018  0.60054009  1
  K  K2  1  0.80405278  0.01781018  0.10054009  1
  K  K3  1  0.30405278  0.48218982  0.39945991  1
  V  V4  1  0.45173222  0.89114941  0.63123072  1
  V  V5  1  0.95173222  0.60885059  0.86876928  1
  V  V6  1  0.54826778  0.10885059  0.36876928  1
  V  V7  1  0.04826778  0.39114941  0.13123072  1
  Fe  Fe8  1  0.22901358  0.90406887  0.31099270  1
  Fe  Fe9  1  0.72901358  0.59593113  0.18900730  1
  Fe  Fe10  1  0.77098642  0.09593113  0.68900730  1
  Fe  Fe11  1  0.27098642  0.40406887  0.81099270  1
  P  P12  1  0.32171400  0.21159356  0.12847371  1
  P  P13  1  0.82171400  0.28840644  0.37152629  1
  P  P14  1  0.67828600  0.78840644  0.87152629  1
  P  P15  1  0.17828600  0.71159356  0.62847371  1
  P  P16  1  0.52910865  0.78989639  0.35257130  1
  P  P17  1  0.02910865  0.71010361  0.14742870  1
  P  P18  1  0.47089135  0.21010361  0.64742870  1
  P  P19  1  0.97089135  0.28989639  0.85257130  1
  H  H20  1  0.97462178  0.95423326  0.39783851  1
  H  H21  1  0.47462178  0.54576674  0.10216149  1
  H  H22  1  0.02537822  0.04576674  0.60216149  1
  H  H23  1  0.52537822  0.45423326  0.89783851  1
  H  H24  1  0.02466924  0.11104620  0.32494857  1
  H  H25  1  0.52466924  0.38895380  0.17505143  1
  H  H26  1  0.97533076  0.88895380  0.67505143  1
  H  H27  1  0.47533076  0.61104620  0.82494857  1
  H  H28  1  0.08632274  0.23674576  0.46647192  1
  H  H29  1  0.58632274  0.26325424  0.03352808  1
  H  H30  1  0.91367726  0.76325424  0.53352808  1
  H  H31  1  0.41367726  0.73674576  0.96647192  1
  H  H32  1  0.15087794  0.22601394  0.61487988  1
  H  H33  1  0.65087794  0.27398606  0.88512012  1
  H  H34  1  0.84912206  0.77398606  0.38512012  1
  H  H35  1  0.34912206  0.72601394  0.11487988  1
  H  H36  1  0.29633705  0.07181486  0.47060965  1
  H  H37  1  0.79633705  0.42818514  0.02939035  1
  H  H38  1  0.70366295  0.92818514  0.52939035  1
  H  H39  1  0.20366295  0.57181486  0.97060965  1
  O  O40  1  0.62258220  0.67488636  0.32409857  1
  O  O41  1  0.12258220  0.82511364  0.17590143  1
  O  O42  1  0.37741780  0.32511364  0.67590143  1
  O  O43  1  0.87741780  0.17488636  0.82409857  1
  O  O44  1  0.33510365  0.26434764  0.97119080  1
  O  O45  1  0.83510365  0.23565236  0.52880920  1
  O  O46  1  0.66489635  0.73565236  0.02880920  1
  O  O47  1  0.16489635  0.76434764  0.47119080  1
  O  O48  1  0.14928727  0.18140474  0.53437235  1
  O  O49  1  0.64928727  0.31859526  0.96562765  1
  O  O50  1  0.85071273  0.81859526  0.46562765  1
  O  O51  1  0.35071273  0.68140474  0.03437235  1
  O  O52  1  0.04856473  0.01040378  0.34365213  1
  O  O53  1  0.54856473  0.48959622  0.15634787  1
  O  O54  1  0.95143527  0.98959622  0.65634787  1
  O  O55  1  0.45143527  0.51040378  0.84365213  1
  O  O56  1  0.22846414  0.30301721  0.19831611  1
  O  O57  1  0.72846414  0.19698279  0.30168389  1
  O  O58  1  0.77153586  0.69698279  0.80168389  1
  O  O59  1  0.27153586  0.80301721  0.69831611  1
  O  O60  1  0.27269631  0.05952459  0.15483106  1
  O  O61  1  0.77269631  0.44047541  0.34516894  1
  O  O62  1  0.72730369  0.94047541  0.84516894  1
  O  O63  1  0.22730369  0.55952459  0.65483106  1
  O  O64  1  0.38771623  0.78275219  0.28112957  1
  O  O65  1  0.88771623  0.71724781  0.21887043  1
  O  O66  1  0.61228377  0.21724781  0.71887043  1
  O  O67  1  0.11228377  0.28275219  0.78112957  1
  O  O68  1  0.46929709  0.21897512  0.19071461  1
  O  O69  1  0.96929709  0.28102488  0.30928539  1
  O  O70  1  0.53070291  0.78102488  0.80928539  1
  O  O71  1  0.03070291  0.71897512  0.69071461  1
  O  O72  1  0.35724481  0.00326465  0.44060171  1
  O  O73  1  0.85724481  0.49673535  0.05939829  1
  O  O74  1  0.64275519  0.99673535  0.55939829  1
  O  O75  1  0.14275519  0.50326465  0.94060171  1
  O  O76  1  0.59349035  0.93580766  0.30114733  1
  O  O77  1  0.09349035  0.56419234  0.19885267  1
  O  O78  1  0.40650965  0.06419234  0.69885267  1
  O  O79  1  0.90650965  0.43580766  0.80114733  1
  O  O80  1  0.51005611  0.76067780  0.51244697  1
  O  O81  1  0.01005611  0.73932220  0.98755303  1
  O  O82  1  0.48994389  0.23932220  0.48755303  1
  O  O83  1  0.98994389  0.26067780  0.01244697  1
