# generated using pymatgen
data_HoTaTiO6
_symmetry_space_group_name_H-M   'P 1'
_cell_length_a   5.22788454
_cell_length_b   5.63195661
_cell_length_c   14.68829778
_cell_angle_alpha   90.00000000
_cell_angle_beta   90.00000000
_cell_angle_gamma   89.67011762
_symmetry_Int_Tables_number   1
_chemical_formula_structural   HoTaTiO6
_chemical_formula_sum   'Ho4 Ta4 Ti4 O24'
_cell_volume   432.46359815
_cell_formula_units_Z   4
loop_
 _symmetry_equiv_pos_site_id
 _symmetry_equiv_pos_as_xyz
  1  'x, y, z'
loop_
 _atom_site_type_symbol
 _atom_site_label
 _atom_site_symmetry_multiplicity
 _atom_site_fract_x
 _atom_site_fract_y
 _atom_site_fract_z
 _atom_site_occupancy
  Ho  Ho0  1  0.25328903  0.23066583  0.99979173  1
  Ho  Ho1  1  0.74671097  0.26933417  0.49979173  1
  Ho  Ho2  1  0.74671097  0.76933417  0.00020827  1
  Ho  Ho3  1  0.25328903  0.73066583  0.50020827  1
  Ta  Ta4  1  0.17399707  0.17492185  0.66838194  1
  Ta  Ta5  1  0.82600293  0.32507815  0.16838194  1
  Ta  Ta6  1  0.82600293  0.82507815  0.33161806  1
  Ta  Ta7  1  0.17399707  0.67492185  0.83161806  1
  Ti  Ti8  1  0.67827383  0.31597005  0.83509950  1
  Ti  Ti9  1  0.32172617  0.18402995  0.33509950  1
  Ti  Ti10  1  0.32172617  0.68402995  0.16490050  1
  Ti  Ti11  1  0.67827383  0.81597005  0.66490050  1
  O  O12  1  0.84907748  0.14278975  0.74053458  1
  O  O13  1  0.34460111  0.36371657  0.76159075  1
  O  O14  1  0.15092252  0.35721025  0.24053458  1
  O  O15  1  0.65539889  0.13628343  0.26159075  1
  O  O16  1  0.15092252  0.85721025  0.25946542  1
  O  O17  1  0.65539889  0.63628343  0.23840925  1
  O  O18  1  0.84907748  0.64278975  0.75946542  1
  O  O19  1  0.34460111  0.86371657  0.73840925  1
  O  O20  1  0.03495726  0.56749324  0.09227738  1
  O  O21  1  0.53310319  0.93583308  0.40800600  1
  O  O22  1  0.96504274  0.93250676  0.59227738  1
  O  O23  1  0.46689681  0.56416692  0.90800600  1
  O  O24  1  0.96504274  0.43250676  0.90772262  1
  O  O25  1  0.46689681  0.06416692  0.59199400  1
  O  O26  1  0.03495726  0.06749324  0.40772262  1
  O  O27  1  0.53310319  0.43583308  0.09199400  1
  O  O28  1  0.58181221  0.09340956  0.91413949  1
  O  O29  1  0.08145077  0.40928234  0.58441888  1
  O  O30  1  0.41818779  0.40659044  0.41413949  1
  O  O31  1  0.91854923  0.09071766  0.08441888  1
  O  O32  1  0.41818779  0.90659044  0.08586051  1
  O  O33  1  0.91854923  0.59071766  0.41558112  1
  O  O34  1  0.58181221  0.59340956  0.58586051  1
  O  O35  1  0.08145077  0.90928234  0.91558112  1
