# generated using pymatgen
data_K4Sn3Ge3S14
_symmetry_space_group_name_H-M   'P 1'
_cell_length_a   7.06801463
_cell_length_b   12.33010978
_cell_length_c   15.59207300
_cell_angle_alpha   90.00000000
_cell_angle_beta   90.00000000
_cell_angle_gamma   100.65893196
_symmetry_Int_Tables_number   1
_chemical_formula_structural   K4Sn3Ge3S14
_chemical_formula_sum   'K8 Sn6 Ge6 S28'
_cell_volume   1335.39381952
_cell_formula_units_Z   2
loop_
 _symmetry_equiv_pos_site_id
 _symmetry_equiv_pos_as_xyz
  1  'x, y, z'
loop_
 _atom_site_type_symbol
 _atom_site_label
 _atom_site_symmetry_multiplicity
 _atom_site_fract_x
 _atom_site_fract_y
 _atom_site_fract_z
 _atom_site_occupancy
  K  K0  1  0.53171022  0.35083015  0.57147564  1
  K  K1  1  0.03171022  0.85083015  0.92852436  1
  K  K2  1  0.46807040  0.64985845  0.42902614  1
  K  K3  1  0.96807040  0.14985845  0.07097386  1
  K  K4  1  0.47173608  0.43765764  0.13761139  1
  K  K5  1  0.97173608  0.93765764  0.36238861  1
  K  K6  1  0.52746438  0.56196587  0.86159909  1
  K  K7  1  0.02746438  0.06196587  0.63840091  1
  Sn  Sn8  1  0.57456796  0.17476155  0.34116462  1
  Sn  Sn9  1  0.07456796  0.67476155  0.15883538  1
  Sn  Sn10  1  0.42302245  0.82527605  0.66059834  1
  Sn  Sn11  1  0.92302245  0.32527605  0.83940166  1
  Sn  Sn12  1  0.90491522  0.47208118  0.30918491  1
  Sn  Sn13  1  0.40491522  0.97208118  0.19081509  1
  Ge  Ge14  1  0.03544286  0.24052736  0.40276136  1
  Ge  Ge15  1  0.53544286  0.74052736  0.09723864  1
  Ge  Ge16  1  0.96698847  0.75677094  0.59943541  1
  Ge  Ge17  1  0.46698847  0.25677094  0.90056459  1
  Ge  Ge18  1  0.09493919  0.52420746  0.69281306  1
  Ge  Ge19  1  0.59493919  0.02420746  0.80718694  1
  S  S20  1  0.42076681  0.17054125  0.19003103  1
  S  S21  1  0.92076681  0.67054125  0.30996897  1
  S  S22  1  0.58145593  0.84043149  0.81186566  1
  S  S23  1  0.08145593  0.34043149  0.68813434  1
  S  S24  1  0.91440718  0.19610553  0.27231139  1
  S  S25  1  0.41440718  0.69610553  0.22768861  1
  S  S26  1  0.08579532  0.80711358  0.72861838  1
  S  S27  1  0.58579532  0.30711358  0.77138162  1
  S  S28  1  0.57978792  0.38703967  0.34503609  1
  S  S29  1  0.07978792  0.88703967  0.15496391  1
  S  S30  1  0.39656581  0.60731643  0.65910342  1
  S  S31  1  0.89656581  0.10731643  0.84089658  1
  S  S32  1  0.12569374  0.42529216  0.41727316  1
  S  S33  1  0.62569374  0.92529216  0.08272684  1
  S  S34  1  0.88832763  0.57008447  0.59205258  1
  S  S35  1  0.38832763  0.07008447  0.90794742  1
  S  S36  1  0.77610716  0.17571678  0.48210375  1
  S  S37  1  0.27610716  0.67571678  0.01789625  1
  S  S38  1  0.22357139  0.82458173  0.51856897  1
  S  S39  1  0.72357139  0.32458173  0.98143103  1
  S  S40  1  0.50753186  0.96268081  0.33752441  1
  S  S41  1  0.00753186  0.46268081  0.16247559  1
  S  S42  1  0.50015948  0.03880585  0.67124132  1
  S  S43  1  0.00015948  0.53880585  0.82875868  1
  S  S44  1  0.27249257  0.15981185  0.44722582  1
  S  S45  1  0.77249257  0.65981185  0.05277418  1
  S  S46  1  0.72647997  0.83574174  0.55425106  1
  S  S47  1  0.22647997  0.33574174  0.94574894  1
