# generated using pymatgen
data_CsVWO6
_symmetry_space_group_name_H-M   'P 1'
_cell_length_a   7.24815185
_cell_length_b   7.12354062
_cell_length_c   7.36438360
_cell_angle_alpha   90.00000000
_cell_angle_beta   59.46809856
_cell_angle_gamma   119.43289973
_symmetry_Int_Tables_number   1
_chemical_formula_structural   CsVWO6
_chemical_formula_sum   'Cs2 V2 W2 O12'
_cell_volume   268.98963011
_cell_formula_units_Z   2
loop_
 _symmetry_equiv_pos_site_id
 _symmetry_equiv_pos_as_xyz
  1  'x, y, z'
loop_
 _atom_site_type_symbol
 _atom_site_label
 _atom_site_symmetry_multiplicity
 _atom_site_fract_x
 _atom_site_fract_y
 _atom_site_fract_z
 _atom_site_occupancy
  Cs  Cs0  1  0.75344606  0.37672303  0.37327697  1
  Cs  Cs1  1  0.24655394  0.62327697  0.62672303  1
  V  V2  1  0.50000000  0.50000000  0.00000000  1
  V  V3  1  0.50000000  -0.00000000  0.00000000  1
  W  W4  1  -0.00000000  -0.00000000  0.50000000  1
  W  W5  1  -0.00000000  -0.00000000  0.00000000  1
  O  O6  1  0.86858999  0.93429500  0.31570500  1
  O  O7  1  0.60799570  0.30399785  0.94600215  1
  O  O8  1  0.25010547  0.93617162  0.94292570  1
  O  O9  1  0.25010547  0.31393385  0.30696883  1
  O  O10  1  0.25010547  0.31393385  0.94292570  1
  O  O11  1  0.25010547  0.93617162  0.30696883  1
  O  O12  1  0.13141001  0.06570500  0.68429500  1
  O  O13  1  0.39200430  0.69600215  0.05399785  1
  O  O14  1  0.74989453  0.06382838  0.05707430  1
  O  O15  1  0.74989453  0.68606615  0.69303117  1
  O  O16  1  0.74989453  0.68606615  0.05707430  1
  O  O17  1  0.74989453  0.06382838  0.69303117  1
