# generated using pymatgen
data_Co7CuAs4(HO5)4
_symmetry_space_group_name_H-M   'P 1'
_cell_length_a   6.15166179
_cell_length_b   8.45153529
_cell_length_c   8.57265130
_cell_angle_alpha   89.90365988
_cell_angle_beta   90.00000000
_cell_angle_gamma   90.00000000
_symmetry_Int_Tables_number   1
_chemical_formula_structural   Co7CuAs4(HO5)4
_chemical_formula_sum   'Co7 Cu1 As4 H4 O20'
_cell_volume   445.69996960
_cell_formula_units_Z   1
loop_
 _symmetry_equiv_pos_site_id
 _symmetry_equiv_pos_as_xyz
  1  'x, y, z'
loop_
 _atom_site_type_symbol
 _atom_site_label
 _atom_site_symmetry_multiplicity
 _atom_site_fract_x
 _atom_site_fract_y
 _atom_site_fract_z
 _atom_site_occupancy
  Co  Co0  1  0.74752700  0.49977854  0.49918533  1
  Co  Co1  1  0.75397936  0.99832425  0.00165728  1
  Co  Co2  1  0.25247300  0.49977854  0.49918533  1
  Co  Co3  1  0.24602064  0.99832425  0.00165728  1
  Co  Co4  1  0.50000000  0.36438598  0.87164042  1
  Co  Co5  1  0.00000000  0.13510277  0.37158216  1
  Co  Co6  1  0.00000000  0.86306426  0.62811087  1
  Cu  Cu7  1  0.50000000  0.63039309  0.13550069  1
  As  As8  1  0.00000000  0.75321153  0.25127940  1
  As  As9  1  0.00000000  0.24830374  0.74575411  1
  As  As10  1  0.50000000  0.25028041  0.24580487  1
  As  As11  1  0.50000000  0.74770752  0.75760737  1
  H  H12  1  0.50000000  0.71638768  0.40437610  1
  H  H13  1  0.50000000  0.28570923  0.59068904  1
  H  H14  1  0.00000000  0.21617764  0.09017451  1
  H  H15  1  0.00000000  0.78457954  0.90991391  1
  O  O16  1  0.77263350  0.77622318  0.13514020  1
  O  O17  1  0.77360662  0.22926315  0.86335566  1
  O  O18  1  0.72584563  0.27164641  0.36449639  1
  O  O19  1  0.72416717  0.72669437  0.63675215  1
  O  O20  1  0.22639338  0.22926315  0.86335566  1
  O  O21  1  0.22736650  0.77622318  0.13514020  1
  O  O22  1  0.27583283  0.72669437  0.63675215  1
  O  O23  1  0.27415437  0.27164641  0.36449639  1
  O  O24  1  0.00000000  0.89781530  0.39376001  1
  O  O25  1  0.00000000  0.10130747  0.60673221  1
  O  O26  1  0.50000000  0.39560710  0.10483707  1
  O  O27  1  0.50000000  0.60183830  0.90064390  1
  O  O28  1  0.00000000  0.57580692  0.35408709  1
  O  O29  1  0.00000000  0.42583624  0.64457210  1
  O  O30  1  0.50000000  0.07360253  0.14570515  1
  O  O31  1  0.50000000  0.92638479  0.85439026  1
  O  O32  1  0.50000000  0.60737586  0.36526383  1
  O  O33  1  0.50000000  0.39490258  0.62757901  1
  O  O34  1  0.00000000  0.10771787  0.12878456  1
  O  O35  1  0.00000000  0.89264185  0.87003737  1
