# generated using pymatgen
data_Cs2ZrFe2(MoO4)6
_symmetry_space_group_name_H-M   'P 1'
_cell_length_a   8.83017935
_cell_length_b   8.79218321
_cell_length_c   8.79429664
_cell_angle_alpha   99.54140237
_cell_angle_beta   99.33068243
_cell_angle_gamma   99.10363367
_symmetry_Int_Tables_number   1
_chemical_formula_structural   Cs2ZrFe2(MoO4)6
_chemical_formula_sum   'Cs2 Zr1 Fe2 Mo6 O24'
_cell_volume   652.27544564
_cell_formula_units_Z   1
loop_
 _symmetry_equiv_pos_site_id
 _symmetry_equiv_pos_as_xyz
  1  'x, y, z'
loop_
 _atom_site_type_symbol
 _atom_site_label
 _atom_site_symmetry_multiplicity
 _atom_site_fract_x
 _atom_site_fract_y
 _atom_site_fract_z
 _atom_site_occupancy
  Cs  Cs0  1  0.17851858  0.17503965  0.17533878  1
  Cs  Cs1  1  0.82148202  0.82496020  0.82466085  1
  Zr  Zr2  1  0.99999721  0.49999952  0.49999697  1
  Fe  Fe3  1  0.50000693  0.49999166  0.00001483  1
  Fe  Fe4  1  0.50000449  0.00001927  0.50000879  1
  Mo  Mo5  1  0.23131834  0.67645631  0.20902886  1
  Mo  Mo6  1  0.66678319  0.20837205  0.22263416  1
  Mo  Mo7  1  0.21796943  0.22284686  0.67663757  1
  Mo  Mo8  1  0.76868411  0.32354547  0.79096473  1
  Mo  Mo9  1  0.33321829  0.79162985  0.77737125  1
  Mo  Mo10  1  0.78203535  0.77715730  0.32336775  1
  O  O11  1  0.36489057  0.54884920  0.15753707  1
  O  O12  1  0.54418415  0.15868461  0.36061335  1
  O  O13  1  0.16616905  0.35764213  0.54611607  1
  O  O14  1  0.63511119  0.45115344  0.84246114  1
  O  O15  1  0.45581542  0.84131907  0.63938665  1
  O  O16  1  0.83383709  0.64235881  0.45388899  1
  O  O17  1  0.33803394  0.86566072  0.31763218  1
  O  O18  1  0.86088025  0.31198826  0.33121438  1
  O  O19  1  0.32020793  0.33617232  0.86615364  1
  O  O20  1  0.66196160  0.13433875  0.68236357  1
  O  O21  1  0.13911767  0.68801032  0.66878495  1
  O  O22  1  0.67979287  0.66382703  0.13384690  1
  O  O23  1  0.11323944  0.70244657  0.04022947  1
  O  O24  1  0.69163808  0.03832900  0.10405118  1
  O  O25  1  0.04735475  0.10803062  0.70092300  1
  O  O26  1  0.88675910  0.29755669  0.95976615  1
  O  O27  1  0.30835958  0.96167518  0.89595136  1
  O  O28  1  0.95265135  0.89197067  0.29907847  1
  O  O29  1  0.11259531  0.57274849  0.32648004  1
  O  O30  1  0.56920842  0.33041736  0.10899153  1
  O  O31  1  0.33437106  0.10548393  0.57443955  1
  O  O32  1  0.88740808  0.42725291  0.67352392  1
  O  O33  1  0.43079353  0.66958397  0.89101394  1
  O  O34  1  0.66563464  0.89451480  0.42556096  1
