# generated using pymatgen
data_ErThRe4
_symmetry_space_group_name_H-M   'P 1'
_cell_length_a   5.39354476
_cell_length_b   5.39623402
_cell_length_c   9.15812958
_cell_angle_alpha   90.00000000
_cell_angle_beta   89.98401429
_cell_angle_gamma   59.98349940
_symmetry_Int_Tables_number   1
_chemical_formula_structural   ErThRe4
_chemical_formula_sum   'Er2 Th2 Re8'
_cell_volume   230.79703292
_cell_formula_units_Z   2
loop_
 _symmetry_equiv_pos_site_id
 _symmetry_equiv_pos_as_xyz
  1  'x, y, z'
loop_
 _atom_site_type_symbol
 _atom_site_label
 _atom_site_symmetry_multiplicity
 _atom_site_fract_x
 _atom_site_fract_y
 _atom_site_fract_z
 _atom_site_occupancy
  Er  Er0  1  0.33330813  0.33334594  0.56200373  1
  Er  Er1  1  0.66669187  0.66665406  0.43799627  1
  Th  Th2  1  0.66664644  0.66667678  0.06071036  1
  Th  Th3  1  0.33335356  0.33332322  0.93928964  1
  Re  Re4  1  -0.00000000  0.00000000  0.50000000  1
  Re  Re5  1  -0.00000000  0.00000000  0.00000000  1
  Re  Re6  1  0.82991384  0.34028038  0.74067212  1
  Re  Re7  1  0.34015868  0.82992066  0.74056774  1
  Re  Re8  1  0.82991384  0.82980577  0.74067212  1
  Re  Re9  1  0.17008616  0.65971962  0.25932788  1
  Re  Re10  1  0.65984132  0.17007934  0.25943226  1
  Re  Re11  1  0.17008616  0.17019423  0.25932788  1
