# generated using pymatgen
data_Cu2GeS3
_symmetry_space_group_name_H-M   'P 1'
_cell_length_a   6.50465487
_cell_length_b   6.50465487
_cell_length_c   11.86682545
_cell_angle_alpha   79.49515284
_cell_angle_beta   100.50484716
_cell_angle_gamma   70.44142714
_symmetry_Int_Tables_number   1
_chemical_formula_structural   Cu2GeS3
_chemical_formula_sum   'Cu8 Ge4 S12'
_cell_volume   448.85793268
_cell_formula_units_Z   4
loop_
 _symmetry_equiv_pos_site_id
 _symmetry_equiv_pos_as_xyz
  1  'x, y, z'
loop_
 _atom_site_type_symbol
 _atom_site_label
 _atom_site_symmetry_multiplicity
 _atom_site_fract_x
 _atom_site_fract_y
 _atom_site_fract_z
 _atom_site_occupancy
  Cu  Cu0  1  0.25706445  0.24753948  0.49903340  1
  Cu  Cu1  1  0.91230412  0.57897012  0.83333300  1
  Cu  Cu2  1  0.58087248  0.92373145  0.16763360  1
  Cu  Cu3  1  0.34136405  0.66323988  0.66763360  1
  Cu  Cu4  1  0.99657288  0.00803105  0.99903340  1
  Cu  Cu5  1  0.66230412  0.32897012  0.33333300  1
  Cu  Cu6  1  0.41737701  0.08404301  0.83333300  1
  Cu  Cu7  1  0.16737701  0.83404301  0.33333300  1
  Ge  Ge8  1  0.09965922  0.40067475  0.17078605  1
  Ge  Ge9  1  0.73400775  0.76632622  0.49588095  1
  Ge  Ge10  1  0.82145980  0.17887417  0.67078605  1
  Ge  Ge11  1  0.51220717  0.48812680  0.99588095  1
  S  S12  1  0.12477169  0.63022489  0.99804526  1
  S  S13  1  0.79537201  0.95342634  0.33610883  1
  S  S14  1  0.45490127  0.29001876  0.66637535  1
  S  S15  1  0.62335176  0.12156827  0.00029165  1
  S  S16  1  0.28676034  0.46203801  0.33055717  1
  S  S17  1  0.96355789  0.79143869  0.66862174  1
  S  S18  1  0.04259618  0.20620217  0.83055717  1
  S  S19  1  0.71005944  0.54493714  0.16862174  1
  S  S20  1  0.37185992  0.87306011  0.50029165  1
  S  S21  1  0.87827014  0.37672644  0.49804526  1
  S  S22  1  0.53953617  0.70926218  0.83610883  1
  S  S23  1  0.20639311  0.03852692  0.16637535  1
