# generated using pymatgen
data_Li4MnCo2O7
_symmetry_space_group_name_H-M   'P 1'
_cell_length_a   2.98765905
_cell_length_b   11.20039394
_cell_length_c   7.77638920
_cell_angle_alpha   100.01758267
_cell_angle_beta   97.47620082
_cell_angle_gamma   82.96032527
_symmetry_Int_Tables_number   1
_chemical_formula_structural   Li4MnCo2O7
_chemical_formula_sum   'Li8 Mn2 Co4 O14'
_cell_volume   252.74132094
_cell_formula_units_Z   2
loop_
 _symmetry_equiv_pos_site_id
 _symmetry_equiv_pos_as_xyz
  1  'x, y, z'
loop_
 _atom_site_type_symbol
 _atom_site_label
 _atom_site_symmetry_multiplicity
 _atom_site_fract_x
 _atom_site_fract_y
 _atom_site_fract_z
 _atom_site_occupancy
  Li  Li0  1  0.77740369  0.06339554  0.63810801  1
  Li  Li1  1  0.92164752  0.35808268  0.21474492  1
  Li  Li2  1  0.06700707  0.65251842  0.78545064  1
  Li  Li3  1  0.24203517  0.92312957  0.36215590  1
  Li  Li4  1  0.36457971  0.21550329  0.92922693  1
  Li  Li5  1  0.49799123  0.50368726  0.50000724  1
  Li  Li6  1  0.62751729  0.78362792  0.05887003  1
  Li  Li7  1  0.45414763  0.85066032  0.72252111  1
  Mn  Mn8  1  0.99110908  0.99555078  0.99112611  1
  Mn  Mn9  1  0.15190932  0.28355959  0.57187187  1
  Co  Co10  1  0.27642624  0.57438298  0.14713132  1
  Co  Co11  1  0.55088704  0.14323874  0.28164180  1
  Co  Co12  1  0.72123745  0.43329961  0.86079387  1
  Co  Co13  1  0.86727468  0.71946949  0.43844019  1
  O  O14  1  0.42145719  0.03090406  0.84279283  1
  O  O15  1  0.51056557  0.31133516  0.39178443  1
  O  O16  1  0.62384484  0.60069169  0.96883534  1
  O  O17  1  0.82321326  0.87616121  0.51591592  1
  O  O18  1  0.92820931  0.16999397  0.11390981  1
  O  O19  1  0.13311161  0.45469488  0.68446150  1
  O  O20  1  0.24085316  0.73916071  0.25614355  1
  O  O21  1  0.19714443  0.11038793  0.45606026  1
  O  O22  1  0.29479766  0.40782403  0.03720874  1
  O  O23  1  0.49797721  0.68042072  0.59104259  1
  O  O24  1  0.56150618  0.97678744  0.15954415  1
  O  O25  1  0.79379386  0.25708727  0.75304318  1
  O  O26  1  0.92324482  0.55119307  0.32312512  1
  O  O27  1  0.03910778  0.83325167  0.90404263  1
