# generated using pymatgen
data_Bi4PbS7
_symmetry_space_group_name_H-M   'P 1'
_cell_length_a   4.06399018
_cell_length_b   6.99096266
_cell_length_c   12.34296990
_cell_angle_alpha   103.82337781
_cell_angle_beta   90.00000000
_cell_angle_gamma   73.10251049
_symmetry_Int_Tables_number   1
_chemical_formula_structural   Bi4PbS7
_chemical_formula_sum   'Bi4 Pb1 S7'
_cell_volume   324.90885476
_cell_formula_units_Z   1
loop_
 _symmetry_equiv_pos_site_id
 _symmetry_equiv_pos_as_xyz
  1  'x, y, z'
loop_
 _atom_site_type_symbol
 _atom_site_label
 _atom_site_symmetry_multiplicity
 _atom_site_fract_x
 _atom_site_fract_y
 _atom_site_fract_z
 _atom_site_occupancy
  Bi  Bi0  1  0.87870505  0.24258990  0.93225081  1
  Bi  Bi1  1  0.12023102  0.75953796  0.06823447  1
  Bi  Bi2  1  0.99560714  0.00878573  0.49863899  1
  Bi  Bi3  1  0.68171316  0.63657368  0.66946339  1
  Pb  Pb4  1  0.31983039  0.36033922  0.31595734  1
  S  S5  1  0.26547913  0.46904175  0.86184756  1
  S  S6  1  0.74191690  0.51616619  0.13530963  1
  S  S7  1  0.04026704  0.91946592  0.71416137  1
  S  S8  1  0.97235026  0.05529947  0.28382563  1
  S  S9  1  0.34045833  0.31908334  0.54928407  1
  S  S10  1  0.65010482  0.69979036  0.46362120  1
  S  S11  1  0.51343676  0.97312648  0.98320554  1
