# generated using pymatgen
data_Ca2NdNbO6
_symmetry_space_group_name_H-M   'P 1'
_cell_length_a   5.66302436
_cell_length_b   5.95003351
_cell_length_c   8.22281842
_cell_angle_alpha   90.00000000
_cell_angle_beta   90.17348235
_cell_angle_gamma   90.00000000
_symmetry_Int_Tables_number   1
_chemical_formula_structural   Ca2NdNbO6
_chemical_formula_sum   'Ca4 Nd2 Nb2 O12'
_cell_volume   277.06811539
_cell_formula_units_Z   2
loop_
 _symmetry_equiv_pos_site_id
 _symmetry_equiv_pos_as_xyz
  1  'x, y, z'
loop_
 _atom_site_type_symbol
 _atom_site_label
 _atom_site_symmetry_multiplicity
 _atom_site_fract_x
 _atom_site_fract_y
 _atom_site_fract_z
 _atom_site_occupancy
  Ca  Ca0  1  0.99918859  0.99650670  0.49960871  1
  Ca  Ca1  1  0.49918859  0.50349330  0.99960871  1
  Ca  Ca2  1  0.51438574  0.94411453  0.24489597  1
  Ca  Ca3  1  0.01438574  0.55588547  0.74489597  1
  Nd  Nd4  1  0.48427107  0.05814163  0.75556046  1
  Nd  Nd5  1  0.98427107  0.44185837  0.25556046  1
  Nb  Nb6  1  0.49977695  0.50122704  0.50155616  1
  Nb  Nb7  1  0.99977695  0.99877296  0.00155616  1
  O  O8  1  0.83143300  0.71215157  0.07296538  1
  O  O9  1  0.33143300  0.78784843  0.57296538  1
  O  O10  1  0.17331455  0.28230846  0.92771641  1
  O  O11  1  0.67331455  0.21769154  0.42771641  1
  O  O12  1  0.37726381  0.55702011  0.26957376  1
  O  O13  1  0.87726381  0.94297989  0.76957376  1
  O  O14  1  0.61780244  0.44252450  0.73032467  1
  O  O15  1  0.11780244  0.05747550  0.23032467  1
  O  O16  1  0.79355431  0.67532916  0.44460597  1
  O  O17  1  0.29355431  0.82467084  0.94460597  1
  O  O18  1  0.20900953  0.32144379  0.55319252  1
  O  O19  1  0.70900953  0.17855621  0.05319252  1
