# generated using pymatgen
data_CsNaEuNb5O15
_symmetry_space_group_name_H-M   'P 1'
_cell_length_a   7.74323955
_cell_length_b   7.94272494
_cell_length_c   10.72505352
_cell_angle_alpha   90.00000000
_cell_angle_beta   90.00000000
_cell_angle_gamma   90.00000000
_symmetry_Int_Tables_number   1
_chemical_formula_structural   CsNaEuNb5O15
_chemical_formula_sum   'Cs2 Na2 Eu2 Nb10 O30'
_cell_volume   659.61676638
_cell_formula_units_Z   2
loop_
 _symmetry_equiv_pos_site_id
 _symmetry_equiv_pos_as_xyz
  1  'x, y, z'
loop_
 _atom_site_type_symbol
 _atom_site_label
 _atom_site_symmetry_multiplicity
 _atom_site_fract_x
 _atom_site_fract_y
 _atom_site_fract_z
 _atom_site_occupancy
  Cs  Cs0  1  0.00000000  0.27270880  0.50332452  1
  Cs  Cs1  1  0.00000000  0.77270880  0.49667548  1
  Na  Na2  1  0.50000000  0.27843979  0.99197457  1
  Na  Na3  1  0.50000000  0.77843979  0.00802543  1
  Eu  Eu4  1  0.00000000  0.77707606  0.01356835  1
  Eu  Eu5  1  0.00000000  0.27707606  0.98643165  1
  Nb  Nb6  1  0.74516196  0.52721305  0.19497598  1
  Nb  Nb7  1  0.25483804  0.52721305  0.19497598  1
  Nb  Nb8  1  0.25483804  0.02721305  0.80502402  1
  Nb  Nb9  1  0.74516196  0.02721305  0.80502402  1
  Nb  Nb10  1  0.74593333  0.03016698  0.19350116  1
  Nb  Nb11  1  0.25406667  0.03016698  0.19350116  1
  Nb  Nb12  1  0.25406667  0.53016698  0.80649884  1
  Nb  Nb13  1  0.74593333  0.53016698  0.80649884  1
  Nb  Nb14  1  0.50000000  0.50018743  0.50075727  1
  Nb  Nb15  1  0.50000000  0.00018743  0.49924273  1
  O  O16  1  0.50000000  0.27041917  0.50474713  1
  O  O17  1  0.50000000  0.77041917  0.49525287  1
  O  O18  1  0.68513020  0.02804363  0.36642972  1
  O  O19  1  0.31486980  0.02804363  0.36642972  1
  O  O20  1  0.31486980  0.52804363  0.63357028  1
  O  O21  1  0.68513020  0.52804363  0.63357028  1
  O  O22  1  0.73372825  0.77623663  0.16364670  1
  O  O23  1  0.26627175  0.77623663  0.16364670  1
  O  O24  1  0.26627175  0.27623663  0.83635330  1
  O  O25  1  0.73372825  0.27623663  0.83635330  1
  O  O26  1  0.79032375  0.27629330  0.17163136  1
  O  O27  1  0.20967625  0.27629330  0.17163136  1
  O  O28  1  0.20967625  0.77629330  0.82836864  1
  O  O29  1  0.79032375  0.77629330  0.82836864  1
  O  O30  1  0.50000000  0.05174205  0.14161767  1
  O  O31  1  0.50000000  0.55174205  0.85838233  1
  O  O32  1  0.68794854  0.51953112  0.36805114  1
  O  O33  1  0.31205146  0.51953112  0.36805114  1
  O  O34  1  0.31205146  0.01953112  0.63194886  1
  O  O35  1  0.68794854  0.01953112  0.63194886  1
  O  O36  1  0.81423004  0.52586396  -0.00005577  1
  O  O37  1  0.18576996  0.52586396  -0.00005577  1
  O  O38  1  0.18576996  0.02586396  0.00005577  1
  O  O39  1  0.81423004  0.02586396  0.00005577  1
  O  O40  1  0.00000000  0.99175640  0.22036080  1
  O  O41  1  0.00000000  0.49175640  0.77963920  1
  O  O42  1  0.50000000  0.50348080  0.14260719  1
  O  O43  1  0.50000000  0.00348080  0.85739281  1
  O  O44  1  0.00000000  0.56130215  0.21951699  1
  O  O45  1  0.00000000  0.06130215  0.78048301  1
