# generated using pymatgen
data_Ca2LaNdMn4O12
_symmetry_space_group_name_H-M   'P 1'
_cell_length_a   5.48061053
_cell_length_b   5.49530374
_cell_length_c   7.69088087
_cell_angle_alpha   90.00000000
_cell_angle_beta   90.00000000
_cell_angle_gamma   90.10577718
_symmetry_Int_Tables_number   1
_chemical_formula_structural   Ca2LaNdMn4O12
_chemical_formula_sum   'Ca2 La1 Nd1 Mn4 O12'
_cell_volume   231.63062910
_cell_formula_units_Z   1
loop_
 _symmetry_equiv_pos_site_id
 _symmetry_equiv_pos_as_xyz
  1  'x, y, z'
loop_
 _atom_site_type_symbol
 _atom_site_label
 _atom_site_symmetry_multiplicity
 _atom_site_fract_x
 _atom_site_fract_y
 _atom_site_fract_z
 _atom_site_occupancy
  Ca  Ca0  1  0.50589273  0.53404587  0.25000000  1
  Ca  Ca1  1  0.00563674  0.96713989  0.75000000  1
  La  La2  1  0.49331784  0.47254814  0.75000000  1
  Nd  Nd3  1  0.99276090  0.03542471  0.25000000  1
  Mn  Mn4  1  0.99991254  0.50127778  0.00139282  1
  Mn  Mn5  1  0.49956069  0.99915116  0.49917680  1
  Mn  Mn6  1  0.99991254  0.50127778  0.49860718  1
  Mn  Mn7  1  0.49956069  0.99915116  0.00082320  1
  O  O8  1  0.21393200  0.21396448  0.96189309  1
  O  O9  1  0.28298057  0.71662432  0.53500956  1
  O  O10  1  0.78405187  0.78443483  0.46122764  1
  O  O11  1  0.71699591  0.28279755  0.04244430  1
  O  O12  1  0.78405187  0.78443483  0.03877236  1
  O  O13  1  0.71699591  0.28279755  0.45755570  1
  O  O14  1  0.21393200  0.21396448  0.53810691  1
  O  O15  1  0.28298057  0.71662432  0.96499044  1
  O  O16  1  0.07608692  0.48181269  0.25000000  1
  O  O17  1  0.42423977  0.98412670  0.25000000  1
  O  O18  1  0.93200530  0.51614881  0.75000000  1
  O  O19  1  0.57519264  0.01225292  0.75000000  1
