# generated using pymatgen
data_Ca2Ti2SiGeO10
_symmetry_space_group_name_H-M   'P 1'
_cell_length_a   5.56022267
_cell_length_b   5.56022267
_cell_length_c   7.17668386
_cell_angle_alpha   104.18676305
_cell_angle_beta   104.18676305
_cell_angle_gamma   105.86505727
_symmetry_Int_Tables_number   1
_chemical_formula_structural   Ca2Ti2SiGeO10
_chemical_formula_sum   'Ca2 Ti2 Si1 Ge1 O10'
_cell_volume   194.98435668
_cell_formula_units_Z   1
loop_
 _symmetry_equiv_pos_site_id
 _symmetry_equiv_pos_as_xyz
  1  'x, y, z'
loop_
 _atom_site_type_symbol
 _atom_site_label
 _atom_site_symmetry_multiplicity
 _atom_site_fract_x
 _atom_site_fract_y
 _atom_site_fract_z
 _atom_site_occupancy
  Ca  Ca0  1  0.32603332  0.17396668  0.75000000  1
  Ca  Ca1  1  0.67248842  0.82751158  0.25000000  1
  Ti  Ti2  1  0.99515883  0.49984243  0.99626900  1
  Ti  Ti3  1  0.00015757  0.50484117  0.50373100  1
  Si  Si4  1  0.68007351  0.81992649  0.75000000  1
  Ge  Ge5  1  0.31722465  0.18277535  0.25000000  1
  O  O6  1  0.68839566  0.61461389  0.88266280  1
  O  O7  1  0.88538611  0.81160434  0.61733720  1
  O  O8  1  0.31529806  0.39792736  0.10517271  1
  O  O9  1  0.10207264  0.18470194  0.39482729  1
  O  O10  1  0.63441132  0.24648317  0.42153496  1
  O  O11  1  0.25351683  0.86558868  0.07846504  1
  O  O12  1  0.37890352  0.74941738  0.59213764  1
  O  O13  1  0.75058262  0.12109648  0.90786236  1
  O  O14  1  0.93256117  0.56743883  0.25000000  1
  O  O15  1  0.06773578  0.43226422  0.75000000  1
