# generated using pymatgen
data_Ce3Th3Si4
_symmetry_space_group_name_H-M   'P 1'
_cell_length_a   4.15573488
_cell_length_b   7.74370108
_cell_length_c   7.74370108
_cell_angle_alpha   90.13321164
_cell_angle_beta   90.00000000
_cell_angle_gamma   90.00000000
_symmetry_Int_Tables_number   1
_chemical_formula_structural   Ce3Th3Si4
_chemical_formula_sum   'Ce3 Th3 Si4'
_cell_volume   249.19757980
_cell_formula_units_Z   1
loop_
 _symmetry_equiv_pos_site_id
 _symmetry_equiv_pos_as_xyz
  1  'x, y, z'
loop_
 _atom_site_type_symbol
 _atom_site_label
 _atom_site_symmetry_multiplicity
 _atom_site_fract_x
 _atom_site_fract_y
 _atom_site_fract_z
 _atom_site_occupancy
  Ce  Ce0  1  0.00000000  0.49742122  0.50136417  1
  Ce  Ce1  1  0.00000000  0.00136417  0.99742122  1
  Ce  Ce2  1  0.50000000  0.18109657  0.68109657  1
  Th  Th3  1  0.50000000  0.81971523  0.31971523  1
  Th  Th4  1  0.50000000  0.31952737  0.17986665  1
  Th  Th5  1  0.50000000  0.67986665  0.81952737  1
  Si  Si6  1  0.00000000  0.61354476  0.11354476  1
  Si  Si7  1  -0.00000000  0.38514776  0.88514776  1
  Si  Si8  1  -0.00000000  0.88835525  0.61396104  1
  Si  Si9  1  -0.00000000  0.11396104  0.38835525  1
