# generated using pymatgen
data_Li4MnCo2O7
_symmetry_space_group_name_H-M   'P 1'
_cell_length_a   2.97005041
_cell_length_b   13.60472880
_cell_length_c   6.47149460
_cell_angle_alpha   83.97619665
_cell_angle_beta   76.81673110
_cell_angle_gamma   86.99168159
_symmetry_Int_Tables_number   1
_chemical_formula_structural   Li4MnCo2O7
_chemical_formula_sum   'Li8 Mn2 Co4 O14'
_cell_volume   253.08458670
_cell_formula_units_Z   2
loop_
 _symmetry_equiv_pos_site_id
 _symmetry_equiv_pos_as_xyz
  1  'x, y, z'
loop_
 _atom_site_type_symbol
 _atom_site_label
 _atom_site_symmetry_multiplicity
 _atom_site_fract_x
 _atom_site_fract_y
 _atom_site_fract_z
 _atom_site_occupancy
  Li  Li0  1  0.84805558  0.21539394  0.06875827  1
  Li  Li1  1  0.00561344  0.49918347  0.49708251  1
  Li  Li2  1  0.15170559  0.78356451  0.92272860  1
  Li  Li3  1  0.44004576  0.35717151  0.77719940  1
  Li  Li4  1  0.57053520  0.64264887  0.22107360  1
  Li  Li5  1  0.70103062  0.93523230  0.64392717  1
  Li  Li6  1  0.27731103  0.07313113  0.37239980  1
  Li  Li7  1  0.59361632  0.13754886  0.70604331  1
  Mn  Mn8  1  0.00182977  0.00385998  0.98744207  1
  Mn  Mn9  1  0.29338101  0.57191432  0.85886075  1
  Co  Co10  1  0.14437774  0.27900187  0.43782005  1
  Co  Co11  1  0.40879360  0.85897044  0.29091583  1
  Co  Co12  1  0.72073238  0.42614592  0.14689472  1
  Co  Co13  1  0.84727652  0.71565874  0.57370897  1
  O  O14  1  0.45596290  0.09299587  0.03222712  1
  O  O15  1  0.54996774  0.38933586  0.44677112  1
  O  O16  1  0.69516200  0.67823991  0.87992335  1
  O  O17  1  0.01169555  0.25660426  0.71563697  1
  O  O18  1  0.16749260  0.53257338  0.16601538  1
  O  O19  1  0.24933886  0.81385700  0.60093541  1
  O  O20  1  0.84645526  0.95786095  0.30701495  1
  O  O21  1  0.26898054  0.32159183  0.13153849  1
  O  O22  1  0.46055406  0.61093762  0.54912687  1
  O  O23  1  0.53365434  0.90588198  0.97235800  1
  O  O24  1  0.89274040  0.46423581  0.83849323  1
  O  O25  1  0.98585687  0.75680555  0.26533129  1
  O  O26  1  0.13902341  0.03238777  0.69812252  1
  O  O27  1  0.73881090  0.18726636  0.39165025  1
