# generated using pymatgen
data_CsNaB10(H2O9)2
_symmetry_space_group_name_H-M   'P 1'
_cell_length_a   8.24788750
_cell_length_b   9.05635292
_cell_length_c   11.28970479
_cell_angle_alpha   90.00000000
_cell_angle_beta   103.87588246
_cell_angle_gamma   90.00000000
_symmetry_Int_Tables_number   1
_chemical_formula_structural   CsNaB10(H2O9)2
_chemical_formula_sum   'Cs2 Na2 B20 H8 O36'
_cell_volume   818.68391198
_cell_formula_units_Z   2
loop_
 _symmetry_equiv_pos_site_id
 _symmetry_equiv_pos_as_xyz
  1  'x, y, z'
loop_
 _atom_site_type_symbol
 _atom_site_label
 _atom_site_symmetry_multiplicity
 _atom_site_fract_x
 _atom_site_fract_y
 _atom_site_fract_z
 _atom_site_occupancy
  Cs  Cs0  1  0.73739560  0.32980949  0.25096073  1
  Cs  Cs1  1  0.23739560  0.67019051  0.75096073  1
  Na  Na2  1  0.71287782  0.90629642  0.74721010  1
  Na  Na3  1  0.21287782  0.09370358  0.24721010  1
  B  B4  1  0.28106120  0.05292620  0.96661529  1
  B  B5  1  0.21798196  0.05099517  0.53404092  1
  B  B6  1  0.71798196  0.94900483  0.03404092  1
  B  B7  1  0.78106120  0.94707380  0.46661529  1
  B  B8  1  0.46000106  0.23975140  0.91638735  1
  B  B9  1  0.04064496  0.23911949  0.58533600  1
  B  B10  1  0.54064496  0.76088051  0.08533600  1
  B  B11  1  0.96000106  0.76024860  0.41638735  1
  B  B12  1  0.74846272  0.57619790  0.74999523  1
  B  B13  1  0.24846272  0.42380210  0.24999523  1
  B  B14  1  0.86921924  0.64358766  0.96510885  1
  B  B15  1  0.62785605  0.64175023  0.53387057  1
  B  B16  1  0.12785605  0.35824977  0.03387057  1
  B  B17  1  0.36921924  0.35641234  0.46510885  1
  B  B18  1  0.25217179  0.11705224  0.75054994  1
  B  B19  1  0.75217179  0.88294776  0.25054994  1
  B  B20  1  0.66601214  0.44830128  0.91757931  1
  B  B21  1  0.83399441  0.44857265  0.58321061  1
  B  B22  1  0.33399441  0.55142735  0.08321061  1
  B  B23  1  0.16601214  0.55169872  0.41757931  1
  H  H24  1  0.97778680  0.70457900  0.13489014  1
  H  H25  1  0.52338386  0.70684321  0.36394944  1
  H  H26  1  0.02338386  0.29315679  0.86394944  1
  H  H27  1  0.47778680  0.29542100  0.63489014  1
  H  H28  1  0.14963570  0.90073652  0.03113568  1
  H  H29  1  0.34719681  0.89998012  0.46410598  1
  H  H30  1  0.84719681  0.10001988  0.96410598  1
  H  H31  1  0.64963570  0.09926348  0.53113568  1
  O  O32  1  0.40116239  0.16210091  0.00474666  1
  O  O33  1  0.09634534  0.15916290  0.49655133  1
  O  O34  1  0.59634534  0.84083710  0.99655133  1
  O  O35  1  0.90116239  0.83789909  0.50474666  1
  O  O36  1  0.23226368  0.97853999  0.06000286  1
  O  O37  1  0.26084882  0.97554407  0.43891876  1
  O  O38  1  0.76084882  0.02445593  0.93891876  1
  O  O39  1  0.73226368  0.02146001  0.56000286  1
  O  O40  1  0.21900313  0.02080690  0.84721839  1
  O  O41  1  0.28589195  0.02137059  0.65313190  1
  O  O42  1  0.78589195  0.97862941  0.15313190  1
  O  O43  1  0.71900313  0.97919310  0.34721839  1
  O  O44  1  0.63468402  0.47900809  0.79726840  1
  O  O45  1  0.86549857  0.48170655  0.70317584  1
  O  O46  1  0.36549857  0.51829345  0.20317584  1
  O  O47  1  0.13468402  0.52099191  0.29726840  1
  O  O48  1  0.39962361  0.21538841  0.79564964  1
  O  O49  1  0.10494807  0.21640207  0.70580265  1
  O  O50  1  0.60494807  0.78359793  0.20580265  1
  O  O51  1  0.89962361  0.78461159  0.29564964  1
  O  O52  1  0.58249481  0.34134291  0.96650263  1
  O  O53  1  0.91767817  0.34057563  0.53554874  1
  O  O54  1  0.41767817  0.65942437  0.03554874  1
  O  O55  1  0.08249481  0.65865709  0.46650263  1
  O  O56  1  0.97810126  0.72846323  0.05028509  1
  O  O57  1  0.52073518  0.72784808  0.44857989  1
  O  O58  1  0.02073518  0.27215192  0.94857989  1
  O  O59  1  0.47810126  0.27153677  0.55028509  1
  O  O60  1  0.78472300  0.52687702  0.00413163  1
  O  O61  1  0.71471307  0.52587300  0.49590804  1
  O  O62  1  0.21471307  0.47412700  0.99590804  1
  O  O63  1  0.28472300  0.47312298  0.50413163  1
  O  O64  1  0.84616280  0.67643029  0.84443310  1
  O  O65  1  0.64664403  0.67292793  0.65439931  1
  O  O66  1  0.14664403  0.32707207  0.15439931  1
  O  O67  1  0.34616280  0.32356971  0.34443310  1
