# generated using pymatgen
data_Li4MnCo2O7
_symmetry_space_group_name_H-M   'P 1'
_cell_length_a   2.94347491
_cell_length_b   17.45059561
_cell_length_c   5.06755128
_cell_angle_alpha   95.47474341
_cell_angle_beta   76.11463540
_cell_angle_gamma   91.96815402
_symmetry_Int_Tables_number   1
_chemical_formula_structural   Li4MnCo2O7
_chemical_formula_sum   'Li8 Mn2 Co4 O14'
_cell_volume   251.51997338
_cell_formula_units_Z   2
loop_
 _symmetry_equiv_pos_site_id
 _symmetry_equiv_pos_as_xyz
  1  'x, y, z'
loop_
 _atom_site_type_symbol
 _atom_site_label
 _atom_site_symmetry_multiplicity
 _atom_site_fract_x
 _atom_site_fract_y
 _atom_site_fract_z
 _atom_site_occupancy
  Li  Li0  1  0.70146084  0.07199650  0.58060355  1
  Li  Li1  1  0.14394922  0.21493471  0.71347880  1
  Li  Li2  1  0.56919885  0.35734202  0.86158446  1
  Li  Li3  1  -0.00070202  0.50178694  0.99831109  1
  Li  Li4  1  0.42359124  0.64428439  0.14354371  1
  Li  Li5  1  0.85849314  0.78752598  0.27306396  1
  Li  Li6  1  0.31533004  0.92177357  0.41855025  1
  Li  Li7  1  0.55223992  0.85607454  0.87312821  1
  Mn  Mn8  1  -0.00194775  0.99375636  0.00465552  1
  Mn  Mn9  1  0.29326768  0.43089229  0.42567517  1
  Co  Co10  1  0.44105685  0.14241304  0.14013229  1
  Co  Co11  1  0.86140730  0.28590872  0.28203585  1
  Co  Co12  1  0.70986838  0.57398768  0.57228189  1
  Co  Co13  1  0.13558087  0.71984876  0.71576440  1
  O  O14  1  0.39962535  0.03216404  0.25209057  1
  O  O15  1  0.78838140  0.17601677  0.40838868  1
  O  O16  1  0.21230300  0.32394760  0.55105000  1
  O  O17  1  0.62501911  0.47040260  0.69856741  1
  O  O18  1  0.05438083  0.61395091  0.82916265  1
  O  O19  1  0.48024756  0.74561740  0.97501543  1
  O  O20  1  0.92426495  0.90027133  0.14401586  1
  O  O21  1  0.07710041  0.10471728  0.88024682  1
  O  O22  1  0.50268128  0.25033141  0.01686705  1
  O  O23  1  0.95514484  0.39406643  0.15459261  1
  O  O24  1  0.37782572  0.53507047  0.30237528  1
  O  O25  1  0.79123365  0.67438641  0.45347422  1
  O  O26  1  0.21185575  0.80794796  0.57619186  1
  O  O27  1  0.59714159  0.96858389  0.75515241  1
