# generated using pymatgen
data_CaLaMn2O6
_symmetry_space_group_name_H-M   'P 1'
_cell_length_a   5.52695804
_cell_length_b   7.67318119
_cell_length_c   11.05800910
_cell_angle_alpha   90.00000000
_cell_angle_beta   89.62946069
_cell_angle_gamma   90.00000000
_symmetry_Int_Tables_number   1
_chemical_formula_structural   CaLaMn2O6
_chemical_formula_sum   'Ca4 La4 Mn8 O24'
_cell_volume   468.95317632
_cell_formula_units_Z   4
loop_
 _symmetry_equiv_pos_site_id
 _symmetry_equiv_pos_as_xyz
  1  'x, y, z'
loop_
 _atom_site_type_symbol
 _atom_site_label
 _atom_site_symmetry_multiplicity
 _atom_site_fract_x
 _atom_site_fract_y
 _atom_site_fract_z
 _atom_site_occupancy
  Ca  Ca0  1  0.01257309  0.75000000  0.98269597  1
  Ca  Ca1  1  0.99101348  0.25000000  0.51850734  1
  Ca  Ca2  1  0.48173114  0.75000000  0.73661691  1
  Ca  Ca3  1  0.52124723  0.25000000  0.26869134  1
  La  La4  1  0.99465004  0.25000000  0.01133647  1
  La  La5  1  0.49376337  0.25000000  0.75791558  1
  La  La6  1  0.50314338  0.75000000  0.23528529  1
  La  La7  1  0.00252210  0.75000000  0.48981084  1
  Mn  Mn8  1  0.99201510  0.50507105  0.74975373  1
  Mn  Mn9  1  0.00830923  0.00557659  0.25132099  1
  Mn  Mn10  1  0.00830923  0.49442341  0.25132099  1
  Mn  Mn11  1  0.99201510  0.99492895  0.74975373  1
  Mn  Mn12  1  0.50039891  0.49649918  0.49947125  1
  Mn  Mn13  1  0.50039891  0.00350082  0.49947125  1
  Mn  Mn14  1  0.49920373  0.50329025  0.99941513  1
  Mn  Mn15  1  0.49920373  0.99670975  0.99941513  1
  O  O16  1  0.90908678  0.75000000  0.75598088  1
  O  O17  1  0.09582006  0.25000000  0.23598271  1
  O  O18  1  0.21458823  0.96324454  0.61525323  1
  O  O19  1  0.79231719  0.46028028  0.38884315  1
  O  O20  1  0.79231719  0.03971972  0.38884315  1
  O  O21  1  0.21458823  0.53675546  0.61525323  1
  O  O22  1  0.26318403  0.53463845  0.86039195  1
  O  O23  1  0.73481010  0.03949498  0.14232128  1
  O  O24  1  0.73481010  0.46050502  0.14232128  1
  O  O25  1  0.26318403  0.96536155  0.86039195  1
  O  O26  1  0.05686019  0.25000000  0.74431562  1
  O  O27  1  0.93882985  0.75000000  0.26238197  1
  O  O28  1  0.76501270  0.45572452  0.88625927  1
  O  O29  1  0.22855628  0.95405027  0.10976210  1
  O  O30  1  0.22855628  0.54594973  0.10976210  1
  O  O31  1  0.76501270  0.04427548  0.88625927  1
  O  O32  1  0.56602652  0.75000000  0.50241933  1
  O  O33  1  0.41945441  0.25000000  0.49676476  1
  O  O34  1  0.42931493  0.25000000  0.99433195  1
  O  O35  1  0.58586494  0.75000000  0.00579598  1
  O  O36  1  0.71507967  0.03547730  0.63693049  1
  O  O37  1  0.28557408  0.53897404  0.36086098  1
  O  O38  1  0.28557408  0.96102596  0.36086098  1
  O  O39  1  0.71507967  0.46452270  0.63693049  1
