# generated using pymatgen
data_Ca3Cd5(P2O7)4
_symmetry_space_group_name_H-M   'P 1'
_cell_length_a   6.75805521
_cell_length_b   6.75713616
_cell_length_c   13.41947774
_cell_angle_alpha   84.10881250
_cell_angle_beta   87.16352331
_cell_angle_gamma   65.74827387
_symmetry_Int_Tables_number   1
_chemical_formula_structural   Ca3Cd5(P2O7)4
_chemical_formula_sum   'Ca3 Cd5 P8 O28'
_cell_volume   555.75286148
_cell_formula_units_Z   1
loop_
 _symmetry_equiv_pos_site_id
 _symmetry_equiv_pos_as_xyz
  1  'x, y, z'
loop_
 _atom_site_type_symbol
 _atom_site_label
 _atom_site_symmetry_multiplicity
 _atom_site_fract_x
 _atom_site_fract_y
 _atom_site_fract_z
 _atom_site_occupancy
  Ca  Ca0  1  0.31260330  0.23656968  0.81136897  1
  Ca  Ca1  1  0.68704662  0.76383060  0.18910563  1
  Ca  Ca2  1  0.68753194  0.76334503  0.68870557  1
  Cd  Cd3  1  0.74070653  0.38870629  0.42496096  1
  Cd  Cd4  1  0.74081179  0.38884787  0.92564575  1
  Cd  Cd5  1  0.25935511  0.61070816  0.07466136  1
  Cd  Cd6  1  0.25912336  0.61113434  0.57432418  1
  Cd  Cd7  1  0.31387580  0.23397020  0.31143684  1
  P  P8  1  0.80970589  0.86510874  0.43401199  1
  P  P9  1  0.81023549  0.86523138  0.93416854  1
  P  P10  1  0.18946319  0.13439040  0.06626648  1
  P  P11  1  0.19100137  0.13450186  0.56525724  1
  P  P12  1  0.23094347  0.73793240  0.32443988  1
  P  P13  1  0.23089581  0.73811156  0.82378257  1
  P  P14  1  0.76825990  0.26267890  0.17644345  1
  P  P15  1  0.76921995  0.26205812  0.67604974  1
  O  O16  1  0.16584591  0.62711280  0.24443011  1
  O  O17  1  0.16506923  0.62837426  0.74404843  1
  O  O18  1  0.83347214  0.37258004  0.25597200  1
  O  O19  1  0.83511992  0.37145232  0.75591378  1
  O  O20  1  0.89097946  0.75913355  0.04003440  1
  O  O21  1  0.89059800  0.75959503  0.53993131  1
  O  O22  1  0.11008121  0.24121337  0.45876249  1
  O  O23  1  0.10935791  0.24088325  0.96037740  1
  O  O24  1  0.63470975  0.09897686  0.43300023  1
  O  O25  1  0.63508337  0.09856086  0.93274525  1
  O  O26  1  0.36477977  0.90136238  0.06727192  1
  O  O27  1  0.36535714  0.90115819  0.56718919  1
  O  O28  1  0.01645449  0.90041269  0.37817637  1
  O  O29  1  0.01682632  0.90038562  0.87815637  1
  O  O30  1  0.98249654  0.09967872  0.12209017  1
  O  O31  1  0.98339575  0.10044760  0.62104534  1
  O  O32  1  0.75677928  0.71683996  0.37194872  1
  O  O33  1  0.75695302  0.71711636  0.87197726  1
  O  O34  1  0.24295663  0.28342635  0.12820661  1
  O  O35  1  0.24298530  0.28295486  0.62774304  1
  O  O36  1  0.34598299  0.88183902  0.28284756  1
  O  O37  1  0.34628976  0.88137443  0.78312276  1
  O  O38  1  0.65335569  0.11801311  0.21693752  1
  O  O39  1  0.65399134  0.11858583  0.71677170  1
  O  O40  1  0.36033688  0.55521338  0.40586082  1
  O  O41  1  0.35978925  0.55391134  0.90502346  1
  O  O42  1  0.64001184  0.44608542  0.09484569  1
  O  O43  1  0.64016157  0.44618689  0.59494098  1
