# generated using pymatgen
data_Ca4Ge3Au5
_symmetry_space_group_name_H-M   'P 1'
_cell_length_a   4.57027829
_cell_length_b   5.87316089
_cell_length_c   10.76666769
_cell_angle_alpha   85.44401604
_cell_angle_beta   90.00000000
_cell_angle_gamma   112.89736928
_symmetry_Int_Tables_number   1
_chemical_formula_structural   Ca4Ge3Au5
_chemical_formula_sum   'Ca4 Ge3 Au5'
_cell_volume   265.23495489
_cell_formula_units_Z   1
loop_
 _symmetry_equiv_pos_site_id
 _symmetry_equiv_pos_as_xyz
  1  'x, y, z'
loop_
 _atom_site_type_symbol
 _atom_site_label
 _atom_site_symmetry_multiplicity
 _atom_site_fract_x
 _atom_site_fract_y
 _atom_site_fract_z
 _atom_site_occupancy
  Ca  Ca0  1  0.31378493  0.62756986  0.31098324  1
  Ca  Ca1  1  0.81201792  0.62403583  0.81768524  1
  Ca  Ca2  1  0.60915691  0.21831383  0.10207188  1
  Ca  Ca3  1  0.10839465  0.21678930  0.60500990  1
  Ge  Ge4  1  0.82565408  0.65130816  0.51223858  1
  Ge  Ge5  1  0.01394949  0.02789899  0.33177023  1
  Ge  Ge6  1  0.51443579  0.02887159  0.81655070  1
  Au  Au7  1  0.31838895  0.63677790  0.00853646  1
  Au  Au8  1  0.61306868  0.22613737  0.39732346  1
  Au  Au9  1  0.09561747  0.19123495  0.89123688  1
  Au  Au10  1  0.90551557  0.81103114  0.12227427  1
  Au  Au11  1  0.39761554  0.79523109  0.61191915  1
