# generated using pymatgen
data_Ba6Br2N3Cl
_symmetry_space_group_name_H-M   'P 1'
_cell_length_a   4.18556707
_cell_length_b   11.07420649
_cell_length_c   8.26487418
_cell_angle_alpha   106.68967411
_cell_angle_beta   90.00000039
_cell_angle_gamma   100.89315996
_symmetry_Int_Tables_number   1
_chemical_formula_structural   Ba6Br2N3Cl
_chemical_formula_sum   'Ba6 Br2 N3 Cl1'
_cell_volume   359.74168469
_cell_formula_units_Z   1
loop_
 _symmetry_equiv_pos_site_id
 _symmetry_equiv_pos_as_xyz
  1  'x, y, z'
loop_
 _atom_site_type_symbol
 _atom_site_label
 _atom_site_symmetry_multiplicity
 _atom_site_fract_x
 _atom_site_fract_y
 _atom_site_fract_z
 _atom_site_occupancy
  Ba  Ba0  1  0.07595566  0.15191131  0.68827164  1
  Ba  Ba1  1  0.74290041  0.48579981  0.68662432  1
  Ba  Ba2  1  0.41056065  0.82112231  0.68982501  1
  Ba  Ba3  1  0.92404434  0.84808869  0.31172836  1
  Ba  Ba4  1  0.58943935  0.17887769  0.31017499  1
  Ba  Ba5  1  0.25709959  0.51420019  0.31337568  1
  Br  Br6  1  0.66661847  0.33323594  0.00001321  1
  Br  Br7  1  0.33338153  0.66676406  0.99998679  1
  N  N8  1  0.50000000  0.00000000  0.50000000  1
  N  N9  1  0.16651438  0.33302775  0.49987906  1
  N  N10  1  0.83348562  0.66697225  0.50012094  1
  Cl  Cl11  1  0.00000000  0.00000000  -0.00000000  1
