# generated using pymatgen
data_BaTi6O12
_symmetry_space_group_name_H-M   'P 1'
_cell_length_a   8.43309981
_cell_length_b   8.43309981
_cell_length_c   8.55865397
_cell_angle_alpha   107.29596332
_cell_angle_beta   105.00297364
_cell_angle_gamma   115.81983263
_symmetry_Int_Tables_number   1
_chemical_formula_structural   BaTi6O12
_chemical_formula_sum   'Ba2 Ti12 O24'
_cell_volume   466.67574191
_cell_formula_units_Z   2
loop_
 _symmetry_equiv_pos_site_id
 _symmetry_equiv_pos_as_xyz
  1  'x, y, z'
loop_
 _atom_site_type_symbol
 _atom_site_label
 _atom_site_symmetry_multiplicity
 _atom_site_fract_x
 _atom_site_fract_y
 _atom_site_fract_z
 _atom_site_occupancy
  Ba  Ba0  1  0.05079825  0.05079825  0.00000000  1
  Ba  Ba1  1  0.61586875  0.61586875  0.00000000  1
  Ti  Ti2  1  0.81684176  0.00094325  0.48165884  1
  Ti  Ti3  1  0.48265738  0.66279573  0.47878711  1
  Ti  Ti4  1  0.14738259  0.33148409  0.48165884  1
  Ti  Ti5  1  0.84982524  0.66572375  0.51834116  1
  Ti  Ti6  1  0.51928441  0.33518291  0.51834116  1
  Ti  Ti7  1  0.18400862  0.00387027  0.52121289  1
  Ti  Ti8  1  0.99931568  0.48783908  0.82048875  1
  Ti  Ti9  1  0.66212443  0.15241808  0.81681324  1
  Ti  Ti10  1  0.33106216  0.82135581  0.81681324  1
  Ti  Ti11  1  0.66735032  0.17882692  0.17951125  1
  Ti  Ti12  1  0.33560484  0.84531119  0.18318676  1
  Ti  Ti13  1  0.00454257  0.51424892  0.18318676  1
  O  O14  1  0.68022160  0.37092523  0.38448082  1
  O  O15  1  0.34336105  0.03909957  0.38187927  1
  O  O16  1  0.00944671  0.70518523  0.38187927  1
  O  O17  1  0.98644440  0.29574077  0.61551918  1
  O  O18  1  0.65722029  0.96148177  0.61812073  1
  O  O19  1  0.32330595  0.62756743  0.61812073  1
  O  O20  1  0.96081297  0.31865144  0.27754300  1
  O  O21  1  0.62555856  0.98339703  0.27754300  1
  O  O22  1  0.29392122  0.65583564  0.28309087  1
  O  O23  1  0.70585403  0.34801556  0.72245700  1
  O  O24  1  0.37274478  0.01083036  0.71690913  1
  O  O25  1  0.04110844  0.68326997  0.72245700  1
  O  O26  1  0.70385870  0.34943132  0.05318293  1
  O  O27  1  0.37041860  0.01599123  0.05318293  1
  O  O28  1  0.03428625  0.68532797  0.05294823  1
  O  O29  1  0.96280830  0.31723568  0.94681707  1
  O  O30  1  0.63237975  0.98133803  0.94705177  1
  O  O31  1  0.29624840  0.65067577  0.94681707  1
  O  O32  1  0.00687372  0.97054571  0.64487811  1
  O  O33  1  0.34099940  0.30467139  0.64487811  1
  O  O34  1  0.67594790  0.63933310  0.64861500  1
  O  O35  1  0.32566760  0.36199561  0.35512189  1
  O  O36  1  0.65979328  0.69612129  0.35512189  1
  O  O37  1  0.99071810  0.02733290  0.35138500  1
