# generated using pymatgen
data_Ca4Bi6O13
_symmetry_space_group_name_H-M   'P 1'
_cell_length_a   6.00264188
_cell_length_b   7.30312975
_cell_length_c   9.34268000
_cell_angle_alpha   90.00000000
_cell_angle_beta   71.19485554
_cell_angle_gamma   90.00000000
_symmetry_Int_Tables_number   1
_chemical_formula_structural   Ca4Bi6O13
_chemical_formula_sum   'Ca4 Bi6 O13'
_cell_volume   387.70263016
_cell_formula_units_Z   1
loop_
 _symmetry_equiv_pos_site_id
 _symmetry_equiv_pos_as_xyz
  1  'x, y, z'
loop_
 _atom_site_type_symbol
 _atom_site_label
 _atom_site_symmetry_multiplicity
 _atom_site_fract_x
 _atom_site_fract_y
 _atom_site_fract_z
 _atom_site_occupancy
  Ca  Ca0  1  0.77912437  0.25290911  0.57029441  1
  Ca  Ca1  1  0.35073340  0.74681723  0.42858019  1
  Ca  Ca2  1  0.77912437  0.74709089  0.57029441  1
  Ca  Ca3  1  0.35073340  0.25318277  0.42858019  1
  Bi  Bi4  1  0.89194287  -0.00000000  0.22701576  1
  Bi  Bi5  1  0.11999800  -0.00000000  0.77279931  1
  Bi  Bi6  1  0.12430336  0.50000000  0.77689362  1
  Bi  Bi7  1  0.90532057  0.50000000  0.22345833  1
  Bi  Bi8  1  0.49312228  0.22813666  0.00121323  1
  Bi  Bi9  1  0.49312228  0.77186334  0.00121323  1
  O  O10  1  0.06608060  0.50000000  0.56427208  1
  O  O11  1  0.62985877  0.50000000  0.43642985  1
  O  O12  1  0.63449850  -0.00000000  0.44278630  1
  O  O13  1  0.07701772  -0.00000000  0.55809627  1
  O  O14  1  0.36378974  0.25443640  0.69709396  1
  O  O15  1  0.05885561  0.74503915  0.30519081  1
  O  O16  1  0.36378974  0.74556360  0.69709396  1
  O  O17  1  0.05885561  0.25496085  0.30519081  1
  O  O18  1  0.81593243  0.23769805  0.82090678  1
  O  O19  1  0.63775376  0.76907795  0.17982110  1
  O  O20  1  0.81593243  0.76230195  0.82090678  1
  O  O21  1  0.63775376  0.23092205  0.17982110  1
  O  O22  1  0.37415644  0.50000000  0.02004750  1
