# generated using pymatgen
data_CaTi8Mn(PO4)12
_symmetry_space_group_name_H-M   'P 1'
_cell_length_a   8.56588339
_cell_length_b   8.56588339
_cell_length_c   15.36026379
_cell_angle_alpha   106.19054164
_cell_angle_beta   106.19054164
_cell_angle_gamma   60.00000103
_symmetry_Int_Tables_number   1
_chemical_formula_structural   CaTi8Mn(PO4)12
_chemical_formula_sum   'Ca1 Ti8 Mn1 P12 O48'
_cell_volume   924.07915231
_cell_formula_units_Z   1
loop_
 _symmetry_equiv_pos_site_id
 _symmetry_equiv_pos_as_xyz
  1  'x, y, z'
loop_
 _atom_site_type_symbol
 _atom_site_label
 _atom_site_symmetry_multiplicity
 _atom_site_fract_x
 _atom_site_fract_y
 _atom_site_fract_z
 _atom_site_occupancy
  Ca  Ca0  1  0.50000000  0.50000000  0.50000000  1
  Ti  Ti1  1  0.68035419  0.68035419  0.04106258  1
  Ti  Ti2  1  0.18039955  0.18039955  0.54119864  1
  Ti  Ti3  1  0.81960045  0.81960045  0.45880136  1
  Ti  Ti4  1  0.31964581  0.31964581  0.95893742  1
  Ti  Ti5  1  0.42592100  0.42592100  0.27776301  1
  Ti  Ti6  1  0.92662251  0.92662251  0.77986754  1
  Ti  Ti7  1  0.07337749  0.07337749  0.22013246  1
  Ti  Ti8  1  0.57407900  0.57407900  0.72223699  1
  Mn  Mn9  1  -0.00000000  0.00000000  -0.00000000  1
  P  P10  1  0.08994443  0.36875571  0.12102091  1
  P  P11  1  0.59059381  0.87023031  0.62239182  1
  P  P12  1  0.36875571  0.66232077  0.12102091  1
  P  P13  1  0.87023031  0.16156769  0.62239182  1
  P  P14  1  0.66232077  0.08994443  0.12102091  1
  P  P15  1  0.16156769  0.59059381  0.62239182  1
  P  P16  1  0.40940619  0.12976969  0.37760818  1
  P  P17  1  0.91005557  0.63124429  0.87897909  1
  P  P18  1  0.12976969  0.83843231  0.37760818  1
  P  P19  1  0.63124429  0.33767923  0.87897909  1
  P  P20  1  0.83843231  0.40940619  0.37760818  1
  P  P21  1  0.33767923  0.91005557  0.87897909  1
  O  O22  1  0.85149731  0.58572446  0.38623261  1
  O  O23  1  0.35040845  0.08575261  0.88609973  1
  O  O24  1  0.58572446  0.94901083  0.38623261  1
  O  O25  1  0.08575261  0.44993868  0.88609973  1
  O  O26  1  0.94901083  0.85149731  0.38623261  1
  O  O27  1  0.44993868  0.35040845  0.88609973  1
  O  O28  1  0.64959155  0.91424739  0.11390027  1
  O  O29  1  0.14850269  0.41427554  0.61376739  1
  O  O30  1  0.91424739  0.55006132  0.11390027  1
  O  O31  1  0.41427554  0.05098917  0.61376739  1
  O  O32  1  0.55006132  0.64959155  0.11390027  1
  O  O33  1  0.05098917  0.14850269  0.61376739  1
  O  O34  1  0.55149348  0.18930299  0.03906190  1
  O  O35  1  0.05320084  0.68874118  0.53956087  1
  O  O36  1  0.18930299  0.29826543  0.03906190  1
  O  O37  1  0.68874118  0.79761884  0.53956087  1
  O  O38  1  0.29826543  0.55149348  0.03906190  1
  O  O39  1  0.79761884  0.05320084  0.53956087  1
  O  O40  1  0.94679916  0.31125882  0.46043913  1
  O  O41  1  0.44850652  0.81069701  0.96093810  1
  O  O42  1  0.31125882  0.20238116  0.46043913  1
  O  O43  1  0.81069701  0.70173457  0.96093810  1
  O  O44  1  0.20238116  0.94679916  0.46043913  1
  O  O45  1  0.70173457  0.44850652  0.96093810  1
  O  O46  1  0.45656373  0.27939931  0.37182247  1
  O  O47  1  0.95723475  0.78367084  0.87605454  1
  O  O48  1  0.27939931  0.63585943  0.37182247  1
  O  O49  1  0.78367084  0.13514896  0.87605454  1
  O  O50  1  0.63585943  0.45656373  0.37182247  1
  O  O51  1  0.13514896  0.95723475  0.87605454  1
  O  O52  1  0.04276525  0.21632916  0.12394546  1
  O  O53  1  0.54343627  0.72060069  0.62817753  1
  O  O54  1  0.21632916  0.86485104  0.12394546  1
  O  O55  1  0.72060069  0.36414057  0.62817753  1
  O  O56  1  0.86485104  0.04276525  0.12394546  1
  O  O57  1  0.36414057  0.54343627  0.62817753  1
  O  O58  1  0.21524134  0.40275132  0.21139664  1
  O  O59  1  0.71603997  0.90536030  0.71229282  1
  O  O60  1  0.40275132  0.59340399  0.21139664  1
  O  O61  1  0.90536030  0.09089255  0.71229282  1
  O  O62  1  0.59340399  0.21524134  0.21139664  1
  O  O63  1  0.09089255  0.71603997  0.71229282  1
  O  O64  1  0.28396003  0.09463970  0.28770718  1
  O  O65  1  0.78475866  0.59724868  0.78860336  1
  O  O66  1  0.09463970  0.90910745  0.28770718  1
  O  O67  1  0.59724868  0.40659601  0.78860336  1
  O  O68  1  0.90910745  0.28396003  0.28770718  1
  O  O69  1  0.40659601  0.78475866  0.78860336  1
