# generated using pymatgen
data_Ba4SnGe2(S4Br)2
_symmetry_space_group_name_H-M   'P 1'
_cell_length_a   9.10716851
_cell_length_b   9.29278046
_cell_length_c   12.10865334
_cell_angle_alpha   90.00000000
_cell_angle_beta   90.00000000
_cell_angle_gamma   90.00000000
_symmetry_Int_Tables_number   1
_chemical_formula_structural   Ba4SnGe2(S4Br)2
_chemical_formula_sum   'Ba8 Sn2 Ge4 S16 Br4'
_cell_volume   1024.76644277
_cell_formula_units_Z   2
loop_
 _symmetry_equiv_pos_site_id
 _symmetry_equiv_pos_as_xyz
  1  'x, y, z'
loop_
 _atom_site_type_symbol
 _atom_site_label
 _atom_site_symmetry_multiplicity
 _atom_site_fract_x
 _atom_site_fract_y
 _atom_site_fract_z
 _atom_site_occupancy
  Ba  Ba0  1  0.88634523  0.99133505  0.33204014  1
  Ba  Ba1  1  0.60222083  0.50545048  0.82267593  1
  Ba  Ba2  1  0.10222083  0.49454952  0.67732407  1
  Ba  Ba3  1  0.38634523  0.00866495  0.16795986  1
  Ba  Ba4  1  0.10222083  0.00545048  0.67732407  1
  Ba  Ba5  1  0.38634523  0.49133505  0.16795986  1
  Ba  Ba6  1  0.88634523  0.50866495  0.33204014  1
  Ba  Ba7  1  0.60222083  0.99454952  0.82267593  1
  Sn  Sn8  1  0.02279462  0.75000000  0.98201339  1
  Sn  Sn9  1  0.52279462  0.25000000  0.51798661  1
  Ge  Ge10  1  0.69391265  0.75000000  0.09977962  1
  Ge  Ge11  1  0.79902784  0.75000000  0.58993040  1
  Ge  Ge12  1  0.29902784  0.25000000  0.91006960  1
  Ge  Ge13  1  0.19391265  0.25000000  0.40022038  1
  S  S14  1  0.82987198  0.94256828  0.05684488  1
  S  S15  1  0.70215512  0.53562233  0.56256379  1
  S  S16  1  0.20215512  0.46437767  0.93743621  1
  S  S17  1  0.32987198  0.05743172  0.44315512  1
  S  S18  1  0.20215512  0.03562233  0.93743621  1
  S  S19  1  0.32987198  0.44256828  0.44315512  1
  S  S20  1  0.82987198  0.55743172  0.05684488  1
  S  S21  1  0.70215512  0.96437767  0.56256379  1
  S  S22  1  0.63072918  0.75000000  0.27703243  1
  S  S23  1  0.86239724  0.75000000  0.77613465  1
  S  S24  1  0.36239724  0.25000000  0.72386535  1
  S  S25  1  0.13072918  0.25000000  0.22296757  1
  S  S26  1  0.98968815  0.25000000  0.49944148  1
  S  S27  1  0.51382124  0.25000000  0.00070659  1
  S  S28  1  0.01382124  0.75000000  0.49929341  1
  S  S29  1  0.48968815  0.75000000  0.00055852  1
  Br  Br30  1  0.14378041  0.75000000  0.22322121  1
  Br  Br31  1  0.35736233  0.75000000  0.71347361  1
  Br  Br32  1  0.85736233  0.25000000  0.78652639  1
  Br  Br33  1  0.64378041  0.25000000  0.27677879  1
