# generated using pymatgen
data_Ba2Ga11BiO20
_symmetry_space_group_name_H-M   'P 1'
_cell_length_a   5.19349102
_cell_length_b   9.91945798
_cell_length_c   9.91945798
_cell_angle_alpha   73.68118056
_cell_angle_beta   75.58505472
_cell_angle_gamma   75.58505472
_symmetry_Int_Tables_number   1
_chemical_formula_structural   Ba2Ga11BiO20
_chemical_formula_sum   'Ba2 Ga11 Bi1 O20'
_cell_volume   466.09970067
_cell_formula_units_Z   1
loop_
 _symmetry_equiv_pos_site_id
 _symmetry_equiv_pos_as_xyz
  1  'x, y, z'
loop_
 _atom_site_type_symbol
 _atom_site_label
 _atom_site_symmetry_multiplicity
 _atom_site_fract_x
 _atom_site_fract_y
 _atom_site_fract_z
 _atom_site_occupancy
  Ba  Ba0  1  0.99952835  0.99996922  0.99996922  1
  Ba  Ba1  1  0.25130418  0.71653340  0.71653340  1
  Ga  Ga2  1  0.50337197  0.63585547  0.36560334  1
  Ga  Ga3  1  0.50337197  0.36560334  0.63585547  1
  Ga  Ga4  1  0.15625531  0.15289772  0.57967204  1
  Ga  Ga5  1  0.84181594  0.42422885  0.84968137  1
  Ga  Ga6  1  0.84181594  0.84968137  0.42422885  1
  Ga  Ga7  1  0.15625531  0.57967204  0.15289772  1
  Ga  Ga8  1  0.34086634  0.00982792  0.28342576  1
  Ga  Ga9  1  0.65512153  0.71488634  0.99112290  1
  Ga  Ga10  1  0.65512153  0.99112290  0.71488634  1
  Ga  Ga11  1  0.34086634  0.28342576  0.00982792  1
  Ga  Ga12  1  0.99278682  0.49915994  0.49915994  1
  Bi  Bi13  1  0.63463791  0.28862801  0.28862801  1
  O  O14  1  0.35954996  0.13392215  0.39455085  1
  O  O15  1  0.65647086  0.60196814  0.87283078  1
  O  O16  1  0.65647086  0.87283078  0.60196814  1
  O  O17  1  0.35954996  0.39455085  0.13392215  1
  O  O18  1  0.60589866  0.56134625  0.56134625  1
  O  O19  1  0.39057173  0.42644497  0.42644497  1
  O  O20  1  0.98530785  0.29490734  0.00267800  1
  O  O21  1  0.01207621  0.00251924  0.70671588  1
  O  O22  1  0.01207621  0.70671588  0.00251924  1
  O  O23  1  0.98530785  0.00267800  0.29490734  1
  O  O24  1  0.11502452  0.45194700  0.68813744  1
  O  O25  1  0.88412439  0.30703593  0.54276560  1
  O  O26  1  0.88412439  0.54276560  0.30703593  1
  O  O27  1  0.11502452  0.68813744  0.45194700  1
  O  O28  1  0.48127573  0.10016190  0.10016190  1
  O  O29  1  0.52497646  0.90285421  0.90285421  1
  O  O30  1  0.57462398  0.83354741  0.33237159  1
  O  O31  1  0.42445123  0.66756282  0.17024021  1
  O  O32  1  0.42445123  0.17024021  0.66756282  1
  O  O33  1  0.57462398  0.33237159  0.83354741  1
