# generated using pymatgen
data_Al9Cr(BO9)2
_symmetry_space_group_name_H-M   'P 1'
_cell_length_a   5.77990966
_cell_length_b   7.77661343
_cell_length_c   8.16057642
_cell_angle_alpha   90.09880567
_cell_angle_beta   69.37804397
_cell_angle_gamma   89.82133127
_symmetry_Int_Tables_number   1
_chemical_formula_structural   Al9Cr(BO9)2
_chemical_formula_sum   'Al9 Cr1 B2 O18'
_cell_volume   343.29635480
_cell_formula_units_Z   1
loop_
 _symmetry_equiv_pos_site_id
 _symmetry_equiv_pos_as_xyz
  1  'x, y, z'
loop_
 _atom_site_type_symbol
 _atom_site_label
 _atom_site_symmetry_multiplicity
 _atom_site_fract_x
 _atom_site_fract_y
 _atom_site_fract_z
 _atom_site_occupancy
  Al  Al0  1  0.55321262  0.18097221  0.88630837  1
  Al  Al1  1  0.44034149  0.68591660  0.11698303  1
  Al  Al2  1  0.74453619  0.18594241  0.50819250  1
  Al  Al3  1  0.25901904  0.68831632  0.48876167  1
  Al  Al4  1  0.29841157  0.33564391  0.40533455  1
  Al  Al5  1  0.70382873  0.83745083  0.58970333  1
  Al  Al6  1  0.63223547  0.00202526  0.23116554  1
  Al  Al7  1  0.13620643  0.00244192  0.23299166  1
  Al  Al8  1  0.36795067  0.50288444  0.76775934  1
  Cr  Cr9  1  0.86436430  0.50043203  0.76908789  1
  B  B10  1  0.01717198  0.21731802  0.96662772  1
  B  B11  1  0.98431236  0.72236455  0.03678871  1
  O  O12  1  0.95451752  0.09317907  0.09384284  1
  O  O13  1  0.05509879  0.59765993  0.91069112  1
  O  O14  1  0.64862488  0.03937093  0.70108908  1
  O  O15  1  0.35108711  0.53960527  0.29761569  1
  O  O16  1  0.65984582  0.36851671  0.65895732  1
  O  O17  1  0.33377178  0.87124244  0.33791164  1
  O  O18  1  0.45363414  0.07227110  0.09049368  1
  O  O19  1  0.52866416  0.57355088  0.91549555  1
  O  O20  1  0.25625008  0.28119916  0.90023495  1
  O  O21  1  0.83738130  0.27603647  0.90239535  1
  O  O22  1  0.74123356  0.78262751  0.10004663  1
  O  O23  1  0.15629898  0.78671081  0.10469219  1
  O  O24  1  0.20506443  0.43981948  0.61331909  1
  O  O25  1  0.80867449  0.94164728  0.38157922  1
  O  O26  1  0.55268281  0.20187273  0.37830868  1
  O  O27  1  0.06702416  0.20345257  0.38185130  1
  O  O28  1  0.44985574  0.70465863  0.61860711  1
  O  O29  1  0.93869943  0.71007053  0.61316426  1
