# generated using pymatgen
data_Ba3Mo2(NO3)2
_symmetry_space_group_name_H-M   'P 1'
_cell_length_a   6.09399908
_cell_length_b   6.09445338
_cell_length_c   8.02666531
_cell_angle_alpha   90.00000032
_cell_angle_beta   112.30453577
_cell_angle_gamma   59.99752891
_symmetry_Int_Tables_number   1
_chemical_formula_structural   Ba3Mo2(NO3)2
_chemical_formula_sum   'Ba3 Mo2 N2 O6'
_cell_volume   232.04914476
_cell_formula_units_Z   1
loop_
 _symmetry_equiv_pos_site_id
 _symmetry_equiv_pos_as_xyz
  1  'x, y, z'
loop_
 _atom_site_type_symbol
 _atom_site_label
 _atom_site_symmetry_multiplicity
 _atom_site_fract_x
 _atom_site_fract_y
 _atom_site_fract_z
 _atom_site_occupancy
  Ba  Ba0  1  0.40315951  0.79842024  0.60476453  1
  Ba  Ba1  1  0.59684049  0.20157976  0.39523547  1
  Ba  Ba2  1  -0.00000000  -0.00000000  -0.00000000  1
  Mo  Mo3  1  0.18716461  0.40641769  0.78069457  1
  Mo  Mo4  1  0.81283539  0.59358231  0.21930543  1
  N  N5  1  0.34856803  0.32571598  0.02280961  1
  N  N6  1  0.65143197  0.67428402  0.97719039  1
  O  O7  1  0.03590678  0.73229373  0.30364645  1
  O  O8  1  0.03590678  0.23179949  0.30364645  1
  O  O9  1  0.53540361  0.73229820  0.30365907  1
  O  O10  1  0.96409322  0.26770627  0.69635355  1
  O  O11  1  0.96409322  0.76820051  0.69635355  1
  O  O12  1  0.46459639  0.26770180  0.69634093  1
