# generated using pymatgen
data_Li4MnCo2O7
_symmetry_space_group_name_H-M   'P 1'
_cell_length_a   2.98294798
_cell_length_b   17.24239284
_cell_length_c   5.10945864
_cell_angle_alpha   94.79895511
_cell_angle_beta   75.37429719
_cell_angle_gamma   91.33463838
_symmetry_Int_Tables_number   1
_chemical_formula_structural   Li4MnCo2O7
_chemical_formula_sum   'Li8 Mn2 Co4 O14'
_cell_volume   253.38793076
_cell_formula_units_Z   2
loop_
 _symmetry_equiv_pos_site_id
 _symmetry_equiv_pos_as_xyz
  1  'x, y, z'
loop_
 _atom_site_type_symbol
 _atom_site_label
 _atom_site_symmetry_multiplicity
 _atom_site_fract_x
 _atom_site_fract_y
 _atom_site_fract_z
 _atom_site_occupancy
  Li  Li0  1  0.69973960  0.07303973  0.58297277  1
  Li  Li1  1  0.14330897  0.21504705  0.71064766  1
  Li  Li2  1  0.57289503  0.35790079  0.85973193  1
  Li  Li3  1  0.00035618  0.49935664  0.00111763  1
  Li  Li4  1  0.42194941  0.64547705  0.13955845  1
  Li  Li5  1  0.86051385  0.78672155  0.27517428  1
  Li  Li6  1  0.31365750  0.92104504  0.41780944  1
  Li  Li7  1  0.55122492  0.85676384  0.87497300  1
  Mn  Mn8  1  0.99751424  0.99553644  0.00213188  1
  Mn  Mn9  1  0.71471344  0.57274877  0.57328522  1
  Co  Co10  1  0.43950861  0.14498282  0.13599932  1
  Co  Co11  1  0.85863387  0.28586730  0.28706380  1
  Co  Co12  1  0.28726843  0.42782738  0.42681334  1
  Co  Co13  1  0.12920834  0.72093512  0.71747132  1
  O  O14  1  0.38962405  0.03608622  0.24960532  1
  O  O15  1  0.80983323  0.18157391  0.40535153  1
  O  O16  1  0.19045545  0.32344150  0.55149829  1
  O  O17  1  0.66105312  0.46685549  0.69718859  1
  O  O18  1  0.05003443  0.61440056  0.83840610  1
  O  O19  1  0.47454080  0.74678740  0.97206327  1
  O  O20  1  0.92506350  0.90099738  0.14622054  1
  O  O21  1  0.06491160  0.10496158  0.87650891  1
  O  O22  1  0.53134099  0.24858956  0.01966473  1
  O  O23  1  0.91129455  0.38781074  0.16252956  1
  O  O24  1  0.38884596  0.53046456  0.29531384  1
  O  O25  1  0.79912717  0.67588594  0.44798919  1
  O  O26  1  0.21193605  0.80988552  0.57544695  1
  O  O27  1  0.60144670  0.96901016  0.75746312  1
