# generated using pymatgen
data_As4PRh10
_symmetry_space_group_name_H-M   'P 1'
_cell_length_a   4.03648689
_cell_length_b   4.03648689
_cell_length_c   16.75648626
_cell_angle_alpha   96.91781699
_cell_angle_beta   83.08218301
_cell_angle_gamma   120.00000000
_symmetry_Int_Tables_number   1
_chemical_formula_structural   As4PRh10
_chemical_formula_sum   'As4 P1 Rh10'
_cell_volume   234.14197667
_cell_formula_units_Z   1
loop_
 _symmetry_equiv_pos_site_id
 _symmetry_equiv_pos_as_xyz
  1  'x, y, z'
loop_
 _atom_site_type_symbol
 _atom_site_label
 _atom_site_symmetry_multiplicity
 _atom_site_fract_x
 _atom_site_fract_y
 _atom_site_fract_z
 _atom_site_occupancy
  As  As0  1  0.60141764  0.39858236  0.19574707  1
  As  As1  1  0.20056232  0.79943768  0.39831303  1
  As  As2  1  0.79943768  0.20056232  0.60168697  1
  As  As3  1  0.39858236  0.60141764  0.80425293  1
  P  P4  1  0.00000000  0.00000000  0.00000000  1
  Rh  Rh5  1  0.04732817  0.95267183  0.85801550  1
  Rh  Rh6  1  0.84999395  0.15000605  0.45001815  1
  Rh  Rh7  1  0.44908857  0.55091143  0.65273430  1
  Rh  Rh8  1  0.65171203  0.34828797  0.04486392  1
  Rh  Rh9  1  0.25134441  0.74865559  0.24596676  1
  Rh  Rh10  1  0.34828797  0.65171203  0.95513608  1
  Rh  Rh11  1  0.15000605  0.84999395  0.54998185  1
  Rh  Rh12  1  0.74865559  0.25134441  0.75403324  1
  Rh  Rh13  1  0.95267183  0.04732817  0.14198450  1
  Rh  Rh14  1  0.55091143  0.44908857  0.34726570  1
