# generated using pymatgen
data_Li4MnCo2O7
_symmetry_space_group_name_H-M   'P 1'
_cell_length_a   2.98126155
_cell_length_b   16.74948373
_cell_length_c   5.07706797
_cell_angle_alpha   90.66531069
_cell_angle_beta   91.06472542
_cell_angle_gamma   87.05654928
_symmetry_Int_Tables_number   1
_chemical_formula_structural   Li4MnCo2O7
_chemical_formula_sum   'Li8 Mn2 Co4 O14'
_cell_volume   253.12871231
_cell_formula_units_Z   2
loop_
 _symmetry_equiv_pos_site_id
 _symmetry_equiv_pos_as_xyz
  1  'x, y, z'
loop_
 _atom_site_type_symbol
 _atom_site_label
 _atom_site_symmetry_multiplicity
 _atom_site_fract_x
 _atom_site_fract_y
 _atom_site_fract_z
 _atom_site_occupancy
  Li  Li0  1  0.92217131  0.14772297  0.36413707  1
  Li  Li1  1  0.34601961  0.28714947  0.23421629  1
  Li  Li2  1  0.79331186  0.42938790  0.06671487  1
  Li  Li3  1  0.21698813  0.57061325  0.92786482  1
  Li  Li4  1  0.64296459  0.71274327  0.78723340  1
  Li  Li5  1  0.07262701  0.85580862  0.64346110  1
  Li  Li6  1  0.50396878  0.99825380  0.49194742  1
  Li  Li7  1  0.87003586  0.28443604  0.69750621  1
  Mn  Mn8  1  0.99174093  0.99936993  0.00343255  1
  Mn  Mn9  1  0.41867920  0.14848224  0.85091569  1
  Co  Co10  1  0.29180800  0.42339255  0.57246619  1
  Co  Co11  1  0.71304407  0.56976464  0.43433296  1
  Co  Co12  1  0.14821772  0.71305752  0.28736129  1
  Co  Co13  1  0.58241499  0.85613489  0.14442160  1
  O  O14  1  0.41558264  0.07065584  0.15767287  1
  O  O15  1  0.90252773  0.20686235  0.01148035  1
  O  O16  1  0.31769869  0.36744873  0.85557834  1
  O  O17  1  0.71749625  0.50058849  0.72967534  1
  O  O18  1  0.18266789  0.64318503  0.59030276  1
  O  O19  1  0.61971151  0.78502750  0.43700244  1
  O  O20  1  0.00706810  0.92647143  0.30785581  1
  O  O21  1  0.40121099  0.20891680  0.55410592  1
  O  O22  1  0.84845623  0.36389380  0.39846370  1
  O  O23  1  0.23913108  0.49866557  0.28341365  1
  O  O24  1  0.67512298  0.64085161  0.13153096  1
  O  O25  1  0.15372903  0.78637395  0.98727255  1
  O  O26  1  0.56658833  0.92720326  0.84124442  1
  O  O27  1  0.93901649  0.07753855  0.70838944  1
