# generated using pymatgen
data_LiC12
_symmetry_space_group_name_H-M   'P 1'
_cell_length_a   4.29939002
_cell_length_b   4.30121850
_cell_length_c   14.71071814
_cell_angle_alpha   90.00000000
_cell_angle_beta   90.00000000
_cell_angle_gamma   120.01406288
_symmetry_Int_Tables_number   1
_chemical_formula_structural   LiC12
_chemical_formula_sum   'Li2 C24'
_cell_volume   235.55986418
_cell_formula_units_Z   2
loop_
 _symmetry_equiv_pos_site_id
 _symmetry_equiv_pos_as_xyz
  1  'x, y, z'
loop_
 _atom_site_type_symbol
 _atom_site_label
 _atom_site_symmetry_multiplicity
 _atom_site_fract_x
 _atom_site_fract_y
 _atom_site_fract_z
 _atom_site_occupancy
  Li  Li0  1  0.33333300  0.00006402  0.37500000  1
  Li  Li1  1  0.33333300  0.33326998  0.87500000  1
  C  C2  1  -0.00012990  -0.00036049  0.00310368  1
  C  C3  1  -0.00012990  -0.00036049  0.74689632  1
  C  C4  1  0.66673774  0.66704482  0.00319136  1
  C  C5  1  0.66673774  0.66704482  0.74680864  1
  C  C6  1  -0.00012990  0.00023059  0.50310368  1
  C  C7  1  -0.00012990  0.00023059  0.24689632  1
  C  C8  1  0.66673774  -0.00030808  0.50319136  1
  C  C9  1  0.66673774  -0.00030808  0.24680864  1
  C  C10  1  0.66679690  0.33310241  0.00310368  1
  C  C11  1  0.66679690  0.33310241  0.74689632  1
  C  C12  1  0.33333300  0.00016851  0.00313182  1
  C  C13  1  0.33333300  0.00016851  0.74686818  1
  C  C14  1  0.66679690  0.33369349  0.50310368  1
  C  C15  1  0.66679690  0.33369349  0.24689632  1
  C  C16  1  0.33333300  0.33316549  0.50313182  1
  C  C17  1  0.33333300  0.33316549  0.24686818  1
  C  C18  1  0.33333300  0.66643898  0.00309122  1
  C  C19  1  0.33333300  0.66643898  0.74690878  1
  C  C20  1  -0.00007074  0.33364108  0.00319136  1
  C  C21  1  -0.00007074  0.33364108  0.74680864  1
  C  C22  1  0.33333300  0.66689502  0.50309122  1
  C  C23  1  0.33333300  0.66689502  0.24690878  1
  C  C24  1  -0.00007074  0.66628818  0.50319136  1
  C  C25  1  -0.00007074  0.66628818  0.24680864  1
