# generated using pymatgen
data_Sr3La2(BO3)4
_symmetry_space_group_name_H-M   'P 1'
_cell_length_a   7.44139898
_cell_length_b   8.94730148
_cell_length_c   16.83569808
_cell_angle_alpha   90.00000000
_cell_angle_beta   90.00000000
_cell_angle_gamma   90.00000000
_symmetry_Int_Tables_number   1
_chemical_formula_structural   Sr3La2(BO3)4
_chemical_formula_sum   'Sr12 La8 B16 O48'
_cell_volume   1120.92818768
_cell_formula_units_Z   4
loop_
 _symmetry_equiv_pos_site_id
 _symmetry_equiv_pos_as_xyz
  1  'x, y, z'
loop_
 _atom_site_type_symbol
 _atom_site_label
 _atom_site_symmetry_multiplicity
 _atom_site_fract_x
 _atom_site_fract_y
 _atom_site_fract_z
 _atom_site_occupancy
  B  B0  1  0.98399788  0.37088964  0.04722381  1
  B  B1  1  0.01600212  0.62911036  0.54722381  1
  B  B2  1  0.51600212  0.87088964  0.54722381  1
  B  B3  1  0.48399788  0.12911036  0.04722381  1
  B  B4  1  0.27799224  0.35638748  0.54943843  1
  B  B5  1  0.72200776  0.64361252  0.04943843  1
  B  B6  1  0.22200776  0.85638748  0.04943843  1
  B  B7  1  0.77799224  0.14361252  0.54943843  1
  B  B8  1  0.33651328  0.43984735  0.25839779  1
  B  B9  1  0.66348672  0.56015265  0.75839779  1
  B  B10  1  0.16348672  0.93984735  0.75839779  1
  B  B11  1  0.83651328  0.06015265  0.25839779  1
  B  B12  1  0.32819071  0.45066770  0.84241910  1
  B  B13  1  0.67180929  0.54933230  0.34241910  1
  B  B14  1  0.17180929  0.95066770  0.34241910  1
  B  B15  1  0.82819071  0.04933230  0.84241910  1
  O  O16  1  0.38263268  0.25934075  0.04464595  1
  O  O17  1  0.61736732  0.74065925  0.54464595  1
  O  O18  1  0.11736732  0.75934075  0.54464595  1
  O  O19  1  0.88263268  0.24065925  0.04464595  1
  O  O20  1  0.04561325  0.42741579  0.11920570  1
  O  O21  1  0.95438675  0.57258421  0.61920570  1
  O  O22  1  0.45438675  0.92741579  0.61920570  1
  O  O23  1  0.54561325  0.07258421  0.11920570  1
  O  O24  1  0.03745324  0.44234666  0.97668273  1
  O  O25  1  0.96254676  0.55765334  0.47668273  1
  O  O26  1  0.46254676  0.94234666  0.47668273  1
  O  O27  1  0.53745324  0.05765334  0.97668273  1
  O  O28  1  0.23516394  0.28196193  0.61856112  1
  O  O29  1  0.76483606  0.71803807  0.11856112  1
  O  O30  1  0.26483606  0.78196193  0.11856112  1
  O  O31  1  0.73516394  0.21803807  0.61856112  1
  O  O32  1  0.24719940  0.28154238  0.47795908  1
  O  O33  1  0.75280060  0.71845762  0.97795908  1
  O  O34  1  0.25280060  0.78154238  0.97795908  1
  O  O35  1  0.74719940  0.21845762  0.47795908  1
  O  O36  1  0.63890603  0.50621185  0.04949743  1
  O  O37  1  0.36109397  0.49378815  0.54949743  1
  O  O38  1  0.86109397  0.00621185  0.54949743  1
  O  O39  1  0.13890603  0.99378815  0.04949743  1
  O  O40  1  0.20727029  0.47454440  0.31530689  1
  O  O41  1  0.79272971  0.52545560  0.81530689  1
  O  O42  1  0.29272971  0.97454440  0.81530689  1
  O  O43  1  0.70727029  0.02545560  0.31530689  1
  O  O44  1  0.41239542  0.29677440  0.25812643  1
  O  O45  1  0.58760458  0.70322560  0.75812643  1
  O  O46  1  0.08760458  0.79677440  0.75812643  1
  O  O47  1  0.91239542  0.20322560  0.25812643  1
  O  O48  1  0.61274126  0.46032266  0.70010988  1
  O  O49  1  0.38725874  0.53967734  0.20010988  1
  O  O50  1  0.88725874  0.96032266  0.20010988  1
  O  O51  1  0.11274126  0.03967734  0.70010988  1
  O  O52  1  0.80647861  0.51092174  0.28890379  1
  O  O53  1  0.19352139  0.48907826  0.78890379  1
  O  O54  1  0.69352139  0.01092174  0.78890379  1
  O  O55  1  0.30647861  0.98907826  0.28890379  1
  O  O56  1  0.39853416  0.30840265  0.84540818  1
  O  O57  1  0.60146584  0.69159735  0.34540818  1
  O  O58  1  0.10146584  0.80840265  0.34540818  1
  O  O59  1  0.89853416  0.19159735  0.84540818  1
  O  O60  1  0.61816228  0.44012747  0.39715498  1
  O  O61  1  0.38183772  0.55987253  0.89715498  1
  O  O62  1  0.88183772  0.94012747  0.89715498  1
  O  O63  1  0.11816228  0.05987253  0.39715498  1
  Sr  Sr64  1  0.68159870  0.34849692  0.92458100  1
  Sr  Sr65  1  0.31840130  0.65150308  0.42458100  1
  Sr  Sr66  1  0.81840130  0.84849692  0.42458100  1
  Sr  Sr67  1  0.18159870  0.15150308  0.92458100  1
  Sr  Sr68  1  0.96603665  0.32549458  0.71909830  1
  Sr  Sr69  1  0.03396335  0.67450542  0.21909830  1
  Sr  Sr70  1  0.53396335  0.82549458  0.21909830  1
  Sr  Sr71  1  0.46603665  0.17450542  0.71909830  1
  Sr  Sr72  1  0.69144689  0.35252368  0.17295658  1
  Sr  Sr73  1  0.30855311  0.64747632  0.67295658  1
  Sr  Sr74  1  0.80855311  0.85252368  0.67295658  1
  Sr  Sr75  1  0.19144689  0.14747632  0.17295658  1
  La  La76  1  0.96793008  0.33115309  0.38002696  1
  La  La77  1  0.03206992  0.66884691  0.88002696  1
  La  La78  1  0.53206992  0.83115309  0.88002696  1
  La  La79  1  0.46793008  0.16884691  0.38002696  1
  La  La80  1  0.68291218  0.46661152  0.55229587  1
  La  La81  1  0.31708782  0.53338848  0.05229587  1
  La  La82  1  0.81708782  0.96661152  0.05229587  1
  La  La83  1  0.18291218  0.03338848  0.55229587  1
