# generated using pymatgen
data_AlGa(CuSe2)2
_symmetry_space_group_name_H-M   'P 1'
_cell_length_a   5.65408924
_cell_length_b   5.65408924
_cell_length_c   6.86824049
_cell_angle_alpha   65.69391704
_cell_angle_beta   65.69391694
_cell_angle_gamma   90.00000000
_symmetry_Int_Tables_number   1
_chemical_formula_structural   AlGa(CuSe2)2
_chemical_formula_sum   'Al1 Ga1 Cu2 Se4'
_cell_volume   178.53429683
_cell_formula_units_Z   1
loop_
 _symmetry_equiv_pos_site_id
 _symmetry_equiv_pos_as_xyz
  1  'x, y, z'
loop_
 _atom_site_type_symbol
 _atom_site_label
 _atom_site_symmetry_multiplicity
 _atom_site_fract_x
 _atom_site_fract_y
 _atom_site_fract_z
 _atom_site_occupancy
  Al  Al0  1  0.50000000  0.50000000  0.00000000  1
  Ga  Ga1  1  0.25000000  0.75000000  0.50000000  1
  Cu  Cu2  1  0.75000000  0.25000000  0.50000000  1
  Cu  Cu3  1  -0.00000000  -0.00000000  0.00000000  1
  Se  Se4  1  0.37636363  0.87607369  0.75262208  1
  Se  Se5  1  0.87101429  0.37130423  0.75262208  1
  Se  Se6  1  0.12392631  0.12898571  0.24737792  1
  Se  Se7  1  0.62869577  0.62363637  0.24737792  1
