# generated using pymatgen
data_K2SrBe2F8
_symmetry_space_group_name_H-M   'P 1'
_cell_length_a   7.60743849
_cell_length_b   7.60743849
_cell_length_c   7.60743849
_cell_angle_alpha   42.33660916
_cell_angle_beta   42.33660922
_cell_angle_gamma   42.33660914
_symmetry_Int_Tables_number   1
_chemical_formula_structural   K2SrBe2F8
_chemical_formula_sum   'K2 Sr1 Be2 F8'
_cell_volume   180.76205174
_cell_formula_units_Z   1
loop_
 _symmetry_equiv_pos_site_id
 _symmetry_equiv_pos_as_xyz
  1  'x, y, z'
loop_
 _atom_site_type_symbol
 _atom_site_label
 _atom_site_symmetry_multiplicity
 _atom_site_fract_x
 _atom_site_fract_y
 _atom_site_fract_z
 _atom_site_occupancy
  Be  Be0  1  0.59861598  0.59861598  0.59861598  1
  Be  Be1  1  0.40138402  0.40138402  0.40138402  1
  F  F2  1  0.26153996  0.73058730  0.73058730  1
  F  F3  1  0.73058730  0.26153996  0.73058730  1
  F  F4  1  0.73058730  0.73058730  0.26153996  1
  F  F5  1  0.32662099  0.32662099  0.32662099  1
  F  F6  1  0.67337901  0.67337901  0.67337901  1
  F  F7  1  0.26941270  0.73846004  0.26941270  1
  F  F8  1  0.26941270  0.26941270  0.73846004  1
  F  F9  1  0.73846004  0.26941270  0.26941270  1
  K  K10  1  0.20226330  0.20226330  0.20226330  1
  K  K11  1  0.79773670  0.79773670  0.79773670  1
  Sr  Sr12  1  0.00000000  0.00000000  0.00000000  1
