# generated using pymatgen
data_Cs3(SeO4)2
_symmetry_space_group_name_H-M   'P 1'
_cell_length_a   6.48200609
_cell_length_b   6.46035690
_cell_length_c   8.75073826
_cell_angle_alpha   91.60661317
_cell_angle_beta   111.73838032
_cell_angle_gamma   59.88908433
_symmetry_Int_Tables_number   1
_chemical_formula_structural   Cs3(SeO4)2
_chemical_formula_sum   'Cs3 Se2 O8'
_cell_volume   288.72201833
_cell_formula_units_Z   1
loop_
 _symmetry_equiv_pos_site_id
 _symmetry_equiv_pos_as_xyz
  1  'x, y, z'
loop_
 _atom_site_type_symbol
 _atom_site_label
 _atom_site_symmetry_multiplicity
 _atom_site_fract_x
 _atom_site_fract_y
 _atom_site_fract_z
 _atom_site_occupancy
  Cs  Cs0  1  0.00173263  0.00000000  1.00000000  1
  Cs  Cs1  1  0.58552616  0.20593193  0.38136904  1
  Cs  Cs2  1  0.41008905  0.79406807  0.61863096  1
  Se  Se3  1  0.16322633  0.42045190  0.76674156  1
  Se  Se4  1  0.81693667  0.57954810  0.23325844  1
  O  O5  1  0.58395433  0.70762713  0.30841642  1
  O  O6  1  0.99239328  0.71203048  0.28128984  1
  O  O7  1  0.01086397  0.27919708  0.30807377  1
  O  O8  1  0.42313393  0.28796952  0.71871016  1
  O  O9  1  0.98316505  0.29237287  0.69158358  1
  O  O10  1  0.98198727  0.72080292  0.69192623  1
  O  O11  1  0.25708177  0.37135951  0.97653172  1
  O  O12  1  0.65190955  0.62864049  0.02346828  1
