# generated using pymatgen
data_AgHgAsO4
_symmetry_space_group_name_H-M   'P 1'
_cell_length_a   6.34946422
_cell_length_b   6.34946422
_cell_length_c   6.91956138
_cell_angle_alpha   76.86458787
_cell_angle_beta   76.86458787
_cell_angle_gamma   120.31043805
_symmetry_Int_Tables_number   1
_chemical_formula_structural   AgHgAsO4
_chemical_formula_sum   'Ag2 Hg2 As2 O8'
_cell_volume   214.25625631
_cell_formula_units_Z   2
loop_
 _symmetry_equiv_pos_site_id
 _symmetry_equiv_pos_as_xyz
  1  'x, y, z'
loop_
 _atom_site_type_symbol
 _atom_site_label
 _atom_site_symmetry_multiplicity
 _atom_site_fract_x
 _atom_site_fract_y
 _atom_site_fract_z
 _atom_site_occupancy
  Ag  Ag0  1  0.81319014  0.18680986  0.25000000  1
  Ag  Ag1  1  0.56319014  0.43680986  0.75000000  1
  Hg  Hg2  1  0.43932244  0.56067756  0.25000000  1
  Hg  Hg3  1  0.18932244  0.81067756  0.75000000  1
  As  As4  1  0.12097676  0.87902324  0.25000000  1
  As  As5  1  0.87097676  0.12902324  0.75000000  1
  O  O6  1  0.16047276  0.71413770  0.08862028  1
  O  O7  1  0.79118492  0.73600931  0.40134304  1
  O  O8  1  0.28586230  0.83952724  0.41137972  1
  O  O9  1  0.26399069  0.20881508  0.09865696  1
  O  O10  1  0.86264764  0.30747204  0.90134304  1
  O  O11  1  0.19724202  0.25090695  0.58862028  1
  O  O12  1  0.69252796  0.13735236  0.59865696  1
  O  O13  1  0.74909305  0.80275798  0.91137972  1
