# generated using pymatgen
data_AsH25(ClO)10
_symmetry_space_group_name_H-M   'P 1'
_cell_length_a   9.93678128
_cell_length_b   9.93678128
_cell_length_c   12.47515910
_cell_angle_alpha   86.49460608
_cell_angle_beta   86.49460608
_cell_angle_gamma   86.37209837
_symmetry_Int_Tables_number   1
_chemical_formula_structural   AsH25(ClO)10
_chemical_formula_sum   'As2 H50 Cl20 O20'
_cell_volume   1224.99418242
_cell_formula_units_Z   2
loop_
 _symmetry_equiv_pos_site_id
 _symmetry_equiv_pos_as_xyz
  1  'x, y, z'
loop_
 _atom_site_type_symbol
 _atom_site_label
 _atom_site_symmetry_multiplicity
 _atom_site_fract_x
 _atom_site_fract_y
 _atom_site_fract_z
 _atom_site_occupancy
  As  As0  1  0.00008920  0.49943869  0.49996498  1
  As  As1  1  0.49943869  0.00008920  0.99996498  1
  H  H2  1  0.08381878  0.95097361  0.88404252  1
  H  H3  1  0.04666495  0.91563219  0.62439997  1
  H  H4  1  0.91563219  0.04666495  0.12439997  1
  H  H5  1  0.95097361  0.08381878  0.38404252  1
  H  H6  1  0.88001739  0.28824198  0.82341816  1
  H  H7  1  0.70826893  0.12364239  0.68208688  1
  H  H8  1  0.12364239  0.70826893  0.18208688  1
  H  H9  1  0.28824198  0.88001739  0.32341816  1
  H  H10  1  0.29799684  0.09672129  0.47348714  1
  H  H11  1  0.90300009  0.70197907  0.02663775  1
  H  H12  1  0.70197907  0.90300009  0.52663775  1
  H  H13  1  0.09672129  0.29799684  0.97348714  1
  H  H14  1  0.20702152  0.24190109  0.73111131  1
  H  H15  1  0.75861136  0.79344389  0.76820982  1
  H  H16  1  0.79344389  0.75861136  0.26820982  1
  H  H17  1  0.24190109  0.20702152  0.23111131  1
  H  H18  1  0.44983221  0.16164022  0.49210811  1
  H  H19  1  0.83386368  0.55250999  0.00730553  1
  H  H20  1  0.55250999  0.83386368  0.50730553  1
  H  H21  1  0.16164022  0.44983221  0.99210811  1
  H  H22  1  0.13994634  0.79104783  0.88593177  1
  H  H23  1  0.20373723  0.85695229  0.62254669  1
  H  H24  1  0.85695229  0.20373723  0.12254669  1
  H  H25  1  0.79104783  0.13994634  0.38593177  1
  H  H26  1  0.35322241  0.19259774  0.75708027  1
  H  H27  1  0.81014100  0.64804000  0.74215540  1
  H  H28  1  0.64804000  0.81014100  0.24215540  1
  H  H29  1  0.19259774  0.35322241  0.25708027  1
  H  H30  1  0.37580689  0.40497218  0.67645169  1
  H  H31  1  0.59329185  0.61906428  0.81911406  1
  H  H32  1  0.61906428  0.59329185  0.31911406  1
  H  H33  1  0.40497218  0.37580689  0.17645169  1
  H  H34  1  0.41010535  0.55559058  0.61935942  1
  H  H35  1  0.44380346  0.58719548  0.87461216  1
  H  H36  1  0.58719548  0.44380346  0.37461216  1
  H  H37  1  0.55559058  0.41010535  0.11935942  1
  H  H38  1  0.74593019  0.34512310  0.88586687  1
  H  H39  1  0.65879024  0.25768086  0.61866785  1
  H  H40  1  0.25768086  0.65879024  0.11866785  1
  H  H41  1  0.34512310  0.74593019  0.38586687  1
  H  H42  1  0.32957458  0.16537385  0.59303599  1
  H  H43  1  0.83481391  0.67164395  0.90586078  1
  H  H44  1  0.67164395  0.83481391  0.40586078  1
  H  H45  1  0.16537385  0.32957458  0.09303599  1
  H  H46  1  0.72824759  0.27837602  0.75471344  1
  H  H47  1  0.27837602  0.72824759  0.25471344  1
  H  H48  1  0.11125247  0.88379785  0.75714525  1
  H  H49  1  0.88379785  0.11125247  0.25714525  1
  H  H50  1  0.48089649  0.51353422  0.74482594  1
  H  H51  1  0.51353422  0.48089649  0.24482594  1
  Cl  Cl52  1  0.06127747  0.55027781  0.66664213  1
  Cl  Cl53  1  0.44846650  0.93933478  0.83348628  1
  Cl  Cl54  1  0.93933478  0.44846650  0.33348628  1
  Cl  Cl55  1  0.55027781  0.06127747  0.16664213  1
  Cl  Cl56  1  0.05105617  0.18381703  0.86688050  1
  Cl  Cl57  1  0.81461677  0.94962726  0.63423356  1
  Cl  Cl58  1  0.94962726  0.81461677  0.13423356  1
  Cl  Cl59  1  0.18381703  0.05105617  0.36688050  1
  Cl  Cl60  1  0.97787148  0.28121114  0.56156515  1
  Cl  Cl61  1  0.71764190  0.02237554  0.93895418  1
  Cl  Cl62  1  0.02237554  0.71764190  0.43895418  1
  Cl  Cl63  1  0.28121114  0.97787148  0.06156515  1
  Cl  Cl64  1  0.22233915  0.44747098  0.44886191  1
  Cl  Cl65  1  0.55103618  0.77798135  0.05108670  1
  Cl  Cl66  1  0.77798135  0.55103618  0.55108670  1
  Cl  Cl67  1  0.44747098  0.22233915  0.94886191  1
  Cl  Cl68  1  0.61204512  0.24788160  0.44214697  1
  Cl  Cl69  1  0.74653425  0.38937927  0.05357120  1
  Cl  Cl70  1  0.38937927  0.74653425  0.55357120  1
  Cl  Cl71  1  0.24788160  0.61204512  0.94214697  1
  O  O72  1  0.08169219  0.86404315  0.84954789  1
  O  O73  1  0.13303066  0.91498728  0.66004302  1
  O  O74  1  0.91498728  0.13303066  0.16004302  1
  O  O75  1  0.86404315  0.08169219  0.34954789  1
  O  O76  1  0.36856426  0.11366941  0.52815756  1
  O  O77  1  0.88458974  0.63203676  0.97182236  1
  O  O78  1  0.63203676  0.88458974  0.47182236  1
  O  O79  1  0.11366941  0.36856426  0.02815756  1
  O  O80  1  0.30190622  0.24187795  0.70079862  1
  O  O81  1  0.75983750  0.69846161  0.79847691  1
  O  O82  1  0.69846161  0.75983750  0.29847691  1
  O  O83  1  0.24187795  0.30190622  0.20079862  1
  O  O84  1  0.44364999  0.47518399  0.66510467  1
  O  O85  1  0.52298102  0.55203929  0.82896040  1
  O  O86  1  0.55203929  0.52298102  0.32896040  1
  O  O87  1  0.47518399  0.44364999  0.16510467  1
  O  O88  1  0.78952585  0.33742764  0.81202026  1
  O  O89  1  0.66298266  0.21541151  0.69249997  1
  O  O90  1  0.21541151  0.66298266  0.19249997  1
  O  O91  1  0.33742764  0.78952585  0.31202026  1
