# generated using pymatgen
data_Ho4C7
_symmetry_space_group_name_H-M   'P 1'
_cell_length_a   3.69163407
_cell_length_b   6.43429742
_cell_length_c   13.70040820
_cell_angle_alpha   90.00000000
_cell_angle_beta   90.00000000
_cell_angle_gamma   104.80873111
_symmetry_Int_Tables_number   1
_chemical_formula_structural   Ho4C7
_chemical_formula_sum   'Ho8 C14'
_cell_volume   314.61754762
_cell_formula_units_Z   2
loop_
 _symmetry_equiv_pos_site_id
 _symmetry_equiv_pos_as_xyz
  1  'x, y, z'
loop_
 _atom_site_type_symbol
 _atom_site_label
 _atom_site_symmetry_multiplicity
 _atom_site_fract_x
 _atom_site_fract_y
 _atom_site_fract_z
 _atom_site_occupancy
  C  C0  1  0.00000000  0.50000000  0.50000000  1
  C  C1  1  0.00000000  0.00000000  0.00000000  1
  C  C2  1  0.53280052  0.07676036  0.78460773  1
  C  C3  1  0.46719948  0.42323964  0.28460773  1
  C  C4  1  0.46719948  0.92323964  0.21539227  1
  C  C5  1  0.53280052  0.57676036  0.71539227  1
  C  C6  1  0.62155373  0.45323506  0.19663552  1
  C  C7  1  0.37844627  0.04676494  0.69663552  1
  C  C8  1  0.73313613  0.94940517  0.39584179  1
  C  C9  1  0.26686387  0.55059483  0.89584179  1
  C  C10  1  0.26686387  0.05059483  0.60415821  1
  C  C11  1  0.73313613  0.44940517  0.10415821  1
  C  C12  1  0.62155373  0.95323506  0.30336448  1
  C  C13  1  0.37844627  0.54676494  0.80336448  1
  Ho  Ho14  1  0.63445270  0.26089329  0.94505167  1
  Ho  Ho15  1  0.36554730  0.23910671  0.44505167  1
  Ho  Ho16  1  0.36554730  0.73910671  0.05494833  1
  Ho  Ho17  1  0.63445270  0.76089329  0.55494833  1
  Ho  Ho18  1  0.94542828  0.34001516  0.66239794  1
  Ho  Ho19  1  0.05457172  0.15998484  0.16239794  1
  Ho  Ho20  1  0.05457172  0.65998484  0.33760206  1
  Ho  Ho21  1  0.94542828  0.84001516  0.83760206  1
