# generated using pymatgen
data_Cs3SiF7
_symmetry_space_group_name_H-M   'P 1'
_cell_length_a   6.24047018
_cell_length_b   8.47418616
_cell_length_c   8.47418616
_cell_angle_alpha   90.00000000
_cell_angle_beta   90.00000000
_cell_angle_gamma   90.00000000
_symmetry_Int_Tables_number   1
_chemical_formula_structural   Cs3SiF7
_chemical_formula_sum   'Cs6 Si2 F14'
_cell_volume   448.13959039
_cell_formula_units_Z   2
loop_
 _symmetry_equiv_pos_site_id
 _symmetry_equiv_pos_as_xyz
  1  'x, y, z'
loop_
 _atom_site_type_symbol
 _atom_site_label
 _atom_site_symmetry_multiplicity
 _atom_site_fract_x
 _atom_site_fract_y
 _atom_site_fract_z
 _atom_site_occupancy
  F  F0  1  0.80371380  0.89861291  0.39861291  1
  F  F1  1  0.80371380  0.10138709  0.60138709  1
  F  F2  1  0.80371380  0.39861291  0.10138709  1
  F  F3  1  0.80371380  0.60138709  0.89861291  1
  F  F4  1  0.19628620  0.89861291  0.39861291  1
  F  F5  1  0.19628620  0.60138709  0.89861291  1
  F  F6  1  0.19628620  0.39861291  0.10138709  1
  F  F7  1  0.19628620  0.10138709  0.60138709  1
  F  F8  1  0.50000000  0.00000000  0.00000000  1
  F  F9  1  0.50000000  0.50000000  0.50000000  1
  F  F10  1  0.00000000  0.35638154  0.85638154  1
  F  F11  1  0.00000000  0.14361846  0.35638154  1
  F  F12  1  0.00000000  0.85638154  0.64361846  1
  F  F13  1  0.00000000  0.64361846  0.14361846  1
  Si  Si14  1  0.00000000  0.50000000  0.00000000  1
  Si  Si15  1  0.00000000  0.00000000  0.50000000  1
  Cs  Cs16  1  0.50000000  0.69559993  0.19559993  1
  Cs  Cs17  1  0.50000000  0.80440007  0.69559993  1
  Cs  Cs18  1  0.50000000  0.19559993  0.30440007  1
  Cs  Cs19  1  0.50000000  0.30440007  0.80440007  1
  Cs  Cs20  1  0.00000000  0.50000000  0.50000000  1
  Cs  Cs21  1  0.00000000  0.00000000  0.00000000  1
