# generated using pymatgen
data_Pr3NbO7
_symmetry_space_group_name_H-M   'P 1'
_cell_length_a   6.73174970
_cell_length_b   6.73174970
_cell_length_c   7.79121338
_cell_angle_alpha   90.00000000
_cell_angle_beta   90.00000000
_cell_angle_gamma   111.17886862
_symmetry_Int_Tables_number   1
_chemical_formula_structural   Pr3NbO7
_chemical_formula_sum   'Pr6 Nb2 O14'
_cell_volume   329.22278328
_cell_formula_units_Z   2
loop_
 _symmetry_equiv_pos_site_id
 _symmetry_equiv_pos_as_xyz
  1  'x, y, z'
loop_
 _atom_site_type_symbol
 _atom_site_label
 _atom_site_symmetry_multiplicity
 _atom_site_fract_x
 _atom_site_fract_y
 _atom_site_fract_z
 _atom_site_occupancy
  O  O0  1  0.56899479  0.56899479  0.75000000  1
  O  O1  1  0.43100521  0.43100521  0.25000000  1
  O  O2  1  0.10834778  0.84609876  0.75000000  1
  O  O3  1  0.89165222  0.15390124  0.25000000  1
  O  O4  1  0.84609876  0.10834778  0.75000000  1
  O  O5  1  0.15390124  0.89165222  0.25000000  1
  O  O6  1  0.18615721  0.43877866  0.96550871  1
  O  O7  1  0.81384279  0.56122134  0.46550871  1
  O  O8  1  0.43877866  0.18615721  0.96550871  1
  O  O9  1  0.56122134  0.81384279  0.46550871  1
  O  O10  1  0.18615721  0.43877866  0.53449129  1
  O  O11  1  0.81384279  0.56122134  0.03449129  1
  O  O12  1  0.56122134  0.81384279  0.03449129  1
  O  O13  1  0.43877866  0.18615721  0.53449129  1
  Nb  Nb14  1  0.50000000  0.50000000  0.50000000  1
  Nb  Nb15  1  0.50000000  0.50000000  0.00000000  1
  Pr  Pr16  1  0.92909362  0.47807447  0.75000000  1
  Pr  Pr17  1  0.07090638  0.52192553  0.25000000  1
  Pr  Pr18  1  0.47807447  0.92909362  0.75000000  1
  Pr  Pr19  1  0.52192553  0.07090638  0.25000000  1
  Pr  Pr20  1  0.00000000  0.00000000  0.50000000  1
  Pr  Pr21  1  0.00000000  0.00000000  0.00000000  1
