# generated using pymatgen
data_CrAs2
_symmetry_space_group_name_H-M   'P 1'
_cell_length_a   3.22655678
_cell_length_b   4.74370725
_cell_length_c   6.68244401
_cell_angle_alpha   79.08305468
_cell_angle_beta   76.02961061
_cell_angle_gamma   70.11775826
_symmetry_Int_Tables_number   1
_chemical_formula_structural   CrAs2
_chemical_formula_sum   'Cr2 As4'
_cell_volume   92.69157543
_cell_formula_units_Z   2
loop_
 _symmetry_equiv_pos_site_id
 _symmetry_equiv_pos_as_xyz
  1  'x, y, z'
loop_
 _atom_site_type_symbol
 _atom_site_label
 _atom_site_symmetry_multiplicity
 _atom_site_fract_x
 _atom_site_fract_y
 _atom_site_fract_z
 _atom_site_occupancy
  Cr  Cr0  1  0.15288861  0.39401279  0.30020999  1
  Cr  Cr1  1  0.84711139  0.60598721  0.69979001  1
  As  As2  1  0.40368609  0.79809351  0.39453430  1
  As  As3  1  0.59631391  0.20190649  0.60546570  1
  As  As4  1  0.84977391  0.26354235  0.03690982  1
  As  As5  1  0.15022609  0.73645765  0.96309018  1
