# generated using pymatgen
data_Rb2Cu2Si8O19
_symmetry_space_group_name_H-M   'P 1'
_cell_length_a   8.50315168
_cell_length_b   9.98427720
_cell_length_c   11.69013944
_cell_angle_alpha   95.01990044
_cell_angle_beta   90.00000000
_cell_angle_gamma   90.00000000
_symmetry_Int_Tables_number   1
_chemical_formula_structural   Rb2Cu2Si8O19
_chemical_formula_sum   'Rb4 Si16 Cu4 O38'
_cell_volume   988.66065305
_cell_formula_units_Z   2
loop_
 _symmetry_equiv_pos_site_id
 _symmetry_equiv_pos_as_xyz
  1  'x, y, z'
loop_
 _atom_site_type_symbol
 _atom_site_label
 _atom_site_symmetry_multiplicity
 _atom_site_fract_x
 _atom_site_fract_y
 _atom_site_fract_z
 _atom_site_occupancy
  O  O0  1  0.75000000  0.84110657  0.78022731  1
  O  O1  1  0.25000000  0.15889343  0.21977269  1
  O  O2  1  0.25000000  0.61246093  0.25969141  1
  O  O3  1  0.75000000  0.38753907  0.74030859  1
  O  O4  1  0.25000000  0.60346053  0.90698263  1
  O  O5  1  0.75000000  0.39653947  0.09301737  1
  O  O6  1  0.97735538  0.04693383  0.17911715  1
  O  O7  1  0.47735538  0.95306617  0.82088285  1
  O  O8  1  0.02264462  0.95306617  0.82088285  1
  O  O9  1  0.52264462  0.04693383  0.17911715  1
  O  O10  1  0.99357640  0.25263948  0.34761860  1
  O  O11  1  0.49357640  0.74736052  0.65238140  1
  O  O12  1  0.00642360  0.74736052  0.65238140  1
  O  O13  1  0.50642360  0.25263948  0.34761860  1
  O  O14  1  0.53740380  0.20518868  0.78613755  1
  O  O15  1  0.03740380  0.79481132  0.21386245  1
  O  O16  1  0.46259620  0.79481132  0.21386245  1
  O  O17  1  0.96259620  0.20518868  0.78613755  1
  O  O18  1  0.52554989  0.70779919  0.87668372  1
  O  O19  1  0.02554989  0.29220081  0.12331628  1
  O  O20  1  0.47445011  0.29220081  0.12331628  1
  O  O21  1  0.97445011  0.70779919  0.87668372  1
  O  O22  1  0.50000000  0.50000000  0.00000000  1
  O  O23  1  0.00000000  0.50000000  0.00000000  1
  O  O24  1  0.25000000  0.10913682  0.75155752  1
  O  O25  1  0.75000000  0.89086318  0.24844248  1
  O  O26  1  0.97898625  0.31644097  0.58197629  1
  O  O27  1  0.47898625  0.68355903  0.41802371  1
  O  O28  1  0.02101375  0.68355903  0.41802371  1
  O  O29  1  0.52101375  0.31644097  0.58197629  1
  O  O30  1  0.01231371  0.02723482  0.60270552  1
  O  O31  1  0.51231371  0.97276518  0.39729448  1
  O  O32  1  0.98768629  0.97276518  0.39729448  1
  O  O33  1  0.48768629  0.02723482  0.60270552  1
  O  O34  1  0.04468069  0.46217800  0.77411060  1
  O  O35  1  0.54468069  0.53782200  0.22588940  1
  O  O36  1  0.95531931  0.53782200  0.22588940  1
  O  O37  1  0.45531931  0.46217800  0.77411060  1
  Si  Si38  1  0.43809574  0.19316805  0.22626792  1
  Si  Si39  1  0.93809574  0.80683195  0.77373208  1
  Si  Si40  1  0.56190426  0.80683195  0.77373208  1
  Si  Si41  1  0.06190426  0.19316805  0.22626792  1
  Si  Si42  1  0.43543526  0.56558146  0.88781306  1
  Si  Si43  1  0.93543526  0.43441854  0.11218694  1
  Si  Si44  1  0.56456474  0.43441854  0.11218694  1
  Si  Si45  1  0.06456474  0.56558146  0.88781306  1
  Si  Si46  1  0.06395991  0.07221701  0.73581629  1
  Si  Si47  1  0.56395991  0.92778299  0.26418371  1
  Si  Si48  1  0.93604009  0.92778299  0.26418371  1
  Si  Si49  1  0.43604009  0.07221701  0.73581629  1
  Si  Si50  1  0.43276155  0.65988267  0.28501684  1
  Si  Si51  1  0.93276155  0.34011733  0.71498316  1
  Si  Si52  1  0.56723845  0.34011733  0.71498316  1
  Si  Si53  1  0.06723845  0.65988267  0.28501684  1
  Cu  Cu54  1  0.49262480  0.84532420  0.51866358  1
  Cu  Cu55  1  0.99262480  0.15467580  0.48133642  1
  Cu  Cu56  1  0.50737520  0.15467580  0.48133642  1
  Cu  Cu57  1  0.00737520  0.84532420  0.51866358  1
  Rb  Rb58  1  0.75000000  0.46868417  0.43941820  1
  Rb  Rb59  1  0.25000000  0.53131583  0.56058180  1
  Rb  Rb60  1  0.25000000  0.89588617  0.02694749  1
  Rb  Rb61  1  0.75000000  0.10411383  0.97305251  1
