# generated using pymatgen
data_CeZnPd
_symmetry_space_group_name_H-M   'P 1'
_cell_length_a   4.44425409
_cell_length_b   6.88537279
_cell_length_c   8.05381555
_cell_angle_alpha   90.00000000
_cell_angle_beta   90.00000000
_cell_angle_gamma   90.00000000
_symmetry_Int_Tables_number   1
_chemical_formula_structural   CeZnPd
_chemical_formula_sum   'Ce4 Zn4 Pd4'
_cell_volume   246.44954393
_cell_formula_units_Z   4
loop_
 _symmetry_equiv_pos_site_id
 _symmetry_equiv_pos_as_xyz
  1  'x, y, z'
loop_
 _atom_site_type_symbol
 _atom_site_label
 _atom_site_symmetry_multiplicity
 _atom_site_fract_x
 _atom_site_fract_y
 _atom_site_fract_z
 _atom_site_occupancy
  Zn  Zn0  1  0.25000000  0.15406569  0.06814069  1
  Zn  Zn1  1  0.75000000  0.84593431  0.93185931  1
  Zn  Zn2  1  0.25000000  0.65406569  0.43185931  1
  Zn  Zn3  1  0.75000000  0.34593431  0.56814069  1
  Pd  Pd4  1  0.75000000  0.74062166  0.60771531  1
  Pd  Pd5  1  0.25000000  0.25937834  0.39228469  1
  Pd  Pd6  1  0.75000000  0.24062166  0.89228469  1
  Pd  Pd7  1  0.25000000  0.75937834  0.10771531  1
  Ce  Ce8  1  0.25000000  0.53260016  0.80352830  1
  Ce  Ce9  1  0.75000000  0.46739984  0.19647170  1
  Ce  Ce10  1  0.25000000  0.03260016  0.69647170  1
  Ce  Ce11  1  0.75000000  0.96739984  0.30352830  1
