# generated using pymatgen
data_Li4MnCo2O7
_symmetry_space_group_name_H-M   'P 1'
_cell_length_a   2.97088660
_cell_length_b   16.78204064
_cell_length_c   5.08463849
_cell_angle_alpha   91.11523911
_cell_angle_beta   91.29261422
_cell_angle_gamma   87.71728497
_symmetry_Int_Tables_number   1
_chemical_formula_structural   Li4MnCo2O7
_chemical_formula_sum   'Li8 Mn2 Co4 O14'
_cell_volume   253.19820037
_cell_formula_units_Z   2
loop_
 _symmetry_equiv_pos_site_id
 _symmetry_equiv_pos_as_xyz
  1  'x, y, z'
loop_
 _atom_site_type_symbol
 _atom_site_label
 _atom_site_symmetry_multiplicity
 _atom_site_fract_x
 _atom_site_fract_y
 _atom_site_fract_z
 _atom_site_occupancy
  Li  Li0  1  0.91803596  0.14391765  0.37508438  1
  Li  Li1  1  0.36484239  0.28581700  0.21155495  1
  Li  Li2  1  0.78760711  0.42767595  0.06897950  1
  Li  Li3  1  0.21642151  0.57084661  0.92734214  1
  Li  Li4  1  0.64521360  0.71281623  0.78489534  1
  Li  Li5  1  0.07398436  0.85549051  0.63861092  1
  Li  Li6  1  0.48966430  0.00539879  0.50765154  1
  Li  Li7  1  0.44265788  0.14164950  0.84122736  1
  Mn  Mn8  1  0.99670294  0.00583191  0.98807076  1
  Mn  Mn9  1  0.14274956  0.71310856  0.29195743  1
  Co  Co10  1  0.86844269  0.28072121  0.71749414  1
  Co  Co11  1  0.28410580  0.42715478  0.57307152  1
  Co  Co12  1  0.71435638  0.56739854  0.43129677  1
  Co  Co13  1  0.56093987  0.85864738  0.14911161  1
  O  O14  1  0.48664841  0.06344172  0.15423178  1
  O  O15  1  0.88860222  0.22509167  0.00112257  1
  O  O16  1  0.29877747  0.35739545  0.86470035  1
  O  O17  1  0.71391156  0.49916412  0.73297891  1
  O  O18  1  0.19092188  0.64068096  0.58904441  1
  O  O19  1  0.56827169  0.78528842  0.45808278  1
  O  O20  1  0.01808747  0.92663976  0.29249713  1
  O  O21  1  0.42603194  0.22104201  0.54111362  1
  O  O22  1  0.85135443  0.35624418  0.42954049  1
  O  O23  1  0.23791280  0.49654749  0.27420080  1
  O  O24  1  0.71815571  0.63976314  0.12667800  1
  O  O25  1  0.11182451  0.78821138  0.98851336  1
  O  O26  1  0.51037179  0.93712945  0.84547737  1
  O  O27  1  0.97340377  0.06688562  0.69547003  1
