# generated using pymatgen
data_Li6Gd(BO3)3
_symmetry_space_group_name_H-M   'P 1'
_cell_length_a   6.76253061
_cell_length_b   7.30322035
_cell_length_c   16.60485247
_cell_angle_alpha   90.00000000
_cell_angle_beta   90.00000000
_cell_angle_gamma   105.47970225
_symmetry_Int_Tables_number   1
_chemical_formula_structural   Li6Gd(BO3)3
_chemical_formula_sum   'Li24 Gd4 B12 O36'
_cell_volume   790.33610858
_cell_formula_units_Z   4
loop_
 _symmetry_equiv_pos_site_id
 _symmetry_equiv_pos_as_xyz
  1  'x, y, z'
loop_
 _atom_site_type_symbol
 _atom_site_label
 _atom_site_symmetry_multiplicity
 _atom_site_fract_x
 _atom_site_fract_y
 _atom_site_fract_z
 _atom_site_occupancy
  Li  Li0  1  0.55545025  0.69328845  0.96491262  1
  Li  Li1  1  0.41693577  0.86118857  0.44785989  1
  Li  Li2  1  0.08306423  0.13881143  0.94785989  1
  Li  Li3  1  0.58306423  0.13881143  0.55214011  1
  Li  Li4  1  0.17577999  0.07155100  0.50369214  1
  Li  Li5  1  0.32422001  0.92844900  0.00369214  1
  Li  Li6  1  0.82422001  0.92844900  0.49630786  1
  Li  Li7  1  0.67577999  0.07155100  0.99630786  1
  Li  Li8  1  0.67010053  0.54668413  0.46995612  1
  Li  Li9  1  0.82989947  0.45331587  0.96995612  1
  Li  Li10  1  0.32989947  0.45331587  0.53004388  1
  Li  Li11  1  0.17010053  0.54668413  0.03004388  1
  Li  Li12  1  0.86561689  0.71417249  0.20569391  1
  Li  Li13  1  0.63438311  0.28582751  0.70569391  1
  Li  Li14  1  0.13438311  0.28582751  0.79430609  1
  Li  Li15  1  0.36561689  0.71417249  0.29430609  1
  Li  Li16  1  0.94454975  0.30671155  0.46491262  1
  Li  Li17  1  0.91693577  0.86118857  0.05214011  1
  Li  Li18  1  0.05545025  0.69328845  0.53508738  1
  Li  Li19  1  0.44454975  0.30671155  0.03508738  1
  Li  Li20  1  0.95311598  0.43916564  0.29577461  1
  Li  Li21  1  0.54688402  0.56083436  0.79577461  1
  Li  Li22  1  0.04688402  0.56083436  0.70422539  1
  Li  Li23  1  0.45311598  0.43916564  0.20422539  1
  B  B24  1  0.83823324  0.91724585  0.86490648  1
  B  B25  1  0.16176676  0.08275415  0.13509352  1
  B  B26  1  0.33823324  0.91724585  0.63509352  1
  B  B27  1  0.66176676  0.08275415  0.36490648  1
  B  B28  1  0.31133448  0.44032839  0.38553152  1
  B  B29  1  0.18866552  0.55967161  0.88553152  1
  B  B30  1  0.68866552  0.55967161  0.61446848  1
  B  B31  1  0.81133448  0.44032839  0.11446848  1
  B  B32  1  0.49955143  0.71242766  0.11992600  1
  B  B33  1  0.00044857  0.28757234  0.61992600  1
  B  B34  1  0.50044857  0.28757234  0.88007400  1
  B  B35  1  0.99955143  0.71242766  0.38007400  1
  O  O36  1  0.47373037  0.00407622  0.32670492  1
  O  O37  1  0.02626963  0.99592378  0.82670492  1
  O  O38  1  0.83285347  0.14908531  0.31554894  1
  O  O39  1  0.52626963  0.99592378  0.67329508  1
  O  O40  1  0.42321530  0.60486787  0.42235143  1
  O  O41  1  0.07678470  0.39513213  0.92235143  1
  O  O42  1  0.57678470  0.39513213  0.57764857  1
  O  O43  1  0.92321530  0.60486787  0.07764857  1
  O  O44  1  0.27353043  0.42395162  0.30300793  1
  O  O45  1  0.22646957  0.57604838  0.80300793  1
  O  O46  1  0.72646957  0.57604838  0.69699207  1
  O  O47  1  0.77353043  0.42395162  0.19699207  1
  O  O48  1  0.72922609  0.27792824  0.06814770  1
  O  O49  1  0.77077391  0.72207176  0.56814770  1
  O  O50  1  0.27077391  0.72207176  0.93185230  1
  O  O51  1  0.22922609  0.27792824  0.43185230  1
  O  O52  1  0.41284377  0.53654732  0.08776999  1
  O  O53  1  0.08715623  0.46345268  0.58776999  1
  O  O54  1  0.58715623  0.46345268  0.91223001  1
  O  O55  1  0.91284377  0.53654732  0.41223001  1
  O  O56  1  0.05550090  0.73753852  0.29882332  1
  O  O57  1  0.44449910  0.26246148  0.79882332  1
  O  O58  1  0.94449910  0.26246148  0.70117668  1
  O  O59  1  0.55550090  0.73753852  0.20117668  1
  O  O60  1  0.54049788  0.87726465  0.07309198  1
  O  O61  1  0.95950212  0.12273535  0.57309198  1
  O  O62  1  0.45950212  0.12273535  0.92690802  1
  O  O63  1  0.04049788  0.87726465  0.42690802  1
  O  O64  1  0.17615704  0.08584422  0.05314289  1
  O  O65  1  0.32384296  0.91415578  0.55314289  1
  O  O66  1  0.82384296  0.91415578  0.94685711  1
  O  O67  1  0.67615704  0.08584422  0.44685711  1
  O  O68  1  0.33285347  0.14908531  0.18445106  1
  O  O69  1  0.16714653  0.85091469  0.68445106  1
  O  O70  1  0.66714653  0.85091469  0.81554894  1
  O  O71  1  0.97373037  0.00407622  0.17329508  1
  Gd  Gd72  1  0.65269930  0.07955263  0.18961363  1
  Gd  Gd73  1  0.84730070  0.92044737  0.68961363  1
  Gd  Gd74  1  0.34730070  0.92044737  0.81038637  1
  Gd  Gd75  1  0.15269930  0.07955263  0.31038637  1
