# generated using pymatgen
data_CaAlF5
_symmetry_space_group_name_H-M   'P 1'
_cell_length_a   5.42003318
_cell_length_b   7.42231287
_cell_length_c   9.96971566
_cell_angle_alpha   90.00000000
_cell_angle_beta   90.00000000
_cell_angle_gamma   109.89625062
_symmetry_Int_Tables_number   1
_chemical_formula_structural   CaAlF5
_chemical_formula_sum   'Ca4 Al4 F20'
_cell_volume   377.13358815
_cell_formula_units_Z   4
loop_
 _symmetry_equiv_pos_site_id
 _symmetry_equiv_pos_as_xyz
  1  'x, y, z'
loop_
 _atom_site_type_symbol
 _atom_site_label
 _atom_site_symmetry_multiplicity
 _atom_site_fract_x
 _atom_site_fract_y
 _atom_site_fract_z
 _atom_site_occupancy
  F  F0  1  0.65158897  0.51220830  0.61899111  1
  F  F1  1  0.34841103  0.98779170  0.11899111  1
  F  F2  1  0.34841103  0.48779170  0.38100889  1
  F  F3  1  0.65158897  0.01220830  0.88100889  1
  F  F4  1  0.86496344  0.34135401  0.78447527  1
  F  F5  1  0.13503656  0.15864599  0.28447527  1
  F  F6  1  0.13503656  0.65864599  0.21552473  1
  F  F7  1  0.86496344  0.84135401  0.71552473  1
  F  F8  1  0.88016004  0.81839822  0.38802452  1
  F  F9  1  0.11983996  0.68160178  0.88802452  1
  F  F10  1  0.11983996  0.18160178  0.61197548  1
  F  F11  1  0.88016004  0.31839822  0.11197548  1
  F  F12  1  0.15653086  0.64128873  0.63550372  1
  F  F13  1  0.84346914  0.85871127  0.13550372  1
  F  F14  1  0.84346914  0.35871127  0.36449628  1
  F  F15  1  0.15653086  0.14128873  0.86449628  1
  F  F16  1  0.37425964  0.94455819  0.37555173  1
  F  F17  1  0.62574036  0.55544181  0.87555173  1
  F  F18  1  0.62574036  0.05544181  0.62444827  1
  F  F19  1  0.37425964  0.44455819  0.12444827  1
  Al  Al20  1  0.89796868  0.60013006  0.75253071  1
  Al  Al21  1  0.10203132  0.89986994  0.25253071  1
  Al  Al22  1  0.10203132  0.39986994  0.24746929  1
  Al  Al23  1  0.89796868  0.10013006  0.74746929  1
  Ca  Ca24  1  0.52656747  0.25448066  0.98187564  1
  Ca  Ca25  1  0.47343253  0.24551934  0.48187564  1
  Ca  Ca26  1  0.47343253  0.74551934  0.01812436  1
  Ca  Ca27  1  0.52656747  0.75448066  0.51812436  1
