# generated using pymatgen
data_Hf5Ge3
_symmetry_space_group_name_H-M   'P 1'
_cell_length_a   7.99342533
_cell_length_b   7.99342533
_cell_length_c   5.56725569
_cell_angle_alpha   90.00000000
_cell_angle_beta   90.00000000
_cell_angle_gamma   120.00000003
_symmetry_Int_Tables_number   1
_chemical_formula_structural   Hf5Ge3
_chemical_formula_sum   'Hf10 Ge6'
_cell_volume   308.06165507
_cell_formula_units_Z   2
loop_
 _symmetry_equiv_pos_site_id
 _symmetry_equiv_pos_as_xyz
  1  'x, y, z'
loop_
 _atom_site_type_symbol
 _atom_site_label
 _atom_site_symmetry_multiplicity
 _atom_site_fract_x
 _atom_site_fract_y
 _atom_site_fract_z
 _atom_site_occupancy
  Ge  Ge0  1  0.61026937  0.00000000  0.25000000  1
  Ge  Ge1  1  0.61026937  0.61026937  0.75000000  1
  Ge  Ge2  1  0.00000000  0.38973063  0.75000000  1
  Ge  Ge3  1  0.00000000  0.61026937  0.25000000  1
  Ge  Ge4  1  0.38973063  0.38973063  0.25000000  1
  Ge  Ge5  1  0.38973063  0.00000000  0.75000000  1
  Hf  Hf6  1  0.33333333  0.66666667  0.00000000  1
  Hf  Hf7  1  0.66666667  0.33333333  0.50000000  1
  Hf  Hf8  1  0.66666667  0.33333333  0.00000000  1
  Hf  Hf9  1  0.33333333  0.66666667  0.50000000  1
  Hf  Hf10  1  0.25252528  0.00000000  0.25000000  1
  Hf  Hf11  1  0.25252528  0.25252528  0.75000000  1
  Hf  Hf12  1  0.00000000  0.74747472  0.75000000  1
  Hf  Hf13  1  0.00000000  0.25252528  0.25000000  1
  Hf  Hf14  1  0.74747472  0.74747472  0.25000000  1
  Hf  Hf15  1  0.74747472  0.00000000  0.75000000  1
