# generated using pymatgen
data_Li4MnCo2O7
_symmetry_space_group_name_H-M   'P 1'
_cell_length_a   2.99187788
_cell_length_b   17.21049458
_cell_length_c   5.11833526
_cell_angle_alpha   94.73641478
_cell_angle_beta   75.36879113
_cell_angle_gamma   91.37614379
_symmetry_Int_Tables_number   1
_chemical_formula_structural   Li4MnCo2O7
_chemical_formula_sum   'Li8 Mn2 Co4 O14'
_cell_volume   254.13306537
_cell_formula_units_Z   2
loop_
 _symmetry_equiv_pos_site_id
 _symmetry_equiv_pos_as_xyz
  1  'x, y, z'
loop_
 _atom_site_type_symbol
 _atom_site_label
 _atom_site_symmetry_multiplicity
 _atom_site_fract_x
 _atom_site_fract_y
 _atom_site_fract_z
 _atom_site_occupancy
  Li  Li0  1  0.71556913  0.07401341  0.56635808  1
  Li  Li1  1  0.14426857  0.21604983  0.71668547  1
  Li  Li2  1  0.57078948  0.35832664  0.85705200  1
  Li  Li3  1  0.99427946  0.50089163  0.99788708  1
  Li  Li4  1  0.43156037  0.64301105  0.13191756  1
  Li  Li5  1  0.88618866  0.77723390  0.27366527  1
  Li  Li6  1  0.27087834  0.92940886  0.44372990  1
  Li  Li7  1  0.12385014  0.71229321  0.73045726  1
  Mn  Mn8  1  0.00973063  0.00166604  0.99654715  1
  Mn  Mn9  1  0.57801901  0.85123892  0.85709261  1
  Co  Co10  1  0.42063940  0.14459566  0.14307870  1
  Co  Co11  1  0.85337407  0.28724678  0.28366282  1
  Co  Co12  1  0.28320645  0.43041182  0.43009335  1
  Co  Co13  1  0.70877263  0.57641117  0.57542680  1
  O  O14  1  0.33642934  0.03989334  0.27051426  1
  O  O15  1  0.75553041  0.18213653  0.40711207  1
  O  O16  1  0.22646873  0.32606857  0.55616208  1
  O  O17  1  0.66235520  0.47043917  0.69094824  1
  O  O18  1  0.05518948  0.60261058  0.82977228  1
  O  O19  1  0.49707545  0.75728179  0.00354053  1
  O  O20  1  0.97017817  0.89250931  0.10623623  1
  O  O21  1  0.09143462  0.10693745  0.87664808  1
  O  O22  1  0.47770399  0.24671189  0.01971087  1
  O  O23  1  0.91818298  0.38962998  0.15579234  1
  O  O24  1  0.37884981  0.53175429  0.30492633  1
  O  O25  1  0.78365955  0.66541078  0.43289207  1
  O  O26  1  0.18015630  0.82470669  0.61387791  1
  O  O27  1  0.67565964  0.96111072  0.72821267  1
