# generated using pymatgen
data_Dy2Si2O7
_symmetry_space_group_name_H-M   'P 1'
_cell_length_a   6.66054542
_cell_length_b   6.69432736
_cell_length_c   12.15420898
_cell_angle_alpha   94.32210917
_cell_angle_beta   91.31954496
_cell_angle_gamma   91.97282177
_symmetry_Int_Tables_number   1
_chemical_formula_structural   Dy2Si2O7
_chemical_formula_sum   'Dy8 Si8 O28'
_cell_volume   539.89028208
_cell_formula_units_Z   4
loop_
 _symmetry_equiv_pos_site_id
 _symmetry_equiv_pos_as_xyz
  1  'x, y, z'
loop_
 _atom_site_type_symbol
 _atom_site_label
 _atom_site_symmetry_multiplicity
 _atom_site_fract_x
 _atom_site_fract_y
 _atom_site_fract_z
 _atom_site_occupancy
  O  O0  1  0.00052420  0.98585039  0.81499767  1
  O  O1  1  0.99947580  0.01414961  0.18500233  1
  O  O2  1  0.99993658  0.33315127  0.91846753  1
  O  O3  1  0.00006342  0.66684873  0.08153247  1
  O  O4  1  0.34838963  0.20942384  0.81474520  1
  O  O5  1  0.65161037  0.79057616  0.18525480  1
  O  O6  1  0.23046834  0.08412873  0.00502373  1
  O  O7  1  0.76953166  0.91587127  0.99497627  1
  O  O8  1  0.07623887  0.41575481  0.31037265  1
  O  O9  1  0.92376113  0.58424519  0.68962735  1
  O  O10  1  0.96267866  0.77182797  0.41971815  1
  O  O11  1  0.03732134  0.22817203  0.58028185  1
  O  O12  1  0.28975623  0.78194223  0.31234764  1
  O  O13  1  0.71024377  0.21805777  0.68765236  1
  O  O14  1  0.28386528  0.57437016  0.48893711  1
  O  O15  1  0.71613472  0.42562984  0.51106289  1
  O  O16  1  0.35533247  0.48865530  0.12628202  1
  O  O17  1  0.64466753  0.51134470  0.87371798  1
  O  O18  1  0.38236899  0.13736152  0.21147258  1
  O  O19  1  0.61763101  0.86263848  0.78852742  1
  O  O20  1  0.70047117  0.29404209  0.09468386  1
  O  O21  1  0.29952883  0.70595791  0.90531614  1
  O  O22  1  0.59970933  0.43204369  0.30594530  1
  O  O23  1  0.40029067  0.56795631  0.69405470  1
  O  O24  1  0.41392912  0.17413451  0.44750833  1
  O  O25  1  0.58607088  0.82586549  0.55249167  1
  O  O26  1  0.77372062  0.09625331  0.37711866  1
  O  O27  1  0.22627938  0.90374669  0.62288134  1
  Si  Si28  1  0.14487619  0.62578446  0.37869102  1
  Si  Si29  1  0.85512381  0.37421554  0.62130898  1
  Si  Si30  1  0.37687050  0.72485911  0.59400763  1
  Si  Si31  1  0.62312950  0.27514089  0.40599237  1
  Si  Si32  1  0.48724468  0.66561965  0.82455114  1
  Si  Si33  1  0.51275532  0.33438035  0.17544886  1
  Si  Si34  1  0.15480628  0.14837094  0.88496667  1
  Si  Si35  1  0.84519372  0.85162906  0.11503333  1
  Dy  Dy36  1  0.67352550  0.17312582  0.89082935  1
  Dy  Dy37  1  0.32647450  0.82687418  0.10917065  1
  Dy  Dy38  1  0.36773399  0.21707341  0.63391096  1
  Dy  Dy39  1  0.63226601  0.78292659  0.36608904  1
  Dy  Dy40  1  0.88199150  0.90994629  0.64351879  1
  Dy  Dy41  1  0.11800850  0.09005371  0.35648121  1
  Dy  Dy42  1  0.94900647  0.67253900  0.88507879  1
  Dy  Dy43  1  0.05099353  0.32746100  0.11492121  1
