# generated using pymatgen
data_KTb(PO3)4
_symmetry_space_group_name_H-M   'P 1'
_cell_length_a   7.35640277
_cell_length_b   7.97634584
_cell_length_c   8.45038883
_cell_angle_alpha   90.00000000
_cell_angle_beta   90.00000000
_cell_angle_gamma   91.50465912
_symmetry_Int_Tables_number   1
_chemical_formula_structural   KTb(PO3)4
_chemical_formula_sum   'K2 Tb2 P8 O24'
_cell_volume   495.67429118
_cell_formula_units_Z   2
loop_
 _symmetry_equiv_pos_site_id
 _symmetry_equiv_pos_as_xyz
  1  'x, y, z'
loop_
 _atom_site_type_symbol
 _atom_site_label
 _atom_site_symmetry_multiplicity
 _atom_site_fract_x
 _atom_site_fract_y
 _atom_site_fract_z
 _atom_site_occupancy
  O  O0  1  0.60827460  0.57404543  0.93929316  1
  O  O1  1  0.39172540  0.42595457  0.43929316  1
  O  O2  1  0.01946726  0.92646543  0.70006063  1
  O  O3  1  0.98053274  0.07353457  0.20006063  1
  O  O4  1  0.52397522  0.35317099  0.15294330  1
  O  O5  1  0.47602478  0.64682901  0.65294330  1
  O  O6  1  0.53522030  0.27370338  0.86083391  1
  O  O7  1  0.46477970  0.72629662  0.36083391  1
  O  O8  1  0.82088737  0.33902206  0.01161378  1
  O  O9  1  0.17911263  0.66097794  0.51161378  1
  O  O10  1  0.96491087  0.53717619  0.80622247  1
  O  O11  1  0.03508913  0.46282381  0.30622247  1
  O  O12  1  0.90911706  0.82816162  0.00599250  1
  O  O13  1  0.09088294  0.17183838  0.50599250  1
  O  O14  1  0.69223081  0.89260517  0.22129779  1
  O  O15  1  0.30776919  0.10739483  0.72129779  1
  O  O16  1  0.00980041  0.77914177  0.28822641  1
  O  O17  1  0.99019959  0.22085823  0.78822641  1
  O  O18  1  0.83975578  0.61713387  0.50656255  1
  O  O19  1  0.16024422  0.38286613  0.00656255  1
  O  O20  1  0.67905620  0.92810335  0.52277817  1
  O  O21  1  0.32094380  0.07189665  0.02277817  1
  O  O22  1  0.43189338  0.04293109  0.34626984  1
  O  O23  1  0.56810662  0.95706891  0.84626984  1
  P  P24  1  0.99515657  0.38168688  0.90205582  1
  P  P25  1  0.00484343  0.61831312  0.40205582  1
  P  P26  1  0.61337909  0.39739685  0.99874875  1
  P  P27  1  0.38662091  0.60260315  0.49874875  1
  P  P28  1  0.43393351  0.09213339  0.87612560  1
  P  P29  1  0.56606649  0.90786661  0.37612560  1
  P  P30  1  0.09771001  0.09915800  0.66893894  1
  P  P31  1  0.90228999  0.90084200  0.16893894  1
  K  K32  1  0.26722426  0.71676217  0.93831721  1
  K  K33  1  0.73277574  0.28323783  0.43831721  1
  Tb  Tb34  1  0.23815056  0.24206741  0.25031917  1
  Tb  Tb35  1  0.76184944  0.75793259  0.75031917  1
