# generated using pymatgen
data_Li4MnCo2O7
_symmetry_space_group_name_H-M   'P 1'
_cell_length_a   2.98496547
_cell_length_b   17.25715975
_cell_length_c   5.10657081
_cell_angle_alpha   94.66977761
_cell_angle_beta   75.37101706
_cell_angle_gamma   91.26786566
_symmetry_Int_Tables_number   1
_chemical_formula_structural   Li4MnCo2O7
_chemical_formula_sum   'Li8 Mn2 Co4 O14'
_cell_volume   253.67690924
_cell_formula_units_Z   2
loop_
 _symmetry_equiv_pos_site_id
 _symmetry_equiv_pos_as_xyz
  1  'x, y, z'
loop_
 _atom_site_type_symbol
 _atom_site_label
 _atom_site_symmetry_multiplicity
 _atom_site_fract_x
 _atom_site_fract_y
 _atom_site_fract_z
 _atom_site_occupancy
  Li  Li0  1  0.70517446  0.07283004  0.58052615  1
  Li  Li1  1  0.14094533  0.21414905  0.71524199  1
  Li  Li2  1  0.57327858  0.35911302  0.85668765  1
  Li  Li3  1  0.99972401  0.50050505  0.99959907  1
  Li  Li4  1  0.42429159  0.64410203  0.14399305  1
  Li  Li5  1  0.86085213  0.78729461  0.27303810  1
  Li  Li6  1  0.30856762  0.92130052  0.41797081  1
  Li  Li7  1  0.55130244  0.85579168  0.87360050  1
  Mn  Mn8  1  0.99231790  0.99438560  0.00172668  1
  Mn  Mn9  1  0.86173126  0.28689965  0.28761668  1
  Co  Co10  1  0.44170134  0.14315319  0.13334880  1
  Co  Co11  1  0.28621304  0.43261614  0.43152047  1
  Co  Co12  1  0.71443323  0.57330043  0.57487305  1
  Co  Co13  1  0.13233026  0.71944709  0.71633437  1
  O  O14  1  0.38568239  0.03485490  0.24940125  1
  O  O15  1  0.81849895  0.17995750  0.40653222  1
  O  O16  1  0.18775775  0.32658653  0.55902319  1
  O  O17  1  0.66320126  0.47008434  0.69753954  1
  O  O18  1  0.05720759  0.61300011  0.82797295  1
  O  O19  1  0.47287684  0.74501563  0.97297741  1
  O  O20  1  0.92024736  0.89983165  0.14633550  1
  O  O21  1  0.06149349  0.10305669  0.87490520  1
  O  O22  1  0.54029247  0.24609431  0.00990997  1
  O  O23  1  0.91034241  0.39105854  0.16120700  1
  O  O24  1  0.38857988  0.53447283  0.30212602  1
  O  O25  1  0.79723565  0.67429872  0.45379444  1
  O  O26  1  0.20934648  0.80853869  0.57496451  1
  O  O27  1  0.59437428  0.96826146  0.75723345  1
