# generated using pymatgen
data_SrVSi2O7
_symmetry_space_group_name_H-M   'P 1'
_cell_length_a   5.38264939
_cell_length_b   7.11380138
_cell_length_c   7.89161462
_cell_angle_alpha   90.00000000
_cell_angle_beta   109.94000540
_cell_angle_gamma   90.00000000
_symmetry_Int_Tables_number   1
_chemical_formula_structural   SrVSi2O7
_chemical_formula_sum   'Sr2 V2 Si4 O14'
_cell_volume   284.06305857
_cell_formula_units_Z   2
loop_
 _symmetry_equiv_pos_site_id
 _symmetry_equiv_pos_as_xyz
  1  'x, y, z'
loop_
 _atom_site_type_symbol
 _atom_site_label
 _atom_site_symmetry_multiplicity
 _atom_site_fract_x
 _atom_site_fract_y
 _atom_site_fract_z
 _atom_site_occupancy
  O  O0  1  0.63729313  0.75000000  0.27458626  1
  O  O1  1  0.36270687  0.25000000  0.72541374  1
  O  O2  1  0.50000000  0.50000000  0.00000000  1
  O  O3  1  0.50000000  0.00000000  0.00000000  1
  O  O4  1  0.59829434  0.56072865  0.69368690  1
  O  O5  1  0.90460743  0.43927135  0.30631310  1
  O  O6  1  0.40170566  0.06072865  0.30631310  1
  O  O7  1  0.09539257  0.93927135  0.69368690  1
  O  O8  1  0.99696526  0.25000000  0.99393052  1
  O  O9  1  0.00303474  0.75000000  0.00606948  1
  O  O10  1  0.90460743  0.06072865  0.30631310  1
  O  O11  1  0.59829434  0.93927135  0.69368690  1
  O  O12  1  0.09539257  0.56072865  0.69368690  1
  O  O13  1  0.40170566  0.43927135  0.30631310  1
  Si  Si14  1  0.39217051  0.47598592  0.78434101  1
  Si  Si15  1  0.60782949  0.52401408  0.21565899  1
  Si  Si16  1  0.60782949  0.97598592  0.21565899  1
  Si  Si17  1  0.39217051  0.02401408  0.78434101  1
  V  V18  1  0.89209788  0.75000000  0.78419575  1
  V  V19  1  0.10790212  0.25000000  0.21580425  1
  Sr  Sr20  1  0.20416287  0.75000000  0.40832575  1
  Sr  Sr21  1  0.79583713  0.25000000  0.59167425  1
