# generated using pymatgen
data_Ta2ZnO6
_symmetry_space_group_name_H-M   'P 1'
_cell_length_a   4.76162737
_cell_length_b   5.11557504
_cell_length_c   17.36277094
_cell_angle_alpha   90.00000000
_cell_angle_beta   90.00000000
_cell_angle_gamma   90.00000000
_symmetry_Int_Tables_number   1
_chemical_formula_structural   Ta2ZnO6
_chemical_formula_sum   'Ta8 Zn4 O24'
_cell_volume   422.93039831
_cell_formula_units_Z   4
loop_
 _symmetry_equiv_pos_site_id
 _symmetry_equiv_pos_as_xyz
  1  'x, y, z'
loop_
 _atom_site_type_symbol
 _atom_site_label
 _atom_site_symmetry_multiplicity
 _atom_site_fract_x
 _atom_site_fract_y
 _atom_site_fract_z
 _atom_site_occupancy
  O  O0  1  0.75985884  0.42776562  0.21181494  1
  O  O1  1  0.25985884  0.57223438  0.28818506  1
  O  O2  1  0.74014116  0.92776562  0.28818506  1
  O  O3  1  0.24014116  0.07223438  0.21181494  1
  O  O4  1  0.24014116  0.57223438  0.78818506  1
  O  O5  1  0.74014116  0.42776562  0.71181494  1
  O  O6  1  0.25985884  0.07223438  0.71181494  1
  O  O7  1  0.75985884  0.92776562  0.78818506  1
  O  O8  1  0.77029355  0.89893235  0.12813320  1
  O  O9  1  0.27029355  0.10106765  0.37186680  1
  O  O10  1  0.72970645  0.39893235  0.37186680  1
  O  O11  1  0.22970645  0.60106765  0.12813320  1
  O  O12  1  0.78318223  0.42803971  0.53536852  1
  O  O13  1  0.28318223  0.57196029  0.96463148  1
  O  O14  1  0.71681777  0.92803971  0.96463148  1
  O  O15  1  0.21681777  0.07196029  0.53536852  1
  O  O16  1  0.21681777  0.57196029  0.46463148  1
  O  O17  1  0.71681777  0.42803971  0.03536852  1
  O  O18  1  0.28318223  0.07196029  0.03536852  1
  O  O19  1  0.78318223  0.92803971  0.46463148  1
  O  O20  1  0.77029355  0.39893235  0.87186680  1
  O  O21  1  0.27029355  0.60106765  0.62813320  1
  O  O22  1  0.72970645  0.89893235  0.62813320  1
  O  O23  1  0.22970645  0.10106765  0.87186680  1
  Zn  Zn24  1  0.00000000  0.75000000  0.89822811  1
  Zn  Zn25  1  0.50000000  0.25000000  0.60177189  1
  Zn  Zn26  1  0.00000000  0.25000000  0.10177189  1
  Zn  Zn27  1  0.50000000  0.75000000  0.39822811  1
  Ta  Ta28  1  0.50000000  0.75000000  0.05577258  1
  Ta  Ta29  1  0.00000000  0.25000000  0.44422742  1
  Ta  Ta30  1  0.50000000  0.25000000  0.94422742  1
  Ta  Ta31  1  0.00000000  0.75000000  0.55577258  1
  Ta  Ta32  1  0.00000000  0.25000000  0.78075675  1
  Ta  Ta33  1  0.50000000  0.75000000  0.71924325  1
  Ta  Ta34  1  0.00000000  0.75000000  0.21924325  1
  Ta  Ta35  1  0.50000000  0.25000000  0.28075675  1
