# generated using pymatgen
data_NaAsO3
_symmetry_space_group_name_H-M   'P 1'
_cell_length_a   7.45716733
_cell_length_b   7.61516577
_cell_length_c   8.26117869
_cell_angle_alpha   103.78719772
_cell_angle_beta   92.63786049
_cell_angle_gamma   90.32185998
_symmetry_Int_Tables_number   1
_chemical_formula_structural   NaAsO3
_chemical_formula_sum   'Na6 As6 O18'
_cell_volume   455.06608348
_cell_formula_units_Z   6
loop_
 _symmetry_equiv_pos_site_id
 _symmetry_equiv_pos_as_xyz
  1  'x, y, z'
loop_
 _atom_site_type_symbol
 _atom_site_label
 _atom_site_symmetry_multiplicity
 _atom_site_fract_x
 _atom_site_fract_y
 _atom_site_fract_z
 _atom_site_occupancy
  O  O0  1  0.67935888  0.17128498  0.20297726  1
  O  O1  1  0.29797141  0.23263270  0.45300281  1
  O  O2  1  0.32850180  0.72957052  0.40390190  1
  O  O3  1  0.67149820  0.27042948  0.59609810  1
  O  O4  1  0.58049947  0.85818669  0.23813697  1
  O  O5  1  0.41950053  0.14181331  0.76186303  1
  O  O6  1  0.04953291  0.55465711  0.69215045  1
  O  O7  1  0.95046709  0.44534289  0.30784955  1
  O  O8  1  0.04727966  0.04356613  0.69283898  1
  O  O9  1  0.95272034  0.95643387  0.30716102  1
  O  O10  1  0.21594485  0.63378369  0.02923861  1
  O  O11  1  0.57488577  0.49916738  0.25225353  1
  O  O12  1  0.20560459  0.13328566  0.03308401  1
  O  O13  1  0.79439541  0.86671434  0.96691599  1
  O  O14  1  0.32064112  0.82871502  0.79702274  1
  O  O15  1  0.78405515  0.36621631  0.97076139  1
  O  O16  1  0.42511423  0.50083262  0.74774647  1
  O  O17  1  0.70202859  0.76736730  0.54699719  1
  Na  Na18  1  0.75585655  0.57524243  0.79681360  1
  Na  Na19  1  0.24414345  0.42475757  0.20318640  1
  Na  Na20  1  0.74711651  0.05775093  0.77835300  1
  Na  Na21  1  0.25288349  0.94224907  0.22164700  1
  Na  Na22  1  0.98236536  0.25363425  0.51158524  1
  Na  Na23  1  0.01763464  0.74636575  0.48841476  1
  As  As24  1  0.55091782  0.72102022  0.38631401  1
  As  As25  1  0.44908218  0.27897978  0.61368599  1
  As  As26  1  0.77784366  0.95297455  0.17131180  1
  As  As27  1  0.22215634  0.04702545  0.82868820  1
  As  As28  1  0.77324034  0.37824065  0.17386925  1
  As  As29  1  0.22675966  0.62175935  0.82613075  1
