# generated using pymatgen
data_Ca5Al6O14
_symmetry_space_group_name_H-M   'P 1'
_cell_length_a   7.94461148
_cell_length_b   7.94461148
_cell_length_c   10.39684968
_cell_angle_alpha   90.00000000
_cell_angle_beta   90.00000000
_cell_angle_gamma   91.48730834
_symmetry_Int_Tables_number   1
_chemical_formula_structural   Ca5Al6O14
_chemical_formula_sum   'Ca10 Al12 O28'
_cell_volume   655.99533773
_cell_formula_units_Z   2
loop_
 _symmetry_equiv_pos_site_id
 _symmetry_equiv_pos_as_xyz
  1  'x, y, z'
loop_
 _atom_site_type_symbol
 _atom_site_label
 _atom_site_symmetry_multiplicity
 _atom_site_fract_x
 _atom_site_fract_y
 _atom_site_fract_z
 _atom_site_occupancy
  O  O0  1  0.69974473  0.69974473  0.10969469  1
  O  O1  1  0.30025527  0.30025527  0.60969469  1
  O  O2  1  0.24324203  0.49501268  0.37308169  1
  O  O3  1  0.75675797  0.50498732  0.87308169  1
  O  O4  1  0.50498732  0.75675797  0.87308169  1
  O  O5  1  0.49501268  0.24324203  0.37308169  1
  O  O6  1  0.99303488  0.99303488  0.13125957  1
  O  O7  1  0.00696512  0.00696512  0.63125957  1
  O  O8  1  0.80875351  0.48932026  0.33972385  1
  O  O9  1  0.19124649  0.51067974  0.83972385  1
  O  O10  1  0.51067974  0.19124649  0.83972385  1
  O  O11  1  0.48932026  0.80875351  0.33972385  1
  O  O12  1  0.85391746  0.85391746  0.88780098  1
  O  O13  1  0.14608254  0.14608254  0.38780098  1
  O  O14  1  0.06285772  0.80888694  0.38448742  1
  O  O15  1  0.93714228  0.19111306  0.88448742  1
  O  O16  1  0.19111306  0.93714228  0.88448742  1
  O  O17  1  0.80888694  0.06285772  0.38448742  1
  O  O18  1  0.75234410  0.29863462  0.58442266  1
  O  O19  1  0.24765590  0.70136538  0.08442266  1
  O  O20  1  0.70136538  0.24765590  0.08442266  1
  O  O21  1  0.29863462  0.75234410  0.58442266  1
  O  O22  1  0.56281095  0.99102312  0.57609590  1
  O  O23  1  0.43718905  0.00897688  0.07609590  1
  O  O24  1  0.00897688  0.43718905  0.07609590  1
  O  O25  1  0.99102312  0.56281095  0.57609590  1
  O  O26  1  0.62557753  0.62557753  0.56682397  1
  O  O27  1  0.37442247  0.37442247  0.06682397  1
  Al  Al28  1  0.15695716  0.64658785  0.47594433  1
  Al  Al29  1  0.84304284  0.35341215  0.97594433  1
  Al  Al30  1  0.35341215  0.84304284  0.97594433  1
  Al  Al31  1  0.64658785  0.15695716  0.47594433  1
  Al  Al32  1  0.00068095  0.00068095  0.96252871  1
  Al  Al33  1  0.99931905  0.99931905  0.46252871  1
  Al  Al34  1  0.70085962  0.70085962  0.94077153  1
  Al  Al35  1  0.29914038  0.29914038  0.44077153  1
  Al  Al36  1  0.78908650  0.50236213  0.50847229  1
  Al  Al37  1  0.21091350  0.49763787  0.00847229  1
  Al  Al38  1  0.49763787  0.21091350  0.00847229  1
  Al  Al39  1  0.50236213  0.78908650  0.50847229  1
  Ca  Ca40  1  0.47476422  0.47476422  0.74206665  1
  Ca  Ca41  1  0.52523578  0.52523578  0.24206665  1
  Ca  Ca42  1  0.95938912  0.67543728  0.19909030  1
  Ca  Ca43  1  0.04061088  0.32456272  0.69909030  1
  Ca  Ca44  1  0.32456272  0.04061088  0.69909030  1
  Ca  Ca45  1  0.67543728  0.95938912  0.19909030  1
  Ca  Ca46  1  0.94736961  0.26428513  0.24965852  1
  Ca  Ca47  1  0.05263039  0.73571487  0.74965852  1
  Ca  Ca48  1  0.73571487  0.05263039  0.74965852  1
  Ca  Ca49  1  0.26428513  0.94736961  0.24965852  1
