# generated using pymatgen
data_Ca(ScS2)2
_symmetry_space_group_name_H-M   'P 1'
_cell_length_a   3.74398831
_cell_length_b   11.56776292
_cell_length_c   13.53231494
_cell_angle_alpha   90.00000000
_cell_angle_beta   90.00000000
_cell_angle_gamma   90.00000000
_symmetry_Int_Tables_number   1
_chemical_formula_structural   Ca(ScS2)2
_chemical_formula_sum   'Ca4 Sc8 S16'
_cell_volume   586.07872959
_cell_formula_units_Z   4
loop_
 _symmetry_equiv_pos_site_id
 _symmetry_equiv_pos_as_xyz
  1  'x, y, z'
loop_
 _atom_site_type_symbol
 _atom_site_label
 _atom_site_symmetry_multiplicity
 _atom_site_fract_x
 _atom_site_fract_y
 _atom_site_fract_z
 _atom_site_occupancy
  S  S0  1  0.25000000  0.09141234  0.07500210  1
  S  S1  1  0.75000000  0.90858766  0.92499790  1
  S  S2  1  0.25000000  0.59141234  0.42499790  1
  S  S3  1  0.75000000  0.40858766  0.57500210  1
  S  S4  1  0.25000000  0.96706833  0.71503974  1
  S  S5  1  0.75000000  0.03293167  0.28496026  1
  S  S6  1  0.25000000  0.46706833  0.78496026  1
  S  S7  1  0.75000000  0.53293167  0.21503974  1
  S  S8  1  0.25000000  0.37424531  0.03287997  1
  S  S9  1  0.75000000  0.62575469  0.96712003  1
  S  S10  1  0.25000000  0.87424531  0.46712003  1
  S  S11  1  0.75000000  0.12575469  0.53287997  1
  S  S12  1  0.75000000  0.20218075  0.83071249  1
  S  S13  1  0.25000000  0.79781925  0.16928751  1
  S  S14  1  0.75000000  0.70218075  0.66928751  1
  S  S15  1  0.25000000  0.29781925  0.33071249  1
  Ca  Ca16  1  0.75000000  0.76018953  0.33296299  1
  Ca  Ca17  1  0.25000000  0.23981047  0.66703701  1
  Ca  Ca18  1  0.75000000  0.26018953  0.16703701  1
  Ca  Ca19  1  0.25000000  0.73981047  0.83296299  1
  Sc  Sc20  1  0.25000000  0.08531385  0.40331155  1
  Sc  Sc21  1  0.75000000  0.91468615  0.59668845  1
  Sc  Sc22  1  0.25000000  0.58531385  0.09668845  1
  Sc  Sc23  1  0.75000000  0.41468615  0.90331155  1
  Sc  Sc24  1  0.75000000  0.44233974  0.38805729  1
  Sc  Sc25  1  0.25000000  0.55766026  0.61194271  1
  Sc  Sc26  1  0.75000000  0.94233974  0.11194271  1
  Sc  Sc27  1  0.25000000  0.05766026  0.88805729  1
