# generated using pymatgen
data_CaCr(Si2O5)2
_symmetry_space_group_name_H-M   'P 1'
_cell_length_a   7.47886018
_cell_length_b   7.47886018
_cell_length_c   15.39959917
_cell_angle_alpha   90.00000000
_cell_angle_beta   90.00000000
_cell_angle_gamma   90.00000000
_symmetry_Int_Tables_number   1
_chemical_formula_structural   CaCr(Si2O5)2
_chemical_formula_sum   'Ca4 Cr4 Si16 O40'
_cell_volume   861.35116395
_cell_formula_units_Z   4
loop_
 _symmetry_equiv_pos_site_id
 _symmetry_equiv_pos_as_xyz
  1  'x, y, z'
loop_
 _atom_site_type_symbol
 _atom_site_label
 _atom_site_symmetry_multiplicity
 _atom_site_fract_x
 _atom_site_fract_y
 _atom_site_fract_z
 _atom_site_occupancy
  O  O0  1  0.99776751  0.35480028  0.58234788  1
  O  O1  1  0.50223249  0.14519972  0.58234788  1
  O  O2  1  0.85480028  0.49776751  0.91765212  1
  O  O3  1  0.35480028  0.50223249  0.58234788  1
  O  O4  1  0.14519972  0.99776751  0.58234788  1
  O  O5  1  0.00223249  0.85480028  0.91765212  1
  O  O6  1  0.49776751  0.64519972  0.91765212  1
  O  O7  1  0.64519972  0.00223249  0.91765212  1
  O  O8  1  0.00223249  0.64519972  0.41765212  1
  O  O9  1  0.49776751  0.85480028  0.41765212  1
  O  O10  1  0.14519972  0.50223249  0.08234788  1
  O  O11  1  0.64519972  0.49776751  0.41765212  1
  O  O12  1  0.85480028  0.00223249  0.41765212  1
  O  O13  1  0.99776751  0.14519972  0.08234788  1
  O  O14  1  0.50223249  0.35480028  0.08234788  1
  O  O15  1  0.00155731  0.29666395  0.37167705  1
  O  O16  1  0.35480028  0.99776751  0.08234788  1
  O  O17  1  0.50155731  0.79666395  0.62832295  1
  O  O18  1  0.20333605  0.49844269  0.87167705  1
  O  O19  1  0.70333605  0.50155731  0.62832295  1
  O  O20  1  0.79666395  0.99844269  0.62832295  1
  O  O21  1  0.00155731  0.20333605  0.87167705  1
  O  O22  1  0.49844269  0.29666395  0.87167705  1
  O  O23  1  0.29666395  0.00155731  0.87167705  1
  O  O24  1  0.45634717  0.95634717  0.25000000  1
  O  O25  1  0.54365283  0.45634717  0.25000000  1
  O  O26  1  0.95634717  0.04365283  0.25000000  1
  O  O27  1  0.04365283  0.54365283  0.25000000  1
  O  O28  1  0.54365283  0.04365283  0.75000000  1
  O  O29  1  0.45634717  0.54365283  0.75000000  1
  O  O30  1  0.04365283  0.95634717  0.75000000  1
  O  O31  1  0.95634717  0.45634717  0.75000000  1
  O  O32  1  0.70333605  0.99844269  0.12832295  1
  O  O33  1  0.50155731  0.70333605  0.12832295  1
  O  O34  1  0.99844269  0.79666395  0.12832295  1
  O  O35  1  0.20333605  0.00155731  0.37167705  1
  O  O36  1  0.29666395  0.49844269  0.37167705  1
  O  O37  1  0.79666395  0.50155731  0.12832295  1
  O  O38  1  0.49844269  0.20333605  0.37167705  1
  O  O39  1  0.99844269  0.70333605  0.62832295  1
  Si  Si40  1  0.92023230  0.50198159  0.64831239  1
  Si  Si41  1  0.57976770  0.99801841  0.64831239  1
  Si  Si42  1  0.00198159  0.42023230  0.85168761  1
  Si  Si43  1  0.50198159  0.57976770  0.64831239  1
  Si  Si44  1  0.99801841  0.92023230  0.64831239  1
  Si  Si45  1  0.07976770  0.00198159  0.85168761  1
  Si  Si46  1  0.42023230  0.49801841  0.85168761  1
  Si  Si47  1  0.49801841  0.07976770  0.85168761  1
  Si  Si48  1  0.07976770  0.49801841  0.35168761  1
  Si  Si49  1  0.42023230  0.00198159  0.35168761  1
  Si  Si50  1  0.99801841  0.57976770  0.14831239  1
  Si  Si51  1  0.49801841  0.42023230  0.35168761  1
  Si  Si52  1  0.00198159  0.07976770  0.35168761  1
  Si  Si53  1  0.92023230  0.99801841  0.14831239  1
  Si  Si54  1  0.57976770  0.50198159  0.14831239  1
  Si  Si55  1  0.50198159  0.92023230  0.14831239  1
  Ca  Ca56  1  0.25000000  0.75000000  0.00000000  1
  Ca  Ca57  1  0.75000000  0.25000000  0.00000000  1
  Ca  Ca58  1  0.75000000  0.25000000  0.50000000  1
  Ca  Ca59  1  0.25000000  0.75000000  0.50000000  1
  Cr  Cr60  1  0.25000000  0.25000000  0.08059726  1
  Cr  Cr61  1  0.75000000  0.75000000  0.41940274  1
  Cr  Cr62  1  0.75000000  0.75000000  0.91940274  1
  Cr  Cr63  1  0.25000000  0.25000000  0.58059726  1
