# generated using pymatgen
data_BaSr2Mn2(Si2O7)2
_symmetry_space_group_name_H-M   'P 1'
_cell_length_a   5.23701788
_cell_length_b   7.87442178
_cell_length_c   8.39828764
_cell_angle_alpha   117.95715339
_cell_angle_beta   92.84417825
_cell_angle_gamma   90.00000002
_symmetry_Int_Tables_number   1
_chemical_formula_structural   BaSr2Mn2(Si2O7)2
_chemical_formula_sum   'Ba1 Sr2 Mn2 Si4 O14'
_cell_volume   305.43204069
_cell_formula_units_Z   1
loop_
 _symmetry_equiv_pos_site_id
 _symmetry_equiv_pos_as_xyz
  1  'x, y, z'
loop_
 _atom_site_type_symbol
 _atom_site_label
 _atom_site_symmetry_multiplicity
 _atom_site_fract_x
 _atom_site_fract_y
 _atom_site_fract_z
 _atom_site_occupancy
  O  O0  1  0.67011159  0.13395912  0.54480623  1
  O  O1  1  0.32988937  0.58915316  0.45519412  1
  O  O2  1  0.77912378  0.41599103  0.87410480  1
  O  O3  1  0.22087631  0.54188525  0.12589438  1
  O  O4  1  0.79076974  0.62429526  0.63157640  1
  O  O5  1  0.20923001  0.99271881  0.36842341  1
  O  O6  1  0.80830890  0.06518566  0.87915157  1
  O  O7  1  0.19169127  0.18603561  0.12084912  1
  O  O8  1  0.63554640  0.01445492  0.19326523  1
  O  O9  1  0.33199327  0.18836906  0.80170870  1
  O  O10  1  0.66800537  0.38665946  0.19829017  1
  O  O11  1  0.36445380  0.82118977  0.80673478  1
  O  O12  1  0.62201379  0.76604586  0.32552432  1
  O  O13  1  0.37798707  0.44052128  0.67447541  1
  Si  Si14  1  0.51329906  0.97728826  0.34829258  1
  Si  Si15  1  0.48669949  0.62899534  0.65170675  1
  Si  Si16  1  0.46109380  0.55730963  0.26251336  1
  Si  Si17  1  0.53890577  0.29479704  0.73748713  1
  Mn  Mn18  1  0.49999962  0.10964063  0.99999986  1
  Mn  Mn19  1  0.00000015  0.30386955  0.00000074  1
  Sr  Sr20  1  0.01902669  0.89393134  0.59241150  1
  Sr  Sr21  1  0.98097338  0.30151913  0.40758820  1
  Ba  Ba22  1  0.99999931  0.77538595  0.99999956  1
