# generated using pymatgen
data_Ba2CaWO6
_symmetry_space_group_name_H-M   'P 1'
_cell_length_a   6.02743876
_cell_length_b   6.02743877
_cell_length_c   6.02743877
_cell_angle_alpha   60.00000006
_cell_angle_beta   60.00000002
_cell_angle_gamma   60.00000002
_symmetry_Int_Tables_number   1
_chemical_formula_structural   Ba2CaWO6
_chemical_formula_sum   'Ba2 Ca1 W1 O6'
_cell_volume   154.84009312
_cell_formula_units_Z   1
loop_
 _symmetry_equiv_pos_site_id
 _symmetry_equiv_pos_as_xyz
  1  'x, y, z'
loop_
 _atom_site_type_symbol
 _atom_site_label
 _atom_site_symmetry_multiplicity
 _atom_site_fract_x
 _atom_site_fract_y
 _atom_site_fract_z
 _atom_site_occupancy
  O  O0  1  0.27013473  0.72986552  0.72986545  1
  O  O1  1  0.27013473  0.72986552  0.27013420  1
  O  O2  1  0.72986458  0.27013576  0.72986540  1
  O  O3  1  0.27013468  0.27013576  0.72986556  1
  O  O4  1  0.72986458  0.27013576  0.27013415  1
  O  O5  1  0.72986462  0.72986552  0.27013571  1
  Ca  Ca6  1  0.00000000  0.00000000  0.00000000  1
  Ba  Ba7  1  0.25000000  0.24999981  0.25000049  1
  Ba  Ba8  1  0.74999999  0.74999943  0.74999980  1
  W  W9  1  0.49999999  0.49999962  0.50000097  1
