# generated using pymatgen
data_Tm5Mg24
_symmetry_space_group_name_H-M   'P 1'
_cell_length_a   9.70822265
_cell_length_b   9.70822264
_cell_length_c   9.70822264
_cell_angle_alpha   109.47122060
_cell_angle_beta   109.47122060
_cell_angle_gamma   109.47122064
_symmetry_Int_Tables_number   1
_chemical_formula_structural   Tm5Mg24
_chemical_formula_sum   'Tm5 Mg24'
_cell_volume   704.36422939
_cell_formula_units_Z   1
loop_
 _symmetry_equiv_pos_site_id
 _symmetry_equiv_pos_as_xyz
  1  'x, y, z'
loop_
 _atom_site_type_symbol
 _atom_site_label
 _atom_site_symmetry_multiplicity
 _atom_site_fract_x
 _atom_site_fract_y
 _atom_site_fract_z
 _atom_site_occupancy
  Mg  Mg0  1  0.19048771  0.19048771  0.81928341  1
  Mg  Mg1  1  0.37120431  0.18071659  0.37120431  1
  Mg  Mg2  1  0.18071659  0.37120431  0.37120431  1
  Mg  Mg3  1  0.00000000  0.62879569  0.80951229  1
  Mg  Mg4  1  0.62879569  0.00000000  0.80951229  1
  Mg  Mg5  1  0.39014884  0.39014884  0.71305138  1
  Mg  Mg6  1  0.60985116  0.32290254  0.00000000  1
  Mg  Mg7  1  0.32290254  0.60985116  0.00000000  1
  Mg  Mg8  1  0.00000000  0.32290254  0.60985116  1
  Mg  Mg9  1  0.28694862  0.67709746  0.67709746  1
  Mg  Mg10  1  0.67709746  0.28694862  0.67709746  1
  Mg  Mg11  1  0.32290254  0.00000000  0.60985116  1
  Mg  Mg12  1  0.60985116  0.00000000  0.32290254  1
  Mg  Mg13  1  0.00000000  0.60985116  0.32290254  1
  Mg  Mg14  1  0.71305138  0.39014884  0.39014884  1
  Mg  Mg15  1  0.39014884  0.71305138  0.39014884  1
  Mg  Mg16  1  0.67709746  0.67709746  0.28694862  1
  Mg  Mg17  1  0.37120431  0.37120431  0.18071659  1
  Mg  Mg18  1  0.62879569  0.80951229  0.00000000  1
  Mg  Mg19  1  0.80951229  0.62879569  0.00000000  1
  Mg  Mg20  1  0.00000000  0.80951229  0.62879569  1
  Mg  Mg21  1  0.81928341  0.19048771  0.19048771  1
  Mg  Mg22  1  0.19048771  0.81928341  0.19048771  1
  Mg  Mg23  1  0.80951229  0.00000000  0.62879569  1
  Tm  Tm24  1  0.00000000  0.00000000  0.37168315  1
  Tm  Tm25  1  0.00000000  0.37168315  0.00000000  1
  Tm  Tm26  1  0.37168315  0.00000000  0.00000000  1
  Tm  Tm27  1  0.62831685  0.62831685  0.62831685  1
  Tm  Tm28  1  0.00000000  0.00000000  0.00000000  1
