# generated using pymatgen
data_SmCo(BO2)5
_symmetry_space_group_name_H-M   'P 1'
_cell_length_a   7.66471088
_cell_length_b   8.73880991
_cell_length_c   9.47770071
_cell_angle_alpha   93.03793781
_cell_angle_beta   90.00000000
_cell_angle_gamma   90.00000000
_symmetry_Int_Tables_number   1
_chemical_formula_structural   SmCo(BO2)5
_chemical_formula_sum   'Sm4 Co4 B20 O40'
_cell_volume   633.92853395
_cell_formula_units_Z   4
loop_
 _symmetry_equiv_pos_site_id
 _symmetry_equiv_pos_as_xyz
  1  'x, y, z'
loop_
 _atom_site_type_symbol
 _atom_site_label
 _atom_site_symmetry_multiplicity
 _atom_site_fract_x
 _atom_site_fract_y
 _atom_site_fract_z
 _atom_site_occupancy
  B  B0  1  0.42205659  0.08748924  0.73880291  1
  B  B1  1  0.81370308  0.56994243  0.08643780  1
  B  B2  1  0.31370366  0.93005793  0.41356234  1
  B  B3  1  0.18629706  0.43005773  0.91356230  1
  B  B4  1  0.68629647  0.06994223  0.58643776  1
  B  B5  1  0.09635800  0.65450253  0.50087278  1
  B  B6  1  0.59635741  0.84549828  0.99912687  1
  B  B7  1  0.90364213  0.34549763  0.49912732  1
  B  B8  1  0.40364272  0.15450188  0.00087324  1
  B  B9  1  0.92205601  0.41251072  0.76119715  1
  B  B10  1  0.57794354  0.91251092  0.26119720  1
  B  B11  1  0.07794413  0.58748944  0.23880295  1
  B  B12  1  0.67336737  0.51595033  0.60692742  1
  B  B13  1  0.17336665  0.98404934  0.89307218  1
  B  B14  1  0.32663276  0.48404983  0.39307268  1
  B  B15  1  0.82663217  0.01595083  0.10692792  1
  B  B16  1  0.46714381  0.28059372  0.55309207  1
  B  B17  1  0.96714453  0.21940624  0.94690799  1
  B  B18  1  0.53285632  0.71940643  0.44690697  1
  B  B19  1  0.03285560  0.78059392  0.05309212  1
  O  O20  1  0.78547763  0.52948789  0.73597320  1
  O  O21  1  0.34705864  0.50082534  0.92990170  1
  O  O22  1  0.84705936  0.99917432  0.57009791  1
  O  O23  1  0.65294149  0.49917481  0.07009735  1
  O  O24  1  0.15294077  0.00082469  0.42990215  1
  O  O25  1  0.54500429  0.76628678  0.87988022  1
  O  O26  1  0.04500358  0.73371289  0.62012044  1
  O  O27  1  0.45499584  0.23371338  0.12011989  1
  O  O28  1  0.28547821  0.97051292  0.76402645  1
  O  O29  1  0.95499656  0.26628612  0.37987961  1
  O  O30  1  0.71452192  0.02948724  0.23597366  1
  O  O31  1  0.21452250  0.47051226  0.26402584  1
  O  O32  1  0.46622456  0.18383418  0.86917867  1
  O  O33  1  0.96622528  0.31616578  0.63082139  1
  O  O34  1  0.53377557  0.81616598  0.13082143  1
  O  O35  1  0.03377485  0.68383323  0.36917867  1
  O  O36  1  0.58626320  0.01261642  0.69261869  1
  O  O37  1  0.08626248  0.48738354  0.80738137  1
  O  O38  1  0.41373693  0.98738374  0.30738141  1
  O  O39  1  0.91373634  0.51261662  0.19261874  1
  O  O40  1  0.34976737  0.18566418  0.63241987  1
  O  O41  1  0.84976678  0.31433692  0.86758024  1
  O  O42  1  0.65023276  0.81433598  0.36758023  1
  O  O43  1  0.15023335  0.68566324  0.13241987  1
  O  O44  1  0.52478302  0.41578390  0.64506441  1
  O  O45  1  0.02478361  0.08421606  0.85493565  1
  O  O46  1  0.47521711  0.58421626  0.35493570  1
  O  O47  1  0.97521652  0.91578410  0.14506445  1
  O  O48  1  0.60791234  0.67297263  0.58438970  1
  O  O49  1  0.10791292  0.82702704  0.91560990  1
  O  O50  1  0.39208780  0.32702753  0.41561040  1
  O  O51  1  0.87382937  0.68685353  0.00848910  1
  O  O52  1  0.77501972  0.45716504  0.48474413  1
  O  O53  1  0.27501900  0.04283447  0.01525643  1
  O  O54  1  0.22498041  0.54283512  0.51525597  1
  O  O55  1  0.72497982  0.95716454  0.98474363  1
  O  O56  1  0.62617017  0.18685333  0.50848906  1
  O  O57  1  0.12617076  0.31314663  0.99151100  1
  O  O58  1  0.37382996  0.81314683  0.49151105  1
  O  O59  1  0.89208721  0.17297311  0.08438915  1
  Co  Co60  1  0.90718378  0.89966676  0.37290478  1
  Co  Co61  1  0.40718306  0.60033360  0.12709537  1
  Co  Co62  1  0.09281635  0.10033340  0.62709532  1
  Co  Co63  1  0.59281577  0.39966656  0.87290474  1
  Sm  Sm64  1  0.68694147  0.31661183  0.26268622  1
  Sm  Sm65  1  0.18694075  0.18338883  0.23731439  1
  Sm  Sm66  1  0.31305866  0.68338833  0.73731389  1
  Sm  Sm67  1  0.81305938  0.81661133  0.76268572  1
