# generated using pymatgen
data_Tb3Fe5O12
_symmetry_space_group_name_H-M   'P 1'
_cell_length_a   10.88878543
_cell_length_b   10.88878490
_cell_length_c   10.88878562
_cell_angle_alpha   109.47597942
_cell_angle_beta   109.47597844
_cell_angle_gamma   109.47597801
_symmetry_Int_Tables_number   1
_chemical_formula_structural   Tb3Fe5O12
_chemical_formula_sum   'Tb12 Fe20 O48'
_cell_volume   993.66475658
_cell_formula_units_Z   4
loop_
 _symmetry_equiv_pos_site_id
 _symmetry_equiv_pos_as_xyz
  1  'x, y, z'
loop_
 _atom_site_type_symbol
 _atom_site_label
 _atom_site_symmetry_multiplicity
 _atom_site_fract_x
 _atom_site_fract_y
 _atom_site_fract_z
 _atom_site_occupancy
  Tb  Tb0  1  0.74948803  0.62483180  0.87565243  1
  Tb  Tb1  1  0.87565243  0.74948803  0.62483180  1
  Tb  Tb2  1  0.62483180  0.87565243  0.74948803  1
  Tb  Tb3  1  0.25051197  0.37516820  0.12434757  1
  Tb  Tb4  1  0.12434757  0.25051197  0.37516820  1
  Tb  Tb5  1  0.37516820  0.12434757  0.25051197  1
  Tb  Tb6  1  0.74936275  0.12407090  0.37433906  1
  Tb  Tb7  1  0.37433906  0.74936275  0.12407090  1
  Tb  Tb8  1  0.12407090  0.37433906  0.74936275  1
  Tb  Tb9  1  0.25063725  0.87592910  0.62566094  1
  Tb  Tb10  1  0.62566094  0.25063725  0.87592910  1
  Tb  Tb11  1  0.87592910  0.62566094  0.25063725  1
  Fe  Fe12  1  0.00000000  0.00000000  0.00000000  1
  Fe  Fe13  1  0.50000000  0.50000000  0.50000000  1
  Fe  Fe14  1  0.50000000  0.00000000  0.50000000  1
  Fe  Fe15  1  0.50000000  0.50000000  0.00000000  1
  Fe  Fe16  1  0.00000000  0.50000000  0.50000000  1
  Fe  Fe17  1  0.00000000  0.50000000  0.00000000  1
  Fe  Fe18  1  0.00000000  0.00000000  0.50000000  1
  Fe  Fe19  1  0.50000000  0.00000000  0.00000000  1
  Fe  Fe20  1  0.75036049  0.37439749  0.62588773  1
  Fe  Fe21  1  0.62588773  0.75036049  0.37439749  1
  Fe  Fe22  1  0.37439749  0.62588773  0.75036049  1
  Fe  Fe23  1  0.24963951  0.62560251  0.37411227  1
  Fe  Fe24  1  0.37411227  0.24963951  0.62560251  1
  Fe  Fe25  1  0.62560251  0.37411227  0.24963951  1
  Fe  Fe26  1  0.24946912  0.12387334  0.87557978  1
  Fe  Fe27  1  0.87557978  0.24946912  0.12387334  1
  Fe  Fe28  1  0.12387334  0.87557978  0.24946912  1
  Fe  Fe29  1  0.75053088  0.87612666  0.12442022  1
  Fe  Fe30  1  0.12442022  0.75053088  0.87612666  1
  Fe  Fe31  1  0.87612666  0.12442022  0.75053088  1
  O  O32  1  0.97056737  0.79392529  0.87639859  1
  O  O33  1  0.87639859  0.97056737  0.79392529  1
  O  O34  1  0.79392529  0.87639859  0.97056737  1
  O  O35  1  0.02943263  0.20607471  0.12360141  1
  O  O36  1  0.12360141  0.02943263  0.20607471  1
  O  O37  1  0.20607471  0.12360141  0.02943263  1
  O  O38  1  0.79125314  0.41628042  0.82338913  1
  O  O39  1  0.82338913  0.79125314  0.41628042  1
  O  O40  1  0.41628042  0.82338913  0.79125314  1
  O  O41  1  0.20874686  0.58371958  0.17661087  1
  O  O42  1  0.17661087  0.20874686  0.58371958  1
  O  O43  1  0.58371958  0.17661087  0.20874686  1
  O  O44  1  0.08343048  0.87688148  0.40640689  1
  O  O45  1  0.40640689  0.08343048  0.87688148  1
  O  O46  1  0.87688148  0.40640689  0.08343048  1
  O  O47  1  0.91656952  0.12311852  0.59359311  1
  O  O48  1  0.59359311  0.91656952  0.12311852  1
  O  O49  1  0.12311852  0.59359311  0.91656952  1
  O  O50  1  0.67654290  0.09329428  0.96782883  1
  O  O51  1  0.96782883  0.67654290  0.09329428  1
  O  O52  1  0.09329428  0.96782883  0.67654290  1
  O  O53  1  0.32345710  0.90670572  0.03217117  1
  O  O54  1  0.03217117  0.32345710  0.90670572  1
  O  O55  1  0.90670572  0.03217117  0.32345710  1
  O  O56  1  0.53066597  0.62634738  0.70823124  1
  O  O57  1  0.70823124  0.53066597  0.62634738  1
  O  O58  1  0.62634738  0.70823124  0.53066597  1
  O  O59  1  0.46933403  0.37365262  0.29176876  1
  O  O60  1  0.29176876  0.46933403  0.37365262  1
  O  O61  1  0.37365262  0.29176876  0.46933403  1
  O  O62  1  0.70720450  0.67778133  0.08321919  1
  O  O63  1  0.08321919  0.70720450  0.67778133  1
  O  O64  1  0.67778133  0.08321919  0.70720450  1
  O  O65  1  0.29279550  0.32221867  0.91678081  1
  O  O66  1  0.91678081  0.29279550  0.32221867  1
  O  O67  1  0.32221867  0.91678081  0.29279550  1
  O  O68  1  0.41716720  0.09433767  0.62620014  1
  O  O69  1  0.62620014  0.41716720  0.09433767  1
  O  O70  1  0.09433767  0.62620014  0.41716720  1
  O  O71  1  0.58283280  0.90566233  0.37379986  1
  O  O72  1  0.37379986  0.58283280  0.90566233  1
  O  O73  1  0.90566233  0.37379986  0.58283280  1
  O  O74  1  0.82297575  0.53106536  0.40659047  1
  O  O75  1  0.40659047  0.82297575  0.53106536  1
  O  O76  1  0.53106536  0.40659047  0.82297575  1
  O  O77  1  0.17702425  0.46893464  0.59340953  1
  O  O78  1  0.59340953  0.17702425  0.46893464  1
  O  O79  1  0.46893464  0.59340953  0.17702425  1
