# generated using pymatgen
data_Li4MnCo2O7
_symmetry_space_group_name_H-M   'P 1'
_cell_length_a   2.88736943
_cell_length_b   9.84129978
_cell_length_c   9.75257821
_cell_angle_alpha   113.51930362
_cell_angle_beta   90.00000000
_cell_angle_gamma   98.43553492
_symmetry_Int_Tables_number   1
_chemical_formula_structural   Li4MnCo2O7
_chemical_formula_sum   'Li8 Mn2 Co4 O14'
_cell_volume   250.82910565
_cell_formula_units_Z   2
loop_
 _symmetry_equiv_pos_site_id
 _symmetry_equiv_pos_as_xyz
  1  'x, y, z'
loop_
 _atom_site_type_symbol
 _atom_site_label
 _atom_site_symmetry_multiplicity
 _atom_site_fract_x
 _atom_site_fract_y
 _atom_site_fract_z
 _atom_site_occupancy
  Li  Li0  1  0.64892791  0.29785583  0.06761791  1
  Li  Li1  1  0.92401346  0.84802792  0.21745777  1
  Li  Li2  1  0.21678031  0.43355963  0.35966242  1
  Li  Li3  1  0.50705342  0.01410685  0.51926370  1
  Li  Li4  1  0.77545067  0.55090234  0.63619373  1
  Li  Li5  1  0.07613184  0.15226268  0.77877950  1
  Li  Li6  1  0.34928268  0.69856535  0.92175160  1
  Li  Li7  1  0.14566129  0.29132258  0.57622824  1
  Mn  Mn8  1  -0.00073184  -0.00146367  0.00368593  1
  Mn  Mn9  1  0.57551617  0.15103134  0.29730737  1
  Co  Co10  1  0.28286822  0.56573744  0.13595603  1
  Co  Co11  1  0.85766499  0.71532999  0.42710925  1
  Co  Co12  1  0.42886245  0.85772589  0.71022299  1
  Co  Co13  1  0.70555061  0.41110021  0.83570461  1
  O  O14  1  0.53256032  0.06512164  0.91359901  1
  O  O15  1  0.81817730  0.63635361  0.04274945  1
  O  O16  1  0.09707025  0.19414051  0.18016209  1
  O  O17  1  0.38808684  0.77617369  0.32968431  1
  O  O18  1  0.66935615  0.33871330  0.44223171  1
  O  O19  1  0.96415030  0.92829960  0.61259666  1
  O  O20  1  0.24903745  0.49807490  0.75457927  1
  O  O21  1  0.75200395  0.50400790  0.23966768  1
  O  O22  1  0.03958949  0.07917999  0.37832834  1
  O  O23  1  0.32734375  0.65468650  0.52714709  1
  O  O24  1  0.61155337  0.22310673  0.68822470  1
  O  O25  1  0.90458992  0.80917984  0.83568920  1
  O  O26  1  0.18197623  0.36395346  0.96203888  1
  O  O27  1  0.47147248  0.94294395  0.10636054  1
