# generated using pymatgen
data_USnRu
_symmetry_space_group_name_H-M   'P 1'
_cell_length_a   4.05390779
_cell_length_b   7.30778289
_cell_length_c   7.30526441
_cell_angle_alpha   120.01140202
_cell_angle_beta   90.00000000
_cell_angle_gamma   90.00000000
_symmetry_Int_Tables_number   1
_chemical_formula_structural   USnRu
_chemical_formula_sum   'U3 Sn3 Ru3'
_cell_volume   187.40283838
_cell_formula_units_Z   3
loop_
 _symmetry_equiv_pos_site_id
 _symmetry_equiv_pos_as_xyz
  1  'x, y, z'
loop_
 _atom_site_type_symbol
 _atom_site_label
 _atom_site_symmetry_multiplicity
 _atom_site_fract_x
 _atom_site_fract_y
 _atom_site_fract_z
 _atom_site_occupancy
  U  U0  1  0.50000000  0.58364488  0.00000000  1
  U  U1  1  0.50000000  0.41669405  0.41642310  1
  U  U2  1  0.50000000  0.00027095  0.58357690  1
  Sn  Sn3  1  0.00000000  0.25190595  1.00000000  1
  Sn  Sn4  1  0.00000000  0.74814644  0.74803869  1
  Sn  Sn5  1  -0.00000000  0.00010775  0.25196131  1
  Ru  Ru6  1  0.00000000  0.33296834  0.66648363  1
  Ru  Ru7  1  0.00000000  0.66648471  0.33351637  1
  Ru  Ru8  1  0.50000000  0.99967692  0.00000000  1
