# generated using pymatgen
data_NdCu6
_symmetry_space_group_name_H-M   'P 1'
_cell_length_a   5.06530020
_cell_length_b   8.08955737
_cell_length_c   10.14019024
_cell_angle_alpha   90.00000000
_cell_angle_beta   90.00000000
_cell_angle_gamma   91.13055923
_symmetry_Int_Tables_number   1
_chemical_formula_structural   NdCu6
_chemical_formula_sum   'Nd4 Cu24'
_cell_volume   415.42392019
_cell_formula_units_Z   4
loop_
 _symmetry_equiv_pos_site_id
 _symmetry_equiv_pos_as_xyz
  1  'x, y, z'
loop_
 _atom_site_type_symbol
 _atom_site_label
 _atom_site_symmetry_multiplicity
 _atom_site_fract_x
 _atom_site_fract_y
 _atom_site_fract_z
 _atom_site_occupancy
  Cu  Cu0  1  0.49627094  0.93382808  0.30778787  1
  Cu  Cu1  1  0.50372906  0.56617192  0.80778787  1
  Cu  Cu2  1  0.50372906  0.06617192  0.69221213  1
  Cu  Cu3  1  0.49627094  0.43382808  0.19221213  1
  Cu  Cu4  1  0.99317031  0.56292456  0.81058171  1
  Cu  Cu5  1  0.00682969  0.93707544  0.31058171  1
  Cu  Cu6  1  0.00682969  0.43707544  0.18941829  1
  Cu  Cu7  1  0.99317031  0.06292456  0.68941829  1
  Cu  Cu8  1  0.75489623  0.85266233  0.85750280  1
  Cu  Cu9  1  0.24510377  0.64733767  0.35750280  1
  Cu  Cu10  1  0.24510377  0.14733767  0.14249720  1
  Cu  Cu11  1  0.75489623  0.35266233  0.64249720  1
  Cu  Cu12  1  0.75039784  0.18288022  0.24440133  1
  Cu  Cu13  1  0.24960216  0.31711978  0.74440133  1
  Cu  Cu14  1  0.24960216  0.81711978  0.75559867  1
  Cu  Cu15  1  0.75039784  0.68288022  0.25559867  1
  Cu  Cu16  1  0.76718614  0.43747249  0.40324231  1
  Cu  Cu17  1  0.23281386  0.06252751  0.90324231  1
  Cu  Cu18  1  0.23281386  0.56252751  0.59675769  1
  Cu  Cu19  1  0.76718614  0.93747249  0.09675769  1
  Cu  Cu20  1  0.75003959  0.09877126  0.48363378  1
  Cu  Cu21  1  0.24996041  0.40122874  0.98363378  1
  Cu  Cu22  1  0.24996041  0.90122874  0.51636622  1
  Cu  Cu23  1  0.75003959  0.59877126  0.01636622  1
  Nd  Nd24  1  0.74296860  0.23935297  0.93622103  1
  Nd  Nd25  1  0.25703140  0.26064703  0.43622103  1
  Nd  Nd26  1  0.25703140  0.76064703  0.06377897  1
  Nd  Nd27  1  0.74296860  0.73935297  0.56377897  1
