# generated using pymatgen
data_ZrPbS3
_symmetry_space_group_name_H-M   'P 1'
_cell_length_a   3.81662591
_cell_length_b   9.22525494
_cell_length_c   14.17110881
_cell_angle_alpha   90.00000000
_cell_angle_beta   90.00000000
_cell_angle_gamma   90.00000000
_symmetry_Int_Tables_number   1
_chemical_formula_structural   ZrPbS3
_chemical_formula_sum   'Zr4 Pb4 S12'
_cell_volume   498.95548790
_cell_formula_units_Z   4
loop_
 _symmetry_equiv_pos_site_id
 _symmetry_equiv_pos_as_xyz
  1  'x, y, z'
loop_
 _atom_site_type_symbol
 _atom_site_label
 _atom_site_symmetry_multiplicity
 _atom_site_fract_x
 _atom_site_fract_y
 _atom_site_fract_z
 _atom_site_occupancy
  S  S0  1  0.25000000  0.50944408  0.60469332  1
  S  S1  1  0.75000000  0.49055592  0.39530668  1
  S  S2  1  0.25000000  0.00944408  0.89530668  1
  S  S3  1  0.75000000  0.99055592  0.10469332  1
  S  S4  1  0.25000000  0.66903936  0.00964766  1
  S  S5  1  0.75000000  0.33096064  0.99035234  1
  S  S6  1  0.25000000  0.16903936  0.49035234  1
  S  S7  1  0.75000000  0.83096064  0.50964766  1
  S  S8  1  0.75000000  0.72739493  0.78643087  1
  S  S9  1  0.25000000  0.27260507  0.21356913  1
  S  S10  1  0.75000000  0.22739493  0.71356913  1
  S  S11  1  0.25000000  0.77260507  0.28643087  1
  Zr  Zr12  1  0.25000000  0.66577255  0.45126072  1
  Zr  Zr13  1  0.75000000  0.33422745  0.54873928  1
  Zr  Zr14  1  0.25000000  0.16577255  0.04873928  1
  Zr  Zr15  1  0.75000000  0.83422745  0.95126072  1
  Pb  Pb16  1  0.25000000  0.02280262  0.67260678  1
  Pb  Pb17  1  0.75000000  0.97719738  0.32739322  1
  Pb  Pb18  1  0.25000000  0.52280262  0.82739322  1
  Pb  Pb19  1  0.75000000  0.47719738  0.17260678  1
