# generated using pymatgen
data_MnSiO3
_symmetry_space_group_name_H-M   'P 1'
_cell_length_a   6.81712917
_cell_length_b   7.70652697
_cell_length_c   16.25833320
_cell_angle_alpha   92.16865214
_cell_angle_beta   96.39362905
_cell_angle_gamma   94.86531161
_symmetry_Int_Tables_number   1
_chemical_formula_structural   MnSiO3
_chemical_formula_sum   'Mn14 Si14 O42'
_cell_volume   844.81810805
_cell_formula_units_Z   14
loop_
 _symmetry_equiv_pos_site_id
 _symmetry_equiv_pos_as_xyz
  1  'x, y, z'
loop_
 _atom_site_type_symbol
 _atom_site_label
 _atom_site_symmetry_multiplicity
 _atom_site_fract_x
 _atom_site_fract_y
 _atom_site_fract_z
 _atom_site_occupancy
  O  O0  1  0.55489238  0.73627241  0.50262341  1
  O  O1  1  0.44510762  0.26372759  0.49737659  1
  O  O2  1  0.49486140  0.65163812  0.34076822  1
  O  O3  1  0.50513860  0.34836188  0.65923178  1
  O  O4  1  0.58800717  0.43923379  0.22067377  1
  O  O5  1  0.41199283  0.56076621  0.77932623  1
  O  O6  1  0.61818204  0.26329961  0.07847056  1
  O  O7  1  0.38181796  0.73670039  0.92152944  1
  O  O8  1  0.33206599  0.90144422  0.06344502  1
  O  O9  1  0.66793401  0.09855578  0.93655498  1
  O  O10  1  0.23561795  0.11029678  0.18302968  1
  O  O11  1  0.76438205  0.88970322  0.81697032  1
  O  O12  1  0.27901875  0.21702936  0.34139282  1
  O  O13  1  0.72098125  0.78297064  0.65860718  1
  O  O14  1  0.72000327  0.37862733  0.36526757  1
  O  O15  1  0.27999673  0.62137267  0.63473243  1
  O  O16  1  0.35417430  0.47869188  0.07929764  1
  O  O17  1  0.64582570  0.52130812  0.92070236  1
  O  O18  1  0.82730910  0.98144829  0.07239177  1
  O  O19  1  0.17269090  0.01855171  0.92760823  1
  O  O20  1  0.53693986  0.92443969  0.21252161  1
  O  O21  1  0.46306014  0.07556031  0.78747839  1
  O  O22  1  0.07165351  0.39546425  0.22510044  1
  O  O23  1  0.92834649  0.60453575  0.77489956  1
  O  O24  1  0.17817023  0.48460978  0.43000406  1
  O  O25  1  0.82182977  0.51539022  0.56999594  1
  O  O26  1  0.25625972  0.84150636  0.40610105  1
  O  O27  1  0.74374028  0.15849364  0.59389895  1
  O  O28  1  0.94445079  0.83052407  0.52773023  1
  O  O29  1  0.05554921  0.16947593  0.47226977  1
  O  O30  1  0.92700232  0.07604740  0.27514334  1
  O  O31  1  0.07299768  0.92395260  0.72485666  1
  O  O32  1  0.84774896  0.23517387  0.81001638  1
  O  O33  1  0.15225104  0.76482613  0.18998362  1
  O  O34  1  0.96992499  0.30501843  0.02136505  1
  O  O35  1  0.03007501  0.69498157  0.97863495  1
  O  O36  1  0.74999575  0.61247888  0.10524991  1
  O  O37  1  0.25000425  0.38752112  0.89475009  1
  O  O38  1  0.86241651  0.69238380  0.30730353  1
  O  O39  1  0.13758349  0.30761620  0.69269647  1
  O  O40  1  0.64729947  0.98295038  0.39668387  1
  O  O41  1  0.35270053  0.01704962  0.60331613  1
  Si  Si42  1  0.49328501  0.81856545  0.41031189  1
  Si  Si43  1  0.50671499  0.18143455  0.58968811  1
  Si  Si44  1  0.67740341  0.54374790  0.30969385  1
  Si  Si45  1  0.32259659  0.45625210  0.69030615  1
  Si  Si46  1  0.57807734  0.45793425  0.11901864  1
  Si  Si47  1  0.42192266  0.54206575  0.88098136  1
  Si  Si48  1  0.78192771  0.16269609  0.02942335  1
  Si  Si49  1  0.21807229  0.83730391  0.97057665  1
  Si  Si50  1  0.31560972  0.91554114  0.16379714  1
  Si  Si51  1  0.68439028  0.08445886  0.83620286  1
  Si  Si52  1  0.11871784  0.20381888  0.25395968  1
  Si  Si53  1  0.88128216  0.79618112  0.74604032  1
  Si  Si54  1  0.23784115  0.28680595  0.43612338  1
  Si  Si55  1  0.76215885  0.71319405  0.56387662  1
  Mn  Mn56  1  0.62074591  0.14581311  0.29196225  1
  Mn  Mn57  1  0.37925409  0.85418689  0.70803775  1
  Mn  Mn58  1  0.79613458  0.30981996  0.48229233  1
  Mn  Mn59  1  0.20386542  0.69018004  0.51770767  1
  Mn  Mn60  1  0.26551093  0.23962945  0.00781957  1
  Mn  Mn61  1  0.73448907  0.76037055  0.99218043  1
  Mn  Mn62  1  0.15935978  0.61172559  0.30747984  1
  Mn  Mn63  1  0.84064022  0.38827441  0.69252016  1
  Mn  Mn64  1  0.06704644  0.53076546  0.10760445  1
  Mn  Mn65  1  0.93295356  0.46923454  0.89239555  1
  Mn  Mn66  1  0.17340580  0.14667404  0.81243649  1
  Mn  Mn67  1  0.82659420  0.85332596  0.18756351  1
  Mn  Mn68  1  0.04389442  0.06759598  0.60473481  1
  Mn  Mn69  1  0.95610558  0.93240402  0.39526519  1
