# generated using pymatgen
data_CeScS3
_symmetry_space_group_name_H-M   'P 1'
_cell_length_a   6.51202210
_cell_length_b   7.17247679
_cell_length_c   9.55071156
_cell_angle_alpha   90.00000000
_cell_angle_beta   90.00000000
_cell_angle_gamma   90.00000000
_symmetry_Int_Tables_number   1
_chemical_formula_structural   CeScS3
_chemical_formula_sum   'Ce4 Sc4 S12'
_cell_volume   446.08821143
_cell_formula_units_Z   4
loop_
 _symmetry_equiv_pos_site_id
 _symmetry_equiv_pos_as_xyz
  1  'x, y, z'
loop_
 _atom_site_type_symbol
 _atom_site_label
 _atom_site_symmetry_multiplicity
 _atom_site_fract_x
 _atom_site_fract_y
 _atom_site_fract_z
 _atom_site_occupancy
  S  S0  1  0.82248179  0.18659151  0.56256844  1
  S  S1  1  0.32248179  0.31340849  0.43743156  1
  S  S2  1  0.67751821  0.68659151  0.93743156  1
  S  S3  1  0.17751821  0.81340849  0.06256844  1
  S  S4  1  0.17751821  0.81340849  0.43743156  1
  S  S5  1  0.67751821  0.68659151  0.56256844  1
  S  S6  1  0.32248179  0.31340849  0.06256844  1
  S  S7  1  0.82248179  0.18659151  0.93743156  1
  S  S8  1  0.62945543  0.96191136  0.25000000  1
  S  S9  1  0.12945543  0.53808864  0.75000000  1
  S  S10  1  0.87054457  0.46191136  0.25000000  1
  S  S11  1  0.37054457  0.03808864  0.75000000  1
  Sc  Sc12  1  0.50000000  0.00000000  0.50000000  1
  Sc  Sc13  1  0.00000000  0.50000000  0.50000000  1
  Sc  Sc14  1  0.00000000  0.50000000  0.00000000  1
  Sc  Sc15  1  0.50000000  0.00000000  0.00000000  1
  Ce  Ce16  1  0.96318435  0.89992909  0.75000000  1
  Ce  Ce17  1  0.46318435  0.60007091  0.25000000  1
  Ce  Ce18  1  0.53681565  0.39992909  0.75000000  1
  Ce  Ce19  1  0.03681565  0.10007091  0.25000000  1
