# generated using pymatgen
data_Li4MnCo2O7
_symmetry_space_group_name_H-M   'P 1'
_cell_length_a   2.91228825
_cell_length_b   10.69645719
_cell_length_c   8.32644709
_cell_angle_alpha   78.32209569
_cell_angle_beta   90.00000000
_cell_angle_gamma   82.17584115
_symmetry_Int_Tables_number   1
_chemical_formula_structural   Li4MnCo2O7
_chemical_formula_sum   'Li8 Mn2 Co4 O14'
_cell_volume   251.54343831
_cell_formula_units_Z   2
loop_
 _symmetry_equiv_pos_site_id
 _symmetry_equiv_pos_as_xyz
  1  'x, y, z'
loop_
 _atom_site_type_symbol
 _atom_site_label
 _atom_site_symmetry_multiplicity
 _atom_site_fract_x
 _atom_site_fract_y
 _atom_site_fract_z
 _atom_site_occupancy
  Li  Li0  1  0.42099477  0.15800947  0.23599351  1
  Li  Li1  1  0.28265337  0.43469225  0.62590782  1
  Li  Li2  1  0.14970392  0.70059216  0.07292853  1
  Li  Li3  1  0.99975183  0.00049635  0.50261574  1
  Li  Li4  1  0.85075822  0.29848355  0.93238957  1
  Li  Li5  1  0.71819881  0.56360338  0.35895328  1
  Li  Li6  1  0.57791277  0.84417546  0.78288092  1
  Li  Li7  1  0.85563893  0.28872214  0.42444267  1
  Mn  Mn8  1  -0.00043751  0.00087502  0.99701052  1
  Mn  Mn9  1  0.42689251  0.14621397  0.70137234  1
  Co  Co10  1  0.71741716  0.56516669  0.86110813  1
  Co  Co11  1  0.57096648  0.85806803  0.28821727  1
  Co  Co12  1  0.28844710  0.42310480  0.16789549  1
  Co  Co13  1  0.14289181  0.71421638  0.57410608  1
  O  O14  1  0.43686637  0.12626726  0.95590721  1
  O  O15  1  0.28464304  0.43071392  0.38249820  1
  O  O16  1  0.14794261  0.70411579  0.82127762  1
  O  O17  1  0.00475830  0.99048439  0.23198674  1
  O  O18  1  0.86715922  0.26568057  0.68487656  1
  O  O19  1  0.71846745  0.56306409  0.10211977  1
  O  O20  1  0.57533355  0.84933289  0.53982646  1
  O  O21  1  0.43137352  0.13725297  0.48681279  1
  O  O22  1  0.28153684  0.43692732  0.88810781  1
  O  O23  1  0.13375668  0.73248764  0.32095760  1
  O  O24  1  0.99284151  0.01431598  0.75838647  1
  O  O25  1  0.85362056  0.29275788  0.17372842  1
  O  O26  1  0.70860097  0.58279806  0.60497379  1
  O  O27  1  0.56130921  0.87738158  0.02271868  1
