# generated using pymatgen
data_Nb3B2
_symmetry_space_group_name_H-M   'P 1'
_cell_length_a   3.30935416
_cell_length_b   6.23520506
_cell_length_c   6.23520506
_cell_angle_alpha   90.00000000
_cell_angle_beta   90.00000000
_cell_angle_gamma   90.00000000
_symmetry_Int_Tables_number   1
_chemical_formula_structural   Nb3B2
_chemical_formula_sum   'Nb6 B4'
_cell_volume   128.66035006
_cell_formula_units_Z   2
loop_
 _symmetry_equiv_pos_site_id
 _symmetry_equiv_pos_as_xyz
  1  'x, y, z'
loop_
 _atom_site_type_symbol
 _atom_site_label
 _atom_site_symmetry_multiplicity
 _atom_site_fract_x
 _atom_site_fract_y
 _atom_site_fract_z
 _atom_site_occupancy
  B  B0  1  0.00000000  0.60550608  0.10550608  1
  B  B1  1  0.00000000  0.89449392  0.60550608  1
  B  B2  1  0.00000000  0.10550608  0.39449392  1
  B  B3  1  0.00000000  0.39449392  0.89449392  1
  Nb  Nb4  1  0.00000000  0.00000000  0.00000000  1
  Nb  Nb5  1  0.00000000  0.50000000  0.50000000  1
  Nb  Nb6  1  0.50000000  0.82141679  0.32141679  1
  Nb  Nb7  1  0.50000000  0.67858321  0.82141679  1
  Nb  Nb8  1  0.50000000  0.32141679  0.17858321  1
  Nb  Nb9  1  0.50000000  0.17858321  0.67858321  1
