# generated using pymatgen
data_KIn5S8
_symmetry_space_group_name_H-M   'P 1'
_cell_length_a   3.91682426
_cell_length_b   9.35456199
_cell_length_c   9.83857875
_cell_angle_alpha   102.65219776
_cell_angle_beta   101.48166679
_cell_angle_gamma   89.99999999
_symmetry_Int_Tables_number   1
_chemical_formula_structural   KIn5S8
_chemical_formula_sum   'K1 In5 S8'
_cell_volume   344.33651550
_cell_formula_units_Z   1
loop_
 _symmetry_equiv_pos_site_id
 _symmetry_equiv_pos_as_xyz
  1  'x, y, z'
loop_
 _atom_site_type_symbol
 _atom_site_label
 _atom_site_symmetry_multiplicity
 _atom_site_fract_x
 _atom_site_fract_y
 _atom_site_fract_z
 _atom_site_occupancy
  S  S0  1  0.83524555  0.52418410  0.67049110  1
  S  S1  1  0.93117302  0.21744494  0.86234603  1
  S  S2  1  0.06882698  0.78255506  0.13765397  1
  S  S3  1  0.58541622  0.12438171  0.17083243  1
  S  S4  1  0.41458378  0.87561829  0.82916757  1
  S  S5  1  0.76250633  0.84730405  0.52501267  1
  S  S6  1  0.23749367  0.15269595  0.47498733  1
  S  S7  1  0.16475445  0.47581590  0.32950890  1
  K  K8  1  0.50000000  0.50000000  0.00000000  1
  In  In9  1  0.71306017  0.33826190  0.42612034  1
  In  In10  1  0.64477895  0.90804690  0.28955789  1
  In  In11  1  0.35522105  0.09195310  0.71044211  1
  In  In12  1  0.28693983  0.66173810  0.57387966  1
  In  In13  1  0.00000000  0.00000000  0.00000000  1
