# generated using pymatgen
data_Zr3NiSb7
_symmetry_space_group_name_H-M   'P 1'
_cell_length_a   3.96451171
_cell_length_b   14.50896407
_cell_length_c   17.67426919
_cell_angle_alpha   90.00000000
_cell_angle_beta   90.00000000
_cell_angle_gamma   90.00000000
_symmetry_Int_Tables_number   1
_chemical_formula_structural   Zr3NiSb7
_chemical_formula_sum   'Zr12 Ni4 Sb28'
_cell_volume   1016.64089497
_cell_formula_units_Z   4
loop_
 _symmetry_equiv_pos_site_id
 _symmetry_equiv_pos_as_xyz
  1  'x, y, z'
loop_
 _atom_site_type_symbol
 _atom_site_label
 _atom_site_symmetry_multiplicity
 _atom_site_fract_x
 _atom_site_fract_y
 _atom_site_fract_z
 _atom_site_occupancy
  Ni  Ni0  1  0.25000000  0.81090032  0.93686013  1
  Ni  Ni1  1  0.75000000  0.18909968  0.06313987  1
  Ni  Ni2  1  0.75000000  0.31090032  0.56313987  1
  Ni  Ni3  1  0.25000000  0.68909968  0.43686013  1
  Zr  Zr4  1  0.25000000  0.47071395  0.37028224  1
  Zr  Zr5  1  0.75000000  0.52928605  0.62971776  1
  Zr  Zr6  1  0.75000000  0.97071395  0.12971776  1
  Zr  Zr7  1  0.25000000  0.02928605  0.87028224  1
  Zr  Zr8  1  0.25000000  0.90984833  0.39216714  1
  Zr  Zr9  1  0.75000000  0.09015167  0.60783286  1
  Zr  Zr10  1  0.75000000  0.40984833  0.10783286  1
  Zr  Zr11  1  0.25000000  0.59015167  0.89216714  1
  Zr  Zr12  1  0.25000000  0.30913747  0.84638089  1
  Zr  Zr13  1  0.75000000  0.69086253  0.15361911  1
  Zr  Zr14  1  0.75000000  0.80913747  0.65361911  1
  Zr  Zr15  1  0.25000000  0.19086253  0.34638089  1
  Sb  Sb16  1  0.25000000  0.29758323  0.02150725  1
  Sb  Sb17  1  0.75000000  0.70241677  0.97849275  1
  Sb  Sb18  1  0.75000000  0.79758323  0.47849275  1
  Sb  Sb19  1  0.25000000  0.20241677  0.52150725  1
  Sb  Sb20  1  0.25000000  0.07659236  0.03740372  1
  Sb  Sb21  1  0.75000000  0.92340764  0.96259628  1
  Sb  Sb22  1  0.75000000  0.57659236  0.46259628  1
  Sb  Sb23  1  0.25000000  0.42340764  0.53740372  1
  Sb  Sb24  1  0.25000000  0.56039614  0.07052795  1
  Sb  Sb25  1  0.75000000  0.43960386  0.92947205  1
  Sb  Sb26  1  0.75000000  0.06039614  0.42947205  1
  Sb  Sb27  1  0.25000000  0.93960386  0.57052795  1
  Sb  Sb28  1  0.25000000  0.82505651  0.09095502  1
  Sb  Sb29  1  0.75000000  0.17494349  0.90904498  1
  Sb  Sb30  1  0.75000000  0.32505651  0.40904498  1
  Sb  Sb31  1  0.25000000  0.67494349  0.59095502  1
  Sb  Sb32  1  0.25000000  0.35398405  0.22823570  1
  Sb  Sb33  1  0.75000000  0.64601595  0.77176430  1
  Sb  Sb34  1  0.75000000  0.85398405  0.27176430  1
  Sb  Sb35  1  0.25000000  0.14601595  0.72823570  1
  Sb  Sb36  1  0.25000000  0.02145413  0.24801940  1
  Sb  Sb37  1  0.75000000  0.97854587  0.75198060  1
  Sb  Sb38  1  0.75000000  0.52145413  0.25198060  1
  Sb  Sb39  1  0.25000000  0.47854587  0.74801940  1
  Sb  Sb40  1  0.25000000  0.68504293  0.29033586  1
  Sb  Sb41  1  0.75000000  0.31495707  0.70966414  1
  Sb  Sb42  1  0.75000000  0.18504293  0.20966414  1
  Sb  Sb43  1  0.25000000  0.81495707  0.79033586  1
