# generated using pymatgen
data_EuSnF7
_symmetry_space_group_name_H-M   'P 1'
_cell_length_a   5.82896698
_cell_length_b   6.17322968
_cell_length_c   8.37916051
_cell_angle_alpha   102.66590692
_cell_angle_beta   90.00000000
_cell_angle_gamma   90.00000000
_symmetry_Int_Tables_number   1
_chemical_formula_structural   EuSnF7
_chemical_formula_sum   'Eu2 Sn2 F14'
_cell_volume   294.17472059
_cell_formula_units_Z   2
loop_
 _symmetry_equiv_pos_site_id
 _symmetry_equiv_pos_as_xyz
  1  'x, y, z'
loop_
 _atom_site_type_symbol
 _atom_site_label
 _atom_site_symmetry_multiplicity
 _atom_site_fract_x
 _atom_site_fract_y
 _atom_site_fract_z
 _atom_site_occupancy
  Eu  Eu0  1  0.74945158  0.84237037  0.81350876  1
  Eu  Eu1  1  0.24945158  0.15762963  0.18649124  1
  Sn  Sn2  1  0.26193419  0.31317491  0.72473330  1
  Sn  Sn3  1  0.76193419  0.68682509  0.27526670  1
  F  F4  1  0.50121202  0.54726381  0.72797821  1
  F  F5  1  0.93383120  0.05594369  0.02530512  1
  F  F6  1  0.02743939  0.55614648  0.74343211  1
  F  F7  1  0.43383120  0.94405631  0.97469488  1
  F  F8  1  0.75285760  0.73728778  0.51758467  1
  F  F9  1  0.53196826  0.93001936  0.28684560  1
  F  F10  1  0.52695325  0.10095811  0.71003684  1
  F  F11  1  0.00121202  0.45273619  0.27202179  1
  F  F12  1  0.02695325  0.89904189  0.28996316  1
  F  F13  1  0.26855250  0.36476555  0.96872357  1
  F  F14  1  0.25285760  0.26271222  0.48241533  1
  F  F15  1  0.03196826  0.06998064  0.71315440  1
  F  F16  1  0.52743939  0.44385352  0.25656789  1
  F  F17  1  0.76855250  0.63523445  0.03127643  1
