# generated using pymatgen
data_Ta11(CoSe4)2
_symmetry_space_group_name_H-M   'P 1'
_cell_length_a   3.43777828
_cell_length_b   12.19471261
_cell_length_c   19.64119457
_cell_angle_alpha   90.00000000
_cell_angle_beta   90.00000000
_cell_angle_gamma   90.00000000
_symmetry_Int_Tables_number   1
_chemical_formula_structural   Ta11(CoSe4)2
_chemical_formula_sum   'Ta22 Co4 Se16'
_cell_volume   823.41226392
_cell_formula_units_Z   2
loop_
 _symmetry_equiv_pos_site_id
 _symmetry_equiv_pos_as_xyz
  1  'x, y, z'
loop_
 _atom_site_type_symbol
 _atom_site_label
 _atom_site_symmetry_multiplicity
 _atom_site_fract_x
 _atom_site_fract_y
 _atom_site_fract_z
 _atom_site_occupancy
  Co  Co0  1  0.00000000  0.09342096  0.87158322  1
  Co  Co1  1  0.00000000  0.90657904  0.12841678  1
  Co  Co2  1  0.50000000  0.59342096  0.62841678  1
  Co  Co3  1  0.50000000  0.40657904  0.37158322  1
  Se  Se4  1  0.50000000  0.29560686  0.55475583  1
  Se  Se5  1  0.50000000  0.70439314  0.44524417  1
  Se  Se6  1  0.00000000  0.79560686  0.94524417  1
  Se  Se7  1  0.00000000  0.20439314  0.05475583  1
  Se  Se8  1  0.50000000  0.04032291  0.67438408  1
  Se  Se9  1  0.50000000  0.95967709  0.32561592  1
  Se  Se10  1  0.00000000  0.54032291  0.82561592  1
  Se  Se11  1  0.00000000  0.45967709  0.17438408  1
  Se  Se12  1  0.50000000  0.39005321  0.94574020  1
  Se  Se13  1  0.50000000  0.60994679  0.05425980  1
  Se  Se14  1  0.00000000  0.89005321  0.55425980  1
  Se  Se15  1  0.00000000  0.10994679  0.44574020  1
  Se  Se16  1  0.00000000  0.28372307  0.71429865  1
  Se  Se17  1  0.00000000  0.71627693  0.28570135  1
  Se  Se18  1  0.50000000  0.78372307  0.78570135  1
  Se  Se19  1  0.50000000  0.21627693  0.21429865  1
  Ta  Ta20  1  0.50000000  0.82005222  0.05338789  1
  Ta  Ta21  1  0.50000000  0.17994778  0.94661211  1
  Ta  Ta22  1  0.00000000  0.67994778  0.55338789  1
  Ta  Ta23  1  0.00000000  0.32005222  0.44661211  1
  Ta  Ta24  1  0.50000000  0.44614342  0.74228502  1
  Ta  Ta25  1  0.50000000  0.55385658  0.25771498  1
  Ta  Ta26  1  0.00000000  0.94614342  0.75771498  1
  Ta  Ta27  1  0.00000000  0.05385658  0.24228502  1
  Ta  Ta28  1  0.50000000  0.06070563  0.11579182  1
  Ta  Ta29  1  0.50000000  0.93929437  0.88420818  1
  Ta  Ta30  1  0.00000000  0.56070563  0.38420818  1
  Ta  Ta31  1  0.00000000  0.43929437  0.61579182  1
  Ta  Ta32  1  0.50000000  0.17403611  0.35317554  1
  Ta  Ta33  1  0.50000000  0.82596389  0.64682446  1
  Ta  Ta34  1  0.00000000  0.67403611  0.14682446  1
  Ta  Ta35  1  0.00000000  0.32596389  0.85317554  1
  Ta  Ta36  1  0.50000000  0.15259478  0.78840921  1
  Ta  Ta37  1  0.50000000  0.84740522  0.21159079  1
  Ta  Ta38  1  0.00000000  0.65259478  0.71159079  1
  Ta  Ta39  1  0.00000000  0.34740522  0.28840921  1
  Ta  Ta40  1  0.50000000  0.50000000  0.50000000  1
  Ta  Ta41  1  0.00000000  0.00000000  0.00000000  1
