# generated using pymatgen
data_ThCrB4
_symmetry_space_group_name_H-M   'P 1'
_cell_length_a   3.63246289
_cell_length_b   6.04053502
_cell_length_c   11.67957420
_cell_angle_alpha   90.00000000
_cell_angle_beta   90.00000000
_cell_angle_gamma   90.00000000
_symmetry_Int_Tables_number   1
_chemical_formula_structural   ThCrB4
_chemical_formula_sum   'Th4 Cr4 B16'
_cell_volume   256.27344246
_cell_formula_units_Z   4
loop_
 _symmetry_equiv_pos_site_id
 _symmetry_equiv_pos_as_xyz
  1  'x, y, z'
loop_
 _atom_site_type_symbol
 _atom_site_label
 _atom_site_symmetry_multiplicity
 _atom_site_fract_x
 _atom_site_fract_y
 _atom_site_fract_z
 _atom_site_occupancy
  B  B0  1  0.00000000  0.27625210  0.68149870  1
  B  B1  1  0.00000000  0.72374790  0.31850130  1
  B  B2  1  0.00000000  0.77625210  0.81850130  1
  B  B3  1  0.00000000  0.22374790  0.18149870  1
  B  B4  1  0.00000000  0.38929957  0.95519368  1
  B  B5  1  0.00000000  0.61070043  0.04480632  1
  B  B6  1  0.00000000  0.88929957  0.54480632  1
  B  B7  1  0.00000000  0.11070043  0.45519368  1
  B  B8  1  0.00000000  0.14293706  0.03314817  1
  B  B9  1  0.00000000  0.85706294  0.96685183  1
  B  B10  1  0.00000000  0.64293706  0.46685183  1
  B  B11  1  0.00000000  0.35706294  0.53314817  1
  B  B12  1  0.00000000  0.02424751  0.31236499  1
  B  B13  1  0.00000000  0.97575249  0.68763501  1
  B  B14  1  0.00000000  0.52424751  0.18763501  1
  B  B15  1  0.00000000  0.47575249  0.81236499  1
  Cr  Cr16  1  0.50000000  0.12286751  0.58197193  1
  Cr  Cr17  1  0.50000000  0.87713249  0.41802807  1
  Cr  Cr18  1  0.50000000  0.62286751  0.91802807  1
  Cr  Cr19  1  0.50000000  0.37713249  0.08197193  1
  Th  Th20  1  0.50000000  0.12332710  0.84881962  1
  Th  Th21  1  0.50000000  0.87667290  0.15118038  1
  Th  Th22  1  0.50000000  0.62332710  0.65118038  1
  Th  Th23  1  0.50000000  0.37667290  0.34881962  1
