# generated using pymatgen
data_Ce(CoB)4
_symmetry_space_group_name_H-M   'P 1'
_cell_length_a   5.04371942
_cell_length_b   5.04371942
_cell_length_c   7.03329005
_cell_angle_alpha   90.00000000
_cell_angle_beta   90.00000000
_cell_angle_gamma   90.00000000
_symmetry_Int_Tables_number   1
_chemical_formula_structural   Ce(CoB)4
_chemical_formula_sum   'Ce2 Co8 B8'
_cell_volume   178.92060821
_cell_formula_units_Z   2
loop_
 _symmetry_equiv_pos_site_id
 _symmetry_equiv_pos_as_xyz
  1  'x, y, z'
loop_
 _atom_site_type_symbol
 _atom_site_label
 _atom_site_symmetry_multiplicity
 _atom_site_fract_x
 _atom_site_fract_y
 _atom_site_fract_z
 _atom_site_occupancy
  B  B0  1  0.25000000  0.07678322  0.90823481  1
  B  B1  1  0.42321678  0.25000000  0.40823481  1
  B  B2  1  0.07678322  0.25000000  0.40823481  1
  B  B3  1  0.75000000  0.92321678  0.09176519  1
  B  B4  1  0.75000000  0.57678322  0.09176519  1
  B  B5  1  0.25000000  0.42321678  0.90823481  1
  B  B6  1  0.57678322  0.75000000  0.59176519  1
  B  B7  1  0.92321678  0.75000000  0.59176519  1
  Co  Co8  1  0.49786214  0.75000000  0.88751811  1
  Co  Co9  1  0.00213786  0.75000000  0.88751811  1
  Co  Co10  1  0.25000000  0.99786214  0.61248189  1
  Co  Co11  1  0.50213786  0.25000000  0.11248189  1
  Co  Co12  1  0.99786214  0.25000000  0.11248189  1
  Co  Co13  1  0.75000000  0.00213786  0.38751811  1
  Co  Co14  1  0.75000000  0.49786214  0.38751811  1
  Co  Co15  1  0.25000000  0.50213786  0.61248189  1
  Ce  Ce16  1  0.25000000  0.75000000  0.25000000  1
  Ce  Ce17  1  0.75000000  0.25000000  0.75000000  1
