# generated using pymatgen
data_Li4MnCo2O7
_symmetry_space_group_name_H-M   'P 1'
_cell_length_a   2.91760701
_cell_length_b   13.60295054
_cell_length_c   6.59876398
_cell_angle_alpha   86.78822252
_cell_angle_beta   77.22797585
_cell_angle_gamma   96.15633655
_symmetry_Int_Tables_number   1
_chemical_formula_structural   Li4MnCo2O7
_chemical_formula_sum   'Li8 Mn2 Co4 O14'
_cell_volume   253.07926939
_cell_formula_units_Z   2
loop_
 _symmetry_equiv_pos_site_id
 _symmetry_equiv_pos_as_xyz
  1  'x, y, z'
loop_
 _atom_site_type_symbol
 _atom_site_label
 _atom_site_symmetry_multiplicity
 _atom_site_fract_x
 _atom_site_fract_y
 _atom_site_fract_z
 _atom_site_occupancy
  Li  Li0  1  0.35202162  0.06598169  0.36193845  1
  Li  Li1  1  0.07889154  0.22263197  0.06484988  1
  Li  Li2  1  0.78862195  0.36167423  0.78442933  1
  Li  Li3  1  0.64052076  0.92549090  0.64444937  1
  Li  Li4  1  0.92845635  0.77892807  0.92201437  1
  Li  Li5  1  0.49953369  0.50622398  0.50715660  1
  Li  Li6  1  0.21292971  0.63908049  0.21322206  1
  Li  Li7  1  0.85856674  0.57200458  0.85487111  1
  Mn  Mn8  1  -0.00132738  -0.00047865  0.00217611  1
  Mn  Mn9  1  0.43144248  0.28754130  0.42465533  1
  Co  Co10  1  0.71495333  0.14302290  0.71311724  1
  Co  Co11  1  0.16265924  0.43852413  0.11320565  1
  Co  Co12  1  0.55556677  0.70631649  0.59518395  1
  Co  Co13  1  0.27600755  0.85069925  0.29868315  1
  O  O14  1  0.52725191  0.09332732  0.03882350  1
  O  O15  1  0.26064125  0.24681276  0.72553127  1
  O  O16  1  0.96191921  0.37983016  0.45599075  1
  O  O17  1  0.82892368  0.96046648  0.30261913  1
  O  O18  1  0.11043573  0.81886107  0.59798862  1
  O  O19  1  0.67122393  0.52589991  0.18345205  1
  O  O20  1  0.40503038  0.68402169  0.87396193  1
  O  O21  1  0.16661494  0.03637675  0.70314686  1
  O  O22  1  0.90263945  0.19224616  0.38696825  1
  O  O23  1  0.59829502  0.32545822  0.12886719  1
  O  O24  1  0.46663444  0.90559359  0.97232472  1
  O  O25  1  0.74897926  0.75805303  0.26009351  1
  O  O26  1  0.31175432  0.45937591  0.83586727  1
  O  O27  1  0.04081214  0.61603562  0.53441234  1
