# generated using pymatgen
data_AlZnH4O2F5
_symmetry_space_group_name_H-M   'P 1'
_cell_length_a   6.49435270
_cell_length_b   7.20733701
_cell_length_c   7.20733673
_cell_angle_alpha   60.72771366
_cell_angle_beta   63.22181962
_cell_angle_gamma   63.22182227
_symmetry_Int_Tables_number   1
_chemical_formula_structural   AlZnH4O2F5
_chemical_formula_sum   'Al2 Zn2 H8 O4 F10'
_cell_volume   250.97208264
_cell_formula_units_Z   2
loop_
 _symmetry_equiv_pos_site_id
 _symmetry_equiv_pos_as_xyz
  1  'x, y, z'
loop_
 _atom_site_type_symbol
 _atom_site_label
 _atom_site_symmetry_multiplicity
 _atom_site_fract_x
 _atom_site_fract_y
 _atom_site_fract_z
 _atom_site_occupancy
  Al  Al0  1  0.50000000  -0.00000000  0.50000000  1
  Al  Al1  1  0.50000000  0.50000000  0.00000000  1
  Zn  Zn2  1  0.00000000  0.50000000  0.50000000  1
  Zn  Zn3  1  0.50000000  -0.00000000  0.00000000  1
  H  H4  1  0.96574730  0.01794839  0.80117824  1
  H  H5  1  0.28487493  0.48205161  0.69882176  1
  H  H6  1  0.03425270  0.19882176  0.98205161  1
  H  H7  1  0.71512507  0.30117824  0.51794839  1
  H  H8  1  0.96574730  0.80117824  0.01794839  1
  H  H9  1  0.71512507  0.51794839  0.30117824  1
  H  H10  1  0.03425270  0.98205161  0.19882176  1
  H  H11  1  0.28487493  0.69882176  0.48205161  1
  O  O12  1  0.86113341  0.93035445  0.93035445  1
  O  O13  1  0.77815770  0.43035445  0.43035445  1
  O  O14  1  0.22184230  0.56964555  0.56964555  1
  O  O15  1  0.13886659  0.06964555  0.06964555  1
  F  F16  1  0.81626552  0.84498770  0.41151508  1
  F  F17  1  0.44214339  0.75000000  0.75000000  1
  F  F18  1  0.55785661  0.25000000  0.25000000  1
  F  F19  1  0.42723169  0.91151508  0.34498770  1
  F  F20  1  0.57276831  0.08848492  0.65501230  1
  F  F21  1  0.57276831  0.65501230  0.08848492  1
  F  F22  1  0.42723169  0.34498770  0.91151508  1
  F  F23  1  0.18373448  0.15501230  0.58848492  1
  F  F24  1  0.18373448  0.58848492  0.15501230  1
  F  F25  1  0.81626552  0.41151508  0.84498770  1
