# generated using pymatgen
data_InPO4
_symmetry_space_group_name_H-M   'P 1'
_cell_length_a   4.88522753
_cell_length_b   7.03001457
_cell_length_c   9.01600130
_cell_angle_alpha   90.00000000
_cell_angle_beta   90.00000000
_cell_angle_gamma   90.00000000
_symmetry_Int_Tables_number   1
_chemical_formula_structural   InPO4
_chemical_formula_sum   'In4 P4 O16'
_cell_volume   309.63852260
_cell_formula_units_Z   4
loop_
 _symmetry_equiv_pos_site_id
 _symmetry_equiv_pos_as_xyz
  1  'x, y, z'
loop_
 _atom_site_type_symbol
 _atom_site_label
 _atom_site_symmetry_multiplicity
 _atom_site_fract_x
 _atom_site_fract_y
 _atom_site_fract_z
 _atom_site_occupancy
  O  O0  1  0.15290915  0.43498455  0.62463405  1
  O  O1  1  0.65290915  0.56501545  0.87536595  1
  O  O2  1  0.84709085  0.93498455  0.37536595  1
  O  O3  1  0.34709085  0.06501545  0.12463405  1
  O  O4  1  0.84709085  0.56501545  0.37536595  1
  O  O5  1  0.34709085  0.43498455  0.12463405  1
  O  O6  1  0.15290915  0.06501545  0.62463405  1
  O  O7  1  0.65290915  0.93498455  0.87536595  1
  O  O8  1  0.21221952  0.75000000  0.87842366  1
  O  O9  1  0.71221952  0.25000000  0.62157634  1
  O  O10  1  0.78778048  0.25000000  0.12157634  1
  O  O11  1  0.28778048  0.75000000  0.37842366  1
  O  O12  1  0.53653710  0.75000000  0.64843508  1
  O  O13  1  0.03653710  0.25000000  0.85156492  1
  O  O14  1  0.46346290  0.25000000  0.35156492  1
  O  O15  1  0.96346290  0.75000000  0.14843508  1
  P  P16  1  0.98226253  0.75000000  0.32378199  1
  P  P17  1  0.48226253  0.25000000  0.17621801  1
  P  P18  1  0.01773747  0.25000000  0.67621801  1
  P  P19  1  0.51773747  0.75000000  0.82378199  1
  In  In20  1  0.50000000  0.50000000  0.50000000  1
  In  In21  1  0.00000000  0.50000000  0.00000000  1
  In  In22  1  0.50000000  0.00000000  0.50000000  1
  In  In23  1  0.00000000  0.00000000  0.00000000  1
