# generated using pymatgen
data_K2CaH2S2O9
_symmetry_space_group_name_H-M   'P 1'
_cell_length_a   6.33497787
_cell_length_b   7.21284788
_cell_length_c   9.92538562
_cell_angle_alpha   90.00000000
_cell_angle_beta   103.61081715
_cell_angle_gamma   90.00000000
_symmetry_Int_Tables_number   1
_chemical_formula_structural   K2CaH2S2O9
_chemical_formula_sum   'K4 Ca2 H4 S4 O18'
_cell_volume   440.78647343
_cell_formula_units_Z   2
loop_
 _symmetry_equiv_pos_site_id
 _symmetry_equiv_pos_as_xyz
  1  'x, y, z'
loop_
 _atom_site_type_symbol
 _atom_site_label
 _atom_site_symmetry_multiplicity
 _atom_site_fract_x
 _atom_site_fract_y
 _atom_site_fract_z
 _atom_site_occupancy
  H  H0  1  0.41031798  0.86076082  0.75149199  1
  H  H1  1  0.58968202  0.36076082  0.24850801  1
  H  H2  1  0.58968202  0.13923918  0.24850801  1
  H  H3  1  0.41031798  0.63923918  0.75149199  1
  O  O4  1  0.49603770  0.25000000  0.22276139  1
  O  O5  1  0.50396230  0.75000000  0.77723861  1
  O  O6  1  0.30440405  0.58435334  0.01722940  1
  O  O7  1  0.69559595  0.08435334  0.98277060  1
  O  O8  1  0.69559595  0.41564666  0.98277060  1
  O  O9  1  0.30440405  0.91564666  0.01722940  1
  O  O10  1  0.98527480  0.75000000  0.87936252  1
  O  O11  1  0.01472520  0.25000000  0.12063748  1
  O  O12  1  0.93052172  0.75000000  0.46498505  1
  O  O13  1  0.06947828  0.25000000  0.53501495  1
  O  O14  1  0.53690576  0.75000000  0.43017065  1
  O  O15  1  0.46309424  0.25000000  0.56982935  1
  O  O16  1  0.70801414  0.91621168  0.26669686  1
  O  O17  1  0.29198586  0.41621168  0.73330314  1
  O  O18  1  0.29198586  0.08378832  0.73330314  1
  O  O19  1  0.70801414  0.58378832  0.26669686  1
  O  O20  1  0.05404121  0.75000000  0.12815475  1
  O  O21  1  0.94595879  0.25000000  0.87184525  1
  S  S22  1  0.28069969  0.25000000  0.64074455  1
  S  S23  1  0.71930031  0.75000000  0.35925545  1
  S  S24  1  0.84029775  0.25000000  0.99191057  1
  S  S25  1  0.15970225  0.75000000  0.00808943  1
  K  K26  1  0.18462226  0.49498933  0.33439310  1
  K  K27  1  0.81537774  0.99498933  0.66560690  1
  K  K28  1  0.81537774  0.50501067  0.66560690  1
  K  K29  1  0.18462226  0.00501067  0.33439310  1
  Ca  Ca30  1  0.33523537  0.25000000  0.96827674  1
  Ca  Ca31  1  0.66476463  0.75000000  0.03172326  1
