# generated using pymatgen
data_Li4MnCo2O7
_symmetry_space_group_name_H-M   'P 1'
_cell_length_a   2.90432327
_cell_length_b   5.91189091
_cell_length_c   14.86161292
_cell_angle_alpha   83.52152576
_cell_angle_beta   84.39255559
_cell_angle_gamma   89.99999501
_symmetry_Int_Tables_number   1
_chemical_formula_structural   Li4MnCo2O7
_chemical_formula_sum   'Li8 Mn2 Co4 O14'
_cell_volume   252.31608980
_cell_formula_units_Z   2
loop_
 _symmetry_equiv_pos_site_id
 _symmetry_equiv_pos_as_xyz
  1  'x, y, z'
loop_
 _atom_site_type_symbol
 _atom_site_label
 _atom_site_symmetry_multiplicity
 _atom_site_fract_x
 _atom_site_fract_y
 _atom_site_fract_z
 _atom_site_occupancy
  Li  Li0  1  0.42861957  0.20904961  0.14275985  1
  Li  Li1  1  0.28936847  0.64108245  0.42126207  1
  Li  Li2  1  0.14076176  0.06905032  0.71847648  1
  Li  Li3  1  0.86447053  0.92523907  0.27105895  1
  Li  Li4  1  0.71522751  0.35951159  0.56954598  1
  Li  Li5  1  0.56879951  0.78338811  0.86240198  1
  Li  Li6  1  0.99414050  0.50259761  0.01171899  1
  Li  Li7  1  0.42871307  0.72006019  0.14257287  1
  Mn  Mn8  1  0.99703918  0.99463675  0.00592163  1
  Mn  Mn9  1  0.71415598  0.85680814  0.57168903  1
  Co  Co10  1  0.86525002  0.44692903  0.26949995  1
  Co  Co11  1  0.57125465  0.28784058  0.85749170  1
  Co  Co12  1  0.29066947  0.15321122  0.41866006  1
  Co  Co13  1  0.14031435  0.56477849  0.71937129  1
  O  O14  1  0.50123563  0.22458807  0.99752874  1
  O  O15  1  0.35739525  0.66344498  0.28520950  1
  O  O16  1  0.21432335  0.07843938  0.57135330  1
  O  O17  1  0.93501555  0.96851850  0.12996989  1
  O  O18  1  0.78477005  0.37364569  0.43045890  1
  O  O19  1  0.64671657  0.80982618  0.70656586  1
  O  O20  1  0.07042228  0.52381906  0.85915644  1
  O  O21  1  0.35425306  0.18632527  0.29149489  1
  O  O22  1  0.21347828  0.63555416  0.57304445  1
  O  O23  1  0.06749873  0.05073326  0.86500154  1
  O  O24  1  0.77932354  0.90400860  0.44135291  1
  O  O25  1  0.64121084  0.32973971  0.71757832  1
  O  O26  1  0.49990304  0.77944654  0.00019392  1
  O  O27  1  0.92566925  0.45772742  0.14866051  1
