# generated using pymatgen
data_KP(HO2)2
_symmetry_space_group_name_H-M   'P 1'
_cell_length_a   7.35092051
_cell_length_b   7.48220268
_cell_length_c   7.50498189
_cell_angle_alpha   87.86862940
_cell_angle_beta   87.05384857
_cell_angle_gamma   89.37039838
_symmetry_Int_Tables_number   1
_chemical_formula_structural   KP(HO2)2
_chemical_formula_sum   'K4 P4 H8 O16'
_cell_volume   411.93427386
_cell_formula_units_Z   4
loop_
 _symmetry_equiv_pos_site_id
 _symmetry_equiv_pos_as_xyz
  1  'x, y, z'
loop_
 _atom_site_type_symbol
 _atom_site_label
 _atom_site_symmetry_multiplicity
 _atom_site_fract_x
 _atom_site_fract_y
 _atom_site_fract_z
 _atom_site_occupancy
  H  H0  1  0.27421861  0.13656103  0.00299563  1
  H  H1  1  0.34302550  0.56034359  0.78508050  1
  H  H2  1  0.71994708  0.59004848  0.48680157  1
  H  H3  1  0.28005292  0.40995152  0.51319843  1
  H  H4  1  0.65697450  0.43965641  0.21491950  1
  H  H5  1  0.50000000  0.00000000  0.50000000  1
  H  H6  1  0.72578139  0.86343897  0.99700437  1
  H  H7  1  0.00000000  0.50000000  0.00000000  1
  O  O8  1  0.00515689  0.65322378  0.04478335  1
  O  O9  1  0.99484311  0.34677622  0.95521665  1
  O  O10  1  0.31997638  0.12084116  0.20170021  1
  O  O11  1  0.00073069  0.81417572  0.34034338  1
  O  O12  1  0.99926931  0.18582428  0.65965662  1
  O  O13  1  0.75069320  0.87180551  0.12949386  1
  O  O14  1  0.24930680  0.12819449  0.87050614  1
  O  O15  1  0.68002362  0.87915884  0.79829979  1
  O  O16  1  0.42116474  0.66199296  0.83601727  1
  O  O17  1  0.77114161  0.56867805  0.29721488  1
  O  O18  1  0.22885839  0.43132195  0.70278512  1
  O  O19  1  0.68402333  0.59118467  0.62444224  1
  O  O20  1  0.57883526  0.33800704  0.16398273  1
  O  O21  1  0.53470380  0.15415204  0.45676806  1
  O  O22  1  0.46529620  0.84584796  0.54323194  1
  O  O23  1  0.31597667  0.40881533  0.37555776  1
  P  P24  1  0.56603272  0.75303573  0.69836527  1
  P  P25  1  0.43396728  0.24696427  0.30163473  1
  P  P26  1  0.11152725  0.27650269  0.79243660  1
  P  P27  1  0.88847275  0.72349731  0.20756340  1
  K  K28  1  0.06022674  0.82078141  0.69257883  1
  K  K29  1  0.93977326  0.17921859  0.30742117  1
  K  K30  1  0.64430605  0.24669445  0.79921227  1
  K  K31  1  0.35569395  0.75330555  0.20078773  1
