# generated using pymatgen
data_EuCl2
_symmetry_space_group_name_H-M   'P 1'
_cell_length_a   4.55817436
_cell_length_b   7.54576465
_cell_length_c   9.04116973
_cell_angle_alpha   90.00000000
_cell_angle_beta   90.00000000
_cell_angle_gamma   90.00000000
_symmetry_Int_Tables_number   1
_chemical_formula_structural   EuCl2
_chemical_formula_sum   'Eu4 Cl8'
_cell_volume   310.97022779
_cell_formula_units_Z   4
loop_
 _symmetry_equiv_pos_site_id
 _symmetry_equiv_pos_as_xyz
  1  'x, y, z'
loop_
 _atom_site_type_symbol
 _atom_site_label
 _atom_site_symmetry_multiplicity
 _atom_site_fract_x
 _atom_site_fract_y
 _atom_site_fract_z
 _atom_site_occupancy
  Cl  Cl0  1  0.25000000  0.51809356  0.66155394  1
  Cl  Cl1  1  0.75000000  0.48190644  0.33844606  1
  Cl  Cl2  1  0.25000000  0.01809356  0.83844606  1
  Cl  Cl3  1  0.75000000  0.98190644  0.16155394  1
  Cl  Cl4  1  0.75000000  0.85883433  0.57595402  1
  Cl  Cl5  1  0.25000000  0.14116567  0.42404598  1
  Cl  Cl6  1  0.75000000  0.35883433  0.92404598  1
  Cl  Cl7  1  0.25000000  0.64116567  0.07595402  1
  Eu  Eu8  1  0.25000000  0.74510165  0.39037024  1
  Eu  Eu9  1  0.75000000  0.25489835  0.60962976  1
  Eu  Eu10  1  0.25000000  0.24510165  0.10962976  1
  Eu  Eu11  1  0.75000000  0.75489835  0.89037024  1
