# generated using pymatgen
data_K3H(SO4)2
_symmetry_space_group_name_H-M   'P 1'
_cell_length_a   5.77686287
_cell_length_b   8.04213375
_cell_length_c   9.94819977
_cell_angle_alpha   101.98119275
_cell_angle_beta   90.00000000
_cell_angle_gamma   111.04876034
_symmetry_Int_Tables_number   1
_chemical_formula_structural   K3H(SO4)2
_chemical_formula_sum   'K6 H2 S4 O16'
_cell_volume   420.53198741
_cell_formula_units_Z   2
loop_
 _symmetry_equiv_pos_site_id
 _symmetry_equiv_pos_as_xyz
  1  'x, y, z'
loop_
 _atom_site_type_symbol
 _atom_site_label
 _atom_site_symmetry_multiplicity
 _atom_site_fract_x
 _atom_site_fract_y
 _atom_site_fract_z
 _atom_site_occupancy
  H  H0  1  0.50000000  0.00000000  0.50000000  1
  H  H1  1  0.50000000  0.00000000  0.00000000  1
  O  O2  1  0.36792476  0.69149483  0.59683308  1
  O  O3  1  0.67642992  0.30850517  0.90316692  1
  O  O4  1  0.63207524  0.30850517  0.40316692  1
  O  O5  1  0.32357008  0.69149483  0.09683308  1
  O  O6  1  0.81446288  0.74592561  0.60850785  1
  O  O7  1  0.06853727  0.25407439  0.89149215  1
  O  O8  1  0.18553712  0.25407439  0.39149215  1
  O  O9  1  0.93146273  0.74592561  0.10850785  1
  O  O10  1  0.30927981  0.97758893  0.05824899  1
  O  O11  1  0.33169089  0.02241107  0.44175101  1
  O  O12  1  0.69072019  0.02241107  0.94175101  1
  O  O13  1  0.66830911  0.97758893  0.55824899  1
  O  O14  1  0.10767268  0.69479197  0.88600225  1
  O  O15  1  0.41288071  0.30520803  0.61399775  1
  O  O16  1  0.89232732  0.30520803  0.11399775  1
  O  O17  1  0.58711929  0.69479197  0.38600225  1
  S  S18  1  0.60777090  0.76824541  0.53701687  1
  S  S19  1  0.83952549  0.23175459  0.96298313  1
  S  S20  1  0.39222910  0.23175459  0.46298313  1
  S  S21  1  0.16047451  0.76824541  0.03701687  1
  K  K22  1  0.75292271  0.00000000  0.25000000  1
  K  K23  1  0.24707729  0.00000000  0.75000000  1
  K  K24  1  0.42198554  0.38503277  0.15230263  1
  K  K25  1  0.03695277  0.61496723  0.34769737  1
  K  K26  1  0.57801446  0.61496723  0.84769737  1
  K  K27  1  0.96304723  0.38503277  0.65230263  1
