# generated using pymatgen
data_BiSI
_symmetry_space_group_name_H-M   'P 1'
_cell_length_a   4.20809995
_cell_length_b   8.88705061
_cell_length_c   11.07134203
_cell_angle_alpha   90.00000000
_cell_angle_beta   90.00000000
_cell_angle_gamma   90.00000000
_symmetry_Int_Tables_number   1
_chemical_formula_structural   BiSI
_chemical_formula_sum   'Bi4 S4 I4'
_cell_volume   414.04159001
_cell_formula_units_Z   4
loop_
 _symmetry_equiv_pos_site_id
 _symmetry_equiv_pos_as_xyz
  1  'x, y, z'
loop_
 _atom_site_type_symbol
 _atom_site_label
 _atom_site_symmetry_multiplicity
 _atom_site_fract_x
 _atom_site_fract_y
 _atom_site_fract_z
 _atom_site_occupancy
  S  S0  1  0.75000000  0.33821472  0.53509399  1
  S  S1  1  0.25000000  0.16178528  0.03509399  1
  S  S2  1  0.75000000  0.83821472  0.96490601  1
  S  S3  1  0.25000000  0.66178528  0.46490601  1
  I  I4  1  0.25000000  0.47879184  0.81692665  1
  I  I5  1  0.75000000  0.02120816  0.31692665  1
  I  I6  1  0.25000000  0.97879184  0.68307335  1
  I  I7  1  0.75000000  0.52120816  0.18307335  1
  Bi  Bi8  1  0.25000000  0.39007439  0.37614882  1
  Bi  Bi9  1  0.75000000  0.60992561  0.62385118  1
  Bi  Bi10  1  0.25000000  0.89007439  0.12385118  1
  Bi  Bi11  1  0.75000000  0.10992561  0.87614882  1
