# generated using pymatgen
data_LiSn2(PO4)3
_symmetry_space_group_name_H-M   'P 1'
_cell_length_a   8.58806549
_cell_length_b   8.86695259
_cell_length_c   12.23978796
_cell_angle_alpha   90.00000000
_cell_angle_beta   89.50486425
_cell_angle_gamma   90.00000000
_symmetry_Int_Tables_number   1
_chemical_formula_structural   LiSn2(PO4)3
_chemical_formula_sum   'Li4 Sn8 P12 O48'
_cell_volume   932.02467789
_cell_formula_units_Z   4
loop_
 _symmetry_equiv_pos_site_id
 _symmetry_equiv_pos_as_xyz
  1  'x, y, z'
loop_
 _atom_site_type_symbol
 _atom_site_label
 _atom_site_symmetry_multiplicity
 _atom_site_fract_x
 _atom_site_fract_y
 _atom_site_fract_z
 _atom_site_occupancy
  Li  Li0  1  0.18814803  0.78755814  0.82291784  1
  Li  Li1  1  0.31185197  0.28755814  0.67708216  1
  Li  Li2  1  0.68814803  0.71244186  0.32291784  1
  Li  Li3  1  0.81185197  0.21244186  0.17708216  1
  O  O4  1  0.06438442  0.88035532  0.12200949  1
  O  O5  1  0.04651864  0.87299452  0.55866809  1
  O  O6  1  0.06731932  0.68372514  0.40039032  1
  O  O7  1  0.07188378  0.58763982  0.82471129  1
  O  O8  1  0.09140053  0.36866695  0.42379470  1
  O  O9  1  0.11646965  0.20806399  0.17188846  1
  O  O10  1  0.13469007  0.41269302  0.02853007  1
  O  O11  1  0.14356121  0.99126354  0.76265179  1
  O  O12  1  0.17448600  0.26612103  0.81406162  1
  O  O13  1  0.18113902  0.18055613  0.56437940  1
  O  O14  1  0.20908971  0.47914132  0.22048433  1
  O  O15  1  0.20466349  0.05583081  0.95327272  1
  O  O16  1  0.29533651  0.55583081  0.54672728  1
  O  O17  1  0.29091029  0.97914132  0.27951567  1
  O  O18  1  0.31886098  0.68055613  0.93562060  1
  O  O19  1  0.32551400  0.76612103  0.68593838  1
  O  O20  1  0.35643879  0.49126354  0.73734821  1
  O  O21  1  0.36530993  0.91269302  0.47146993  1
  O  O22  1  0.38353035  0.70806399  0.32811154  1
  O  O23  1  0.40859947  0.86866695  0.07620530  1
  O  O24  1  0.42811622  0.08763982  0.67528871  1
  O  O25  1  0.43268068  0.18372514  0.09960968  1
  O  O26  1  0.43561558  0.38035532  0.37799051  1
  O  O27  1  0.45348136  0.37299452  0.94133191  1
  O  O28  1  0.54651864  0.62700548  0.05866809  1
  O  O29  1  0.56438442  0.61964468  0.62200949  1
  O  O30  1  0.56731932  0.81627486  0.90039032  1
  O  O31  1  0.57188378  0.91236018  0.32471129  1
  O  O32  1  0.59140053  0.13133305  0.92379470  1
  O  O33  1  0.61646965  0.29193601  0.67188846  1
  O  O34  1  0.63469007  0.08730698  0.52853007  1
  O  O35  1  0.64356121  0.50873646  0.26265179  1
  O  O36  1  0.67448600  0.23387897  0.31406162  1
  O  O37  1  0.68113902  0.31944387  0.06437940  1
  O  O38  1  0.70908971  0.02085868  0.72048433  1
  O  O39  1  0.70466349  0.44416919  0.45327272  1
  O  O40  1  0.79533651  0.94416919  0.04672728  1
  O  O41  1  0.79091029  0.52085868  0.77951567  1
  O  O42  1  0.81886098  0.81944387  0.43562060  1
  O  O43  1  0.82551400  0.73387897  0.18593838  1
  O  O44  1  0.85643879  0.00873646  0.23734821  1
  O  O45  1  0.86530993  0.58730698  0.97146993  1
  O  O46  1  0.88353035  0.79193601  0.82811154  1
  O  O47  1  0.90859947  0.63133305  0.57620530  1
  O  O48  1  0.92811622  0.41236018  0.17528871  1
  O  O49  1  0.93268068  0.31627486  0.59960968  1
  O  O50  1  0.95348136  0.12700548  0.44133191  1
  O  O51  1  0.93561558  0.11964468  0.87799051  1
  P  P52  1  0.03540964  0.25117053  0.50701655  1
  P  P53  1  0.10388148  0.37995181  0.14978532  1
  P  P54  1  0.11159756  0.11005378  0.85420763  1
  P  P55  1  0.38840244  0.61005378  0.64579237  1
  P  P56  1  0.39611852  0.87995181  0.35021468  1
  P  P57  1  0.46459036  0.75117053  0.99298345  1
  P  P58  1  0.53540964  0.24882947  0.00701655  1
  P  P59  1  0.60388148  0.12004819  0.64978532  1
  P  P60  1  0.61159756  0.38994622  0.35420763  1
  P  P61  1  0.88840244  0.88994622  0.14579237  1
  P  P62  1  0.89611852  0.62004819  0.85021468  1
  P  P63  1  0.96459036  0.74882947  0.49298345  1
  Sn  Sn64  1  0.24829752  0.53057205  0.38210306  1
  Sn  Sn65  1  0.25170248  0.03057205  0.11789694  1
  Sn  Sn66  1  0.24772837  0.96390597  0.60928607  1
  Sn  Sn67  1  0.25227163  0.46390597  0.89071393  1
  Sn  Sn68  1  0.74772837  0.53609403  0.10928607  1
  Sn  Sn69  1  0.75227163  0.03609403  0.39071393  1
  Sn  Sn70  1  0.74829752  0.96942795  0.88210306  1
  Sn  Sn71  1  0.75170248  0.46942795  0.61789694  1
