# generated using pymatgen
data_LiBeH3
_symmetry_space_group_name_H-M   'P 1'
_cell_length_a   4.69952579
_cell_length_b   6.17787689
_cell_length_c   6.51196205
_cell_angle_alpha   96.63601982
_cell_angle_beta   100.22552664
_cell_angle_gamma   106.85436089
_symmetry_Int_Tables_number   1
_chemical_formula_structural   LiBeH3
_chemical_formula_sum   'Li4 Be4 H12'
_cell_volume   175.24459054
_cell_formula_units_Z   4
loop_
 _symmetry_equiv_pos_site_id
 _symmetry_equiv_pos_as_xyz
  1  'x, y, z'
loop_
 _atom_site_type_symbol
 _atom_site_label
 _atom_site_symmetry_multiplicity
 _atom_site_fract_x
 _atom_site_fract_y
 _atom_site_fract_z
 _atom_site_occupancy
  H  H0  1  0.30829833  0.64713369  0.04628312  1
  H  H1  1  0.21083348  0.66259644  0.61393147  1
  H  H2  1  0.65071822  0.77539079  0.47865468  1
  H  H3  1  0.95564756  0.84996569  0.00716878  1
  H  H4  1  0.16803471  0.83982025  0.33158419  1
  H  H5  1  0.64175646  0.42442281  0.72276334  1
  H  H6  1  0.99397448  0.22157990  0.76295178  1
  H  H7  1  0.50252437  0.02906162  0.11412494  1
  H  H8  1  0.73902470  0.40871977  0.15612399  1
  H  H9  1  0.44739595  0.04235374  0.65578705  1
  H  H10  1  0.78220315  0.23032981  0.43791282  1
  H  H11  1  0.29933823  0.29596259  0.29153338  1
  Li  Li12  1  0.24560867  0.36772705  0.57173446  1
  Li  Li13  1  0.05423945  0.35074820  0.04852694  1
  Li  Li14  1  0.89613342  0.72087885  0.72174464  1
  Li  Li15  1  0.70409091  0.70360122  0.19839885  1
  Be  Be16  1  0.56258911  0.24378054  0.25662013  1
  Be  Be17  1  0.71231485  0.22668568  0.64442155  1
  Be  Be18  1  0.38743572  0.82747104  0.51347139  1
  Be  Be19  1  0.23756822  0.84466031  0.12510250  1
