# generated using pymatgen
data_NaAsSe2
_symmetry_space_group_name_H-M   'P 1'
_cell_length_a   5.91685526
_cell_length_b   12.09054724
_cell_length_c   24.99213715
_cell_angle_alpha   90.00000000
_cell_angle_beta   90.00000000
_cell_angle_gamma   90.00000000
_symmetry_Int_Tables_number   1
_chemical_formula_structural   NaAsSe2
_chemical_formula_sum   'Na16 As16 Se32'
_cell_volume   1787.88795813
_cell_formula_units_Z   16
loop_
 _symmetry_equiv_pos_site_id
 _symmetry_equiv_pos_as_xyz
  1  'x, y, z'
loop_
 _atom_site_type_symbol
 _atom_site_label
 _atom_site_symmetry_multiplicity
 _atom_site_fract_x
 _atom_site_fract_y
 _atom_site_fract_z
 _atom_site_occupancy
  Na  Na0  1  0.70883064  0.12413628  0.74742526  1
  Na  Na1  1  0.23800083  0.37307677  0.49781457  1
  Na  Na2  1  0.76199917  0.12692323  0.99781457  1
  Na  Na3  1  0.26199917  0.87307677  0.50218543  1
  Na  Na4  1  0.26199917  0.37307677  0.99781457  1
  Na  Na5  1  0.76199917  0.62692323  0.50218543  1
  Na  Na6  1  0.23800083  0.87307677  0.00218543  1
  Na  Na7  1  0.73800083  0.12692323  0.49781457  1
  Na  Na8  1  0.70883064  0.62413628  0.75257474  1
  Na  Na9  1  0.20883064  0.37586372  0.74742526  1
  Na  Na10  1  0.79116936  0.12413628  0.24742526  1
  Na  Na11  1  0.29116936  0.87586372  0.25257474  1
  Na  Na12  1  0.29116936  0.37586372  0.24742526  1
  Na  Na13  1  0.79116936  0.62413628  0.25257474  1
  Na  Na14  1  0.20883064  0.87586372  0.75257474  1
  Na  Na15  1  0.73800083  0.62692323  0.00218543  1
  As  As16  1  0.28845766  0.64470738  0.61223703  1
  As  As17  1  0.71154234  0.85529262  0.11223703  1
  As  As18  1  0.21154234  0.14470738  0.38776297  1
  As  As19  1  0.21154234  0.64470738  0.11223703  1
  As  As20  1  0.71154234  0.35529262  0.38776297  1
  As  As21  1  0.28845766  0.14470738  0.88776297  1
  As  As22  1  0.78845766  0.85529262  0.61223703  1
  As  As23  1  0.76834147  0.35538288  0.13954740  1
  As  As24  1  0.26834147  0.64461712  0.36045260  1
  As  As25  1  0.73165853  0.85538288  0.86045260  1
  As  As26  1  0.23165853  0.14461712  0.63954740  1
  As  As27  1  0.23165853  0.64461712  0.86045260  1
  As  As28  1  0.73165853  0.35538288  0.63954740  1
  As  As29  1  0.26834147  0.14461712  0.13954740  1
  As  As30  1  0.78845766  0.35529262  0.88776297  1
  As  As31  1  0.76834147  0.85538288  0.36045260  1
  Se  Se32  1  0.20639970  0.84461978  0.62863742  1
  Se  Se33  1  0.26140727  0.12407061  0.98118033  1
  Se  Se34  1  0.73859273  0.37592939  0.48118033  1
  Se  Se35  1  0.23859273  0.62407061  0.01881967  1
  Se  Se36  1  0.23859273  0.12407061  0.48118033  1
  Se  Se37  1  0.73859273  0.87592939  0.01881967  1
  Se  Se38  1  0.26140727  0.62407061  0.51881967  1
  Se  Se39  1  0.76140727  0.37592939  0.98118033  1
  Se  Se40  1  0.70879534  0.87369544  0.76686189  1
  Se  Se41  1  0.20879534  0.12630456  0.73313811  1
  Se  Se42  1  0.79120466  0.37369544  0.23313811  1
  Se  Se43  1  0.29120466  0.62630456  0.26686189  1
  Se  Se44  1  0.29120466  0.12630456  0.23313811  1
  Se  Se45  1  0.79120466  0.87369544  0.26686189  1
  Se  Se46  1  0.20879534  0.62630456  0.76686189  1
  Se  Se47  1  0.70879534  0.37369544  0.73313811  1
  Se  Se48  1  0.70639970  0.15538022  0.87136258  1
  Se  Se49  1  0.79360030  0.65538022  0.12863742  1
  Se  Se50  1  0.29360030  0.34461978  0.37136258  1
  Se  Se51  1  0.29360030  0.84461978  0.12863742  1
  Se  Se52  1  0.79360030  0.15538022  0.37136258  1
  Se  Se53  1  0.20639970  0.34461978  0.87136258  1
  Se  Se54  1  0.70639970  0.65538022  0.62863742  1
  Se  Se55  1  0.64850815  0.15606488  0.62177201  1
  Se  Se56  1  0.14850815  0.84393512  0.87822799  1
  Se  Se57  1  0.85149185  0.65606488  0.37822799  1
  Se  Se58  1  0.35149185  0.34393512  0.12177201  1
  Se  Se59  1  0.35149185  0.84393512  0.37822799  1
  Se  Se60  1  0.85149185  0.15606488  0.12177201  1
  Se  Se61  1  0.14850815  0.34393512  0.62177201  1
  Se  Se62  1  0.64850815  0.65606488  0.87822799  1
  Se  Se63  1  0.76140727  0.87592939  0.51881967  1
