# generated using pymatgen
data_Rb3B12H12Br
_symmetry_space_group_name_H-M   'P 1'
_cell_length_a   7.13287718
_cell_length_b   7.13287717
_cell_length_c   7.13287717
_cell_angle_alpha   93.11222651
_cell_angle_beta   93.11222650
_cell_angle_gamma   93.11222655
_symmetry_Int_Tables_number   1
_chemical_formula_structural   Rb3B12H12Br
_chemical_formula_sum   'Rb3 B12 H12 Br1'
_cell_volume   361.23961312
_cell_formula_units_Z   1
loop_
 _symmetry_equiv_pos_site_id
 _symmetry_equiv_pos_as_xyz
  1  'x, y, z'
loop_
 _atom_site_type_symbol
 _atom_site_label
 _atom_site_symmetry_multiplicity
 _atom_site_fract_x
 _atom_site_fract_y
 _atom_site_fract_z
 _atom_site_occupancy
  H  H0  1  0.79369048  0.79369048  0.26939648  1
  H  H1  1  0.79369048  0.26939648  0.79369048  1
  H  H2  1  0.26939648  0.79369048  0.79369048  1
  H  H3  1  0.73060352  0.20630952  0.20630952  1
  H  H4  1  0.90050973  0.90050973  0.60735313  1
  H  H5  1  0.90050973  0.60735313  0.90050973  1
  H  H6  1  0.60735313  0.90050973  0.90050973  1
  H  H7  1  0.39264687  0.09949027  0.09949027  1
  H  H8  1  0.09949027  0.09949027  0.39264687  1
  H  H9  1  0.09949027  0.39264687  0.09949027  1
  H  H10  1  0.20630952  0.20630952  0.73060352  1
  H  H11  1  0.20630952  0.73060352  0.20630952  1
  B  B12  1  0.84199927  0.11997337  0.11997337  1
  B  B13  1  0.15800073  0.88002663  0.88002663  1
  B  B14  1  0.88002663  0.15800073  0.88002663  1
  B  B15  1  0.88002663  0.88002663  0.15800073  1
  B  B16  1  0.05811209  0.05811209  0.22951628  1
  B  B17  1  0.05811209  0.22951628  0.05811209  1
  B  B18  1  0.22951628  0.05811209  0.05811209  1
  B  B19  1  0.77048372  0.94188791  0.94188791  1
  B  B20  1  0.94188791  0.94188791  0.77048372  1
  B  B21  1  0.94188791  0.77048372  0.94188791  1
  B  B22  1  0.11997337  0.11997337  0.84199927  1
  B  B23  1  0.11997337  0.84199927  0.11997337  1
  Br  Br24  1  0.50000000  0.50000000  0.50000000  1
  Rb  Rb25  1  0.50000000  0.00000000  0.50000000  1
  Rb  Rb26  1  0.00000000  0.50000000  0.50000000  1
  Rb  Rb27  1  0.50000000  0.50000000  0.00000000  1
