# generated using pymatgen
data_V2Pb3O8
_symmetry_space_group_name_H-M   'P 1'
_cell_length_a   5.76958764
_cell_length_b   5.76958764
_cell_length_c   7.59407845
_cell_angle_alpha   68.70590132
_cell_angle_beta   68.70590131
_cell_angle_gamma   68.03186324
_symmetry_Int_Tables_number   1
_chemical_formula_structural   V2Pb3O8
_chemical_formula_sum   'V2 Pb3 O8'
_cell_volume   210.73942438
_cell_formula_units_Z   1
loop_
 _symmetry_equiv_pos_site_id
 _symmetry_equiv_pos_as_xyz
  1  'x, y, z'
loop_
 _atom_site_type_symbol
 _atom_site_label
 _atom_site_symmetry_multiplicity
 _atom_site_fract_x
 _atom_site_fract_y
 _atom_site_fract_z
 _atom_site_occupancy
  O  O0  1  0.68314156  0.77672555  0.95868618  1
  O  O1  1  0.22327445  0.31685844  0.04131382  1
  O  O2  1  0.76015151  0.65184756  0.32725373  1
  O  O3  1  0.34815244  0.23984849  0.67274627  1
  O  O4  1  0.66155534  0.26342523  0.23104156  1
  O  O5  1  0.30134992  0.74387954  0.71172635  1
  O  O6  1  0.25612046  0.69865008  0.28827365  1
  O  O7  1  0.73657477  0.33844466  0.76895844  1
  V  V8  1  0.59433897  0.59818599  0.19989230  1
  V  V9  1  0.40181401  0.40566103  0.80010770  1
  Pb  Pb10  1  0.16587701  0.29534525  0.37696969  1
  Pb  Pb11  1  0.70465475  0.83412299  0.62303031  1
  Pb  Pb12  1  0.98647480  0.01352520  0.00000000  1
