# generated using pymatgen
data_K3MoCl6
_symmetry_space_group_name_H-M   'P 1'
_cell_length_a   7.66191391
_cell_length_b   12.34234425
_cell_length_c   12.89253249
_cell_angle_alpha   108.59827747
_cell_angle_beta   90.00000000
_cell_angle_gamma   90.00000000
_symmetry_Int_Tables_number   1
_chemical_formula_structural   K3MoCl6
_chemical_formula_sum   'K12 Mo4 Cl24'
_cell_volume   1155.52615742
_cell_formula_units_Z   4
loop_
 _symmetry_equiv_pos_site_id
 _symmetry_equiv_pos_as_xyz
  1  'x, y, z'
loop_
 _atom_site_type_symbol
 _atom_site_label
 _atom_site_symmetry_multiplicity
 _atom_site_fract_x
 _atom_site_fract_y
 _atom_site_fract_z
 _atom_site_occupancy
  Cl  Cl0  1  0.00238307  0.62387324  0.38399907  1
  Cl  Cl1  1  0.50238307  0.87612676  0.61600093  1
  Cl  Cl2  1  0.99761693  0.37612676  0.61600093  1
  Cl  Cl3  1  0.49761693  0.12387324  0.38399907  1
  Cl  Cl4  1  0.30059277  0.49454789  0.14842971  1
  Cl  Cl5  1  0.80059277  0.00545211  0.85157029  1
  Cl  Cl6  1  0.69940723  0.50545211  0.85157029  1
  Cl  Cl7  1  0.19940723  0.99454789  0.14842971  1
  Cl  Cl8  1  0.36678775  0.68325506  -0.00008691  1
  Cl  Cl9  1  0.86678775  0.81674494  1.00008691  1
  Cl  Cl10  1  0.63321225  0.31674494  1.00008691  1
  Cl  Cl11  1  0.13321225  0.18325506  -0.00008691  1
  Cl  Cl12  1  0.31963138  0.85408332  0.36925772  1
  Cl  Cl13  1  0.81963138  0.64591668  0.63074228  1
  Cl  Cl14  1  0.68036862  0.14591668  0.63074228  1
  Cl  Cl15  1  0.18036862  0.35408332  0.36925772  1
  Cl  Cl16  1  0.79295313  0.10416830  0.14532300  1
  Cl  Cl17  1  0.29295313  0.39583170  0.85467700  1
  Cl  Cl18  1  0.20704687  0.89583170  0.85467700  1
  Cl  Cl19  1  0.70704687  0.60416830  0.14532300  1
  Cl  Cl20  1  0.73072012  0.40539353  0.40461763  1
  Cl  Cl21  1  0.23072012  0.09460647  0.59538237  1
  Cl  Cl22  1  0.26927988  0.59460647  0.59538237  1
  Cl  Cl23  1  0.76927988  0.90539353  0.40461763  1
  K  K24  1  0.06725534  0.73477913  0.18372605  1
  K  K25  1  0.56725534  0.76522087  0.81627395  1
  K  K26  1  0.93274466  0.26522087  0.81627395  1
  K  K27  1  0.43274466  0.23477913  0.18372605  1
  K  K28  1  0.56680876  0.88793210  0.18077168  1
  K  K29  1  0.06680876  0.61206790  0.81922832  1
  K  K30  1  0.43319124  0.11206790  0.81922832  1
  K  K31  1  0.93319124  0.38793210  0.18077168  1
  K  K32  1  0.53450751  0.64104927  0.40151909  1
  K  K33  1  0.03450751  0.85895073  0.59848091  1
  K  K34  1  0.46549249  0.35895073  0.59848091  1
  K  K35  1  0.96549249  0.14104927  0.40151909  1
  Mo  Mo36  1  0.50000000  0.00000000  0.50000000  1
  Mo  Mo37  1  0.00000000  0.50000000  0.50000000  1
  Mo  Mo38  1  0.50000000  0.50000000  0.00000000  1
  Mo  Mo39  1  0.00000000  0.00000000  0.00000000  1
