# generated using pymatgen
data_Li7Mn2(CoO4)3
_symmetry_space_group_name_H-M   'P 1'
_cell_length_a   2.97902491
_cell_length_b   7.62432427
_cell_length_c   9.75824398
_cell_angle_alpha   91.59932566
_cell_angle_beta   82.62711392
_cell_angle_gamma   80.10719052
_symmetry_Int_Tables_number   1
_chemical_formula_structural   Li7Mn2(CoO4)3
_chemical_formula_sum   'Li7 Mn2 Co3 O12'
_cell_volume   216.25537980
_cell_formula_units_Z   1
loop_
 _symmetry_equiv_pos_site_id
 _symmetry_equiv_pos_as_xyz
  1  'x, y, z'
loop_
 _atom_site_type_symbol
 _atom_site_label
 _atom_site_symmetry_multiplicity
 _atom_site_fract_x
 _atom_site_fract_y
 _atom_site_fract_z
 _atom_site_occupancy
  Li  Li0  1  0.74228191  0.25689999  0.24448547  1
  Li  Li1  1  0.90949468  0.41143761  0.76102986  1
  Li  Li2  1  0.08511356  0.58440809  0.24722015  1
  Li  Li3  1  0.26224405  0.74782510  0.74729002  1
  Li  Li4  1  0.42743237  0.91225940  0.24962194  1
  Li  Li5  1  0.56440282  0.09314991  0.75692584  1
  Li  Li6  1  0.34956755  0.32925697  0.99013347  1
  Mn  Mn7  1  0.99276953  0.00633107  -0.00032957  1
  Mn  Mn8  1  0.16636043  0.16685046  0.49957455  1
  Co  Co9  1  0.49479605  0.50221620  0.49959017  1
  Co  Co10  1  0.66970287  0.65344752  0.00472906  1
  Co  Co11  1  0.83866495  0.83168006  0.50061092  1
  O  O12  1  0.39724622  0.10771529  0.10973627  1
  O  O13  1  0.49853826  0.30113933  0.61678841  1
  O  O14  1  0.69942077  0.47909505  0.11604787  1
  O  O15  1  0.88248028  0.63078832  0.61609102  1
  O  O16  1  0.01377522  0.79038823  0.11110338  1
  O  O17  1  0.23139102  0.95957337  0.61392375  1
  O  O18  1  0.10771126  0.37104164  0.38238871  1
  O  O19  1  0.31289721  0.56052724  0.88677514  1
  O  O20  1  0.45140033  0.70221469  0.38451000  1
  O  O21  1  0.60154712  0.87831337  0.89848780  1
  O  O22  1  0.83570691  0.03309163  0.38159685  1
  O  O23  1  0.96505466  0.19034946  0.88166891  1
