# generated using pymatgen
data_VPO4F
_symmetry_space_group_name_H-M   'P 1'
_cell_length_a   5.21938655
_cell_length_b   5.21074024
_cell_length_c   7.34843435
_cell_angle_alpha   108.78057325
_cell_angle_beta   107.53154266
_cell_angle_gamma   95.94824175
_symmetry_Int_Tables_number   1
_chemical_formula_structural   VPO4F
_chemical_formula_sum   'V2 P2 O8 F2'
_cell_volume   175.91415314
_cell_formula_units_Z   2
loop_
 _symmetry_equiv_pos_site_id
 _symmetry_equiv_pos_as_xyz
  1  'x, y, z'
loop_
 _atom_site_type_symbol
 _atom_site_label
 _atom_site_symmetry_multiplicity
 _atom_site_fract_x
 _atom_site_fract_y
 _atom_site_fract_z
 _atom_site_occupancy
  O  O0  1  0.25284815  0.81599633  0.11614703  1
  O  O1  1  0.72443988  0.84095854  0.08749160  1
  O  O2  1  0.66046613  0.18456627  0.39941024  1
  O  O3  1  0.62565310  0.67595514  0.34673324  1
  O  O4  1  0.27555921  0.15904041  0.91250738  1
  O  O5  1  0.33953342  0.81543476  0.60059069  1
  O  O6  1  0.37434598  0.32404380  0.65326710  1
  O  O7  1  0.74715093  0.18400261  0.88385331  1
  F  F8  1  0.15166183  0.32014911  0.26474696  1
  F  F9  1  0.84833725  0.67984983  0.73525338  1
  P  P10  1  0.42942212  0.11306084  0.76180208  1
  P  P11  1  0.57057743  0.88694019  0.23819884  1
  V  V12  1  0.00000000  0.00000000  0.00000000  1
  V  V13  1  0.49999978  0.50000051  0.50000046  1
