# generated using pymatgen
data_Cs3HgCl5
_symmetry_space_group_name_H-M   'P 1'
_cell_length_a   9.17696337
_cell_length_b   10.94765723
_cell_length_c   13.95134307
_cell_angle_alpha   90.00000000
_cell_angle_beta   90.00000000
_cell_angle_gamma   90.00000000
_symmetry_Int_Tables_number   1
_chemical_formula_structural   Cs3HgCl5
_chemical_formula_sum   'Cs12 Hg4 Cl20'
_cell_volume   1401.63911215
_cell_formula_units_Z   4
loop_
 _symmetry_equiv_pos_site_id
 _symmetry_equiv_pos_as_xyz
  1  'x, y, z'
loop_
 _atom_site_type_symbol
 _atom_site_label
 _atom_site_symmetry_multiplicity
 _atom_site_fract_x
 _atom_site_fract_y
 _atom_site_fract_z
 _atom_site_occupancy
  Cl  Cl0  1  0.16081058  0.75000000  0.23578689  1
  Cl  Cl1  1  0.66081058  0.75000000  0.26421311  1
  Cl  Cl2  1  0.83918942  0.25000000  0.76421311  1
  Cl  Cl3  1  0.33918942  0.25000000  0.73578689  1
  Cl  Cl4  1  0.81499636  0.44959857  0.06837422  1
  Cl  Cl5  1  0.31499636  0.05040143  0.43162578  1
  Cl  Cl6  1  0.18500364  0.94959857  0.93162578  1
  Cl  Cl7  1  0.68500364  0.55040143  0.56837422  1
  Cl  Cl8  1  0.18500364  0.55040143  0.93162578  1
  Cl  Cl9  1  0.68500364  0.94959857  0.56837422  1
  Cl  Cl10  1  0.81499636  0.05040143  0.06837422  1
  Cl  Cl11  1  0.31499636  0.44959857  0.43162578  1
  Cl  Cl12  1  0.37290679  0.75000000  0.70955063  1
  Cl  Cl13  1  0.87290679  0.75000000  0.79044937  1
  Cl  Cl14  1  0.62709321  0.25000000  0.29044937  1
  Cl  Cl15  1  0.12709321  0.25000000  0.20955063  1
  Cl  Cl16  1  0.96680905  0.25000000  0.48630439  1
  Cl  Cl17  1  0.46680905  0.25000000  0.01369561  1
  Cl  Cl18  1  0.03319095  0.75000000  0.51369561  1
  Cl  Cl19  1  0.53319095  0.75000000  0.98630439  1
  Cs  Cs20  1  0.58942067  0.02671506  0.83384450  1
  Cs  Cs21  1  0.08942067  0.47328494  0.66615550  1
  Cs  Cs22  1  0.41057933  0.52671506  0.16615550  1
  Cs  Cs23  1  0.91057933  0.97328494  0.33384450  1
  Cs  Cs24  1  0.41057933  0.97328494  0.16615550  1
  Cs  Cs25  1  0.91057933  0.52671506  0.33384450  1
  Cs  Cs26  1  0.58942067  0.47328494  0.83384450  1
  Cs  Cs27  1  0.08942067  0.02671506  0.66615550  1
  Cs  Cs28  1  0.40968330  0.75000000  0.45192092  1
  Cs  Cs29  1  0.90968330  0.75000000  0.04807908  1
  Cs  Cs30  1  0.59031670  0.25000000  0.54807908  1
  Cs  Cs31  1  0.09031670  0.25000000  0.95192092  1
  Hg  Hg32  1  0.29738928  0.75000000  0.88261664  1
  Hg  Hg33  1  0.79738928  0.75000000  0.61738336  1
  Hg  Hg34  1  0.70261072  0.25000000  0.11738336  1
  Hg  Hg35  1  0.20261072  0.25000000  0.38261664  1
