# generated using pymatgen
data_Li7Mn2(CoO4)3
_symmetry_space_group_name_H-M   'P 1'
_cell_length_a   2.98097491
_cell_length_b   10.14166174
_cell_length_c   7.60520432
_cell_angle_alpha   72.82688595
_cell_angle_beta   99.21061254
_cell_angle_gamma   91.23988911
_symmetry_Int_Tables_number   1
_chemical_formula_structural   Li7Mn2(CoO4)3
_chemical_formula_sum   'Li7 Mn2 Co3 O12'
_cell_volume   216.75795107
_cell_formula_units_Z   1
loop_
 _symmetry_equiv_pos_site_id
 _symmetry_equiv_pos_as_xyz
  1  'x, y, z'
loop_
 _atom_site_type_symbol
 _atom_site_label
 _atom_site_symmetry_multiplicity
 _atom_site_fract_x
 _atom_site_fract_y
 _atom_site_fract_z
 _atom_site_occupancy
  Li  Li0  1  0.82395114  0.25144920  0.66175233  1
  Li  Li1  1  0.17460265  0.75415153  0.33633309  1
  Li  Li2  1  0.51442799  0.24526152  0.01156514  1
  Li  Li3  1  0.16601074  0.24033948  0.33185202  1
  Li  Li4  1  0.49275675  0.74897312  0.99702884  1
  Li  Li5  1  0.83197935  0.75395042  0.66857949  1
  Li  Li6  1  0.65496465  0.00867460  0.32706718  1
  Mn  Mn7  1  0.00399261  0.00024831  0.00663234  1
  Mn  Mn8  1  0.33138474  0.50048091  0.66686635  1
  Co  Co9  1  0.00575568  0.49987363  0.00129746  1
  Co  Co10  1  0.33095594  0.99602577  0.65518815  1
  Co  Co11  1  0.65960646  0.50076632  0.32853606  1
  O  O12  1  0.43946142  0.10160583  0.84421606  1
  O  O13  1  0.71217710  0.62006984  0.49351106  1
  O  O14  1  0.07044168  0.11830407  0.15089083  1
  O  O15  1  0.73612042  0.11302013  0.52079375  1
  O  O16  1  0.09029841  0.61420693  0.16420263  1
  O  O17  1  0.38863364  0.61361461  0.83775103  1
  O  O18  1  0.24284473  0.38456370  0.50134621  1
  O  O19  1  0.55415691  0.89083078  0.14398891  1
  O  O20  1  0.94628454  0.38614337  0.83585403  1
  O  O21  1  0.62128623  0.38511341  0.16691641  1
  O  O22  1  0.94123490  0.88950821  0.82814757  1
  O  O23  1  0.26667131  0.88282431  0.51968306  1
