# generated using pymatgen
data_AlSbI6
_symmetry_space_group_name_H-M   'P 1'
_cell_length_a   8.07858910
_cell_length_b   10.98407702
_cell_length_c   10.98407702
_cell_angle_alpha   79.12586698
_cell_angle_beta   70.02286660
_cell_angle_gamma   70.02286657
_symmetry_Int_Tables_number   1
_chemical_formula_structural   AlSbI6
_chemical_formula_sum   'Al2 Sb2 I12'
_cell_volume   858.05574437
_cell_formula_units_Z   2
loop_
 _symmetry_equiv_pos_site_id
 _symmetry_equiv_pos_as_xyz
  1  'x, y, z'
loop_
 _atom_site_type_symbol
 _atom_site_label
 _atom_site_symmetry_multiplicity
 _atom_site_fract_x
 _atom_site_fract_y
 _atom_site_fract_z
 _atom_site_occupancy
  Al  Al0  1  0.34862918  0.80353933  0.80353933  1
  Al  Al1  1  0.65137082  0.19646067  0.19646067  1
  Sb  Sb2  1  0.00000000  0.19040818  0.80959182  1
  Sb  Sb3  1  0.00000000  0.80959182  0.19040818  1
  I  I4  1  0.07459005  0.78535291  0.42293564  1
  I  I5  1  0.92540995  0.57706436  0.21464709  1
  I  I6  1  0.92540995  0.21464709  0.57706436  1
  I  I7  1  0.07459005  0.42293564  0.78535291  1
  I  I8  1  0.57806561  0.97531259  0.27763210  1
  I  I9  1  0.42193439  0.72236790  0.02468741  1
  I  I10  1  0.42193439  0.02468741  0.72236790  1
  I  I11  1  0.57806561  0.27763210  0.97531259  1
  I  I12  1  0.00473719  0.14198847  0.14198847  1
  I  I13  1  0.99526281  0.85801153  0.85801153  1
  I  I14  1  0.46685730  0.35997882  0.35997882  1
  I  I15  1  0.53314270  0.64002118  0.64002118  1
