# generated using pymatgen
data_Pt(PbO2)2
_symmetry_space_group_name_H-M   'P 1'
_cell_length_a   6.44477391
_cell_length_b   8.09114143
_cell_length_c   9.23479230
_cell_angle_alpha   90.00000000
_cell_angle_beta   90.00000000
_cell_angle_gamma   90.00000000
_symmetry_Int_Tables_number   1
_chemical_formula_structural   Pt(PbO2)2
_chemical_formula_sum   'Pt4 Pb8 O16'
_cell_volume   481.55357471
_cell_formula_units_Z   4
loop_
 _symmetry_equiv_pos_site_id
 _symmetry_equiv_pos_as_xyz
  1  'x, y, z'
loop_
 _atom_site_type_symbol
 _atom_site_label
 _atom_site_symmetry_multiplicity
 _atom_site_fract_x
 _atom_site_fract_y
 _atom_site_fract_z
 _atom_site_occupancy
  O  O0  1  0.00000000  0.60653175  0.60389586  1
  O  O1  1  0.00000000  0.39346825  0.39610414  1
  O  O2  1  0.00000000  0.10653175  0.89610414  1
  O  O3  1  0.00000000  0.89346825  0.10389586  1
  O  O4  1  0.50000000  0.62533657  0.58798765  1
  O  O5  1  0.50000000  0.37466343  0.41201235  1
  O  O6  1  0.50000000  0.12533657  0.91201235  1
  O  O7  1  0.50000000  0.87466343  0.08798765  1
  O  O8  1  0.74950556  0.33341142  0.66615837  1
  O  O9  1  0.74950556  0.66658858  0.33384163  1
  O  O10  1  0.25049444  0.83341142  0.83384163  1
  O  O11  1  0.25049444  0.16658858  0.16615837  1
  O  O12  1  0.74950556  0.83341142  0.83384163  1
  O  O13  1  0.74950556  0.16658858  0.16615837  1
  O  O14  1  0.25049444  0.33341142  0.66615837  1
  O  O15  1  0.25049444  0.66658858  0.33384163  1
  Pt  Pt16  1  0.74905155  0.50000000  0.50000000  1
  Pt  Pt17  1  0.25094845  0.00000000  0.00000000  1
  Pt  Pt18  1  0.25094845  0.50000000  0.50000000  1
  Pt  Pt19  1  0.74905155  0.00000000  0.00000000  1
  Pb  Pb20  1  0.50000000  0.14173759  0.65611450  1
  Pb  Pb21  1  0.50000000  0.85826241  0.34388550  1
  Pb  Pb22  1  0.50000000  0.64173759  0.84388550  1
  Pb  Pb23  1  0.50000000  0.35826241  0.15611450  1
  Pb  Pb24  1  0.00000000  0.60941976  0.17486132  1
  Pb  Pb25  1  0.00000000  0.39058024  0.82513868  1
  Pb  Pb26  1  0.00000000  0.10941976  0.32513868  1
  Pb  Pb27  1  0.00000000  0.89058024  0.67486132  1
