# generated using pymatgen
data_Ag25(BiO6)3
_symmetry_space_group_name_H-M   'P 1'
_cell_length_a   11.74570271
_cell_length_b   11.74570271
_cell_length_c   6.41115602
_cell_angle_alpha   90.00000000
_cell_angle_beta   90.00000000
_cell_angle_gamma   120.00000000
_symmetry_Int_Tables_number   1
_chemical_formula_structural   Ag25(BiO6)3
_chemical_formula_sum   'Ag25 Bi3 O18'
_cell_volume   765.99332747
_cell_formula_units_Z   1
loop_
 _symmetry_equiv_pos_site_id
 _symmetry_equiv_pos_as_xyz
  1  'x, y, z'
loop_
 _atom_site_type_symbol
 _atom_site_label
 _atom_site_symmetry_multiplicity
 _atom_site_fract_x
 _atom_site_fract_y
 _atom_site_fract_z
 _atom_site_occupancy
  O  O0  1  0.67622309  0.18249580  0.54879111  1
  O  O1  1  0.50627271  0.32377691  0.54879111  1
  O  O2  1  0.81750420  0.49372729  0.54879111  1
  O  O3  1  0.18249580  0.50627271  0.45120889  1
  O  O4  1  0.92242663  0.09530833  0.29329352  1
  O  O5  1  0.17288170  0.07757337  0.29329352  1
  O  O6  1  0.90469167  0.82711830  0.29329352  1
  O  O7  1  0.07757337  0.90469167  0.70670648  1
  O  O8  1  0.82711830  0.92242663  0.70670648  1
  O  O9  1  0.09530833  0.17288170  0.70670648  1
  O  O10  1  0.83967441  0.31071615  0.93941544  1
  O  O11  1  0.47104173  0.16032559  0.93941544  1
  O  O12  1  0.68928385  0.52895827  0.93941544  1
  O  O13  1  0.16032559  0.68928385  0.06058456  1
  O  O14  1  0.52895827  0.83967441  0.06058456  1
  O  O15  1  0.31071615  0.47104173  0.06058456  1
  O  O16  1  0.32377691  0.81750420  0.45120889  1
  O  O17  1  0.49372729  0.67622309  0.45120889  1
  Ag  Ag18  1  0.04816998  0.30470846  0.33932224  1
  Ag  Ag19  1  0.76499085  0.24914080  0.24757954  1
  Ag  Ag20  1  0.75085920  0.51585005  0.24757954  1
  Ag  Ag21  1  0.48414995  0.23500915  0.24757954  1
  Ag  Ag22  1  0.23500915  0.75085920  0.75242046  1
  Ag  Ag23  1  0.24914080  0.48414995  0.75242046  1
  Ag  Ag24  1  0.50000000  0.00000000  0.50000000  1
  Ag  Ag25  1  0.00000000  0.50000000  0.50000000  1
  Ag  Ag26  1  0.50000000  0.50000000  0.50000000  1
  Ag  Ag27  1  0.00000000  0.00000000  0.00000000  1
  Ag  Ag28  1  0.69529154  0.74346153  0.33932224  1
  Ag  Ag29  1  0.95183002  0.69529154  0.66067776  1
  Ag  Ag30  1  0.74346153  0.04816998  0.66067776  1
  Ag  Ag31  1  0.30470846  0.25653847  0.66067776  1
  Ag  Ag32  1  0.97915925  0.25004711  0.84451145  1
  Ag  Ag33  1  0.27088786  0.02084075  0.84451145  1
  Ag  Ag34  1  0.74995289  0.72911214  0.84451145  1
  Ag  Ag35  1  0.02084075  0.74995289  0.15548855  1
  Ag  Ag36  1  0.72911214  0.97915925  0.15548855  1
  Ag  Ag37  1  0.25004711  0.27088786  0.15548855  1
  Ag  Ag38  1  0.50000000  0.50000000  0.00000000  1
  Ag  Ag39  1  0.00000000  0.50000000  0.00000000  1
  Ag  Ag40  1  0.50000000  0.00000000  0.00000000  1
  Ag  Ag41  1  0.51585005  0.76499085  0.75242046  1
  Ag  Ag42  1  0.25653847  0.95183002  0.33932224  1
  Bi  Bi43  1  0.00000000  0.00000000  0.50000000  1
  Bi  Bi44  1  0.66666667  0.33333333  0.75915908  1
  Bi  Bi45  1  0.33333333  0.66666667  0.24084092  1
