# generated using pymatgen
data_PtI3
_symmetry_space_group_name_H-M   'P 1'
_cell_length_a   7.09422749
_cell_length_b   7.11713870
_cell_length_c   13.56368168
_cell_angle_alpha   84.36623226
_cell_angle_beta   78.63999940
_cell_angle_gamma   60.10643198
_symmetry_Int_Tables_number   1
_chemical_formula_structural   PtI3
_chemical_formula_sum   'Pt4 I12'
_cell_volume   582.09087428
_cell_formula_units_Z   4
loop_
 _symmetry_equiv_pos_site_id
 _symmetry_equiv_pos_as_xyz
  1  'x, y, z'
loop_
 _atom_site_type_symbol
 _atom_site_label
 _atom_site_symmetry_multiplicity
 _atom_site_fract_x
 _atom_site_fract_y
 _atom_site_fract_z
 _atom_site_occupancy
  I  I0  1  0.80854407  0.12154071  0.64131460  1
  I  I1  1  0.06991522  0.12154071  0.85868540  1
  I  I2  1  0.19145593  0.87845929  0.35868540  1
  I  I3  1  0.93008478  0.87845929  0.14131460  1
  I  I4  1  0.83899764  0.50752089  0.37981189  1
  I  I5  1  0.65348147  0.50752089  0.12018811  1
  I  I6  1  0.16100236  0.49247911  0.62018811  1
  I  I7  1  0.34651853  0.49247911  0.87981189  1
  I  I8  1  0.23965050  0.20469873  0.12368816  1
  I  I9  1  0.55565077  0.20469873  0.37631184  1
  I  I10  1  0.76034950  0.79530127  0.87631184  1
  I  I11  1  0.44434923  0.79530127  0.62368816  1
  Pt  Pt12  1  0.09671617  0.80656766  0.75000000  1
  Pt  Pt13  1  0.90328383  0.19343234  0.25000000  1
  Pt  Pt14  1  0.50000000  0.50000000  0.50000000  1
  Pt  Pt15  1  0.00000000  0.50000000  0.00000000  1
