# generated using pymatgen
data_BaPt2S3
_symmetry_space_group_name_H-M   'P 1'
_cell_length_a   6.88942894
_cell_length_b   6.88942894
_cell_length_c   12.42474263
_cell_angle_alpha   90.00000000
_cell_angle_beta   90.00000000
_cell_angle_gamma   90.00000000
_symmetry_Int_Tables_number   1
_chemical_formula_structural   BaPt2S3
_chemical_formula_sum   'Ba4 Pt8 S12'
_cell_volume   589.73085579
_cell_formula_units_Z   4
loop_
 _symmetry_equiv_pos_site_id
 _symmetry_equiv_pos_as_xyz
  1  'x, y, z'
loop_
 _atom_site_type_symbol
 _atom_site_label
 _atom_site_symmetry_multiplicity
 _atom_site_fract_x
 _atom_site_fract_y
 _atom_site_fract_z
 _atom_site_occupancy
  S  S0  1  0.25655618  0.83628356  0.49514219  1
  S  S1  1  0.74344382  0.16371644  0.99514219  1
  S  S2  1  0.83628356  0.25655618  0.50485781  1
  S  S3  1  0.33628356  0.24344382  0.24514219  1
  S  S4  1  0.66371644  0.75655618  0.74514219  1
  S  S5  1  0.24344382  0.33628356  0.75485781  1
  S  S6  1  0.75655618  0.66371644  0.25485781  1
  S  S7  1  0.24322698  0.24322698  0.00000000  1
  S  S8  1  0.75677302  0.75677302  0.50000000  1
  S  S9  1  0.74322698  0.25677302  0.75000000  1
  S  S10  1  0.25677302  0.74322698  0.25000000  1
  S  S11  1  0.16371644  0.74344382  0.00485781  1
  Ba  Ba12  1  0.67846706  0.67846706  0.00000000  1
  Ba  Ba13  1  0.17846706  0.82153294  0.75000000  1
  Ba  Ba14  1  0.82153294  0.17846706  0.25000000  1
  Ba  Ba15  1  0.32153294  0.32153294  0.50000000  1
  Pt  Pt16  1  0.75036319  0.00706452  0.62510675  1
  Pt  Pt17  1  0.99293548  0.24963681  0.87489325  1
  Pt  Pt18  1  0.00706452  0.75036319  0.37489325  1
  Pt  Pt19  1  0.25036319  0.49293548  0.12489325  1
  Pt  Pt20  1  0.74963681  0.50706452  0.62489325  1
  Pt  Pt21  1  0.49293548  0.25036319  0.87510675  1
  Pt  Pt22  1  0.50706452  0.74963681  0.37510675  1
  Pt  Pt23  1  0.24963681  0.99293548  0.12510675  1
