# generated using pymatgen
data_Ca14Si19
_symmetry_space_group_name_H-M   'P 1'
_cell_length_a   23.39807218
_cell_length_b   23.39807218
_cell_length_c   23.39807218
_cell_angle_alpha   21.35739523
_cell_angle_beta   21.35739522
_cell_angle_gamma   21.35739522
_symmetry_Int_Tables_number   1
_chemical_formula_structural   Ca14Si19
_chemical_formula_sum   'Ca28 Si38'
_cell_volume   1488.37178644
_cell_formula_units_Z   2
loop_
 _symmetry_equiv_pos_site_id
 _symmetry_equiv_pos_as_xyz
  1  'x, y, z'
loop_
 _atom_site_type_symbol
 _atom_site_label
 _atom_site_symmetry_multiplicity
 _atom_site_fract_x
 _atom_site_fract_y
 _atom_site_fract_z
 _atom_site_occupancy
  Si  Si0  1  0.93900810  0.48965694  0.23106836  1
  Si  Si1  1  0.48965694  0.23106836  0.93900810  1
  Si  Si2  1  0.23106836  0.93900810  0.48965694  1
  Si  Si3  1  0.26893164  0.01034306  0.56099190  1
  Si  Si4  1  0.01034306  0.56099190  0.26893164  1
  Si  Si5  1  0.56099190  0.26893164  0.01034306  1
  Si  Si6  1  0.06099190  0.51034306  0.76893164  1
  Si  Si7  1  0.51034306  0.76893164  0.06099190  1
  Si  Si8  1  0.76893164  0.06099190  0.51034306  1
  Si  Si9  1  0.73106836  0.98965694  0.43900810  1
  Si  Si10  1  0.98965694  0.43900810  0.73106836  1
  Si  Si11  1  0.43900810  0.73106836  0.98965694  1
  Si  Si12  1  0.71480956  0.33191299  0.88070407  1
  Si  Si13  1  0.33191299  0.88070407  0.71480956  1
  Si  Si14  1  0.88070407  0.71480956  0.33191299  1
  Si  Si15  1  0.61929593  0.16808701  0.78519044  1
  Si  Si16  1  0.16808701  0.78519044  0.61929593  1
  Si  Si17  1  0.78519044  0.61929593  0.16808701  1
  Si  Si18  1  0.28519044  0.66808701  0.11929593  1
  Si  Si19  1  0.66808701  0.11929593  0.28519044  1
  Si  Si20  1  0.11929593  0.28519044  0.66808701  1
  Si  Si21  1  0.38070407  0.83191299  0.21480956  1
  Si  Si22  1  0.83191299  0.21480956  0.38070407  1
  Si  Si23  1  0.21480956  0.38070407  0.83191299  1
  Si  Si24  1  0.33389552  0.75000000  0.16610448  1
  Si  Si25  1  0.75000000  0.16610448  0.33389552  1
  Si  Si26  1  0.16610448  0.33389552  0.75000000  1
  Si  Si27  1  0.66610448  0.25000000  0.83389552  1
  Si  Si28  1  0.15297747  0.15297747  0.15297747  1
  Si  Si29  1  0.34702253  0.34702253  0.34702253  1
  Si  Si30  1  0.84702253  0.84702253  0.84702253  1
  Si  Si31  1  0.65297747  0.65297747  0.65297747  1
  Si  Si32  1  0.21902956  0.21902956  0.21902956  1
  Si  Si33  1  0.28097044  0.28097044  0.28097044  1
  Si  Si34  1  0.78097044  0.78097044  0.78097044  1
  Si  Si35  1  0.71902956  0.71902956  0.71902956  1
  Si  Si36  1  0.83389552  0.66610448  0.25000000  1
  Si  Si37  1  0.25000000  0.83389552  0.66610448  1
  Ca  Ca38  1  0.69084886  0.44249753  0.92779531  1
  Ca  Ca39  1  0.44249753  0.92779531  0.69084886  1
  Ca  Ca40  1  0.92779531  0.69084886  0.44249753  1
  Ca  Ca41  1  0.57220469  0.05750247  0.80915114  1
  Ca  Ca42  1  0.05750247  0.80915114  0.57220469  1
  Ca  Ca43  1  0.80915114  0.57220469  0.05750247  1
  Ca  Ca44  1  0.30915114  0.55750247  0.07220469  1
  Ca  Ca45  1  0.55750247  0.07220469  0.30915114  1
  Ca  Ca46  1  0.07220469  0.30915114  0.55750247  1
  Ca  Ca47  1  0.42779531  0.94249753  0.19084886  1
  Ca  Ca48  1  0.94249753  0.19084886  0.42779531  1
  Ca  Ca49  1  0.19084886  0.42779531  0.94249753  1
  Ca  Ca50  1  -0.00038767  0.75000000  0.50038767  1
  Ca  Ca51  1  0.75000000  0.50038767  -0.00038767  1
  Ca  Ca52  1  0.50038767  -0.00038767  0.75000000  1
  Ca  Ca53  1  1.00038767  0.25000000  0.49961233  1
  Ca  Ca54  1  0.25000000  0.49961233  1.00038767  1
  Ca  Ca55  1  0.49961233  1.00038767  0.25000000  1
  Ca  Ca56  1  0.60996745  0.60996745  0.60996745  1
  Ca  Ca57  1  0.89003255  0.89003255  0.89003255  1
  Ca  Ca58  1  0.39003255  0.39003255  0.39003255  1
  Ca  Ca59  1  0.10996745  0.10996745  0.10996745  1
  Ca  Ca60  1  0.55479908  0.55479908  0.55479908  1
  Ca  Ca61  1  0.94520092  0.94520092  0.94520092  1
  Ca  Ca62  1  0.44520092  0.44520092  0.44520092  1
  Ca  Ca63  1  0.05479908  0.05479908  0.05479908  1
  Ca  Ca64  1  0.50000000  0.50000000  0.50000000  1
  Ca  Ca65  1  0.00000000  0.00000000  0.00000000  1
