# generated using pymatgen
data_Ge7F16
_symmetry_space_group_name_H-M   'P 1'
_cell_length_a   7.75848687
_cell_length_b   9.99755047
_cell_length_c   10.43556299
_cell_angle_alpha   90.60078821
_cell_angle_beta   90.00000000
_cell_angle_gamma   112.83131612
_symmetry_Int_Tables_number   1
_chemical_formula_structural   Ge7F16
_chemical_formula_sum   'Ge14 F32'
_cell_volume   745.97626186
_cell_formula_units_Z   2
loop_
 _symmetry_equiv_pos_site_id
 _symmetry_equiv_pos_as_xyz
  1  'x, y, z'
loop_
 _atom_site_type_symbol
 _atom_site_label
 _atom_site_symmetry_multiplicity
 _atom_site_fract_x
 _atom_site_fract_y
 _atom_site_fract_z
 _atom_site_occupancy
  F  F0  1  0.12818575  0.15539114  0.79988863  1
  F  F1  1  0.02720539  0.15539114  0.29988863  1
  F  F2  1  0.93417590  0.87986461  0.81333811  1
  F  F3  1  0.94568872  0.87986461  0.31333811  1
  F  F4  1  0.40981940  0.10892209  0.69896894  1
  F  F5  1  0.69910269  0.10892209  0.19896894  1
  F  F6  1  0.27016125  0.99625381  0.91838752  1
  F  F7  1  0.72609256  0.99625381  0.41838752  1
  F  F8  1  0.07478844  -0.00379791  0.59415336  1
  F  F9  1  0.92141365  -0.00379791  0.09415336  1
  F  F10  1  0.21250452  0.83350388  0.71370489  1
  F  F11  1  0.62099935  0.83350388  0.21370489  1
  F  F12  1  0.21737159  0.45201617  0.65218687  1
  F  F13  1  0.23464458  0.45201617  0.15218687  1
  F  F14  1  0.51577867  0.31368419  0.26282810  1
  F  F15  1  0.79790552  0.31368419  0.76282810  1
  F  F16  1  0.32229671  0.30170098  0.48117003  1
  F  F17  1  0.97940427  0.30170098  0.98117003  1
  F  F18  1  0.65378118  0.27726683  0.49237478  1
  F  F19  1  0.62348565  0.27726683  0.99237478  1
  F  F20  1  0.79455722  0.57681395  0.34596231  1
  F  F21  1  0.78225673  0.57681395  0.84596231  1
  F  F22  1  0.40377416  0.76201277  0.48981148  1
  F  F23  1  0.35823861  0.76201277  0.98981148  1
  F  F24  1  0.12393258  0.46233278  0.40461035  1
  F  F25  1  0.33840020  0.46233278  0.90461035  1
  F  F26  1  0.20845557  0.69517777  0.24843817  1
  F  F27  1  0.48672220  0.69517777  0.74843817  1
  F  F28  1  0.65348006  0.54371359  0.10577606  1
  F  F29  1  0.89023352  0.54371359  0.60577606  1
  F  F30  1  0.73084533  0.73829715  0.53378937  1
  F  F31  1  0.00745182  0.73829715  0.03378937  1
  Ge  Ge32  1  0.23230664  0.30425419  0.02751692  1
  Ge  Ge33  1  0.07194755  0.30425419  0.52751692  1
  Ge  Ge34  1  0.60707974  0.87127235  0.59010616  1
  Ge  Ge35  1  0.26419262  0.87127235  0.09010616  1
  Ge  Ge36  1  0.43512212  0.16947535  0.40739322  1
  Ge  Ge37  1  0.73435323  0.16947535  0.90739322  1
  Ge  Ge38  1  0.76884806  0.43598817  0.19207019  1
  Ge  Ge39  1  0.66714010  0.43598817  0.69207019  1
  Ge  Ge40  1  0.96437883  0.73142367  0.45734240  1
  Ge  Ge41  1  0.76704484  0.73142367  0.95734240  1
  Ge  Ge42  1  0.35912020  0.59591327  0.30383307  1
  Ge  Ge43  1  0.23679307  0.59591327  0.80383307  1
  Ge  Ge44  1  0.17559682  -0.00174077  0.75181907  1
  Ge  Ge45  1  0.82266240  -0.00174077  0.25181907  1
