# generated using pymatgen
data_Li7Mn2(CoO4)3
_symmetry_space_group_name_H-M   'P 1'
_cell_length_a   2.97461164
_cell_length_b   7.60952949
_cell_length_c   9.76035481
_cell_angle_alpha   91.73663780
_cell_angle_beta   82.74418364
_cell_angle_gamma   80.36474716
_symmetry_Int_Tables_number   1
_chemical_formula_structural   Li7Mn2(CoO4)3
_chemical_formula_sum   'Li7 Mn2 Co3 O12'
_cell_volume   215.76953405
_cell_formula_units_Z   1
loop_
 _symmetry_equiv_pos_site_id
 _symmetry_equiv_pos_as_xyz
  1  'x, y, z'
loop_
 _atom_site_type_symbol
 _atom_site_label
 _atom_site_symmetry_multiplicity
 _atom_site_fract_x
 _atom_site_fract_y
 _atom_site_fract_z
 _atom_site_occupancy
  Li  Li0  1  0.75487691  0.24619827  0.25450609  1
  Li  Li1  1  0.93376498  0.40482241  0.74398774  1
  Li  Li2  1  0.07512958  0.58759562  0.25006229  1
  Li  Li3  1  0.24136513  0.75211103  0.75239640  1
  Li  Li4  1  0.41304926  0.91368714  0.25380827  1
  Li  Li5  1  0.59031932  0.09031795  0.73822794  1
  Li  Li6  1  0.15006524  0.17086610  0.50926576  1
  Mn  Mn7  1  -0.00029218  -0.00014521  0.00016906  1
  Mn  Mn8  1  0.50763178  0.49344944  0.50036319  1
  Co  Co9  1  0.32645311  0.33601663  0.99955130  1
  Co  Co10  1  0.67223881  0.66387905  0.00074299  1
  Co  Co11  1  0.82947458  0.84706410  0.49542653  1
  O  O12  1  0.33453183  0.13418578  0.11981413  1
  O  O13  1  0.53400922  0.30973448  0.61832778  1
  O  O14  1  0.70901081  0.46362067  0.11715432  1
  O  O15  1  0.90058656  0.62200424  0.60266711  1
  O  O16  1  0.05928681  0.79319920  0.11551585  1
  O  O17  1  0.19135593  0.94012306  0.61401736  1
  O  O18  1  0.10384620  0.39257342  0.38978693  1
  O  O19  1  0.28622219  0.53740885  0.88517425  1
  O  O20  1  0.48595068  0.70879608  0.38805421  1
  O  O21  1  0.66039597  0.86590889  0.88234297  1
  O  O22  1  0.79986185  0.02062936  0.38357649  1
  O  O23  1  0.94086543  0.20595345  0.88506102  1
