# generated using pymatgen
data_CeIr3
_symmetry_space_group_name_H-M   'P 1'
_cell_length_a   9.37028340
_cell_length_b   9.37028340
_cell_length_c   9.37028340
_cell_angle_alpha   33.02965700
_cell_angle_beta   33.02965699
_cell_angle_gamma   33.02965699
_symmetry_Int_Tables_number   1
_chemical_formula_structural   CeIr3
_chemical_formula_sum   'Ce3 Ir9'
_cell_volume   217.53864784
_cell_formula_units_Z   3
loop_
 _symmetry_equiv_pos_site_id
 _symmetry_equiv_pos_as_xyz
  1  'x, y, z'
loop_
 _atom_site_type_symbol
 _atom_site_label
 _atom_site_symmetry_multiplicity
 _atom_site_fract_x
 _atom_site_fract_y
 _atom_site_fract_z
 _atom_site_occupancy
  Ce  Ce0  1  0.00000000  0.00000000  0.00000000  1
  Ce  Ce1  1  0.13882931  0.13882931  0.13882931  1
  Ce  Ce2  1  0.86117069  0.86117069  0.86117069  1
  Ir  Ir3  1  0.50000000  0.50000000  0.50000000  1
  Ir  Ir4  1  0.33326915  0.33326915  0.33326915  1
  Ir  Ir5  1  0.66673085  0.66673085  0.66673085  1
  Ir  Ir6  1  0.58292564  0.08147644  0.58292564  1
  Ir  Ir7  1  0.58292564  0.58292564  0.08147644  1
  Ir  Ir8  1  0.08147644  0.58292564  0.58292564  1
  Ir  Ir9  1  0.91852356  0.41707436  0.41707436  1
  Ir  Ir10  1  0.41707436  0.91852356  0.41707436  1
  Ir  Ir11  1  0.41707436  0.41707436  0.91852356  1
