# generated using pymatgen
data_Sn4Ir
_symmetry_space_group_name_H-M   'P 1'
_cell_length_a   6.41742867
_cell_length_b   6.41742867
_cell_length_c   12.46145825
_cell_angle_alpha   104.92124360
_cell_angle_beta   104.92124357
_cell_angle_gamma   90.00000001
_symmetry_Int_Tables_number   1
_chemical_formula_structural   Sn4Ir
_chemical_formula_sum   'Sn16 Ir4'
_cell_volume   477.96912895
_cell_formula_units_Z   4
loop_
 _symmetry_equiv_pos_site_id
 _symmetry_equiv_pos_as_xyz
  1  'x, y, z'
loop_
 _atom_site_type_symbol
 _atom_site_label
 _atom_site_symmetry_multiplicity
 _atom_site_fract_x
 _atom_site_fract_y
 _atom_site_fract_z
 _atom_site_occupancy
  Sn  Sn0  1  0.86176680  0.11101091  0.87598211  1
  Sn  Sn1  1  0.23502880  0.48578469  0.62401789  1
  Sn  Sn2  1  0.88898909  0.13823320  0.62401789  1
  Sn  Sn3  1  0.98578469  0.38898909  0.12401789  1
  Sn  Sn4  1  0.48578469  0.23502880  0.12401789  1
  Sn  Sn5  1  0.38898909  0.98578469  0.62401789  1
  Sn  Sn6  1  0.73502880  0.63823320  0.62401789  1
  Sn  Sn7  1  0.36176680  0.26497120  0.87598211  1
  Sn  Sn8  1  0.01421531  0.61101091  0.87598211  1
  Sn  Sn9  1  0.11101091  0.86176680  0.37598211  1
  Sn  Sn10  1  0.76497120  0.51421531  0.37598211  1
  Sn  Sn11  1  0.13823320  0.88898909  0.12401789  1
  Sn  Sn12  1  0.51421531  0.76497120  0.87598211  1
  Sn  Sn13  1  0.61101091  0.01421531  0.37598211  1
  Sn  Sn14  1  0.26497120  0.36176680  0.37598211  1
  Sn  Sn15  1  0.63823320  0.73502880  0.12401789  1
  Ir  Ir16  1  0.37500000  0.62500000  0.25000000  1
  Ir  Ir17  1  0.12500000  0.87500000  0.75000000  1
  Ir  Ir18  1  0.62500000  0.37500000  0.75000000  1
  Ir  Ir19  1  0.87500000  0.12500000  0.25000000  1
