# generated using pymatgen
data_Tl4SnTe3
_symmetry_space_group_name_H-M   'P 1'
_cell_length_a   8.86015088
_cell_length_b   8.86015088
_cell_length_c   9.20751128
_cell_angle_alpha   118.75969831
_cell_angle_beta   118.75969831
_cell_angle_gamma   90.00000000
_symmetry_Int_Tables_number   1
_chemical_formula_structural   Tl4SnTe3
_chemical_formula_sum   'Tl8 Sn2 Te6'
_cell_volume   529.68457126
_cell_formula_units_Z   2
loop_
 _symmetry_equiv_pos_site_id
 _symmetry_equiv_pos_as_xyz
  1  'x, y, z'
loop_
 _atom_site_type_symbol
 _atom_site_label
 _atom_site_symmetry_multiplicity
 _atom_site_fract_x
 _atom_site_fract_y
 _atom_site_fract_z
 _atom_site_occupancy
  Tl  Tl0  1  0.00876750  0.80716898  0.31593648  1
  Tl  Tl1  1  0.30716898  0.50876750  0.31593648  1
  Tl  Tl2  1  0.80716898  0.30716898  0.31593648  1
  Tl  Tl3  1  0.50876750  0.00876750  0.31593648  1
  Tl  Tl4  1  0.99123250  0.19283102  0.68406352  1
  Tl  Tl5  1  0.69283102  0.49123250  0.68406352  1
  Tl  Tl6  1  0.19283102  0.69283102  0.68406352  1
  Tl  Tl7  1  0.49123250  0.99123250  0.68406352  1
  Sn  Sn8  1  0.50000000  0.50000000  -0.00000000  1
  Sn  Sn9  1  -0.00000000  -0.00000000  -0.00000000  1
  Te  Te10  1  0.75000000  0.75000000  0.50000000  1
  Te  Te11  1  0.25000000  0.25000000  0.50000000  1
  Te  Te12  1  0.66185624  0.83814376  -0.00000000  1
  Te  Te13  1  0.33814376  0.16185624  -0.00000000  1
  Te  Te14  1  0.83814376  0.33814376  0.00000000  1
  Te  Te15  1  0.16185624  0.66185624  1.00000000  1
