# generated using pymatgen
data_Mg9Sn5
_symmetry_space_group_name_H-M   'P 1'
_cell_length_a   8.88328018
_cell_length_b   8.88328018
_cell_length_c   8.88328019
_cell_angle_alpha   96.92612576
_cell_angle_beta   96.92612579
_cell_angle_gamma   96.92612580
_symmetry_Int_Tables_number   1
_chemical_formula_structural   Mg9Sn5
_chemical_formula_sum   'Mg18 Sn10'
_cell_volume   684.28386448
_cell_formula_units_Z   2
loop_
 _symmetry_equiv_pos_site_id
 _symmetry_equiv_pos_as_xyz
  1  'x, y, z'
loop_
 _atom_site_type_symbol
 _atom_site_label
 _atom_site_symmetry_multiplicity
 _atom_site_fract_x
 _atom_site_fract_y
 _atom_site_fract_z
 _atom_site_occupancy
  Mg  Mg0  1  0.65177359  0.34244485  0.25572125  1
  Mg  Mg1  1  0.34244485  0.25572125  0.65177359  1
  Mg  Mg2  1  0.25572125  0.65177359  0.34244485  1
  Mg  Mg3  1  0.33647923  0.65302838  0.74434005  1
  Mg  Mg4  1  0.65302838  0.74434005  0.33647923  1
  Mg  Mg5  1  0.74434005  0.33647923  0.65302838  1
  Mg  Mg6  1  0.02039609  0.32127904  0.39518908  1
  Mg  Mg7  1  0.32127904  0.39518908  0.02039609  1
  Mg  Mg8  1  0.39518908  0.02039609  0.32127904  1
  Mg  Mg9  1  0.97052085  0.66582520  0.59543043  1
  Mg  Mg10  1  0.32492134  0.00418458  0.91754025  1
  Mg  Mg11  1  0.91754025  0.32492134  0.00418458  1
  Mg  Mg12  1  0.00418458  0.91754025  0.32492134  1
  Mg  Mg13  1  0.68048285  0.99395449  0.07286295  1
  Mg  Mg14  1  0.07286295  0.68048285  0.99395449  1
  Mg  Mg15  1  0.99395449  0.07286295  0.68048285  1
  Mg  Mg16  1  0.59543043  0.97052085  0.66582520  1
  Mg  Mg17  1  0.66582520  0.59543043  0.97052085  1
  Sn  Sn18  1  0.85035771  0.85035771  0.85035771  1
  Sn  Sn19  1  0.11315904  0.11315904  0.11315904  1
  Sn  Sn20  1  0.61312076  0.61312076  0.61312076  1
  Sn  Sn21  1  0.35249148  0.35249148  0.35249148  1
  Sn  Sn22  1  0.74829025  0.08207109  0.40952918  1
  Sn  Sn23  1  0.08207109  0.40952918  0.74829025  1
  Sn  Sn24  1  0.40952918  0.74829025  0.08207109  1
  Sn  Sn25  1  0.24901769  0.91069698  0.58389132  1
  Sn  Sn26  1  0.91069698  0.58389132  0.24901769  1
  Sn  Sn27  1  0.58389132  0.24901769  0.91069698  1
