# generated using pymatgen
data_Na3YCl6
_symmetry_space_group_name_H-M   'P 1'
_cell_length_a   6.93705148
_cell_length_b   7.32344783
_cell_length_c   10.30947302
_cell_angle_alpha   90.00000000
_cell_angle_beta   90.67275306
_cell_angle_gamma   90.00000000
_symmetry_Int_Tables_number   1
_chemical_formula_structural   Na3YCl6
_chemical_formula_sum   'Na6 Y2 Cl12'
_cell_volume   523.71744145
_cell_formula_units_Z   2
loop_
 _symmetry_equiv_pos_site_id
 _symmetry_equiv_pos_as_xyz
  1  'x, y, z'
loop_
 _atom_site_type_symbol
 _atom_site_label
 _atom_site_symmetry_multiplicity
 _atom_site_fract_x
 _atom_site_fract_y
 _atom_site_fract_z
 _atom_site_occupancy
  Na  Na0  1  0.00000000  0.50000000  0.50000000  1
  Na  Na1  1  0.50000000  0.00000000  0.00000000  1
  Na  Na2  1  0.97672510  0.92560666  0.25867537  1
  Na  Na3  1  0.52327490  0.42560666  0.24132463  1
  Na  Na4  1  0.02327490  0.07439334  0.74132463  1
  Na  Na5  1  0.47672510  0.57439334  0.75867537  1
  Cl  Cl6  1  0.63836994  0.93365776  0.73821309  1
  Cl  Cl7  1  0.33082921  0.30510756  0.57921091  1
  Cl  Cl8  1  0.16917079  0.80510756  0.92078909  1
  Cl  Cl9  1  0.66917079  0.69489244  0.42078909  1
  Cl  Cl10  1  0.31435635  0.32127388  0.93490139  1
  Cl  Cl11  1  0.18564365  0.82127388  0.56509861  1
  Cl  Cl12  1  0.68564365  0.67872612  0.06509861  1
  Cl  Cl13  1  0.81435635  0.17872612  0.43490139  1
  Cl  Cl14  1  0.36163006  0.06634224  0.26178691  1
  Cl  Cl15  1  0.13836994  0.56634224  0.23821309  1
  Cl  Cl16  1  0.83082921  0.19489244  0.07921091  1
  Cl  Cl17  1  0.86163006  0.43365776  0.76178691  1
  Y  Y18  1  0.50000000  0.00000000  0.50000000  1
  Y  Y19  1  0.00000000  0.50000000  0.00000000  1
