# generated using pymatgen
data_Re2Ni(H2O3)4
_symmetry_space_group_name_H-M   'P 1'
_cell_length_a   6.88103231
_cell_length_b   6.93151559
_cell_length_c   7.26477805
_cell_angle_alpha   63.80171614
_cell_angle_beta   69.14115069
_cell_angle_gamma   70.03102315
_symmetry_Int_Tables_number   1
_chemical_formula_structural   Re2Ni(H2O3)4
_chemical_formula_sum   'Re2 Ni1 H8 O12'
_cell_volume   283.42216491
_cell_formula_units_Z   1
loop_
 _symmetry_equiv_pos_site_id
 _symmetry_equiv_pos_as_xyz
  1  'x, y, z'
loop_
 _atom_site_type_symbol
 _atom_site_label
 _atom_site_symmetry_multiplicity
 _atom_site_fract_x
 _atom_site_fract_y
 _atom_site_fract_z
 _atom_site_occupancy
  H  H0  1  0.37881945  0.69489410  0.36678095  1
  H  H1  1  0.62118055  0.30510590  0.63321905  1
  H  H2  1  0.61217414  0.57833059  0.27087884  1
  H  H3  1  0.70864308  0.97693120  0.26428151  1
  H  H4  1  0.29135692  0.02306880  0.73571849  1
  H  H5  1  0.72341189  0.20153707  0.06310249  1
  H  H6  1  0.27658811  0.79846293  0.93689751  1
  H  H7  1  0.38782586  0.42166941  0.72912116  1
  O  O8  1  0.85917927  0.42890970  0.89602088  1
  O  O9  1  0.20126459  0.11507037  0.17872300  1
  O  O10  1  0.79873541  0.88492963  0.82127700  1
  O  O11  1  0.36301719  0.91020267  0.84688652  1
  O  O12  1  0.63698281  0.08979733  0.15311348  1
  O  O13  1  0.81099496  0.75473706  0.49152919  1
  O  O14  1  0.18900504  0.24526294  0.50847081  1
  O  O15  1  0.19173193  0.65860780  0.61908129  1
  O  O16  1  0.80826807  0.34139220  0.38091871  1
  O  O17  1  0.51291781  0.30357797  0.76654438  1
  O  O18  1  0.48708219  0.69642203  0.23345562  1
  O  O19  1  0.14082073  0.57109030  0.10397912  1
  Ni  Ni20  1  0.50000000  0.00000000  0.00000000  1
  Re  Re21  1  0.91325158  0.68118095  0.70724885  1
  Re  Re22  1  0.08674842  0.31881905  0.29275115  1
