# generated using pymatgen
data_LiMo2P2O11
_symmetry_space_group_name_H-M   'P 1'
_cell_length_a   7.91329231
_cell_length_b   12.89570843
_cell_length_c   8.66521751
_cell_angle_alpha   90.00000000
_cell_angle_beta   107.38087679
_cell_angle_gamma   90.00000000
_symmetry_Int_Tables_number   1
_chemical_formula_structural   LiMo2P2O11
_chemical_formula_sum   'Li4 Mo8 P8 O44'
_cell_volume   843.88845937
_cell_formula_units_Z   4
loop_
 _symmetry_equiv_pos_site_id
 _symmetry_equiv_pos_as_xyz
  1  'x, y, z'
loop_
 _atom_site_type_symbol
 _atom_site_label
 _atom_site_symmetry_multiplicity
 _atom_site_fract_x
 _atom_site_fract_y
 _atom_site_fract_z
 _atom_site_occupancy
  Li  Li0  1  0.15624482  0.25000000  0.46401077  1
  Li  Li1  1  0.50000000  0.00000000  0.00000000  1
  Li  Li2  1  0.50000000  0.50000000  0.00000000  1
  Li  Li3  1  0.84375518  0.75000000  0.53598923  1
  O  O4  1  0.24816700  0.65385878  0.38971497  1
  O  O5  1  0.95839208  0.75000000  0.26982462  1
  O  O6  1  0.90025670  0.25000000  0.43114960  1
  O  O7  1  0.99816263  0.49851986  0.75451924  1
  O  O8  1  0.99816263  0.00148014  0.75451924  1
  O  O9  1  0.81435089  0.96801266  0.43559889  1
  O  O10  1  0.81435089  0.53198734  0.43559889  1
  O  O11  1  0.70804283  0.59439156  0.14378576  1
  O  O12  1  0.09665093  0.75000000  0.89472254  1
  O  O13  1  0.04160792  0.25000000  0.73017538  1
  O  O14  1  0.09974330  0.75000000  0.56885040  1
  O  O15  1  0.00183737  0.50148014  0.24548076  1
  O  O16  1  0.00183737  0.99851986  0.24548076  1
  O  O17  1  0.18564911  0.03198734  0.56440111  1
  O  O18  1  0.18564911  0.46801266  0.56440111  1
  O  O19  1  0.29195717  0.09439156  0.85621424  1
  O  O20  1  0.29195717  0.40560844  0.85621424  1
  O  O21  1  0.29504273  0.58978984  0.80973348  1
  O  O22  1  0.29504273  0.91021016  0.80973348  1
  O  O23  1  0.90334907  0.25000000  0.10527746  1
  O  O24  1  0.24816700  0.84614122  0.38971497  1
  O  O25  1  0.25301797  0.15693518  0.32631611  1
  O  O26  1  0.25301797  0.34306482  0.32631611  1
  O  O27  1  0.35215648  0.25000000  0.66147475  1
  O  O28  1  0.23825885  0.25000000  0.06150662  1
  O  O29  1  0.53808318  0.25000000  0.97631104  1
  O  O30  1  0.47677795  0.75000000  0.70860530  1
  O  O31  1  0.33407859  0.51560999  0.17650947  1
  O  O32  1  0.33407859  0.98439001  0.17650947  1
  O  O33  1  0.50000000  0.00000000  0.50000000  1
  O  O34  1  0.50000000  0.50000000  0.50000000  1
  O  O35  1  0.66592141  0.01560999  0.82349053  1
  O  O36  1  0.66592141  0.48439001  0.82349053  1
  O  O37  1  0.52322205  0.25000000  0.29139470  1
  O  O38  1  0.46191682  0.75000000  0.02368896  1
  O  O39  1  0.76174115  0.75000000  0.93849338  1
  O  O40  1  0.64784352  0.75000000  0.33852525  1
  O  O41  1  0.74698203  0.65693518  0.67368389  1
  O  O42  1  0.74698203  0.84306482  0.67368389  1
  O  O43  1  0.75183300  0.15385878  0.61028503  1
  O  O44  1  0.75183300  0.34614122  0.61028503  1
  O  O45  1  0.70495727  0.08978984  0.19026652  1
  O  O46  1  0.70495727  0.41021016  0.19026652  1
  O  O47  1  0.70804283  0.90560844  0.14378576  1
  P  P48  1  0.81424244  0.99197884  0.26398368  1
  P  P49  1  0.81424244  0.50802116  0.26398368  1
  P  P50  1  0.86129664  0.25000000  0.59839828  1
  P  P51  1  0.67864994  0.75000000  0.75516348  1
  P  P52  1  0.32135006  0.25000000  0.24483652  1
  P  P53  1  0.13870336  0.75000000  0.40160172  1
  P  P54  1  0.18575756  0.49197884  0.73601632  1
  P  P55  1  0.18575756  0.00802116  0.73601632  1
  Mo  Mo56  1  0.26440674  0.75000000  0.80953606  1
  Mo  Mo57  1  0.31170223  0.25000000  0.84729797  1
  Mo  Mo58  1  0.26963706  0.50155400  0.34811306  1
  Mo  Mo59  1  0.26963706  0.99844600  0.34811306  1
  Mo  Mo60  1  0.73036294  0.00155400  0.65188694  1
  Mo  Mo61  1  0.73036294  0.49844600  0.65188694  1
  Mo  Mo62  1  0.68829777  0.75000000  0.15270203  1
  Mo  Mo63  1  0.73559326  0.25000000  0.19046394  1
