# generated using pymatgen
data_VP2O7
_symmetry_space_group_name_H-M   'P 1'
_cell_length_a   8.62357430
_cell_length_b   5.17761743
_cell_length_c   12.15928001
_cell_angle_alpha   90.00000000
_cell_angle_beta   77.40832353
_cell_angle_gamma   90.00000000
_symmetry_Int_Tables_number   1
_chemical_formula_structural   VP2O7
_chemical_formula_sum   'V4 P8 O28'
_cell_volume   529.84885720
_cell_formula_units_Z   4
loop_
 _symmetry_equiv_pos_site_id
 _symmetry_equiv_pos_as_xyz
  1  'x, y, z'
loop_
 _atom_site_type_symbol
 _atom_site_label
 _atom_site_symmetry_multiplicity
 _atom_site_fract_x
 _atom_site_fract_y
 _atom_site_fract_z
 _atom_site_occupancy
  V  V0  1  0.23626372  0.23895352  0.03557591  1
  V  V1  1  0.26373628  0.73895352  0.46442409  1
  V  V2  1  0.73626372  0.26104648  0.53557591  1
  V  V3  1  0.76373628  0.76104648  0.96442409  1
  P  P4  1  0.97792141  0.24319036  0.85926363  1
  P  P5  1  0.52207859  0.74319036  0.64073637  1
  P  P6  1  0.07563490  0.22558416  0.61266504  1
  P  P7  1  0.92436510  0.77441584  0.38733496  1
  P  P8  1  0.47792141  0.25680964  0.35926363  1
  P  P9  1  0.02207859  0.75680964  0.14073637  1
  P  P10  1  0.57563490  0.27441584  0.11266504  1
  P  P11  1  0.42436510  0.72558416  0.88733496  1
  O  O12  1  0.40899672  0.52819578  0.35418206  1
  O  O13  1  0.31345457  0.91442672  0.95980011  1
  O  O14  1  0.18654543  0.41442672  0.54019989  1
  O  O15  1  0.89760429  0.28090955  0.61802622  1
  O  O16  1  0.08403259  0.26468783  0.94496888  1
  O  O17  1  0.59100328  0.47180422  0.64581794  1
  O  O18  1  0.90899672  0.97180422  0.85418206  1
  O  O19  1  0.14334285  0.54093536  0.12529231  1
  O  O20  1  0.68654543  0.08557328  0.04019989  1
  O  O21  1  0.85665715  0.45906464  0.87470769  1
  O  O22  1  0.09100328  0.02819578  0.14581794  1
  O  O23  1  0.39760429  0.21909045  0.11802622  1
  O  O24  1  0.61652477  0.55510077  0.08275111  1
  O  O25  1  0.10239571  0.71909045  0.38197378  1
  O  O26  1  0.58403259  0.23531217  0.44496888  1
  O  O27  1  0.09919399  0.27826927  0.73882197  1
  O  O28  1  0.64334285  0.95906464  0.62529231  1
  O  O29  1  0.90080601  0.72173073  0.26117803  1
  O  O30  1  0.40080601  0.77826927  0.76117803  1
  O  O31  1  0.11652477  0.94489923  0.58275111  1
  O  O32  1  0.60239571  0.78090955  0.88197378  1
  O  O33  1  0.41596741  0.76468783  0.55503112  1
  O  O34  1  0.88347523  0.05510077  0.41724889  1
  O  O35  1  0.38347523  0.44489923  0.91724889  1
  O  O36  1  0.91596741  0.73531217  0.05503112  1
  O  O37  1  0.59919399  0.22173073  0.23882197  1
  O  O38  1  0.81345457  0.58557328  0.45980011  1
  O  O39  1  0.35665715  0.04093536  0.37470769  1
