# generated using pymatgen
data_Hg2Mo2O7
_symmetry_space_group_name_H-M   'P 1'
_cell_length_a   3.99525885
_cell_length_b   6.19355025
_cell_length_c   14.53153651
_cell_angle_alpha   98.87313153
_cell_angle_beta   90.00000000
_cell_angle_gamma   90.00000000
_symmetry_Int_Tables_number   1
_chemical_formula_structural   Hg2Mo2O7
_chemical_formula_sum   'Hg4 Mo4 O14'
_cell_volume   355.27714540
_cell_formula_units_Z   2
loop_
 _symmetry_equiv_pos_site_id
 _symmetry_equiv_pos_as_xyz
  1  'x, y, z'
loop_
 _atom_site_type_symbol
 _atom_site_label
 _atom_site_symmetry_multiplicity
 _atom_site_fract_x
 _atom_site_fract_y
 _atom_site_fract_z
 _atom_site_occupancy
  O  O0  1  0.04012256  0.24999974  0.74999989  1
  O  O1  1  0.95987725  0.75000007  0.24999969  1
  O  O2  1  0.52852666  0.50927096  0.69808745  1
  O  O3  1  0.52852666  0.99072958  0.80191266  1
  O  O4  1  0.47147315  0.49073050  0.30191292  1
  O  O5  1  0.47147315  0.00927023  0.19808761  1
  O  O6  1  0.02448744  0.36870487  0.57175600  1
  O  O7  1  0.02448744  0.13129627  0.92824388  1
  O  O8  1  0.96718986  0.19591268  0.33126096  1
  O  O9  1  0.96718986  0.30408639  0.16873947  1
  O  O10  1  0.03280994  0.80408712  0.66873931  1
  O  O11  1  0.97551237  0.63129493  0.42824426  1
  O  O12  1  0.97551237  0.86870355  0.07175570  1
  O  O13  1  0.03280994  0.69591341  0.83126080  1
  Mo  Mo14  1  0.97302323  0.49750852  0.68624132  1
  Mo  Mo15  1  0.97302323  0.00249262  0.81375855  1
  Mo  Mo16  1  0.02697904  0.50249129  0.31375825  1
  Mo  Mo17  1  0.02697904  0.99750718  0.18624171  1
  Hg  Hg18  1  0.33361343  0.58289555  0.93696157  1
  Hg  Hg19  1  0.33361343  0.91710498  0.56303854  1
  Hg  Hg20  1  0.66638638  0.41710425  0.06303870  1
  Hg  Hg21  1  0.66638638  0.08289482  0.43696173  1
