# generated using pymatgen
data_Li7Mn2(CoO4)3
_symmetry_space_group_name_H-M   'P 1'
_cell_length_a   2.97583928
_cell_length_b   10.11740174
_cell_length_c   7.61328916
_cell_angle_alpha   72.86307632
_cell_angle_beta   99.70823308
_cell_angle_gamma   91.10574963
_symmetry_Int_Tables_number   1
_chemical_formula_structural   Li7Mn2(CoO4)3
_chemical_formula_sum   'Li7 Mn2 Co3 O12'
_cell_volume   215.79326771
_cell_formula_units_Z   1
loop_
 _symmetry_equiv_pos_site_id
 _symmetry_equiv_pos_as_xyz
  1  'x, y, z'
loop_
 _atom_site_type_symbol
 _atom_site_label
 _atom_site_symmetry_multiplicity
 _atom_site_fract_x
 _atom_site_fract_y
 _atom_site_fract_z
 _atom_site_occupancy
  Li  Li0  1  0.82983379  0.26114943  0.66840395  1
  Li  Li1  1  0.16881306  0.74683936  0.33279100  1
  Li  Li2  1  0.48259262  0.25727714  0.98789300  1
  Li  Li3  1  0.17792952  0.24691003  0.33676897  1
  Li  Li4  1  0.51012987  0.74909977  0.00297297  1
  Li  Li5  1  0.82231242  0.74600786  0.66413470  1
  Li  Li6  1  0.34681904  0.49024049  0.67425057  1
  Mn  Mn7  1  0.99949264  0.00128745  0.99842451  1
  Mn  Mn8  1  0.99403019  0.50002155  0.99392156  1
  Co  Co9  1  0.67136562  0.99919107  0.33531849  1
  Co  Co10  1  0.32837114  -0.00084718  0.66512151  1
  Co  Co11  1  0.67027867  0.50447249  0.34446194  1
  O  O12  1  0.37207052  0.11830744  0.82539467  1
  O  O13  1  0.73707201  0.61611640  0.48168979  1
  O  O14  1  0.10303114  0.11395784  0.17039304  1
  O  O15  1  0.75614172  0.11497121  0.49695496  1
  O  O16  1  0.05335101  0.61112925  0.17258808  1
  O  O17  1  0.43466875  0.60948110  0.85614444  1
  O  O18  1  0.27279195  0.38660018  0.47704087  1
  O  O19  1  0.62714264  0.88316730  0.17118643  1
  O  O20  1  0.92660609  0.38116248  0.84954975  1
  O  O21  1  0.56691553  0.39801690  0.15612367  1
  O  O22  1  0.90065371  0.88420064  0.83286432  1
  O  O23  1  0.24758638  0.88123979  0.50560679  1
