# generated using pymatgen
data_VP2O7
_symmetry_space_group_name_H-M   'P 1'
_cell_length_a   7.28047051
_cell_length_b   8.09560652
_cell_length_c   9.49060499
_cell_angle_alpha   90.00000000
_cell_angle_beta   110.37072160
_cell_angle_gamma   90.00000000
_symmetry_Int_Tables_number   1
_chemical_formula_structural   VP2O7
_chemical_formula_sum   'V4 P8 O28'
_cell_volume   524.39129917
_cell_formula_units_Z   4
loop_
 _symmetry_equiv_pos_site_id
 _symmetry_equiv_pos_as_xyz
  1  'x, y, z'
loop_
 _atom_site_type_symbol
 _atom_site_label
 _atom_site_symmetry_multiplicity
 _atom_site_fract_x
 _atom_site_fract_y
 _atom_site_fract_z
 _atom_site_occupancy
  O  O0  1  0.03216782  0.41492853  0.83493437  1
  O  O1  1  0.14286077  0.11678717  0.89881310  1
  O  O2  1  0.03216756  0.08507176  0.33493451  1
  O  O3  1  0.30831082  0.80854264  0.89671874  1
  O  O4  1  0.16901675  0.17850351  0.60710663  1
  O  O5  1  0.38691710  0.34994603  0.94858950  1
  O  O6  1  0.14286198  0.38321311  0.39881364  1
  O  O7  1  0.31583060  0.85630802  0.61989463  1
  O  O8  1  0.48376538  0.08869577  0.84362717  1
  O  O9  1  0.30831056  0.69145822  0.39671783  1
  O  O10  1  0.16901796  0.32149554  0.10710718  1
  O  O11  1  0.38691684  0.15005302  0.44858859  1
  O  O12  1  0.51623491  0.58869606  0.65637196  1
  O  O13  1  0.31583034  0.64369160  0.11989478  1
  O  O14  1  0.68416969  0.35630773  0.88010555  1
  O  O15  1  0.48376512  0.41130451  0.34362731  1
  O  O16  1  0.61308319  0.84994631  0.55141068  1
  O  O17  1  0.83098207  0.67850380  0.89289315  1
  O  O18  1  0.69168948  0.30854235  0.60328144  1
  O  O19  1  0.51623465  0.91130356  0.15637210  1
  O  O20  1  0.96783222  0.58507205  0.16506490  1
  O  O21  1  0.85713806  0.61678746  0.60118669  1
  O  O22  1  0.61308293  0.65005331  0.05141083  1
  O  O23  1  0.83098328  0.82149582  0.39289369  1
  O  O24  1  0.69168922  0.19145793  0.10328158  1
  O  O25  1  0.96783248  0.91492757  0.66506582  1
  O  O26  1  0.85713927  0.88321340  0.10118617  1
  O  O27  1  0.68416943  0.14369132  0.38010569  1
  P  P28  1  0.17441595  0.29707168  0.94959752  1
  P  P29  1  0.17441568  0.20292861  0.44959766  1
  P  P30  1  0.56969898  0.24032331  0.94301490  1
  P  P31  1  0.43030131  0.74032236  0.55698528  1
  P  P32  1  0.56969872  0.25967698  0.44301504  1
  P  P33  1  0.43030105  0.75967726  0.05698543  1
  P  P34  1  0.82558409  0.70292889  0.05040175  1
  P  P35  1  0.82558435  0.79707073  0.55040267  1
  V  V36  1  0.22672988  0.99061857  0.75429699  1
  V  V37  1  0.22672962  0.50938105  0.25429714  1
  V  V38  1  0.77327042  0.49061952  0.74570319  1
  V  V39  1  0.77327015  0.00938077  0.24570333  1
