# generated using pymatgen
data_Na7Zr6F31
_symmetry_space_group_name_H-M   'P 1'
_cell_length_a   8.70102765
_cell_length_b   8.70102770
_cell_length_c   8.70102761
_cell_angle_alpha   107.27714725
_cell_angle_beta   107.27714821
_cell_angle_gamma   107.27714800
_symmetry_Int_Tables_number   1
_chemical_formula_structural   Na7Zr6F31
_chemical_formula_sum   'Na7 Zr6 F31'
_cell_volume   544.40112386
_cell_formula_units_Z   1
loop_
 _symmetry_equiv_pos_site_id
 _symmetry_equiv_pos_as_xyz
  1  'x, y, z'
loop_
 _atom_site_type_symbol
 _atom_site_label
 _atom_site_symmetry_multiplicity
 _atom_site_fract_x
 _atom_site_fract_y
 _atom_site_fract_z
 _atom_site_occupancy
  F  F0  1  0.21053805  0.94900933  0.84578790  1
  F  F1  1  0.05534780  0.70285355  0.52385724  1
  F  F2  1  0.04621342  0.15772207  0.79141640  1
  F  F3  1  0.02301094  0.55726205  0.15395384  1
  F  F4  1  0.30748914  0.48012378  0.94793733  1
  F  F5  1  0.45217081  0.84865722  0.98456924  1
  F  F6  1  0.15772207  0.79141640  0.04621342  1
  F  F7  1  0.09507600  0.30300686  0.24949882  1
  F  F8  1  0.15395384  0.02301094  0.55726205  1
  F  F9  1  0.26996569  0.34159812  0.57756750  1
  F  F10  1  0.42020359  0.73578098  0.66263532  1
  F  F11  1  0.34159812  0.57756750  0.26996569  1
  F  F12  1  0.48012378  0.94793733  0.30748914  1
  F  F13  1  0.24949882  0.09507600  0.30300686  1
  F  F14  1  0.66070482  0.72013655  0.89082128  1
  F  F15  1  0.30300686  0.24949882  0.09507600  1
  F  F16  1  0.72013655  0.89082128  0.66070482  1
  F  F17  1  0.52385724  0.05534780  0.70285355  1
  F  F18  1  0.66263532  0.42020359  0.73578098  1
  F  F19  1  0.94028473  0.94028473  0.94028473  1
  F  F20  1  0.57756750  0.26996569  0.34159812  1
  F  F21  1  0.73578098  0.66263532  0.42020359  1
  F  F22  1  0.84865722  0.98456924  0.45217081  1
  F  F23  1  0.89082128  0.66070482  0.72013655  1
  F  F24  1  0.84578790  0.21053805  0.94900933  1
  F  F25  1  0.55726205  0.15395384  0.02301094  1
  F  F26  1  0.70285355  0.52385724  0.05534780  1
  F  F27  1  0.98456924  0.45217081  0.84865722  1
  F  F28  1  0.94900933  0.84578790  0.21053805  1
  F  F29  1  0.94793733  0.30748914  0.48012378  1
  F  F30  1  0.79141640  0.04621342  0.15772207  1
  Na  Na31  1  0.19196604  0.57597195  0.71865105  1
  Na  Na32  1  0.28519631  0.81280709  0.43654661  1
  Na  Na33  1  0.43654661  0.28519631  0.81280709  1
  Na  Na34  1  0.50264044  0.50264044  0.50264044  1
  Na  Na35  1  0.57597195  0.71865105  0.19196604  1
  Na  Na36  1  0.71865105  0.19196604  0.57597195  1
  Na  Na37  1  0.81280709  0.43654661  0.28519631  1
  Zr  Zr38  1  0.04133895  0.12837038  0.37633244  1
  Zr  Zr39  1  0.12837038  0.37633244  0.04133895  1
  Zr  Zr40  1  0.64167725  0.95711745  0.87358364  1
  Zr  Zr41  1  0.37633244  0.04133895  0.12837038  1
  Zr  Zr42  1  0.87358364  0.64167725  0.95711745  1
  Zr  Zr43  1  0.95711745  0.87358364  0.64167725  1
