# generated using pymatgen
data_Ti(CoO2)2
_symmetry_space_group_name_H-M   'P 1'
_cell_length_a   6.04506697
_cell_length_b   6.04506593
_cell_length_c   5.99063006
_cell_angle_alpha   60.29743997
_cell_angle_beta   60.29744011
_cell_angle_gamma   59.63666616
_symmetry_Int_Tables_number   1
_chemical_formula_structural   Ti(CoO2)2
_chemical_formula_sum   'Ti2 Co4 O8'
_cell_volume   155.05306419
_cell_formula_units_Z   2
loop_
 _symmetry_equiv_pos_site_id
 _symmetry_equiv_pos_as_xyz
  1  'x, y, z'
loop_
 _atom_site_type_symbol
 _atom_site_label
 _atom_site_symmetry_multiplicity
 _atom_site_fract_x
 _atom_site_fract_y
 _atom_site_fract_z
 _atom_site_occupancy
  Co  Co0  1  0.00913552  0.00913552  0.99086448  1
  Co  Co1  1  0.24086448  0.24086448  0.25913552  1
  Co  Co2  1  0.62500000  0.62500000  0.12500000  1
  Co  Co3  1  0.62500000  0.62500000  0.62500000  1
  O  O4  1  0.37321046  0.37321046  0.40486798  1
  O  O5  1  0.36629315  0.84067144  0.39651771  1
  O  O6  1  0.37321046  0.37321046  0.84871110  1
  O  O7  1  0.84067144  0.36629315  0.39651771  1
  O  O8  1  0.40932856  0.88370685  0.85348229  1
  O  O9  1  0.88370685  0.40932856  0.85348229  1
  O  O10  1  0.87678954  0.87678954  0.40128890  1
  O  O11  1  0.87678954  0.87678954  0.84513202  1
  Ti  Ti12  1  0.12500000  0.62500000  0.62500000  1
  Ti  Ti13  1  0.62500000  0.12500000  0.62500000  1
