# generated using pymatgen
data_Ba3Pt2O7
_symmetry_space_group_name_H-M   'P 1'
_cell_length_a   10.24064394
_cell_length_b   10.24064430
_cell_length_c   8.85755256
_cell_angle_alpha   89.76704803
_cell_angle_beta   89.76704800
_cell_angle_gamma   119.85102065
_symmetry_Int_Tables_number   1
_chemical_formula_structural   Ba3Pt2O7
_chemical_formula_sum   'Ba12 Pt8 O28'
_cell_volume   805.62815776
_cell_formula_units_Z   4
loop_
 _symmetry_equiv_pos_site_id
 _symmetry_equiv_pos_as_xyz
  1  'x, y, z'
loop_
 _atom_site_type_symbol
 _atom_site_label
 _atom_site_symmetry_multiplicity
 _atom_site_fract_x
 _atom_site_fract_y
 _atom_site_fract_z
 _atom_site_occupancy
  Ba  Ba0  1  0.99415245  0.65933680  0.00599911  1
  Ba  Ba1  1  0.00641115  0.67443373  0.50382219  1
  Ba  Ba2  1  0.33069705  0.99797118  0.25334197  1
  Ba  Ba3  1  0.02355790  0.33026220  0.23679260  1
  Ba  Ba4  1  0.32738050  0.33381577  0.00617768  1
  Ba  Ba5  1  0.33381577  0.32738050  0.50617768  1
  Ba  Ba6  1  0.68331482  0.70354627  0.23658613  1
  Ba  Ba7  1  0.33026220  0.02355790  0.73679260  1
  Ba  Ba8  1  0.70354627  0.68331482  0.73658613  1
  Ba  Ba9  1  0.65933680  0.99415245  0.50599911  1
  Ba  Ba10  1  0.67443373  0.00641115  0.00382219  1
  Ba  Ba11  1  0.99797118  0.33069705  0.75334197  1
  Pt  Pt12  1  0.32725982  0.65399877  0.41004605  1
  Pt  Pt13  1  0.00442750  0.98834707  0.36301708  1
  Pt  Pt14  1  0.98834707  0.00442750  0.86301708  1
  Pt  Pt15  1  0.39230665  0.72610153  0.74949760  1
  Pt  Pt16  1  0.33011023  0.66393801  0.08770312  1
  Pt  Pt17  1  0.65399877  0.32725982  0.91004605  1
  Pt  Pt18  1  0.66393801  0.33011023  0.58770312  1
  Pt  Pt19  1  0.72610153  0.39230665  0.24949760  1
  O  O20  1  0.01809524  0.82785387  0.25067345  1
  O  O21  1  0.18431811  0.65812195  0.25031000  1
  O  O22  1  0.16152794  0.47330654  0.51654000  1
  O  O23  1  0.16150639  0.49593955  0.97555538  1
  O  O24  1  0.98236572  0.16156436  0.98649479  1
  O  O25  1  0.32148709  0.80338280  0.92814246  1
  O  O26  1  0.31639227  0.79060611  0.57002703  1
  O  O27  1  0.17538428  0.17226228  0.26385583  1
  O  O28  1  0.48265204  0.82302423  0.25263303  1
  O  O29  1  0.34696963  0.52397150  0.24568155  1
  O  O30  1  0.17226228  0.17538428  0.76385583  1
  O  O31  1  0.47294817  0.66011753  0.57066353  1
  O  O32  1  0.47397480  0.66575493  0.92760329  1
  O  O33  1  0.16156436  0.98236572  0.48649479  1
  O  O34  1  0.85087429  0.03149809  0.28798267  1
  O  O35  1  0.52397150  0.34696963  0.74568155  1
  O  O36  1  0.66011753  0.47294817  0.07066353  1
  O  O37  1  0.66575493  0.47397480  0.42760329  1
  O  O38  1  0.83627711  0.82045377  0.48155347  1
  O  O39  1  0.82045377  0.83627711  0.98155347  1
  O  O40  1  0.49593955  0.16150639  0.47555538  1
  O  O41  1  0.47330654  0.16152794  0.01654000  1
  O  O42  1  0.03149809  0.85087429  0.78798267  1
  O  O43  1  0.65812195  0.18431811  0.75031000  1
  O  O44  1  0.82302423  0.48265204  0.75263303  1
  O  O45  1  0.79060611  0.31639227  0.07002703  1
  O  O46  1  0.80338280  0.32148709  0.42814246  1
  O  O47  1  0.82785387  0.01809524  0.75067345  1
