# generated using pymatgen
data_NaSm2Se3
_symmetry_space_group_name_H-M   'P 1'
_cell_length_a   8.39233581
_cell_length_b   12.62128969
_cell_length_c   7.30782662
_cell_angle_alpha   29.71383273
_cell_angle_beta   54.47075147
_cell_angle_gamma   59.68800988
_symmetry_Int_Tables_number   1
_chemical_formula_structural   NaSm2Se3
_chemical_formula_sum   'Na2 Sm4 Se6'
_cell_volume   312.24380874
_cell_formula_units_Z   2
loop_
 _symmetry_equiv_pos_site_id
 _symmetry_equiv_pos_as_xyz
  1  'x, y, z'
loop_
 _atom_site_type_symbol
 _atom_site_label
 _atom_site_symmetry_multiplicity
 _atom_site_fract_x
 _atom_site_fract_y
 _atom_site_fract_z
 _atom_site_occupancy
  Na  Na0  1  -0.00000000  0.33372369  0.99941397  1
  Na  Na1  1  0.50000000  0.66627631  0.00058603  1
  Sm  Sm2  1  -0.00000000  0.99872125  0.00191813  1
  Sm  Sm3  1  -0.00000000  0.66664057  0.00003965  1
  Sm  Sm4  1  0.50000000  0.33335943  -0.00003965  1
  Sm  Sm5  1  0.50000000  0.00127875  0.99808187  1
  Se  Se6  1  0.24827665  0.33189154  0.50111975  1
  Se  Se7  1  0.25172335  0.66810846  0.49888025  1
  Se  Se8  1  0.75172335  0.33189154  0.50320463  1
  Se  Se9  1  0.25000000  0.00000000  0.50000000  1
  Se  Se10  1  0.74827665  0.66810846  0.49679537  1
  Se  Se11  1  0.75000000  0.00000000  0.50000000  1
