# generated using pymatgen
data_K2SbF5
_symmetry_space_group_name_H-M   'P 1'
_cell_length_a   6.40087316
_cell_length_b   6.63466890
_cell_length_c   7.72548324
_cell_angle_alpha   90.00000000
_cell_angle_beta   114.47335846
_cell_angle_gamma   90.00000000
_symmetry_Int_Tables_number   1
_chemical_formula_structural   K2SbF5
_chemical_formula_sum   'K4 Sb2 F10'
_cell_volume   298.60633102
_cell_formula_units_Z   2
loop_
 _symmetry_equiv_pos_site_id
 _symmetry_equiv_pos_as_xyz
  1  'x, y, z'
loop_
 _atom_site_type_symbol
 _atom_site_label
 _atom_site_symmetry_multiplicity
 _atom_site_fract_x
 _atom_site_fract_y
 _atom_site_fract_z
 _atom_site_occupancy
  F  F0  1  0.35348706  0.53128536  0.23952954  1
  F  F1  1  0.11395752  0.46871464  0.76047046  1
  F  F2  1  0.64651294  0.03128536  0.76047046  1
  F  F3  1  0.88604248  0.96871464  0.23952954  1
  F  F4  1  0.64651294  0.46871464  0.76047046  1
  F  F5  1  0.88604248  0.53128536  0.23952954  1
  F  F6  1  0.76546617  0.25000000  0.53093234  1
  F  F7  1  0.23453383  0.75000000  0.46906766  1
  F  F8  1  0.11395752  0.03128536  0.76047046  1
  F  F9  1  0.35348706  0.96871464  0.23952954  1
  K  K10  1  0.75184781  0.75000000  0.50369561  1
  K  K11  1  0.24815219  0.25000000  0.49630439  1
  K  K12  1  0.57217370  0.25000000  0.14434740  1
  K  K13  1  0.42782630  0.75000000  0.85565260  1
  Sb  Sb14  1  0.09317103  0.75000000  0.18634206  1
  Sb  Sb15  1  0.90682897  0.25000000  0.81365794  1
