# generated using pymatgen
data_Na(Nd2Se3)4
_symmetry_space_group_name_H-M   'P 1'
_cell_length_a   23.27146644
_cell_length_b   8.94678781
_cell_length_c   8.94678834
_cell_angle_alpha   89.99999913
_cell_angle_beta   54.78265507
_cell_angle_gamma   54.78265257
_symmetry_Int_Tables_number   1
_chemical_formula_structural   Na(Nd2Se3)4
_chemical_formula_sum   'Na2 Nd16 Se24'
_cell_volume   1077.96180847
_cell_formula_units_Z   2
loop_
 _symmetry_equiv_pos_site_id
 _symmetry_equiv_pos_as_xyz
  1  'x, y, z'
loop_
 _atom_site_type_symbol
 _atom_site_label
 _atom_site_symmetry_multiplicity
 _atom_site_fract_x
 _atom_site_fract_y
 _atom_site_fract_z
 _atom_site_occupancy
  Na  Na0  1  0.08333300  0.62500000  0.37500000  1
  Na  Na1  1  0.58333300  0.87500000  0.12500000  1
  Nd  Nd2  1  0.16457581  0.25689558  0.62513500  1
  Nd  Nd3  1  0.33333300  0.36985975  0.25000000  1
  Nd  Nd4  1  0.24788734  0.87816898  0.12816898  1
  Nd  Nd5  1  0.33333300  0.13014025  0.75000000  1
  Nd  Nd6  1  0.16457581  0.74937798  0.88113856  1
  Nd  Nd7  1  0.41877966  0.62183102  0.37183102  1
  Nd  Nd8  1  0.50209119  0.24310442  0.61886144  1
  Nd  Nd9  1  0.66457581  0.38113856  0.24937798  1
  Nd  Nd10  1  0.66457581  0.12513500  0.75689558  1
  Nd  Nd11  1  0.50209119  0.75062202  0.87486500  1
  Nd  Nd12  1  0.74788734  0.62816898  0.37816898  1
  Nd  Nd13  1  0.83333300  0.25000000  0.63014025  1
  Nd  Nd14  1  0.00209119  0.37486500  0.25062202  1
  Nd  Nd15  1  0.91877966  0.87183102  0.12183102  1
  Nd  Nd16  1  0.00209119  0.11886144  0.74310442  1
  Nd  Nd17  1  0.83333300  0.75000000  0.86985975  1
  Se  Se18  1  0.05093273  0.99908755  0.34573671  1
  Se  Se19  1  0.11573327  0.49853591  0.00091245  1
  Se  Se20  1  0.05093273  0.34811325  0.50146409  1
  Se  Se21  1  0.28897903  0.13670104  0.13980046  1
  Se  Se22  1  0.28897903  0.49636188  0.99326246  1
  Se  Se23  1  0.21666603  0.99842773  0.84993545  1
  Se  Se24  1  0.11573327  0.65426329  0.65188675  1
  Se  Se25  1  0.37768797  0.00363812  0.36019954  1
  Se  Se26  1  0.21666603  0.85157420  0.50006647  1
  Se  Se27  1  0.45000097  0.50157227  0.99993353  1
  Se  Se28  1  0.37768797  0.36329896  0.50673754  1
  Se  Se29  1  0.61573327  0.15188675  0.15426329  1
  Se  Se30  1  0.61573327  0.50091245  0.99853591  1
  Se  Se31  1  0.45000097  0.64842580  0.65006455  1
  Se  Se32  1  0.55093273  0.00146409  0.84811325  1
  Se  Se33  1  0.71666603  0.00006647  0.35157420  1
  Se  Se34  1  0.55093273  0.84573671  0.49908755  1
  Se  Se35  1  0.78897903  0.49326246  0.99636188  1
  Se  Se36  1  0.71666603  0.34993545  0.49842773  1
  Se  Se37  1  0.95000097  0.15006455  0.14842580  1
  Se  Se38  1  0.95000097  0.49993353  0.00157227  1
  Se  Se39  1  0.87768797  0.00673754  0.86329896  1
  Se  Se40  1  0.78897903  0.63980046  0.63670104  1
  Se  Se41  1  0.87768797  0.86019954  0.50363812  1
