# generated using pymatgen
data_Li7Mn2(CoO4)3
_symmetry_space_group_name_H-M   'P 1'
_cell_length_a   2.97642673
_cell_length_b   7.61515598
_cell_length_c   9.86911534
_cell_angle_alpha   78.68174919
_cell_angle_beta   91.73444583
_cell_angle_gamma   80.16531493
_symmetry_Int_Tables_number   1
_chemical_formula_structural   Li7Mn2(CoO4)3
_chemical_formula_sum   'Li7 Mn2 Co3 O12'
_cell_volume   215.64769153
_cell_formula_units_Z   1
loop_
 _symmetry_equiv_pos_site_id
 _symmetry_equiv_pos_as_xyz
  1  'x, y, z'
loop_
 _atom_site_type_symbol
 _atom_site_label
 _atom_site_symmetry_multiplicity
 _atom_site_fract_x
 _atom_site_fract_y
 _atom_site_fract_z
 _atom_site_occupancy
  Li  Li0  1  0.90607123  0.17089362  0.25041603  1
  Li  Li1  1  0.40761768  0.16972388  0.75188234  1
  Li  Li2  1  0.24897868  0.49789309  0.25250646  1
  Li  Li3  1  0.74768052  0.50858161  0.73924075  1
  Li  Li4  1  0.59528783  0.82443961  0.25574734  1
  Li  Li5  1  0.09502129  0.82441045  0.74404341  1
  Li  Li6  1  0.15698450  0.66744663  0.50949841  1
  Mn  Mn7  1  0.00022340  0.99959313  0.00205439  1
  Mn  Mn8  1  0.50679729  0.99313475  0.50031541  1
  Co  Co9  1  0.32727479  0.33587508  0.99763496  1
  Co  Co10  1  0.82836531  0.34819165  0.49531454  1
  Co  Co11  1  0.67206025  0.66479701  0.00061115  1
  O  O12  1  0.41217516  0.09506056  0.11877898  1
  O  O13  1  0.96940300  0.08820288  0.60166814  1
  O  O14  1  0.79263162  0.42517649  0.11494441  1
  O  O15  1  0.26676668  0.40238637  0.61281568  1
  O  O16  1  0.13548052  0.75556842  0.11899353  1
  O  O17  1  0.61099813  0.77031170  0.61847046  1
  O  O18  1  0.41046482  0.24634385  0.38898257  1
  O  O19  1  0.86312574  0.24273022  0.88376777  1
  O  O20  1  0.72442893  0.55907844  0.38355029  1
  O  O21  1  0.20844493  0.57485222  0.88318719  1
  O  O22  1  0.02549672  0.92885550  0.39070682  1
  O  O23  1  0.58822097  0.90645284  0.88486897  1
