# generated using pymatgen
data_Li7VN4
_symmetry_space_group_name_H-M   'P 1'
_cell_length_a   9.62718387
_cell_length_b   9.62718387
_cell_length_c   9.62718387
_cell_angle_alpha   90.00000000
_cell_angle_beta   90.00000000
_cell_angle_gamma   90.00000000
_symmetry_Int_Tables_number   1
_chemical_formula_structural   Li7VN4
_chemical_formula_sum   'Li56 V8 N32'
_cell_volume   892.27309859
_cell_formula_units_Z   8
loop_
 _symmetry_equiv_pos_site_id
 _symmetry_equiv_pos_as_xyz
  1  'x, y, z'
loop_
 _atom_site_type_symbol
 _atom_site_label
 _atom_site_symmetry_multiplicity
 _atom_site_fract_x
 _atom_site_fract_y
 _atom_site_fract_z
 _atom_site_occupancy
  Li  Li0  1  0.51609139  0.73695024  0.75053391  1
  Li  Li1  1  0.51609139  0.26304976  0.24946609  1
  Li  Li2  1  0.73695024  0.75053391  0.51609139  1
  Li  Li3  1  0.26304976  0.75053391  0.48390861  1
  Li  Li4  1  0.75053391  0.51609139  0.73695024  1
  Li  Li5  1  0.24946609  0.48390861  0.73695024  1
  Li  Li6  1  0.98390861  0.74946609  0.23695024  1
  Li  Li7  1  0.98390861  0.25053391  0.76304976  1
  Li  Li8  1  0.01609139  0.74946609  0.76304976  1
  Li  Li9  1  0.25053391  0.76304976  0.98390861  1
  Li  Li10  1  0.76304976  0.01609139  0.74946609  1
  Li  Li11  1  0.76304976  0.98390861  0.25053391  1
  Li  Li12  1  0.74946609  0.23695024  0.98390861  1
  Li  Li13  1  0.23695024  0.98390861  0.74946609  1
  Li  Li14  1  0.74946609  0.76304976  0.01609139  1
  Li  Li15  1  0.25053391  0.23695024  0.01609139  1
  Li  Li16  1  0.23695024  0.01609139  0.25053391  1
  Li  Li17  1  0.24946609  0.51609139  0.26304976  1
  Li  Li18  1  0.75053391  0.48390861  0.26304976  1
  Li  Li19  1  0.73695024  0.24946609  0.48390861  1
  Li  Li20  1  0.26304976  0.24946609  0.51609139  1
  Li  Li21  1  0.48390861  0.26304976  0.75053391  1
  Li  Li22  1  0.48390861  0.73695024  0.24946609  1
  Li  Li23  1  0.50000000  0.25000000  0.00000000  1
  Li  Li24  1  0.01609139  0.25053391  0.23695024  1
  Li  Li25  1  0.73434598  0.26565402  0.73434598  1
  Li  Li26  1  0.26565402  0.73434598  0.73434598  1
  Li  Li27  1  0.73434598  0.73434598  0.26565402  1
  Li  Li28  1  0.76565402  0.23434598  0.23434598  1
  Li  Li29  1  0.23434598  0.23434598  0.76565402  1
  Li  Li30  1  0.23434598  0.76565402  0.23434598  1
  Li  Li31  1  0.26565402  0.26565402  0.26565402  1
  Li  Li32  1  0.00000000  0.50000000  0.00000000  1
  Li  Li33  1  0.50000000  0.00000000  0.00000000  1
  Li  Li34  1  0.50000000  0.50000000  0.00000000  1
  Li  Li35  1  0.00000000  0.50000000  0.50000000  1
  Li  Li36  1  0.50000000  0.00000000  0.50000000  1
  Li  Li37  1  0.00000000  0.00000000  0.50000000  1
  Li  Li38  1  0.75000000  0.00000000  0.50000000  1
  Li  Li39  1  0.50000000  0.75000000  0.00000000  1
  Li  Li40  1  0.23531884  0.50000000  0.50000000  1
  Li  Li41  1  0.26468116  0.00000000  0.00000000  1
  Li  Li42  1  0.00000000  0.00000000  0.73531884  1
  Li  Li43  1  0.00000000  0.00000000  0.26468116  1
  Li  Li44  1  0.00000000  0.26468116  0.00000000  1
  Li  Li45  1  0.00000000  0.73531884  0.00000000  1
  Li  Li46  1  0.50000000  0.23531884  0.50000000  1
  Li  Li47  1  0.50000000  0.50000000  0.23531884  1
  Li  Li48  1  0.50000000  0.76468116  0.50000000  1
  Li  Li49  1  0.50000000  0.50000000  0.76468116  1
  Li  Li50  1  0.76468116  0.50000000  0.50000000  1
  Li  Li51  1  0.73531884  0.00000000  0.00000000  1
  Li  Li52  1  0.25000000  0.00000000  0.50000000  1
  Li  Li53  1  0.00000000  0.50000000  0.75000000  1
  Li  Li54  1  0.00000000  0.50000000  0.25000000  1
  Li  Li55  1  0.76565402  0.76565402  0.76565402  1
  N  N56  1  0.61598057  0.89189683  0.64211782  1
  N  N57  1  0.61598057  0.10810317  0.35788218  1
  N  N58  1  0.89189683  0.64211782  0.61598057  1
  N  N59  1  0.10810317  0.64211782  0.38401943  1
  N  N60  1  0.64211782  0.61598057  0.89189683  1
  N  N61  1  0.35788218  0.38401943  0.89189683  1
  N  N62  1  0.88401943  0.85788218  0.39189683  1
  N  N63  1  0.88401943  0.14211782  0.60810317  1
  N  N64  1  0.11598057  0.85788218  0.60810317  1
  N  N65  1  0.14211782  0.60810317  0.88401943  1
  N  N66  1  0.60810317  0.11598057  0.85788218  1
  N  N67  1  0.60810317  0.88401943  0.14211782  1
  N  N68  1  0.85788218  0.39189683  0.88401943  1
  N  N69  1  0.39189683  0.88401943  0.85788218  1
  N  N70  1  0.85788218  0.60810317  0.11598057  1
  N  N71  1  0.14211782  0.39189683  0.11598057  1
  N  N72  1  0.39189683  0.11598057  0.14211782  1
  N  N73  1  0.35788218  0.61598057  0.10810317  1
  N  N74  1  0.64211782  0.38401943  0.10810317  1
  N  N75  1  0.89189683  0.35788218  0.38401943  1
  N  N76  1  0.10810317  0.35788218  0.61598057  1
  N  N77  1  0.38401943  0.10810317  0.64211782  1
  N  N78  1  0.38401943  0.89189683  0.35788218  1
  N  N79  1  0.11598057  0.14211782  0.39189683  1
  N  N80  1  0.88967857  0.88967857  0.88967857  1
  N  N81  1  0.61032143  0.38967857  0.61032143  1
  N  N82  1  0.38967857  0.61032143  0.61032143  1
  N  N83  1  0.61032143  0.61032143  0.38967857  1
  N  N84  1  0.88967857  0.11032143  0.11032143  1
  N  N85  1  0.11032143  0.11032143  0.88967857  1
  N  N86  1  0.11032143  0.88967857  0.11032143  1
  N  N87  1  0.38967857  0.38967857  0.38967857  1
  V  V88  1  0.75000000  0.50000000  0.00000000  1
  V  V89  1  0.00000000  0.75000000  0.50000000  1
  V  V90  1  0.00000000  0.25000000  0.50000000  1
  V  V91  1  0.50000000  0.00000000  0.25000000  1
  V  V92  1  0.50000000  0.00000000  0.75000000  1
  V  V93  1  0.25000000  0.50000000  0.00000000  1
  V  V94  1  0.50000000  0.50000000  0.50000000  1
  V  V95  1  0.00000000  0.00000000  0.00000000  1
