# generated using pymatgen
data_Rb3ZnBr5
_symmetry_space_group_name_H-M   'P 1'
_cell_length_a   9.27941289
_cell_length_b   10.67023833
_cell_length_c   13.77703231
_cell_angle_alpha   90.00000000
_cell_angle_beta   90.00000000
_cell_angle_gamma   90.00000000
_symmetry_Int_Tables_number   1
_chemical_formula_structural   Rb3ZnBr5
_chemical_formula_sum   'Rb12 Zn4 Br20'
_cell_volume   1364.11283751
_cell_formula_units_Z   4
loop_
 _symmetry_equiv_pos_site_id
 _symmetry_equiv_pos_as_xyz
  1  'x, y, z'
loop_
 _atom_site_type_symbol
 _atom_site_label
 _atom_site_symmetry_multiplicity
 _atom_site_fract_x
 _atom_site_fract_y
 _atom_site_fract_z
 _atom_site_occupancy
  Rb  Rb0  1  0.91138929  0.02109445  0.67152218  1
  Rb  Rb1  1  0.58861071  0.97890555  0.17152218  1
  Rb  Rb2  1  0.58861071  0.52109445  0.17152218  1
  Rb  Rb3  1  0.08861071  0.52109445  0.32847782  1
  Rb  Rb4  1  0.08861071  0.97890555  0.32847782  1
  Rb  Rb5  1  0.41138929  0.02109445  0.82847782  1
  Rb  Rb6  1  0.58821373  0.75000000  0.45402517  1
  Rb  Rb7  1  0.91178627  0.25000000  0.95402517  1
  Rb  Rb8  1  0.08821373  0.75000000  0.04597483  1
  Rb  Rb9  1  0.41178627  0.25000000  0.54597483  1
  Rb  Rb10  1  0.41138929  0.47890555  0.82847782  1
  Rb  Rb11  1  0.91138929  0.47890555  0.67152218  1
  Zn  Zn12  1  0.69022415  0.75000000  0.89118872  1
  Zn  Zn13  1  0.30977585  0.25000000  0.10881128  1
  Zn  Zn14  1  0.19022415  0.75000000  0.60881128  1
  Zn  Zn15  1  0.80977585  0.25000000  0.39118872  1
  Br  Br16  1  0.66073481  0.25000000  0.73416133  1
  Br  Br17  1  0.31415342  0.55825363  0.56440244  1
  Br  Br18  1  0.86471651  0.25000000  0.21903936  1
  Br  Br19  1  0.83926519  0.75000000  0.23416133  1
  Br  Br20  1  0.63528349  0.75000000  0.71903936  1
  Br  Br21  1  0.68584658  0.44174637  0.43559756  1
  Br  Br22  1  0.81415342  0.55825363  0.93559756  1
  Br  Br23  1  0.53418694  0.25000000  0.01425869  1
  Br  Br24  1  0.96581306  0.75000000  0.51425869  1
  Br  Br25  1  0.16073481  0.25000000  0.76583867  1
  Br  Br26  1  0.81415342  0.94174637  0.93559756  1
  Br  Br27  1  0.31415342  0.94174637  0.56440244  1
  Br  Br28  1  0.33926519  0.75000000  0.26583867  1
  Br  Br29  1  0.18584658  0.05825363  0.06440244  1
  Br  Br30  1  0.68584658  0.05825363  0.43559756  1
  Br  Br31  1  0.13528349  0.75000000  0.78096064  1
  Br  Br32  1  0.36471651  0.25000000  0.28096064  1
  Br  Br33  1  0.03418694  0.25000000  0.48574131  1
  Br  Br34  1  0.18584658  0.44174637  0.06440244  1
  Br  Br35  1  0.46581306  0.75000000  0.98574131  1
