# generated using pymatgen
data_BaCeO3
_symmetry_space_group_name_H-M   'P 1'
_cell_length_a   6.25848888
_cell_length_b   6.25848888
_cell_length_c   6.25848888
_cell_angle_alpha   60.59526640
_cell_angle_beta   60.59526641
_cell_angle_gamma   60.59526642
_symmetry_Int_Tables_number   1
_chemical_formula_structural   BaCeO3
_chemical_formula_sum   'Ba2 Ce2 O6'
_cell_volume   175.66832203
_cell_formula_units_Z   2
loop_
 _symmetry_equiv_pos_site_id
 _symmetry_equiv_pos_as_xyz
  1  'x, y, z'
loop_
 _atom_site_type_symbol
 _atom_site_label
 _atom_site_symmetry_multiplicity
 _atom_site_fract_x
 _atom_site_fract_y
 _atom_site_fract_z
 _atom_site_occupancy
  O  O0  1  0.25000000  0.81821716  0.68178284  1
  O  O1  1  0.81821716  0.68178284  0.25000000  1
  O  O2  1  0.68178284  0.25000000  0.81821716  1
  O  O3  1  0.75000000  0.18178284  0.31821716  1
  O  O4  1  0.31821716  0.75000000  0.18178284  1
  O  O5  1  0.18178284  0.31821716  0.75000000  1
  Ba  Ba6  1  0.25000000  0.25000000  0.25000000  1
  Ba  Ba7  1  0.75000000  0.75000000  0.75000000  1
  Ce  Ce8  1  0.00000000  0.00000000  0.00000000  1
  Ce  Ce9  1  0.50000000  0.50000000  0.50000000  1
