# generated using pymatgen
data_Co7P6(HO6)4
_symmetry_space_group_name_H-M   'P 1'
_cell_length_a   6.53596123
_cell_length_b   7.93098885
_cell_length_c   9.60072705
_cell_angle_alpha   104.47928330
_cell_angle_beta   108.95626121
_cell_angle_gamma   101.37810703
_symmetry_Int_Tables_number   1
_chemical_formula_structural   Co7P6(HO6)4
_chemical_formula_sum   'Co7 P6 H4 O24'
_cell_volume   434.14126702
_cell_formula_units_Z   1
loop_
 _symmetry_equiv_pos_site_id
 _symmetry_equiv_pos_as_xyz
  1  'x, y, z'
loop_
 _atom_site_type_symbol
 _atom_site_label
 _atom_site_symmetry_multiplicity
 _atom_site_fract_x
 _atom_site_fract_y
 _atom_site_fract_z
 _atom_site_occupancy
  H  H0  1  0.82536081  0.12697983  0.19173147  1
  H  H1  1  0.17463919  0.87302017  0.80826853  1
  H  H2  1  0.37383226  0.42131610  0.56316219  1
  H  H3  1  0.62616774  0.57868390  0.43683781  1
  O  O4  1  0.20298512  0.93334033  0.72506057  1
  O  O5  1  0.79701488  0.06665967  0.27493943  1
  O  O6  1  0.22221138  0.18697025  0.94596243  1
  O  O7  1  0.77778862  0.81302975  0.05403757  1
  O  O8  1  0.37626302  0.79210259  0.50956284  1
  O  O9  1  0.62373698  0.20789741  0.49043716  1
  O  O10  1  0.98499784  0.82726132  0.33579692  1
  O  O11  1  0.01500216  0.17273868  0.66420308  1
  O  O12  1  0.12760598  0.54099388  0.16501640  1
  O  O13  1  0.73562192  0.94971601  0.75961212  1
  O  O14  1  0.26437808  0.05028399  0.24038788  1
  O  O15  1  0.69923744  0.46321244  0.08785747  1
  O  O16  1  0.30076256  0.53678756  0.91214253  1
  O  O17  1  0.72412854  0.70308848  0.52311350  1
  O  O18  1  0.27587146  0.29691152  0.47688650  1
  O  O19  1  0.51916380  0.61351740  0.68865842  1
  O  O20  1  0.48083620  0.38648260  0.31134158  1
  O  O21  1  0.55236288  0.75445210  0.22682617  1
  O  O22  1  0.44763712  0.24554790  0.77317383  1
  O  O23  1  0.94763483  0.45695436  0.34745666  1
  O  O24  1  0.05236517  0.54304564  0.65254334  1
  O  O25  1  0.89273132  0.21475726  0.09924899  1
  O  O26  1  0.10726868  0.78524274  0.90075101  1
  O  O27  1  0.87239402  0.45900612  0.83498360  1
  P  P28  1  0.22375357  0.14549336  0.77859448  1
  P  P29  1  0.77624643  0.85450664  0.22140552  1
  P  P30  1  0.41399576  0.23260847  0.37249772  1
  P  P31  1  0.58600424  0.76739153  0.62750228  1
  P  P32  1  0.08361245  0.58017274  0.82618326  1
  P  P33  1  0.91638755  0.41982726  0.17381674  1
  Co  Co34  1  0.05092068  0.71284718  0.51392198  1
  Co  Co35  1  0.94907932  0.28715282  0.48607802  1
  Co  Co36  1  0.28928130  0.81106178  0.28689218  1
  Co  Co37  1  0.71071870  0.18893822  0.71310782  1
  Co  Co38  1  0.38794135  0.45858015  0.10874761  1
  Co  Co39  1  0.61205865  0.54141985  0.89125239  1
  Co  Co40  1  0.00000000  0.00000000  0.00000000  1
