# generated using pymatgen
data_TlAg3S2
_symmetry_space_group_name_H-M   'P 1'
_cell_length_a   6.94929367
_cell_length_b   8.87065447
_cell_length_c   8.95624882
_cell_angle_alpha   90.00000000
_cell_angle_beta   90.00000000
_cell_angle_gamma   90.00000000
_symmetry_Int_Tables_number   1
_chemical_formula_structural   TlAg3S2
_chemical_formula_sum   'Tl4 Ag12 S8'
_cell_volume   552.10601462
_cell_formula_units_Z   4
loop_
 _symmetry_equiv_pos_site_id
 _symmetry_equiv_pos_as_xyz
  1  'x, y, z'
loop_
 _atom_site_type_symbol
 _atom_site_label
 _atom_site_symmetry_multiplicity
 _atom_site_fract_x
 _atom_site_fract_y
 _atom_site_fract_z
 _atom_site_occupancy
  S  S0  1  0.98759196  0.31973495  0.83137153  1
  S  S1  1  0.48759196  0.18026505  0.66862847  1
  S  S2  1  0.01240804  0.81973495  0.66862847  1
  S  S3  1  0.51240804  0.68026505  0.83137153  1
  S  S4  1  0.98759196  0.18026505  0.33137153  1
  S  S5  1  0.48759196  0.31973495  0.16862847  1
  S  S6  1  0.01240804  0.68026505  0.16862847  1
  S  S7  1  0.51240804  0.81973495  0.33137153  1
  Ag  Ag8  1  0.25000000  0.00000000  0.33910860  1
  Ag  Ag9  1  0.38719340  0.69440868  0.09683261  1
  Ag  Ag10  1  0.61280660  0.19440868  0.40316739  1
  Ag  Ag11  1  0.11280660  0.30559132  0.09683261  1
  Ag  Ag12  1  0.61280660  0.30559132  0.90316739  1
  Ag  Ag13  1  0.11280660  0.19440868  0.59683261  1
  Ag  Ag14  1  0.38719340  0.80559132  0.59683261  1
  Ag  Ag15  1  0.88719340  0.69440868  0.90316739  1
  Ag  Ag16  1  0.75000000  0.00000000  0.66089140  1
  Ag  Ag17  1  0.25000000  0.50000000  0.83910860  1
  Ag  Ag18  1  0.88719340  0.80559132  0.40316739  1
  Ag  Ag19  1  0.75000000  0.50000000  0.16089140  1
  Tl  Tl20  1  0.25000000  0.00000000  0.89961826  1
  Tl  Tl21  1  0.75000000  0.50000000  0.60038174  1
  Tl  Tl22  1  0.75000000  0.00000000  0.10038174  1
  Tl  Tl23  1  0.25000000  0.50000000  0.39961826  1
