# generated using pymatgen
data_Cu2PO4F
_symmetry_space_group_name_H-M   'P 1'
_cell_length_a   6.25889825
_cell_length_b   7.17775002
_cell_length_c   9.50450020
_cell_angle_alpha   73.39620110
_cell_angle_beta   70.77615033
_cell_angle_gamma   64.15149538
_symmetry_Int_Tables_number   1
_chemical_formula_structural   Cu2PO4F
_chemical_formula_sum   'Cu8 P4 O16 F4'
_cell_volume   357.72461521
_cell_formula_units_Z   4
loop_
 _symmetry_equiv_pos_site_id
 _symmetry_equiv_pos_as_xyz
  1  'x, y, z'
loop_
 _atom_site_type_symbol
 _atom_site_label
 _atom_site_symmetry_multiplicity
 _atom_site_fract_x
 _atom_site_fract_y
 _atom_site_fract_z
 _atom_site_occupancy
  Cu  Cu0  1  0.68174325  0.12082121  0.00177253  1
  Cu  Cu1  1  0.80433699  0.37917879  0.49822747  1
  Cu  Cu2  1  0.31825675  0.87917879  0.99822747  1
  Cu  Cu3  1  0.19566301  0.62082121  0.50177253  1
  Cu  Cu4  1  0.26795489  0.04319895  0.65115432  1
  Cu  Cu5  1  0.96230815  0.45680105  0.84884568  1
  Cu  Cu6  1  0.73204511  0.95680105  0.34884568  1
  Cu  Cu7  1  0.03769185  0.54319895  0.15115432  1
  P  P8  1  0.43477334  0.54233440  0.80162444  1
  P  P9  1  0.77873219  0.95766560  0.69837556  1
  P  P10  1  0.56522666  0.45766560  0.19837556  1
  P  P11  1  0.22126781  0.04233440  0.30162444  1
  O  O12  1  0.59887261  0.03422711  0.59621799  1
  O  O13  1  0.22931771  0.46577289  0.90378201  1
  O  O14  1  0.40112739  0.96577289  0.40378201  1
  O  O15  1  0.77068229  0.53422711  0.09621799  1
  O  O16  1  0.63886257  0.22130112  0.19046953  1
  O  O17  1  0.05063322  0.27869888  0.30953047  1
  O  O18  1  0.36113743  0.77869888  0.80953047  1
  O  O19  1  0.94936678  0.72130112  0.69046953  1
  O  O20  1  0.50705599  0.48230132  0.36421553  1
  O  O21  1  0.35357284  0.01769868  0.13578447  1
  O  O22  1  0.49294401  0.51769868  0.63578447  1
  O  O23  1  0.64642716  0.98230132  0.86421553  1
  O  O24  1  0.33480719  0.59448703  0.13219625  1
  O  O25  1  0.06149047  0.90551297  0.36780375  1
  O  O26  1  0.66519281  0.40551297  0.86780375  1
  O  O27  1  0.93850953  0.09448703  0.63219625  1
  F  F28  1  0.85668901  0.64629603  0.40229938  1
  F  F29  1  0.90528442  0.85370397  0.09770062  1
  F  F30  1  0.14331099  0.35370397  0.59770062  1
  F  F31  1  0.09471558  0.14629603  0.90229938  1
