# generated using pymatgen
data_Li7Mn2(CoO4)3
_symmetry_space_group_name_H-M   'P 1'
_cell_length_a   2.98327069
_cell_length_b   10.14435988
_cell_length_c   7.64921955
_cell_angle_alpha   72.87876449
_cell_angle_beta   99.85967718
_cell_angle_gamma   91.09066134
_symmetry_Int_Tables_number   1
_chemical_formula_structural   Li7Mn2(CoO4)3
_chemical_formula_sum   'Li7 Mn2 Co3 O12'
_cell_volume   217.84376428
_cell_formula_units_Z   1
loop_
 _symmetry_equiv_pos_site_id
 _symmetry_equiv_pos_as_xyz
  1  'x, y, z'
loop_
 _atom_site_type_symbol
 _atom_site_label
 _atom_site_symmetry_multiplicity
 _atom_site_fract_x
 _atom_site_fract_y
 _atom_site_fract_z
 _atom_site_occupancy
  Li  Li0  1  0.81899782  0.24936450  0.66317901  1
  Li  Li1  1  0.15728363  0.75276818  0.33014941  1
  Li  Li2  1  0.51644011  0.25556127  0.00630538  1
  Li  Li3  1  0.16569135  0.25274304  0.33448366  1
  Li  Li4  1  0.50428967  0.73770296  0.99740915  1
  Li  Li5  1  0.85447746  0.74334664  0.68065326  1
  Li  Li6  1  0.98362033  0.51018899  0.99144165  1
  Mn  Mn7  1  0.00120385  0.00065863  0.00006596  1
  Mn  Mn8  1  0.34002965  0.50002085  0.67275333  1
  Co  Co9  1  0.66919553  0.00261632  0.33404914  1
  Co  Co10  1  0.32425551  0.99735977  0.66543139  1
  Co  Co11  1  0.66404904  0.49552012  0.32123180  1
  O  O12  1  0.37189864  0.11717026  0.82739290  1
  O  O13  1  0.76954313  0.60132276  0.51046737  1
  O  O14  1  0.09466239  0.11887467  0.16466854  1
  O  O15  1  0.75089891  0.11564796  0.49805783  1
  O  O16  1  0.06498638  0.61295778  0.18882207  1
  O  O17  1  0.40736317  0.61815920  0.81635768  1
  O  O18  1  0.28045988  0.38911884  0.49425581  1
  O  O19  1  0.62465039  0.88446292  0.17280384  1
  O  O20  1  0.89472609  0.39069281  0.81014980  1
  O  O21  1  0.59803520  0.38391133  0.18549567  1
  O  O22  1  0.90055959  0.88396101  0.83529946  1
  O  O23  1  0.24268228  0.88586919  0.49907585  1
