# generated using pymatgen
data_Ti11Se4
_symmetry_space_group_name_H-M   'P 1'
_cell_length_a   3.44022486
_cell_length_b   12.91458770
_cell_length_c   17.52997756
_cell_angle_alpha   76.85354498
_cell_angle_beta   84.36885256
_cell_angle_gamma   82.34595223
_symmetry_Int_Tables_number   1
_chemical_formula_structural   Ti11Se4
_chemical_formula_sum   'Ti33 Se12'
_cell_volume   749.81278836
_cell_formula_units_Z   3
loop_
 _symmetry_equiv_pos_site_id
 _symmetry_equiv_pos_as_xyz
  1  'x, y, z'
loop_
 _atom_site_type_symbol
 _atom_site_label
 _atom_site_symmetry_multiplicity
 _atom_site_fract_x
 _atom_site_fract_y
 _atom_site_fract_z
 _atom_site_occupancy
  Ti  Ti0  1  0.00000000  0.00000000  0.00000000  1
  Ti  Ti1  1  0.91713804  0.22903182  0.93669209  1
  Ti  Ti2  1  0.08286196  0.77096818  0.06330791  1
  Ti  Ti3  1  0.78867583  0.49292663  0.92972171  1
  Ti  Ti4  1  0.21132417  0.50707337  0.07027829  1
  Ti  Ti5  1  0.19883000  0.70208917  0.90025084  1
  Ti  Ti6  1  0.80117000  0.29791083  0.09974916  1
  Ti  Ti7  1  0.59683178  0.87108993  0.93524650  1
  Ti  Ti8  1  0.40316822  0.12891007  0.06475350  1
  Ti  Ti9  1  0.51239133  0.10054972  0.87466762  1
  Ti  Ti10  1  0.48760867  0.89945028  0.12533238  1
  Ti  Ti11  1  0.40235265  0.36108259  0.83421212  1
  Ti  Ti12  1  0.59764735  0.63891741  0.16578788  1
  Ti  Ti13  1  0.11774867  0.96303127  0.80147139  1
  Ti  Ti14  1  0.88225133  0.03696873  0.19852861  1
  Ti  Ti15  1  0.00269712  0.24081915  0.75378662  1
  Ti  Ti16  1  0.99730288  0.75918085  0.24621338  1
  Ti  Ti17  1  0.88223311  0.52426835  0.71126544  1
  Ti  Ti18  1  0.11776689  0.47573165  0.28873456  1
  Ti  Ti19  1  0.27809330  0.73747582  0.70633758  1
  Ti  Ti20  1  0.72190670  0.26252418  0.29366242  1
  Ti  Ti21  1  0.71065796  0.92424364  0.65444044  1
  Ti  Ti22  1  0.28934204  0.07575636  0.34555956  1
  Ti  Ti23  1  0.14526287  0.10591610  0.60355817  1
  Ti  Ti24  1  0.85473713  0.89408390  0.39644183  1
  Ti  Ti25  1  0.83963809  0.73790238  0.58282145  1
  Ti  Ti26  1  0.16036191  0.26209762  0.41717855  1
  Ti  Ti27  1  0.43200429  0.56447682  0.57151460  1
  Ti  Ti28  1  0.56799571  0.43552318  0.42848540  1
  Ti  Ti29  1  0.02378252  0.38576493  0.56667002  1
  Ti  Ti30  1  0.97621748  0.61423507  0.43332998  1
  Ti  Ti31  1  0.27055188  0.92449725  0.53439900  1
  Ti  Ti32  1  0.72944812  0.07550275  0.46560100  1
  Se  Se33  1  0.33159418  0.34665945  0.99015219  1
  Se  Se34  1  0.66840582  0.65334055  0.00984781  1
  Se  Se35  1  0.30921026  0.56656570  0.81501379  1
  Se  Se36  1  0.69078974  0.43343430  0.18498621  1
  Se  Se37  1  0.69645771  0.80839607  0.79868851  1
  Se  Se38  1  0.30354229  0.19160393  0.20131149  1
  Se  Se39  1  0.46910732  0.38214728  0.67963808  1
  Se  Se40  1  0.53089268  0.61785272  0.32036192  1
  Se  Se41  1  0.58981881  0.10111080  0.71925157  1
  Se  Se42  1  0.41018119  0.89888920  0.28074843  1
  Se  Se43  1  0.60929206  0.24955127  0.53186461  1
  Se  Se44  1  0.39070794  0.75044873  0.46813539  1
