# generated using pymatgen
data_CsV2O5
_symmetry_space_group_name_H-M   'P 1'
_cell_length_a   7.44175982
_cell_length_b   7.97414597
_cell_length_c   10.00155710
_cell_angle_alpha   90.00000000
_cell_angle_beta   90.00000000
_cell_angle_gamma   90.60940732
_symmetry_Int_Tables_number   1
_chemical_formula_structural   CsV2O5
_chemical_formula_sum   'Cs4 V8 O20'
_cell_volume   593.47562028
_cell_formula_units_Z   4
loop_
 _symmetry_equiv_pos_site_id
 _symmetry_equiv_pos_as_xyz
  1  'x, y, z'
loop_
 _atom_site_type_symbol
 _atom_site_label
 _atom_site_symmetry_multiplicity
 _atom_site_fract_x
 _atom_site_fract_y
 _atom_site_fract_z
 _atom_site_occupancy
  Cs  Cs0  1  0.40139934  0.76909571  0.87382451  1
  Cs  Cs1  1  0.59860066  0.73090429  0.37382451  1
  Cs  Cs2  1  0.59860066  0.23090429  0.12617549  1
  Cs  Cs3  1  0.40139934  0.26909571  0.62617549  1
  V  V4  1  0.88801078  0.66404433  0.02295052  1
  V  V5  1  0.11198922  0.83595567  0.52295052  1
  V  V6  1  0.11198922  0.33595567  0.97704948  1
  V  V7  1  0.88801078  0.16404433  0.47704948  1
  V  V8  1  0.87881200  0.01228895  0.79516024  1
  V  V9  1  0.12118800  0.48771105  0.29516024  1
  V  V10  1  0.12118800  0.98771105  0.20483976  1
  V  V11  1  0.87881200  0.51228895  0.70483976  1
  O  O12  1  0.89194180  0.81509281  0.87185996  1
  O  O13  1  0.10805820  0.68490719  0.37185996  1
  O  O14  1  0.10805820  0.18490719  0.12814004  1
  O  O15  1  0.89194180  0.31509281  0.62814004  1
  O  O16  1  0.67067461  0.08120611  0.81920038  1
  O  O17  1  0.32932539  0.41879389  0.31920038  1
  O  O18  1  0.32932539  0.91879389  0.18079962  1
  O  O19  1  0.67067461  0.58120611  0.68079962  1
  O  O20  1  0.31867443  0.37924010  0.92428665  1
  O  O21  1  0.68132557  0.12075990  0.42428665  1
  O  O22  1  0.68132557  0.62075990  0.07571335  1
  O  O23  1  0.31867443  0.87924010  0.57571335  1
  O  O24  1  0.03905513  0.14428201  0.86725367  1
  O  O25  1  0.96094487  0.35571799  0.36725367  1
  O  O26  1  0.96094487  0.85571799  0.13274633  1
  O  O27  1  0.03905513  0.64428201  0.63274633  1
  O  O28  1  0.93488393  0.48231912  0.88506738  1
  O  O29  1  0.06511607  0.01768088  0.38506738  1
  O  O30  1  0.06511607  0.51768088  0.11493262  1
  O  O31  1  0.93488393  0.98231912  0.61493262  1
