# generated using pymatgen
data_Nb3Se5Cl7
_symmetry_space_group_name_H-M   'P 1'
_cell_length_a   8.23083754
_cell_length_b   8.59084256
_cell_length_c   12.79333033
_cell_angle_alpha   90.00000000
_cell_angle_beta   90.00000000
_cell_angle_gamma   109.29527554
_symmetry_Int_Tables_number   1
_chemical_formula_structural   Nb3Se5Cl7
_chemical_formula_sum   'Nb6 Se10 Cl14'
_cell_volume   853.80039918
_cell_formula_units_Z   2
loop_
 _symmetry_equiv_pos_site_id
 _symmetry_equiv_pos_as_xyz
  1  'x, y, z'
loop_
 _atom_site_type_symbol
 _atom_site_label
 _atom_site_symmetry_multiplicity
 _atom_site_fract_x
 _atom_site_fract_y
 _atom_site_fract_z
 _atom_site_occupancy
  Nb  Nb0  1  0.97402373  0.94093230  0.61022549  1
  Nb  Nb1  1  0.02597627  0.05906770  0.11022549  1
  Nb  Nb2  1  0.02597627  0.05906770  0.38977451  1
  Nb  Nb3  1  0.97402373  0.94093230  0.88977451  1
  Nb  Nb4  1  0.60186075  0.52594656  0.75000000  1
  Nb  Nb5  1  0.39813925  0.47405344  0.25000000  1
  Se  Se6  1  0.83075399  0.14687216  0.52583956  1
  Se  Se7  1  0.16924601  0.85312784  0.02583956  1
  Se  Se8  1  0.16924601  0.85312784  0.47416044  1
  Se  Se9  1  0.83075399  0.14687216  0.97416044  1
  Se  Se10  1  0.72604942  0.87630217  0.46822157  1
  Se  Se11  1  0.27395058  0.12369783  0.96822157  1
  Se  Se12  1  0.27395058  0.12369783  0.53177843  1
  Se  Se13  1  0.72604942  0.87630217  0.03177843  1
  Se  Se14  1  0.58024975  0.25255997  0.75000000  1
  Se  Se15  1  0.41975025  0.74744003  0.25000000  1
  Cl  Cl16  1  0.05563133  0.17444190  0.75000000  1
  Cl  Cl17  1  0.94436867  0.82555810  0.25000000  1
  Cl  Cl18  1  0.15695191  0.85899433  0.75000000  1
  Cl  Cl19  1  0.84304809  0.14100567  0.25000000  1
  Cl  Cl20  1  0.72158448  0.87476423  0.75000000  1
  Cl  Cl21  1  0.27841552  0.12523577  0.25000000  1
  Cl  Cl22  1  0.84492049  0.61400951  0.61693474  1
  Cl  Cl23  1  0.15507951  0.38599049  0.11693474  1
  Cl  Cl24  1  0.15507951  0.38599049  0.38306526  1
  Cl  Cl25  1  0.84492049  0.61400951  0.88306526  1
  Cl  Cl26  1  0.41044839  0.54114547  0.61869249  1
  Cl  Cl27  1  0.58955161  0.45885453  0.11869249  1
  Cl  Cl28  1  0.58955161  0.45885453  0.38130751  1
  Cl  Cl29  1  0.41044839  0.54114547  0.88130751  1
