# generated using pymatgen
data_MnPO4
_symmetry_space_group_name_H-M   'P 1'
_cell_length_a   6.06727071
_cell_length_b   9.91667722
_cell_length_c   4.94008379
_cell_angle_alpha   90.00000000
_cell_angle_beta   90.00000000
_cell_angle_gamma   90.00000000
_symmetry_Int_Tables_number   1
_chemical_formula_structural   MnPO4
_chemical_formula_sum   'Mn4 P4 O16'
_cell_volume   297.23083768
_cell_formula_units_Z   4
loop_
 _symmetry_equiv_pos_site_id
 _symmetry_equiv_pos_as_xyz
  1  'x, y, z'
loop_
 _atom_site_type_symbol
 _atom_site_label
 _atom_site_symmetry_multiplicity
 _atom_site_fract_x
 _atom_site_fract_y
 _atom_site_fract_z
 _atom_site_occupancy
  O  O0  1  0.55089271  0.32794714  0.77035306  1
  O  O1  1  0.94910829  0.32794714  0.77035306  1
  O  O2  1  0.75000000  0.87485389  0.27620664  1
  O  O3  1  0.75000000  0.55054296  0.86188625  1
  O  O4  1  0.05089171  0.17205386  0.27035306  1
  O  O5  1  0.05089171  0.67205286  0.22964794  1
  O  O6  1  0.25000100  0.12514711  0.72379336  1
  O  O7  1  0.25000100  0.44945704  0.13811475  1
  O  O8  1  0.25000100  0.62514611  0.77620664  1
  O  O9  1  0.75000000  0.37485389  0.22379236  1
  O  O10  1  0.44910829  0.17205386  0.27035306  1
  O  O11  1  0.44910829  0.67205286  0.22964794  1
  O  O12  1  0.94910829  0.82794714  0.72964694  1
  O  O13  1  0.55089271  0.82794714  0.72964694  1
  O  O14  1  0.75000000  0.05054296  0.63811375  1
  O  O15  1  0.25000100  0.94945704  0.36188525  1
  P  P16  1  0.25000100  0.10262329  0.41468305  1
  P  P17  1  0.25000100  0.60262329  0.08531695  1
  P  P18  1  0.75000000  0.39737671  0.91468205  1
  P  P19  1  0.75000000  0.89737671  0.58531795  1
  Mn  Mn20  1  0.75000000  0.70972608  0.07828293  1
  Mn  Mn21  1  0.75000000  0.20972608  0.42171607  1
  Mn  Mn22  1  0.25000100  0.79027392  0.57828393  1
  Mn  Mn23  1  0.25000100  0.29027392  0.92171607  1
