# generated using pymatgen
data_LiV2P5O16
_symmetry_space_group_name_H-M   'P 1'
_cell_length_a   18.87305746
_cell_length_b   6.80589113
_cell_length_c   5.08236564
_cell_angle_alpha   90.00000000
_cell_angle_beta   90.15953236
_cell_angle_gamma   90.00000000
_symmetry_Int_Tables_number   1
_chemical_formula_structural   LiV2P5O16
_chemical_formula_sum   'Li2 V4 P10 O32'
_cell_volume   652.81704063
_cell_formula_units_Z   2
loop_
 _symmetry_equiv_pos_site_id
 _symmetry_equiv_pos_as_xyz
  1  'x, y, z'
loop_
 _atom_site_type_symbol
 _atom_site_label
 _atom_site_symmetry_multiplicity
 _atom_site_fract_x
 _atom_site_fract_y
 _atom_site_fract_z
 _atom_site_occupancy
  Li  Li0  1  0.47040595  0.35343980  0.72999998  1
  Li  Li1  1  0.97040595  0.64656020  0.72999898  1
  O  O2  1  0.43043581  0.07914591  0.93699291  1
  O  O3  1  0.07796370  0.63335659  0.92690810  1
  O  O4  1  0.06940614  0.05267449  0.04931671  1
  O  O5  1  0.11890687  0.57183539  0.45675911  1
  O  O6  1  0.11007105  0.98107999  0.57989005  1
  O  O7  1  0.13563620  0.30396827  0.79429077  1
  O  O8  1  0.19699702  0.85904106  0.15469681  1
  O  O9  1  0.21148424  0.58616061  0.81802451  1
  O  O10  1  0.28900260  0.59791694  0.21884766  1
  O  O11  1  0.30532066  0.84767868  0.85063082  1
  O  O12  1  0.35854509  0.29519788  0.22276528  1
  O  O13  1  0.38948964  0.96094930  0.39482282  1
  O  O14  1  0.39117775  0.55671623  0.53813077  1
  O  O15  1  0.41652902  0.60787171  0.04196933  1
  O  O16  1  0.00933344  0.22765341  0.67212845  1
  O  O17  1  0.48580689  0.22291253  0.35768977  1
  O  O18  1  0.50933344  0.77234659  0.67212945  1
  O  O19  1  0.57796370  0.36664341  0.92690710  1
  O  O20  1  0.56940614  0.94732551  0.04931771  1
  O  O21  1  0.61890687  0.42816461  0.45675911  1
  O  O22  1  0.61007105  0.01892001  0.57988905  1
  O  O23  1  0.63563620  0.69603173  0.79429177  1
  O  O24  1  0.98580689  0.77708747  0.35769077  1
  O  O25  1  0.71148424  0.41383939  0.81802551  1
  O  O26  1  0.78900260  0.40208306  0.21884866  1
  O  O27  1  0.80532166  0.15232132  0.85062982  1
  O  O28  1  0.85854509  0.70480212  0.22276428  1
  O  O29  1  0.88949064  0.03905070  0.39482382  1
  O  O30  1  0.89117875  0.44328477  0.53813177  1
  O  O31  1  0.91652902  0.39212829  0.04197033  1
  O  O32  1  0.93043481  0.92085409  0.93699191  1
  O  O33  1  0.69699602  0.14095894  0.15469581  1
  P  P34  1  0.07734628  0.12756569  0.76833746  1
  P  P35  1  0.13096808  0.53260233  0.74540329  1
  P  P36  1  0.25050558  0.74020444  0.00894720  1
  P  P37  1  0.36926922  0.52548880  0.25408717  1
  P  P38  1  0.42032014  0.12573458  0.22948129  1
  P  P39  1  0.57734728  0.87243431  0.76833646  1
  P  P40  1  0.63096808  0.46739767  0.74540229  1
  P  P41  1  0.92032014  0.87426542  0.22948029  1
  P  P42  1  0.86926922  0.47451120  0.25408617  1
  P  P43  1  0.75050658  0.25979556  0.00894620  1
  V  V44  1  0.09295348  0.81934603  0.25498591  1
  V  V45  1  0.40709716  0.81663962  0.73619384  1
  V  V46  1  0.59295348  0.18065397  0.25498491  1
  V  V47  1  0.90709716  0.18336038  0.73619284  1
