# generated using pymatgen
data_Sr4U2O9
_symmetry_space_group_name_H-M   'P 1'
_cell_length_a   18.18210762
_cell_length_b   8.70160416
_cell_length_c   10.55281160
_cell_angle_alpha   66.64281475
_cell_angle_beta   55.05858327
_cell_angle_gamma   45.80626573
_symmetry_Int_Tables_number   1
_chemical_formula_structural   Sr4U2O9
_chemical_formula_sum   'Sr16 U8 O36'
_cell_volume   981.28045514
_cell_formula_units_Z   4
loop_
 _symmetry_equiv_pos_site_id
 _symmetry_equiv_pos_as_xyz
  1  'x, y, z'
loop_
 _atom_site_type_symbol
 _atom_site_label
 _atom_site_symmetry_multiplicity
 _atom_site_fract_x
 _atom_site_fract_y
 _atom_site_fract_z
 _atom_site_occupancy
  O  O0  1  0.11180756  0.32094052  0.06084474  1
  O  O1  1  0.12904945  0.45727444  0.26562282  1
  O  O2  1  0.00198548  0.21401749  0.94524693  1
  O  O3  1  0.14058257  0.21621945  0.55928083  1
  O  O4  1  0.00426463  0.70767863  0.56209998  1
  O  O5  1  0.05019660  0.96262853  0.27388836  1
  O  O6  1  0.27735446  0.06494256  0.72413732  1
  O  O7  1  0.33229812  0.26527358  0.41867611  1
  O  O8  1  0.44932865  0.32429452  0.04396381  1
  O  O9  1  0.17118216  0.81696387  0.43917156  1
  O  O10  1  0.32955834  0.77922881  0.05960238  1
  O  O11  1  0.18195790  0.56186287  0.77238709  1
  O  O12  1  0.48480579  0.43811347  0.22749219  1
  O  O13  1  0.33719477  0.22063760  0.94038309  1
  O  O14  1  0.49549855  0.18295456  0.56081185  1
  O  O15  1  0.21742559  0.67568122  0.95607721  1
  O  O16  1  0.33431496  0.73478620  0.58138949  1
  O  O17  1  0.38930829  0.93505327  0.27586979  1
  O  O18  1  0.61643712  0.03739035  0.72614899  1
  O  O19  1  0.66236728  0.29232434  0.43793010  1
  O  O20  1  0.77861044  0.32742293  0.05099826  1
  O  O21  1  0.52608223  0.78374976  0.44072135  1
  O  O22  1  0.66467735  0.78599148  0.05478971  1
  O  O23  1  0.53760001  0.54270099  0.73443843  1
  O  O24  1  0.79460640  0.46019442  0.26112727  1
  O  O25  1  0.67863382  0.22033343  0.92387507  1
  O  O26  1  0.81221514  0.21178800  0.55312724  1
  O  O27  1  0.55483035  0.67900064  0.93921940  1
  O  O28  1  0.67788941  0.69636715  0.55890807  1
  O  O29  1  0.72161235  0.95325693  0.27749882  1
  O  O30  1  0.94505988  0.04668993  0.72251757  1
  O  O31  1  0.98876197  0.30361657  0.44107243  1
  O  O32  1  0.85443845  0.78823449  0.44686505  1
  O  O33  1  0.98797104  0.77983928  0.07608207  1
  O  O34  1  0.87199717  0.53985522  0.73889818  1
  O  O35  1  0.88809252  0.67256130  0.94899970  1
  Sr  Sr36  1  0.16867379  1.00051175  0.99530545  1
  Sr  Sr37  1  0.23196227  0.04223772  0.24612814  1
  Sr  Sr38  1  0.09356311  0.45559916  0.75521222  1
  Sr  Sr39  1  0.49799339  -0.00049140  0.00469659  1
  Sr  Sr40  1  0.24318053  0.55221336  0.24127179  1
  Sr  Sr41  1  0.56282315  0.04982844  0.25152660  1
  Sr  Sr42  1  0.33335415  0.50001643  0.49996399  1
  Sr  Sr43  1  0.10383264  0.95021459  0.74849109  1
  Sr  Sr44  1  0.42350319  0.44782984  0.75869223  1
  Sr  Sr45  1  0.83331829  0.00002526  0.00001578  1
  Sr  Sr46  1  0.57314187  0.54446873  0.24472639  1
  Sr  Sr47  1  0.89817210  0.04662611  0.24705015  1
  Sr  Sr48  1  0.43472283  0.95765886  0.75389117  1
  Sr  Sr49  1  0.76026128  0.44815003  0.75475401  1
  Sr  Sr50  1  0.90636809  0.55180194  0.24524447  1
  Sr  Sr51  1  0.76844869  0.95347303  0.75293446  1
  U  U52  1  0.99797878  0.00504529  0.49753076  1
  U  U53  1  0.00074897  0.49859815  0.50137144  1
  U  U54  1  0.16288687  0.50312971  1.00420521  1
  U  U55  1  0.33332563  0.00000687  0.50001774  1
  U  U56  1  0.50378241  0.49689956  -0.00424532  1
  U  U57  1  0.66869170  0.99491095  0.50247084  1
  U  U58  1  0.66590922  0.50137377  0.49861366  1
  U  U59  1  0.83336025  0.50000308  0.99996790  1
