# generated using pymatgen
data_Li7Mn2(CoO4)3
_symmetry_space_group_name_H-M   'P 1'
_cell_length_a   2.96114119
_cell_length_b   14.51081970
_cell_length_c   5.07618899
_cell_angle_alpha   88.54588999
_cell_angle_beta   91.44327705
_cell_angle_gamma   81.61620628
_symmetry_Int_Tables_number   1
_chemical_formula_structural   Li7Mn2(CoO4)3
_chemical_formula_sum   'Li7 Mn2 Co3 O12'
_cell_volume   215.62425597
_cell_formula_units_Z   1
loop_
 _symmetry_equiv_pos_site_id
 _symmetry_equiv_pos_as_xyz
  1  'x, y, z'
loop_
 _atom_site_type_symbol
 _atom_site_label
 _atom_site_symmetry_multiplicity
 _atom_site_fract_x
 _atom_site_fract_y
 _atom_site_fract_z
 _atom_site_occupancy
  Li  Li0  1  0.82364641  0.16782752  0.34954582  1
  Li  Li1  1  0.17315684  0.33310557  0.16461130  1
  Li  Li2  1  0.50470348  0.49877716  0.99749681  1
  Li  Li3  1  0.83523964  0.66565359  0.83253751  1
  Li  Li4  1  0.17099764  0.83178717  0.66148748  1
  Li  Li5  1  0.48921543  0.00539400  0.50661224  1
  Li  Li6  1  0.34410460  0.16496697  0.81903168  1
  Mn  Mn7  1  0.99255222  0.00611392  0.98901450  1
  Mn  Mn8  1  0.33276705  0.66493633  0.33747209  1
  Co  Co9  1  0.67944858  0.32650197  0.67295563  1
  Co  Co10  1  0.00586675  0.49786047  0.50405259  1
  Co  Co11  1  0.65254293  0.83483725  0.17220418  1
  O  O12  1  0.44892364  0.07342376  0.14385889  1
  O  O13  1  0.73620075  0.26150590  0.96503662  1
  O  O14  1  0.05812367  0.41643723  0.80778575  1
  O  O15  1  0.39132649  0.58195585  0.65033378  1
  O  O16  1  0.71606175  0.74911767  0.49151644  1
  O  O17  1  0.06259950  0.91449101  0.30877317  1
  O  O18  1  0.27344542  0.25703254  0.50574977  1
  O  O19  1  0.61285041  0.41542914  0.37096139  1
  O  O20  1  0.95188032  0.57950703  0.18784247  1
  O  O21  1  0.26403576  0.75117710  0.01797716  1
  O  O22  1  0.54813298  0.92590020  0.85829197  1
  O  O23  1  0.93217776  0.07626064  0.68485076  1
