# generated using pymatgen
data_BaSi2O5
_symmetry_space_group_name_H-M   'P 1'
_cell_length_a   4.73088805
_cell_length_b   11.99362194
_cell_length_c   13.82168659
_cell_angle_alpha   97.21720939
_cell_angle_beta   90.00000000
_cell_angle_gamma   101.37474071
_symmetry_Int_Tables_number   1
_chemical_formula_structural   BaSi2O5
_chemical_formula_sum   'Ba6 Si12 O30'
_cell_volume   762.50600504
_cell_formula_units_Z   6
loop_
 _symmetry_equiv_pos_site_id
 _symmetry_equiv_pos_as_xyz
  1  'x, y, z'
loop_
 _atom_site_type_symbol
 _atom_site_label
 _atom_site_symmetry_multiplicity
 _atom_site_fract_x
 _atom_site_fract_y
 _atom_site_fract_z
 _atom_site_occupancy
  O  O0  1  0.66400572  0.47555168  0.28056936  1
  O  O1  1  0.18845404  0.52444832  0.21943064  1
  O  O2  1  0.33599428  0.52444832  0.71943064  1
  O  O3  1  0.81154596  0.47555168  0.78056936  1
  O  O4  1  0.77461037  0.54211291  0.09403707  1
  O  O5  1  0.23249746  0.45788709  0.40596293  1
  O  O6  1  0.22538963  0.45788709  0.90596293  1
  O  O7  1  0.76750254  0.54211291  0.59403707  1
  O  O8  1  0.83128116  0.33831949  0.13525831  1
  O  O9  1  0.49296167  0.66168051  0.36474169  1
  O  O10  1  0.16871884  0.66168051  0.86474169  1
  O  O11  1  0.50703833  0.33831949  0.63525831  1
  O  O12  1  0.53742823  0.14032373  0.04995917  1
  O  O13  1  0.39710450  0.85967627  0.45004083  1
  O  O14  1  0.46257177  0.85967627  0.95004083  1
  O  O15  1  0.60289550  0.14032373  0.54995917  1
  O  O16  1  0.94976996  0.14225122  0.17989344  1
  O  O17  1  0.80751873  0.85774878  0.32010656  1
  O  O18  1  0.78250330  0.00000000  0.75000000  1
  O  O19  1  0.21749670  0.00000000  0.25000000  1
  O  O20  1  0.09629605  0.17278028  0.87838594  1
  O  O21  1  0.92351577  0.82721972  0.62161406  1
  O  O22  1  0.90370395  0.82721972  0.12161406  1
  O  O23  1  0.07648423  0.17278028  0.37838594  1
  O  O24  1  0.72752337  0.21295687  0.74807668  1
  O  O25  1  0.51456650  0.78704313  0.75192332  1
  O  O26  1  0.27247663  0.78704313  0.25192332  1
  O  O27  1  0.48543350  0.21295687  0.24807668  1
  O  O28  1  0.19248127  0.14225122  0.67989344  1
  O  O29  1  0.05023004  0.85774878  0.82010656  1
  Si  Si30  1  0.85203342  0.47472974  0.17960656  1
  Si  Si31  1  0.37730368  0.52527026  0.32039344  1
  Si  Si32  1  0.14796658  0.52527026  0.82039344  1
  Si  Si33  1  0.62269632  0.47472974  0.67960656  1
  Si  Si34  1  0.68667573  0.20463979  0.15042993  1
  Si  Si35  1  0.48203594  0.79536021  0.34957007  1
  Si  Si36  1  0.31332427  0.79536021  0.84957007  1
  Si  Si37  1  0.51796406  0.20463979  0.65042993  1
  Si  Si38  1  0.16862347  0.13323836  0.27073442  1
  Si  Si39  1  0.03538510  0.86676164  0.22926558  1
  Si  Si40  1  0.83137653  0.86676164  0.72926558  1
  Si  Si41  1  0.96461490  0.13323836  0.77073442  1
  Ba  Ba42  1  0.71016275  0.32708635  0.43539299  1
  Ba  Ba43  1  0.38307641  0.67291365  0.06460701  1
  Ba  Ba44  1  0.28983725  0.67291365  0.56460701  1
  Ba  Ba45  1  0.61692359  0.32708635  0.93539299  1
  Ba  Ba46  1  0.00000000  0.00000000  0.00000000  1
  Ba  Ba47  1  0.00000000  0.00000000  0.50000000  1
