# generated using pymatgen
data_Ba3FeO5
_symmetry_space_group_name_H-M   'P 1'
_cell_length_a   7.39739640
_cell_length_b   8.40521560
_cell_length_c   10.55791265
_cell_angle_alpha   90.00000000
_cell_angle_beta   90.00000000
_cell_angle_gamma   90.00000000
_symmetry_Int_Tables_number   1
_chemical_formula_structural   Ba3FeO5
_chemical_formula_sum   'Ba12 Fe4 O20'
_cell_volume   656.45629016
_cell_formula_units_Z   4
loop_
 _symmetry_equiv_pos_site_id
 _symmetry_equiv_pos_as_xyz
  1  'x, y, z'
loop_
 _atom_site_type_symbol
 _atom_site_label
 _atom_site_symmetry_multiplicity
 _atom_site_fract_x
 _atom_site_fract_y
 _atom_site_fract_z
 _atom_site_occupancy
  O  O0  1  0.83548961  0.25000000  0.27719755  1
  O  O1  1  0.33548961  0.75000000  0.22280245  1
  O  O2  1  0.16451039  0.75000000  0.72280245  1
  O  O3  1  0.66451039  0.25000000  0.77719755  1
  O  O4  1  0.51217241  0.25000000  0.50144933  1
  O  O5  1  0.01217241  0.75000000  0.99855067  1
  O  O6  1  0.48782759  0.75000000  0.49855067  1
  O  O7  1  0.98782759  0.25000000  0.00144933  1
  O  O8  1  0.29986601  0.05626783  0.93710176  1
  O  O9  1  0.79986601  0.94373217  0.56289824  1
  O  O10  1  0.70013399  0.55626783  0.06289824  1
  O  O11  1  0.20013399  0.44373217  0.43710176  1
  O  O12  1  0.70013399  0.94373217  0.06289824  1
  O  O13  1  0.20013399  0.05626783  0.43710176  1
  O  O14  1  0.29986601  0.44373217  0.93710176  1
  O  O15  1  0.79986601  0.55626783  0.56289824  1
  O  O16  1  0.14444763  0.25000000  0.73121953  1
  O  O17  1  0.64444763  0.75000000  0.76878047  1
  O  O18  1  0.85555237  0.75000000  0.26878047  1
  O  O19  1  0.35555237  0.25000000  0.23121953  1
  Fe  Fe20  1  0.30465642  0.25000000  0.40547564  1
  Fe  Fe21  1  0.80465642  0.75000000  0.09452436  1
  Fe  Fe22  1  0.69534358  0.75000000  0.59452436  1
  Fe  Fe23  1  0.19534358  0.25000000  0.90547564  1
  Ba  Ba24  1  0.61301974  0.25000000  0.02852601  1
  Ba  Ba25  1  0.11301974  0.75000000  0.47147399  1
  Ba  Ba26  1  0.38698026  0.75000000  0.97147399  1
  Ba  Ba27  1  0.88698026  0.25000000  0.52852601  1
  Ba  Ba28  1  0.41410673  0.02519350  0.67906719  1
  Ba  Ba29  1  0.91410673  0.97480650  0.82093281  1
  Ba  Ba30  1  0.58589327  0.52519350  0.32093281  1
  Ba  Ba31  1  0.08589327  0.47480650  0.17906719  1
  Ba  Ba32  1  0.58589327  0.97480650  0.32093281  1
  Ba  Ba33  1  0.08589327  0.02519350  0.17906719  1
  Ba  Ba34  1  0.41410673  0.47480650  0.67906719  1
  Ba  Ba35  1  0.91410673  0.52519350  0.82093281  1
