# generated using pymatgen
data_Li7Mn2(CoO4)3
_symmetry_space_group_name_H-M   'P 1'
_cell_length_a   2.97689745
_cell_length_b   7.61415392
_cell_length_c   9.75731572
_cell_angle_alpha   91.56142564
_cell_angle_beta   82.64732613
_cell_angle_gamma   80.22081228
_symmetry_Int_Tables_number   1
_chemical_formula_structural   Li7Mn2(CoO4)3
_chemical_formula_sum   'Li7 Mn2 Co3 O12'
_cell_volume   215.88730330
_cell_formula_units_Z   1
loop_
 _symmetry_equiv_pos_site_id
 _symmetry_equiv_pos_as_xyz
  1  'x, y, z'
loop_
 _atom_site_type_symbol
 _atom_site_label
 _atom_site_symmetry_multiplicity
 _atom_site_fract_x
 _atom_site_fract_y
 _atom_site_fract_z
 _atom_site_occupancy
  Li  Li0  1  0.73380284  0.26154705  0.25563486  1
  Li  Li1  1  0.90621575  0.42082555  0.74639922  1
  Li  Li2  1  0.07777562  0.57875297  0.26065247  1
  Li  Li3  1  0.25364666  0.75117508  0.74740597  1
  Li  Li4  1  0.42859770  0.91257452  0.24791608  1
  Li  Li5  1  0.59410961  0.08043853  0.74879086  1
  Li  Li6  1  0.51727204  0.49559248  0.49010391  1
  Mn  Mn7  1  -0.00000002  0.00020960  0.99971444  1
  Mn  Mn8  1  0.15900363  0.17310461  0.49931944  1
  Co  Co9  1  0.32781626  0.33489886  0.99887171  1
  Co  Co10  1  0.67329368  0.66448386  0.00114727  1
  Co  Co11  1  0.83633259  0.82016667  0.50481634  1
  O  O12  1  0.33268765  0.13260473  0.11652384  1
  O  O13  1  0.56581002  0.27411925  0.60891768  1
  O  O14  1  0.71382500  0.46448159  0.11559584  1
  O  O15  1  0.86536552  0.64603584  0.61611867  1
  O  O16  1  0.06178677  0.79461367  0.11599581  1
  O  O17  1  0.18346587  0.95795653  0.61100513  1
  O  O18  1  0.13361053  0.35709113  0.38154344  1
  O  O19  1  0.28838794  0.53554107  0.88173977  1
  O  O20  1  0.47675326  0.72667382  0.38715197  1
  O  O21  1  0.66602012  0.86648900  0.88294576  1
  O  O22  1  0.76383834  0.04444684  0.39835456  1
  O  O23  1  0.94058260  0.20617673  0.88333497  1
