# generated using pymatgen
data_RbHo(PO3)4
_symmetry_space_group_name_H-M   'P 1'
_cell_length_a   8.95727071
_cell_length_b   10.38659432
_cell_length_c   11.07109550
_cell_angle_alpha   106.31132990
_cell_angle_beta   90.00000000
_cell_angle_gamma   90.00000000
_symmetry_Int_Tables_number   1
_chemical_formula_structural   RbHo(PO3)4
_chemical_formula_sum   'Rb4 Ho4 P16 O48'
_cell_volume   988.54736799
_cell_formula_units_Z   4
loop_
 _symmetry_equiv_pos_site_id
 _symmetry_equiv_pos_as_xyz
  1  'x, y, z'
loop_
 _atom_site_type_symbol
 _atom_site_label
 _atom_site_symmetry_multiplicity
 _atom_site_fract_x
 _atom_site_fract_y
 _atom_site_fract_z
 _atom_site_occupancy
  Rb  Rb0  1  0.56637968  0.19091092  0.45774391  1
  Rb  Rb1  1  0.93362032  0.69091092  0.95774391  1
  Rb  Rb2  1  0.43362032  0.80908908  0.54225609  1
  Rb  Rb3  1  0.06637968  0.30908908  0.04225609  1
  Ho  Ho4  1  0.27308770  0.99840714  0.18187369  1
  Ho  Ho5  1  0.22691230  0.49840714  0.68187369  1
  Ho  Ho6  1  0.72691230  0.00159286  0.81812631  1
  Ho  Ho7  1  0.77308770  0.50159286  0.31812631  1
  P  P8  1  0.67122976  0.95949044  0.13433192  1
  P  P9  1  0.82877024  0.45949044  0.63433192  1
  P  P10  1  0.32877024  0.04050956  0.86566808  1
  P  P11  1  0.17122976  0.54050956  0.36566808  1
  P  P12  1  0.40812266  0.35301966  0.24164577  1
  P  P13  1  0.09187734  0.85301966  0.74164577  1
  P  P14  1  0.59187734  0.64698034  0.75835423  1
  P  P15  1  0.90812266  0.14698034  0.25835423  1
  P  P16  1  0.47497492  0.25332950  0.77853781  1
  P  P17  1  0.02502508  0.75332950  0.27853781  1
  P  P18  1  0.52502508  0.74667050  0.22146219  1
  P  P19  1  0.97497492  0.24667050  0.72146219  1
  P  P20  1  0.11038303  0.17500746  0.47652200  1
  P  P21  1  0.38961697  0.67500746  0.97652200  1
  P  P22  1  0.88961697  0.82499254  0.52347800  1
  P  P23  1  0.61038303  0.32499254  0.02347800  1
  O  O24  1  0.74340489  0.93752599  0.00795983  1
  O  O25  1  0.75659511  0.43752599  0.50795983  1
  O  O26  1  0.25659511  0.06247401  0.99204017  1
  O  O27  1  0.24340489  0.56247401  0.49204017  1
  O  O28  1  0.79115717  0.02402458  0.24532193  1
  O  O29  1  0.70884283  0.52402458  0.74532193  1
  O  O30  1  0.20884283  0.97597542  0.75467807  1
  O  O31  1  0.29115717  0.47597542  0.25467807  1
  O  O32  1  0.52789933  0.03545788  0.16706392  1
  O  O33  1  0.97210067  0.53545788  0.66706392  1
  O  O34  1  0.47210067  0.96454212  0.83293608  1
  O  O35  1  0.02789933  0.46454212  0.33293608  1
  O  O36  1  0.54147972  0.40007156  0.32437391  1
  O  O37  1  0.95852028  0.90007156  0.82437391  1
  O  O38  1  0.45852028  0.59992844  0.67562609  1
  O  O39  1  0.04147972  0.09992844  0.17562609  1
  O  O40  1  0.32301609  0.23343915  0.25395256  1
  O  O41  1  0.17698391  0.73343915  0.75395256  1
  O  O42  1  0.67698391  0.76656085  0.74604744  1
  O  O43  1  0.82301609  0.26656085  0.24604744  1
  O  O44  1  0.58573765  0.14565351  0.71728050  1
  O  O45  1  0.91426235  0.64565351  0.21728050  1
  O  O46  1  0.41426235  0.85434649  0.28271950  1
  O  O47  1  0.08573765  0.35434649  0.78271950  1
  O  O48  1  0.34258935  0.18766909  0.84259179  1
  O  O49  1  0.15741065  0.68766909  0.34259179  1
  O  O50  1  0.65741065  0.81233091  0.15740821  1
  O  O51  1  0.84258935  0.31233091  0.65740821  1
  O  O52  1  0.16737413  0.31600265  0.51805307  1
  O  O53  1  0.33262587  0.81600265  0.01805307  1
  O  O54  1  0.83262587  0.68399735  0.48194693  1
  O  O55  1  0.66737413  0.18399735  0.98194693  1
  O  O56  1  0.21232421  0.06601408  0.40313866  1
  O  O57  1  0.28767579  0.56601408  0.90313866  1
  O  O58  1  0.78767579  0.93398592  0.59686134  1
  O  O59  1  0.71232421  0.43398592  0.09686134  1
  O  O60  1  0.04793834  0.13821337  0.60024842  1
  O  O61  1  0.45206166  0.63821337  0.10024842  1
  O  O62  1  0.95206166  0.86178663  0.39975158  1
  O  O63  1  0.54793834  0.36178663  0.89975158  1
  O  O64  1  0.09420434  0.83173112  0.19829982  1
  O  O65  1  0.40579566  0.33173112  0.69829982  1
  O  O66  1  0.90579566  0.16826888  0.80170018  1
  O  O67  1  0.59420434  0.66826888  0.30170018  1
  O  O68  1  0.95225272  0.16918981  0.40361503  1
  O  O69  1  0.54774728  0.66918981  0.90361503  1
  O  O70  1  0.04774728  0.83081019  0.59638497  1
  O  O71  1  0.45225272  0.33081019  0.09638497  1
