# generated using pymatgen
data_NaMo6Cl13
_symmetry_space_group_name_H-M   'P 1'
_cell_length_a   9.18017032
_cell_length_b   9.27973288
_cell_length_c   14.26222323
_cell_angle_alpha   97.18358451
_cell_angle_beta   101.82914760
_cell_angle_gamma   114.56376746
_symmetry_Int_Tables_number   1
_chemical_formula_structural   NaMo6Cl13
_chemical_formula_sum   'Na2 Mo12 Cl26'
_cell_volume   1050.96204319
_cell_formula_units_Z   2
loop_
 _symmetry_equiv_pos_site_id
 _symmetry_equiv_pos_as_xyz
  1  'x, y, z'
loop_
 _atom_site_type_symbol
 _atom_site_label
 _atom_site_symmetry_multiplicity
 _atom_site_fract_x
 _atom_site_fract_y
 _atom_site_fract_z
 _atom_site_occupancy
  Na  Na0  1  0.49742406  0.75481318  0.72779318  1
  Na  Na1  1  0.50257594  0.24518682  0.27220682  1
  Mo  Mo2  1  0.94799356  0.01334042  0.61950566  1
  Mo  Mo3  1  0.05200644  0.98665958  0.38049434  1
  Mo  Mo4  1  0.20040291  0.00366795  0.56324029  1
  Mo  Mo5  1  0.79959709  0.99633205  0.43675971  1
  Mo  Mo6  1  0.10475975  0.22615248  0.52522076  1
  Mo  Mo7  1  0.89524025  0.77384752  0.47477924  1
  Mo  Mo8  1  0.13425254  0.45605176  0.09663112  1
  Mo  Mo9  1  0.86574746  0.54394824  0.90336888  1
  Mo  Mo10  1  0.18508274  0.61802885  0.95837736  1
  Mo  Mo11  1  0.81491726  0.38197115  0.04162264  1
  Mo  Mo12  1  0.04354890  0.68868849  0.08805810  1
  Mo  Mo13  1  0.95645110  0.31131151  0.91194190  1
  Cl  Cl14  1  0.14272189  0.78204021  0.42496744  1
  Cl  Cl15  1  0.85727811  0.21795979  0.57503256  1
  Cl  Cl16  1  0.76053358  0.77120065  0.30315971  1
  Cl  Cl17  1  0.23946642  0.22879935  0.69684029  1
  Cl  Cl18  1  0.33756858  0.20694596  0.47024794  1
  Cl  Cl19  1  0.66243142  0.79305404  0.52975206  1
  Cl  Cl20  1  0.95982391  0.19763919  0.35062470  1
  Cl  Cl21  1  0.04017609  0.80236081  0.64937530  1
  Cl  Cl22  1  0.34207420  0.74867295  0.13310400  1
  Cl  Cl23  1  0.65792580  0.25132705  0.86689600  1
  Cl  Cl24  1  0.99033029  0.52380644  0.21285732  1
  Cl  Cl25  1  0.00966971  0.47619356  0.78714268  1
  Cl  Cl26  1  0.25983609  0.38942173  0.96870889  1
  Cl  Cl27  1  0.74016391  0.61057827  0.03129111  1
  Cl  Cl28  1  0.91077709  0.16734302  0.04713096  1
  Cl  Cl29  1  0.08922291  0.83265698  0.95286904  1
  Cl  Cl30  1  0.46131676  0.00250170  0.64347938  1
  Cl  Cl31  1  0.53868324  0.99749830  0.35652062  1
  Cl  Cl32  1  0.24378814  0.52390106  0.56343452  1
  Cl  Cl33  1  0.75621186  0.47609894  0.43656548  1
  Cl  Cl34  1  0.31321023  0.41112343  0.23012822  1
  Cl  Cl35  1  0.68678977  0.58887657  0.76987178  1
  Cl  Cl36  1  0.43002813  0.77561606  0.90548339  1
  Cl  Cl37  1  0.56997187  0.22438394  0.09451661  1
  Cl  Cl38  1  0.11423073  0.95570988  0.21142914  1
  Cl  Cl39  1  0.88576927  0.04429012  0.78857086  1
