# generated using pymatgen
data_Ba4Al3Cu2F21
_symmetry_space_group_name_H-M   'P 1'
_cell_length_a   5.38013098
_cell_length_b   7.48108121
_cell_length_c   42.16759783
_cell_angle_alpha   90.00000000
_cell_angle_beta   90.00000000
_cell_angle_gamma   90.00000000
_symmetry_Int_Tables_number   1
_chemical_formula_structural   Ba4Al3Cu2F21
_chemical_formula_sum   'Ba16 Al12 Cu8 F84'
_cell_volume   1697.21194288
_cell_formula_units_Z   4
loop_
 _symmetry_equiv_pos_site_id
 _symmetry_equiv_pos_as_xyz
  1  'x, y, z'
loop_
 _atom_site_type_symbol
 _atom_site_label
 _atom_site_symmetry_multiplicity
 _atom_site_fract_x
 _atom_site_fract_y
 _atom_site_fract_z
 _atom_site_occupancy
  Ba  Ba0  1  0.74783491  0.98709059  0.35121797  1
  Ba  Ba1  1  0.67467684  0.99633740  0.51137451  1
  Ba  Ba2  1  0.25216509  0.48709059  0.14878203  1
  Ba  Ba3  1  0.76432728  0.01744852  0.11989643  1
  Ba  Ba4  1  0.74804132  0.21793718  0.23580671  1
  Ba  Ba5  1  0.23567272  0.51744852  0.38010357  1
  Ba  Ba6  1  0.75195868  0.78206282  0.73580671  1
  Ba  Ba7  1  0.75216509  0.01290941  0.85121797  1
  Ba  Ba8  1  0.24783491  0.51290941  0.64878203  1
  Ba  Ba9  1  0.24804132  0.28206282  0.76419329  1
  Ba  Ba10  1  0.26432728  0.48255148  0.88010357  1
  Ba  Ba11  1  0.73567272  0.98255148  0.61989643  1
  Ba  Ba12  1  0.32532316  0.49633740  0.98862549  1
  Ba  Ba13  1  0.17467684  0.50366260  0.48862549  1
  Ba  Ba14  1  0.25195868  0.71793718  0.26419329  1
  Ba  Ba15  1  0.82532316  0.00366260  0.01137451  1
  Al  Al16  1  0.23584830  0.98963424  0.68030546  1
  Al  Al17  1  0.76073441  0.68860602  0.19981859  1
  Al  Al18  1  0.23926559  0.18860602  0.30018141  1
  Al  Al19  1  0.33350059  0.20853003  0.06049518  1
  Al  Al20  1  0.26415170  0.01036576  0.18030546  1
  Al  Al21  1  0.26073441  0.81139398  0.80018141  1
  Al  Al22  1  0.73926559  0.31139398  0.69981859  1
  Al  Al23  1  0.66649941  0.70853003  0.43950482  1
  Al  Al24  1  0.83350059  0.29146997  0.93950482  1
  Al  Al25  1  0.16649941  0.79146997  0.56049518  1
  Al  Al26  1  0.76415170  0.48963424  0.81969454  1
  Al  Al27  1  0.73584830  0.51036576  0.31969454  1
  Cu  Cu28  1  0.18051916  0.27490823  0.56634588  1
  Cu  Cu29  1  0.68051916  0.22509177  0.43365412  1
  Cu  Cu30  1  0.29960987  0.99065654  0.92527091  1
  Cu  Cu31  1  0.31948084  0.72509177  0.06634588  1
  Cu  Cu32  1  0.81948084  0.77490823  0.93365412  1
  Cu  Cu33  1  0.70039013  0.49065654  0.57472909  1
  Cu  Cu34  1  0.20039013  0.00934346  0.42527091  1
  Cu  Cu35  1  0.79960987  0.50934346  0.07472909  1
  F  F36  1  0.98279780  -0.00144920  0.56489377  1
  F  F37  1  0.86090964  0.68331920  0.55045113  1
  F  F38  1  0.46151449  0.18234651  0.68315081  1
  F  F39  1  0.49372939  0.68188551  0.10470114  1
  F  F40  1  0.10868011  0.86467378  0.38989904  1
  F  F41  1  0.26101134  0.92724844  0.83734669  1
  F  F42  1  0.89131989  0.36467378  0.11010096  1
  F  F43  1  0.44677280  0.91515644  0.56778295  1
  F  F44  1  0.46056124  0.35145097  0.31985074  1
  F  F45  1  0.53943876  0.85145097  0.18014926  1
  F  F46  1  0.51505565  0.69223856  0.32412936  1
  F  F47  1  0.18703407  0.84126103  0.51749358  1
  F  F48  1  0.66965551  0.73628103  0.97371393  1
  F  F49  1  0.55322720  0.41515644  0.93221705  1
  F  F50  1  0.39195569  0.26273514  0.10147823  1
  F  F51  1  0.64052903  0.66622767  0.04353811  1
  F  F52  1  0.50047815  0.55905133  0.21373303  1
  F  F53  1  0.22075890  0.98197790  0.72253829  1
  F  F54  1  0.13909036  0.18331920  0.94954887  1
  F  F55  1  0.72075890  0.51802210  0.27746171  1
  F  F56  1  0.96151449  0.31765349  0.31684919  1
  F  F57  1  0.51720220  1.00144920  0.06489377  1
  F  F58  1  0.50781705  0.33356454  0.82199779  1
  F  F59  1  0.03943876  0.64854903  0.81985074  1
  F  F60  1  0.33034449  0.23628103  0.52628607  1
  F  F61  1  0.01828520  0.03363148  0.28357095  1
  F  F62  1  0.51828520  0.46636852  0.71642905  1
  F  F63  1  0.25221701  0.97174172  0.13843572  1
  F  F64  1  0.10804431  0.73726486  0.60147823  1
  F  F65  1  0.48494435  0.19223856  0.17587064  1
  F  F66  1  0.49396400  0.29088367  0.59108283  1
  F  F67  1  0.74778299  0.47174172  0.36156428  1
  F  F68  1  0.26747751  0.66800601  0.76609948  1
  F  F69  1  0.35947097  0.16622767  0.45646189  1
  F  F70  1  0.81973718  0.91885400  0.44804675  1
  F  F71  1  0.63909036  0.31668080  0.05045113  1
  F  F72  1  0.99952185  0.44094867  0.71373303  1
  F  F73  1  0.89195569  0.23726486  0.89852177  1
  F  F74  1  0.23898866  0.07275156  0.33734669  1
  F  F75  1  0.50627061  0.18188551  0.39529886  1
  F  F76  1  0.73898866  0.42724844  0.66265331  1
  F  F77  1  0.01720220  0.49855080  0.93510623  1
  F  F78  1  0.01505565  0.80776144  0.67587064  1
  F  F79  1  0.05322720  0.08484356  0.06778295  1
  F  F80  1  0.27924110  0.01802210  0.22253829  1
  F  F81  1  0.81296593  0.34126103  0.98250642  1
  F  F82  1  0.73252249  0.16800601  0.73390052  1
  F  F83  1  0.18026282  0.41885400  0.05195325  1
  F  F84  1  0.75221701  0.52825828  0.86156428  1
  F  F85  1  0.76747751  0.83199399  0.23390052  1
  F  F86  1  0.68703407  0.65873897  0.48250642  1
  F  F87  1  0.00047815  0.94094867  0.78626697  1
  F  F88  1  0.99396400  0.20911633  0.40891717  1
  F  F89  1  0.39131989  0.13532622  0.88989904  1
  F  F90  1  0.68026282  0.08114600  0.94804675  1
  F  F91  1  0.00603600  0.70911633  0.09108283  1
  F  F92  1  0.00781705  0.16643546  0.17800221  1
  F  F93  1  0.96056124  0.14854903  0.68014926  1
  F  F94  1  0.85947097  0.33377233  0.54353811  1
  F  F95  1  0.76101134  0.57275156  0.16265331  1
  F  F96  1  0.49952185  0.05905133  0.28626697  1
  F  F97  1  0.14052903  0.83377233  0.95646189  1
  F  F98  1  0.36090964  0.81668080  0.44954887  1
  F  F99  1  0.60804431  0.76273514  0.39852177  1
  F  F100  1  0.03848551  0.81765349  0.18315081  1
  F  F101  1  0.99218295  0.66643546  0.32199779  1
  F  F102  1  0.99372939  0.81811449  0.89529886  1
  F  F103  1  0.48279780  0.50144920  0.43510623  1
  F  F104  1  0.00627061  0.31811449  0.60470114  1
  F  F105  1  0.31973718  0.58114600  0.55195325  1
  F  F106  1  0.49218295  0.83356454  0.67800221  1
  F  F107  1  0.77924110  0.48197790  0.77746171  1
  F  F108  1  0.83034449  0.26371897  0.47371393  1
  F  F109  1  0.24778299  0.02825828  0.63843572  1
  F  F110  1  0.98494435  0.30776144  0.82412936  1
  F  F111  1  0.98171480  0.53363148  0.21642905  1
  F  F112  1  0.31296593  0.15873897  0.01749358  1
  F  F113  1  0.94677280  0.58484356  0.43221705  1
  F  F114  1  0.16965551  0.76371897  0.02628607  1
  F  F115  1  0.53848551  0.68234651  0.81684919  1
  F  F116  1  0.48171480  0.96636852  0.78357095  1
  F  F117  1  0.60868011  0.63532622  0.61010096  1
  F  F118  1  0.50603600  0.79088367  0.90891717  1
  F  F119  1  0.23252249  0.33199399  0.26609948  1
