# generated using pymatgen
data_SrMo3(PO7)2
_symmetry_space_group_name_H-M   'P 1'
_cell_length_a   6.53275704
_cell_length_b   8.53947921
_cell_length_c   10.83805436
_cell_angle_alpha   112.95811506
_cell_angle_beta   90.00000000
_cell_angle_gamma   90.00000000
_symmetry_Int_Tables_number   1
_chemical_formula_structural   SrMo3(PO7)2
_chemical_formula_sum   'Sr2 Mo6 P4 O28'
_cell_volume   556.72397750
_cell_formula_units_Z   2
loop_
 _symmetry_equiv_pos_site_id
 _symmetry_equiv_pos_as_xyz
  1  'x, y, z'
loop_
 _atom_site_type_symbol
 _atom_site_label
 _atom_site_symmetry_multiplicity
 _atom_site_fract_x
 _atom_site_fract_y
 _atom_site_fract_z
 _atom_site_occupancy
  Mo  Mo0  1  0.75000000  0.75494542  0.98988515  1
  Mo  Mo1  1  0.25000000  0.24505458  0.01011485  1
  Mo  Mo2  1  0.75000000  0.74523479  0.66906157  1
  Mo  Mo3  1  0.25000000  0.25476521  0.33093843  1
  Mo  Mo4  1  0.75000000  0.16629977  0.62468081  1
  Mo  Mo5  1  0.25000000  0.83370023  0.37531919  1
  P  P6  1  0.75000000  0.15727387  0.93823866  1
  P  P7  1  0.25000000  0.84272613  0.06176134  1
  P  P8  1  0.25000000  0.87771328  0.69892038  1
  P  P9  1  0.75000000  0.12228672  0.30107962  1
  Sr  Sr10  1  0.25000000  0.51029485  0.74582643  1
  Sr  Sr11  1  0.75000000  0.48970515  0.25417357  1
  O  O12  1  0.75000000  0.60765600  0.06312071  1
  O  O13  1  0.25000000  0.39234400  0.93687929  1
  O  O14  1  0.75000000  0.96495596  0.17025510  1
  O  O15  1  0.25000000  0.03504404  0.82974490  1
  O  O16  1  0.43587065  0.76453985  0.96786017  1
  O  O17  1  0.93587065  0.23546015  0.03213983  1
  O  O18  1  0.56412935  0.23546015  0.03213983  1
  O  O19  1  0.06412935  0.76453985  0.96786017  1
  O  O20  1  0.75000000  0.63034011  0.79841472  1
  O  O21  1  0.25000000  0.36965989  0.20158528  1
  O  O22  1  0.75000000  0.96096490  0.88562934  1
  O  O23  1  0.25000000  0.03903510  0.11437066  1
  O  O24  1  0.75000000  0.57654754  0.51571552  1
  O  O25  1  0.25000000  0.42345246  0.48428448  1
  O  O26  1  0.75000000  0.94191031  0.61347463  1
  O  O27  1  0.25000000  0.05808969  0.38652537  1
  O  O28  1  0.43524397  0.76057667  0.69309868  1
  O  O29  1  0.93524397  0.23942333  0.30690132  1
  O  O30  1  0.56475603  0.23942333  0.30690132  1
  O  O31  1  0.06475603  0.76057667  0.69309868  1
  O  O32  1  0.97336695  0.28683104  0.64204130  1
  O  O33  1  0.47336695  0.71316896  0.35795870  1
  O  O34  1  0.02663305  0.71316896  0.35795870  1
  O  O35  1  0.52663305  0.28683104  0.64204130  1
  O  O36  1  0.75000000  0.22381211  0.82596364  1
  O  O37  1  0.25000000  0.77618789  0.17403636  1
  O  O38  1  0.75000000  0.06703306  0.42092965  1
  O  O39  1  0.25000000  0.93296694  0.57907035  1
