# generated using pymatgen
data_TaSe2
_symmetry_space_group_name_H-M   'P 1'
_cell_length_a   9.18010410
_cell_length_b   9.80527226
_cell_length_c   11.50154201
_cell_angle_alpha   72.27838934
_cell_angle_beta   74.41429477
_cell_angle_gamma   83.40173351
_symmetry_Int_Tables_number   1
_chemical_formula_structural   TaSe2
_chemical_formula_sum   'Ta13 Se26'
_cell_volume   949.28425611
_cell_formula_units_Z   13
loop_
 _symmetry_equiv_pos_site_id
 _symmetry_equiv_pos_as_xyz
  1  'x, y, z'
loop_
 _atom_site_type_symbol
 _atom_site_label
 _atom_site_symmetry_multiplicity
 _atom_site_fract_x
 _atom_site_fract_y
 _atom_site_fract_z
 _atom_site_occupancy
  Ta  Ta0  1  0.00000000  0.00000000  0.00000000  1
  Ta  Ta1  1  0.21459206  0.71667295  0.06919780  1
  Ta  Ta2  1  0.78540794  0.28332705  0.93080220  1
  Ta  Ta3  1  0.71721951  0.06991012  0.21421764  1
  Ta  Ta4  1  0.28278049  0.93008988  0.78578236  1
  Ta  Ta5  1  0.93117893  0.78597574  0.28296476  1
  Ta  Ta6  1  0.06882107  0.21402426  0.71703524  1
  Ta  Ta7  1  0.15157249  0.48746837  0.36032505  1
  Ta  Ta8  1  0.84842751  0.51253163  0.63967495  1
  Ta  Ta9  1  0.48808479  0.36056797  0.15169934  1
  Ta  Ta10  1  0.51191521  0.63943203  0.84830066  1
  Ta  Ta11  1  0.64093929  0.84868094  0.51282137  1
  Ta  Ta12  1  0.35906071  0.15131906  0.48717863  1
  Se  Se13  1  0.93035763  0.72524130  0.08204577  1
  Se  Se14  1  0.06964237  0.27475870  0.91795423  1
  Se  Se15  1  0.70547465  0.02282708  0.00927566  1
  Se  Se16  1  0.29452535  0.97717292  0.99072434  1
  Se  Se17  1  0.00272609  0.94939357  0.78457139  1
  Se  Se18  1  0.99727391  0.05060643  0.21542861  1
  Se  Se19  1  0.63389185  0.80095326  0.31072566  1
  Se  Se20  1  0.36610815  0.19904674  0.68927434  1
  Se  Se21  1  0.78103393  0.25256986  0.71010815  1
  Se  Se22  1  0.21896607  0.74743014  0.28989185  1
  Se  Se23  1  0.23271926  0.65171102  0.85818931  1
  Se  Se24  1  0.76728074  0.34828898  0.14181069  1
  Se  Se25  1  0.86802208  0.50784903  0.39927552  1
  Se  Se26  1  0.13197792  0.49215097  0.60072448  1
  Se  Se27  1  0.49066243  0.34846712  0.93569523  1
  Se  Se28  1  0.50933757  0.65153288  0.06430477  1
  Se  Se29  1  0.33223393  0.88434301  0.55806993  1
  Se  Se30  1  0.66776607  0.11565699  0.44193007  1
  Se  Se31  1  0.18544741  0.42726892  0.16002249  1
  Se  Se32  1  0.81455259  0.57273108  0.83997751  1
  Se  Se33  1  0.41088090  0.10879965  0.25281558  1
  Se  Se34  1  0.58911910  0.89120035  0.74718442  1
  Se  Se35  1  0.09042337  0.20135871  0.47874057  1
  Se  Se36  1  0.90957663  0.79864129  0.52125943  1
  Se  Se37  1  0.56245856  0.57958308  0.63044327  1
  Se  Se38  1  0.43754144  0.42041692  0.36955673  1
