# generated using pymatgen
data_Ba2NdRuO6
_symmetry_space_group_name_H-M   'P 1'
_cell_length_a   6.08259668
_cell_length_b   6.08259913
_cell_length_c   6.08259643
_cell_angle_alpha   60.00000212
_cell_angle_beta   59.99999937
_cell_angle_gamma   60.00001542
_symmetry_Int_Tables_number   1
_chemical_formula_structural   Ba2NdRuO6
_chemical_formula_sum   'Ba2 Nd1 Ru1 O6'
_cell_volume   159.13007825
_cell_formula_units_Z   1
loop_
 _symmetry_equiv_pos_site_id
 _symmetry_equiv_pos_as_xyz
  1  'x, y, z'
loop_
 _atom_site_type_symbol
 _atom_site_label
 _atom_site_symmetry_multiplicity
 _atom_site_fract_x
 _atom_site_fract_y
 _atom_site_fract_z
 _atom_site_occupancy
  O  O0  1  0.73041587  0.26958344  0.73041670  1
  O  O1  1  0.26958399  0.26958344  0.73041670  1
  Ba  Ba2  1  0.74999976  0.75000054  0.74999994  1
  O  O3  1  0.26958309  0.73041657  0.73041725  1
  O  O4  1  0.73041647  0.26958381  0.26958325  1
  Ba  Ba5  1  0.25000069  0.24999972  0.24999890  1
  O  O6  1  0.73041635  0.73041606  0.26958388  1
  O  O7  1  0.26958371  0.73041606  0.26958388  1
  Ru  Ru8  1  0.49999989  0.50000025  0.49999996  1
  Nd  Nd9  1  0.00000018  1.00000011  -0.00000047  1
