# generated using pymatgen
data_NiPH16NO10
_symmetry_space_group_name_H-M   'P 1'
_cell_length_a   6.08317790
_cell_length_b   6.97003157
_cell_length_c   11.24146587
_cell_angle_alpha   90.00000000
_cell_angle_beta   90.00000000
_cell_angle_gamma   90.00000000
_symmetry_Int_Tables_number   1
_chemical_formula_structural   NiPH16NO10
_chemical_formula_sum   'Ni2 P2 H32 N2 O20'
_cell_volume   476.63750098
_cell_formula_units_Z   2
loop_
 _symmetry_equiv_pos_site_id
 _symmetry_equiv_pos_as_xyz
  1  'x, y, z'
loop_
 _atom_site_type_symbol
 _atom_site_label
 _atom_site_symmetry_multiplicity
 _atom_site_fract_x
 _atom_site_fract_y
 _atom_site_fract_z
 _atom_site_occupancy
  Ni  Ni0  1  0.62766080  0.00000000  0.62769531  1
  Ni  Ni1  1  0.37233920  0.50000000  0.12769531  1
  O  O2  1  0.31691203  0.00000000  0.70912613  1
  O  O3  1  0.68308797  0.50000000  0.20912613  1
  H  H4  1  0.28170599  0.00000000  0.79633503  1
  H  H5  1  0.71829401  0.50000000  0.29633503  1
  H  H6  1  0.17820702  0.00000000  0.66316949  1
  H  H7  1  0.82179298  0.50000000  0.16316949  1
  O  O8  1  0.95207667  0.00000000  0.55304223  1
  O  O9  1  0.04792333  0.50000000  0.05304223  1
  H  H10  1  0.00530197  0.88224383  0.50914250  1
  H  H11  1  0.99469803  0.61775617  0.00914250  1
  H  H12  1  0.99469803  0.38224383  0.00914250  1
  H  H13  1  0.00530197  0.11775617  0.50914250  1
  O  O14  1  0.72739166  0.77506627  0.73804532  1
  O  O15  1  0.27260834  0.72493373  0.23804532  1
  O  O16  1  0.27260834  0.27506627  0.23804532  1
  O  O17  1  0.72739166  0.22493373  0.73804532  1
  H  H18  1  0.79152233  0.80078003  0.81947761  1
  H  H19  1  0.20847767  0.69921997  0.31947761  1
  H  H20  1  0.20847767  0.30078003  0.31947761  1
  H  H21  1  0.79152233  0.19921997  0.81947761  1
  H  H22  1  0.82866424  0.68026604  0.69831578  1
  H  H23  1  0.17133576  0.81973396  0.19831578  1
  H  H24  1  0.17133576  0.18026604  0.19831578  1
  H  H25  1  0.82866424  0.31973396  0.69831578  1
  O  O26  1  0.52775193  0.79781821  0.50548427  1
  O  O27  1  0.47224807  0.70218179  0.00548427  1
  O  O28  1  0.47224807  0.29781821  0.00548427  1
  O  O29  1  0.52775193  0.20218179  0.50548427  1
  H  H30  1  0.61973826  0.68120484  0.48567800  1
  H  H31  1  0.38026174  0.81879516  0.98567800  1
  H  H32  1  0.38026174  0.18120484  0.98567800  1
  H  H33  1  0.61973826  0.31879516  0.48567800  1
  H  H34  1  0.37094020  0.75646166  0.49740600  1
  H  H35  1  0.62905980  0.74353834  0.99740600  1
  H  H36  1  0.62905980  0.25646166  0.99740600  1
  H  H37  1  0.37094020  0.24353834  0.49740600  1
  P  P38  1  0.00296492  0.00000000  0.99939139  1
  P  P39  1  0.99703508  0.50000000  0.49939139  1
  O  O40  1  0.02146058  0.00000000  0.13773593  1
  O  O41  1  0.97853942  0.50000000  0.63773593  1
  O  O42  1  0.23890166  0.00000000  0.94431976  1
  O  O43  1  0.76109834  0.50000000  0.44431976  1
  O  O44  1  0.88107791  0.81600350  0.95663216  1
  O  O45  1  0.11892209  0.68399650  0.45663216  1
  O  O46  1  0.11892209  0.31600350  0.45663216  1
  O  O47  1  0.88107791  0.18399650  0.95663216  1
  N  N48  1  0.62978383  0.00000000  0.26768047  1
  N  N49  1  0.37021617  0.50000000  0.76768047  1
  H  H50  1  0.77866558  0.00000000  0.21920242  1
  H  H51  1  0.22133442  0.50000000  0.71920242  1
  H  H52  1  0.65411524  0.00000000  0.35843241  1
  H  H53  1  0.34588476  0.50000000  0.85843241  1
  H  H54  1  0.53453526  0.87981720  0.24859458  1
  H  H55  1  0.46546474  0.62018280  0.74859458  1
  H  H56  1  0.46546474  0.37981720  0.74859458  1
  H  H57  1  0.53453526  0.12018280  0.24859458  1
