# generated using pymatgen
data_VAs2H4O9
_symmetry_space_group_name_H-M   'P 1'
_cell_length_a   8.25435641
_cell_length_b   9.31698142
_cell_length_c   9.31698142
_cell_angle_alpha   90.00000000
_cell_angle_beta   90.00000000
_cell_angle_gamma   90.00000000
_symmetry_Int_Tables_number   1
_chemical_formula_structural   VAs2H4O9
_chemical_formula_sum   'V4 As8 H16 O36'
_cell_volume   716.52884109
_cell_formula_units_Z   4
loop_
 _symmetry_equiv_pos_site_id
 _symmetry_equiv_pos_as_xyz
  1  'x, y, z'
loop_
 _atom_site_type_symbol
 _atom_site_label
 _atom_site_symmetry_multiplicity
 _atom_site_fract_x
 _atom_site_fract_y
 _atom_site_fract_z
 _atom_site_occupancy
  As  As0  1  0.25000000  0.46506037  0.53493963  1
  As  As1  1  0.25000000  0.96506037  0.46506037  1
  As  As2  1  0.25000000  0.53493963  0.03493963  1
  As  As3  1  0.25000000  0.03493963  0.96506037  1
  As  As4  1  0.75000000  0.53493963  0.46506037  1
  As  As5  1  0.75000000  0.03493963  0.53493963  1
  As  As6  1  0.75000000  0.46506037  0.96506037  1
  As  As7  1  0.75000000  0.96506037  0.03493963  1
  V  V8  1  0.19696390  0.25000000  0.25000000  1
  V  V9  1  0.30303610  0.75000000  0.75000000  1
  V  V10  1  0.80303610  0.75000000  0.75000000  1
  V  V11  1  0.69696390  0.25000000  0.25000000  1
  O  O12  1  0.07695340  0.38399694  0.61177157  1
  O  O13  1  0.07695340  0.88822843  0.38399694  1
  O  O14  1  0.07695340  0.61177157  0.11600306  1
  O  O15  1  0.07695340  0.11600306  0.88822843  1
  O  O16  1  0.42304660  0.88399694  0.38822843  1
  O  O17  1  0.42304660  0.61600306  0.11177157  1
  O  O18  1  0.42304660  0.11177157  0.88399694  1
  O  O19  1  0.42304660  0.38822843  0.61600306  1
  O  O20  1  0.92304660  0.61600306  0.38822843  1
  O  O21  1  0.92304660  0.11177157  0.61600306  1
  O  O22  1  0.92304660  0.38822843  0.88399694  1
  O  O23  1  0.92304660  0.88399694  0.11177157  1
  O  O24  1  0.57695340  0.11600306  0.61177157  1
  O  O25  1  0.57695340  0.38399694  0.88822843  1
  O  O26  1  0.57695340  0.88822843  0.11600306  1
  O  O27  1  0.57695340  0.61177157  0.38399694  1
  O  O28  1  0.24384456  0.43297468  0.35644528  1
  O  O29  1  0.24384456  0.14355472  0.43297468  1
  O  O30  1  0.24384456  0.35644528  0.06702532  1
  O  O31  1  0.24384456  0.06702532  0.14355472  1
  O  O32  1  0.25615544  0.93297468  0.64355472  1
  O  O33  1  0.25615544  0.56702532  0.85644528  1
  O  O34  1  0.25615544  0.85644528  0.93297468  1
  O  O35  1  0.25615544  0.64355472  0.56702532  1
  O  O36  1  0.75615544  0.56702532  0.64355472  1
  O  O37  1  0.75615544  0.85644528  0.56702532  1
  O  O38  1  0.75615544  0.64355472  0.93297468  1
  O  O39  1  0.75615544  0.93297468  0.85644528  1
  O  O40  1  0.74384456  0.06702532  0.35644528  1
  O  O41  1  0.74384456  0.43297468  0.14355472  1
  O  O42  1  0.74384456  0.14355472  0.06702532  1
  O  O43  1  0.74384456  0.35644528  0.43297468  1
  O  O44  1  0.99709234  0.25000000  0.25000000  1
  O  O45  1  0.50290766  0.75000000  0.75000000  1
  O  O46  1  0.00290766  0.75000000  0.75000000  1
  O  O47  1  0.49709234  0.25000000  0.25000000  1
  H  H48  1  0.05307824  0.42202954  0.70881518  1
  H  H49  1  0.05307824  0.79118482  0.42202954  1
  H  H50  1  0.05307824  0.70881518  0.07797046  1
  H  H51  1  0.05307824  0.07797046  0.79118482  1
  H  H52  1  0.44692176  0.92202954  0.29118482  1
  H  H53  1  0.44692176  0.57797046  0.20881518  1
  H  H54  1  0.44692176  0.20881518  0.92202954  1
  H  H55  1  0.44692176  0.29118482  0.57797046  1
  H  H56  1  0.94692176  0.57797046  0.29118482  1
  H  H57  1  0.94692176  0.20881518  0.57797046  1
  H  H58  1  0.94692176  0.29118482  0.92202954  1
  H  H59  1  0.94692176  0.92202954  0.20881518  1
  H  H60  1  0.55307824  0.07797046  0.70881518  1
  H  H61  1  0.55307824  0.42202954  0.79118482  1
  H  H62  1  0.55307824  0.79118482  0.07797046  1
  H  H63  1  0.55307824  0.70881518  0.42202954  1
