# generated using pymatgen
data_Ba2Sb4P2O17
_symmetry_space_group_name_H-M   'P 1'
_cell_length_a   7.31107991
_cell_length_b   9.68854512
_cell_length_c   21.31115893
_cell_angle_alpha   90.00000000
_cell_angle_beta   90.00000000
_cell_angle_gamma   90.00000000
_symmetry_Int_Tables_number   1
_chemical_formula_structural   Ba2Sb4P2O17
_chemical_formula_sum   'Ba8 Sb16 P8 O68'
_cell_volume   1509.54882615
_cell_formula_units_Z   4
loop_
 _symmetry_equiv_pos_site_id
 _symmetry_equiv_pos_as_xyz
  1  'x, y, z'
loop_
 _atom_site_type_symbol
 _atom_site_label
 _atom_site_symmetry_multiplicity
 _atom_site_fract_x
 _atom_site_fract_y
 _atom_site_fract_z
 _atom_site_occupancy
  Ba  Ba0  1  0.25000000  0.31076263  0.67471446  1
  Ba  Ba1  1  0.25000000  0.15153039  0.47029206  1
  Ba  Ba2  1  0.25000000  0.34846961  0.97029206  1
  Ba  Ba3  1  0.75000000  0.68923737  0.32528554  1
  Ba  Ba4  1  0.75000000  0.84846961  0.52970794  1
  Ba  Ba5  1  0.75000000  0.65153039  0.02970794  1
  Ba  Ba6  1  0.25000000  0.18923737  0.17471446  1
  Ba  Ba7  1  0.75000000  0.81076263  0.82528554  1
  Sb  Sb8  1  0.00137631  0.67095626  0.65864097  1
  Sb  Sb9  1  0.25000000  0.86801075  0.77658668  1
  Sb  Sb10  1  0.99862369  0.17095626  0.84135903  1
  Sb  Sb11  1  0.25000000  0.63198925  0.27658668  1
  Sb  Sb12  1  0.00000000  0.50000000  0.50000000  1
  Sb  Sb13  1  0.75000000  0.13198925  0.22341332  1
  Sb  Sb14  1  0.50137631  0.17095626  0.84135903  1
  Sb  Sb15  1  0.49862369  0.67095626  0.65864097  1
  Sb  Sb16  1  0.75000000  0.36801075  0.72341332  1
  Sb  Sb17  1  0.00000000  0.00000000  0.00000000  1
  Sb  Sb18  1  0.50000000  0.00000000  0.00000000  1
  Sb  Sb19  1  0.00137631  0.82904374  0.15864097  1
  Sb  Sb20  1  0.99862369  0.32904374  0.34135903  1
  Sb  Sb21  1  0.49862369  0.82904374  0.15864097  1
  Sb  Sb22  1  0.50137631  0.32904374  0.34135903  1
  Sb  Sb23  1  0.50000000  0.50000000  0.50000000  1
  P  P24  1  0.25000000  0.75322460  0.92642735  1
  P  P25  1  0.25000000  0.54887027  0.13003184  1
  P  P26  1  0.75000000  0.25322460  0.57357265  1
  P  P27  1  0.25000000  0.74677540  0.42642735  1
  P  P28  1  0.75000000  0.04887027  0.36996816  1
  P  P29  1  0.75000000  0.45112973  0.86996816  1
  P  P30  1  0.75000000  0.24677540  0.07357265  1
  P  P31  1  0.25000000  0.95112973  0.63003184  1
  O  O32  1  0.75000000  0.24021659  0.64687637  1
  O  O33  1  0.94837640  0.02023991  0.18664344  1
  O  O34  1  0.75000000  0.40388781  0.34703775  1
  O  O35  1  0.54618191  0.24861916  0.25623542  1
  O  O36  1  0.92757587  0.16507034  0.05472433  1
  O  O37  1  0.75000000  0.09611219  0.84703775  1
  O  O38  1  0.05162360  0.97976009  0.81335656  1
  O  O39  1  0.07457885  0.86224804  0.61795291  1
  O  O40  1  0.75000000  0.54759581  0.46911937  1
  O  O41  1  0.75000000  0.74980117  0.66585858  1
  O  O42  1  0.25000000  0.61207355  0.95565379  1
  O  O43  1  0.95381809  0.25138084  0.75623542  1
  O  O44  1  0.44837640  0.52023991  0.31335656  1
  O  O45  1  0.75000000  0.91832390  0.40900806  1
  O  O46  1  0.92757587  0.33492966  0.55472433  1
  O  O47  1  0.45212683  0.13098603  0.93125802  1
  O  O48  1  0.04618191  0.75138084  0.74376458  1
  O  O49  1  0.94837640  0.47976009  0.68664344  1
  O  O50  1  0.04787317  0.13098603  0.93125802  1
  O  O51  1  0.04618191  0.74861916  0.24376458  1
  O  O52  1  0.95212683  0.63098603  0.56874198  1
  O  O53  1  0.07457885  0.63775196  0.11795291  1
  O  O54  1  0.25000000  0.41832390  0.09099194  1
  O  O55  1  0.57457885  0.13775196  0.38204709  1
  O  O56  1  0.54618191  0.25138084  0.75623542  1
  O  O57  1  0.25000000  0.88792645  0.45565379  1
  O  O58  1  0.25000000  0.59611219  0.65296225  1
  O  O59  1  0.75000000  0.11207355  0.54434621  1
  O  O60  1  0.25000000  0.90388781  0.15296225  1
  O  O61  1  0.42757587  0.83492966  0.94527567  1
  O  O62  1  0.75000000  0.25978341  0.14687637  1
  O  O63  1  0.75000000  0.75019883  0.16585858  1
  O  O64  1  0.42757587  0.66507034  0.44527567  1
  O  O65  1  0.45381809  0.74861916  0.24376458  1
  O  O66  1  0.25000000  0.75978341  0.35312363  1
  O  O67  1  0.25000000  0.04759581  0.03088063  1
  O  O68  1  0.42542115  0.86224804  0.61795291  1
  O  O69  1  0.92542115  0.13775196  0.38204709  1
  O  O70  1  0.07242413  0.83492966  0.94527567  1
  O  O71  1  0.55162360  0.02023991  0.18664344  1
  O  O72  1  0.25000000  0.50170367  0.20077510  1
  O  O73  1  0.45381809  0.75138084  0.74376458  1
  O  O74  1  0.75000000  0.00170367  0.29922490  1
  O  O75  1  0.54787317  0.86901397  0.06874198  1
  O  O76  1  0.75000000  0.49829633  0.79922490  1
  O  O77  1  0.75000000  0.95240419  0.96911937  1
  O  O78  1  0.95212683  0.86901397  0.06874198  1
  O  O79  1  0.04787317  0.36901397  0.43125802  1
  O  O80  1  0.75000000  0.38792645  0.04434621  1
  O  O81  1  0.54787317  0.63098603  0.56874198  1
  O  O82  1  0.25000000  0.99829633  0.70077510  1
  O  O83  1  0.42542115  0.63775196  0.11795291  1
  O  O84  1  0.44837640  0.97976009  0.81335656  1
  O  O85  1  0.25000000  0.24980117  0.83414142  1
  O  O86  1  0.92542115  0.36224804  0.88204709  1
  O  O87  1  0.25000000  0.25019883  0.33414142  1
  O  O88  1  0.57242413  0.33492966  0.55472433  1
  O  O89  1  0.55162360  0.47976009  0.68664344  1
  O  O90  1  0.95381809  0.24861916  0.25623542  1
  O  O91  1  0.05162360  0.52023991  0.31335656  1
  O  O92  1  0.07242413  0.66507034  0.44527567  1
  O  O93  1  0.25000000  0.08167610  0.59099194  1
  O  O94  1  0.25000000  0.45240419  0.53088063  1
  O  O95  1  0.57242413  0.16507034  0.05472433  1
  O  O96  1  0.45212683  0.36901397  0.43125802  1
  O  O97  1  0.57457885  0.36224804  0.88204709  1
  O  O98  1  0.75000000  0.58167610  0.90900806  1
  O  O99  1  0.25000000  0.74021659  0.85312363  1
