# generated using pymatgen
data_LiHo(PO3)4
_symmetry_space_group_name_H-M   'P 1'
_cell_length_a   7.11779909
_cell_length_b   8.94744023
_cell_length_c   8.94131591
_cell_angle_alpha   65.30330948
_cell_angle_beta   66.54500500
_cell_angle_gamma   66.56202236
_symmetry_Int_Tables_number   1
_chemical_formula_structural   LiHo(PO3)4
_chemical_formula_sum   'Li2 Ho2 P8 O24'
_cell_volume   455.93754627
_cell_formula_units_Z   2
loop_
 _symmetry_equiv_pos_site_id
 _symmetry_equiv_pos_as_xyz
  1  'x, y, z'
loop_
 _atom_site_type_symbol
 _atom_site_label
 _atom_site_symmetry_multiplicity
 _atom_site_fract_x
 _atom_site_fract_y
 _atom_site_fract_z
 _atom_site_occupancy
  Li  Li0  1  0.70623102  0.75000000  0.25000000  1
  Li  Li1  1  0.29376898  0.25000000  0.75000000  1
  Ho  Ho2  1  0.20303816  0.75000000  0.25000000  1
  Ho  Ho3  1  0.79696184  0.25000000  0.75000000  1
  P  P4  1  0.31215564  0.61604279  0.65772862  1
  P  P5  1  0.29542116  0.30602588  0.40261895  1
  P  P6  1  0.00406600  0.19397412  0.09738105  1
  P  P7  1  0.99593400  0.80602588  0.90261895  1
  P  P8  1  0.41407294  0.11604279  0.15772862  1
  P  P9  1  0.68784436  0.38395721  0.34227138  1
  P  P10  1  0.58592706  0.88395721  0.84227138  1
  P  P11  1  0.70457884  0.69397412  0.59738105  1
  O  O12  1  0.47087382  0.73410595  0.57817985  1
  O  O13  1  0.56319068  0.07181171  0.79640435  1
  O  O14  1  0.98918211  0.77403495  0.08331490  1
  O  O15  1  0.21684039  0.23410595  0.07817985  1
  O  O16  1  0.17562880  0.68412418  0.53911708  1
  O  O17  1  0.75708207  0.52324803  0.72831165  1
  O  O18  1  0.00864176  0.97675197  0.77168835  1
  O  O19  1  0.60112993  0.18412418  0.03911708  1
  O  O20  1  0.39887007  0.81587582  0.96088292  1
  O  O21  1  0.01081789  0.22596505  0.91668510  1
  O  O22  1  0.17641666  0.65088581  0.83923864  1
  O  O23  1  0.78315961  0.76589405  0.92182015  1
  O  O24  1  0.43140675  0.42818829  0.70359565  1
  O  O25  1  0.84653196  0.72596505  0.41668510  1
  O  O26  1  0.99135824  0.02324803  0.22831165  1
  O  O27  1  0.82437120  0.31587582  0.46088292  1
  O  O28  1  0.43680932  0.92818829  0.20359565  1
  O  O29  1  0.82358334  0.34911419  0.16076136  1
  O  O30  1  0.15346804  0.27403495  0.58331490  1
  O  O31  1  0.66654111  0.84911419  0.66076136  1
  O  O32  1  0.33345889  0.15088581  0.33923864  1
  O  O33  1  0.56859325  0.57181171  0.29640435  1
  O  O34  1  0.24291793  0.47675197  0.27168835  1
  O  O35  1  0.52912618  0.26589405  0.42182015  1
