# generated using pymatgen
data_TePbO3
_symmetry_space_group_name_H-M   'P 1'
_cell_length_a   5.43069423
_cell_length_b   5.43069423
_cell_length_c   12.17689863
_cell_angle_alpha   90.00000000
_cell_angle_beta   90.00000000
_cell_angle_gamma   90.00000000
_symmetry_Int_Tables_number   1
_chemical_formula_structural   TePbO3
_chemical_formula_sum   'Te4 Pb4 O12'
_cell_volume   359.12645004
_cell_formula_units_Z   4
loop_
 _symmetry_equiv_pos_site_id
 _symmetry_equiv_pos_as_xyz
  1  'x, y, z'
loop_
 _atom_site_type_symbol
 _atom_site_label
 _atom_site_symmetry_multiplicity
 _atom_site_fract_x
 _atom_site_fract_y
 _atom_site_fract_z
 _atom_site_occupancy
  Te  Te0  1  0.25027173  0.25513121  0.49015195  1
  Te  Te1  1  0.25513121  0.74972827  0.24015195  1
  Te  Te2  1  0.74972827  0.74486879  0.99015195  1
  Te  Te3  1  0.74486879  0.25027173  0.74015195  1
  Pb  Pb4  1  0.75572978  0.24130128  0.24966175  1
  Pb  Pb5  1  0.24130128  0.24427022  -0.00033825  1
  Pb  Pb6  1  0.24427022  0.75869872  0.74966175  1
  Pb  Pb7  1  0.75869872  0.75572978  0.49966175  1
  O  O8  1  0.39211718  0.02065535  0.58783126  1
  O  O9  1  0.52037885  0.12460887  0.84560212  1
  O  O10  1  0.47962115  0.87539113  0.34560212  1
  O  O11  1  0.12029732  0.06446233  0.20195291  1
  O  O12  1  0.06446233  0.87970268  0.95195291  1
  O  O13  1  0.02065535  0.60788282  0.33783126  1
  O  O14  1  0.12460887  0.47962115  0.59560212  1
  O  O15  1  0.87539113  0.52037885  0.09560212  1
  O  O16  1  0.97934465  0.39211718  0.83783126  1
  O  O17  1  0.60788282  0.97934465  0.08783126  1
  O  O18  1  0.87970268  0.93553767  0.70195291  1
  O  O19  1  0.93553767  0.12029732  0.45195291  1
