# generated using pymatgen
data_Li7Mn2(CoO4)3
_symmetry_space_group_name_H-M   'P 1'
_cell_length_a   2.94635660
_cell_length_b   14.98744304
_cell_length_c   5.07198046
_cell_angle_alpha   96.35234708
_cell_angle_beta   76.03535434
_cell_angle_gamma   86.10170742
_symmetry_Int_Tables_number   1
_chemical_formula_structural   Li7Mn2(CoO4)3
_chemical_formula_sum   'Li7 Mn2 Co3 O12'
_cell_volume   214.97285472
_cell_formula_units_Z   1
loop_
 _symmetry_equiv_pos_site_id
 _symmetry_equiv_pos_as_xyz
  1  'x, y, z'
loop_
 _atom_site_type_symbol
 _atom_site_label
 _atom_site_symmetry_multiplicity
 _atom_site_fract_x
 _atom_site_fract_y
 _atom_site_fract_z
 _atom_site_occupancy
  Li  Li0  1  0.64997965  0.08420848  0.59542230  1
  Li  Li1  1  0.99757674  0.25209013  0.74923476  1
  Li  Li2  1  0.33523045  0.41504209  0.92001741  1
  Li  Li3  1  0.65528167  0.58727103  0.08019680  1
  Li  Li4  1  0.00051946  0.75168083  0.23822364  1
  Li  Li5  1  0.37294502  0.90867109  0.40548565  1
  Li  Li6  1  0.64114604  0.83356480  0.85350944  1
  Mn  Mn7  1  0.00342144  0.99368775  0.00500921  1
  Mn  Mn8  1  0.99454789  0.50126291  0.49953616  1
  Co  Co9  1  0.34896481  0.16767390  0.16187410  1
  Co  Co10  1  0.67582859  0.33355584  0.32859831  1
  Co  Co11  1  0.31516243  0.67464607  0.66957772  1
  O  O12  1  0.37878947  0.03884335  0.25946527  1
  O  O13  1  0.67706668  0.21218062  0.43598002  1
  O  O14  1  0.97526164  0.37848540  0.60628870  1
  O  O15  1  0.31475202  0.54872905  0.77090285  1
  O  O16  1  0.65007743  0.70423971  0.93009175  1
  O  O17  1  0.99339319  0.88319029  0.12826193  1
  O  O18  1  0.01065947  0.12197075  0.89473468  1
  O  O19  1  0.35855781  0.29271457  0.05901226  1
  O  O20  1  0.68044061  0.45447063  0.22181761  1
  O  O21  1  0.01042727  0.62115627  0.39201621  1
  O  O22  1  0.34117208  0.77725747  0.54236518  1
  O  O23  1  0.61879815  0.96340696  0.75237805  1
