# generated using pymatgen
data_SiO2
_symmetry_space_group_name_H-M   'P 1'
_cell_length_a   5.09049107
_cell_length_b   5.09049190
_cell_length_c   8.53296783
_cell_angle_alpha   90.79511951
_cell_angle_beta   90.79511961
_cell_angle_gamma   119.56369172
_symmetry_Int_Tables_number   1
_chemical_formula_structural   SiO2
_chemical_formula_sum   'Si4 O8'
_cell_volume   192.25501358
_cell_formula_units_Z   4
loop_
 _symmetry_equiv_pos_site_id
 _symmetry_equiv_pos_as_xyz
  1  'x, y, z'
loop_
 _atom_site_type_symbol
 _atom_site_label
 _atom_site_symmetry_multiplicity
 _atom_site_fract_x
 _atom_site_fract_y
 _atom_site_fract_z
 _atom_site_occupancy
  Si  Si0  1  0.23099342  0.61742981  0.28805215  1
  Si  Si1  1  0.56438495  0.28266290  0.16246795  1
  Si  Si2  1  0.61742981  0.23099342  0.78805215  1
  Si  Si3  1  0.28266290  0.56438495  0.66246795  1
  O  O4  1  0.57846262  0.24252890  0.97519280  1
  O  O5  1  0.38967953  0.31730249  0.69588155  1
  O  O6  1  0.53756441  0.89161815  0.73373596  1
  O  O7  1  0.24252890  0.57846262  0.47519280  1
  O  O8  1  0.89161815  0.53756441  0.23373596  1
  O  O9  1  0.46795922  0.96501360  0.24696959  1
  O  O10  1  0.31730249  0.38967953  0.19588155  1
  O  O11  1  0.96501360  0.46795922  0.74696959  1
