# generated using pymatgen
data_Ba2Zn2ClF7
_symmetry_space_group_name_H-M   'P 1'
_cell_length_a   5.89017971
_cell_length_b   7.83134500
_cell_length_c   9.05903069
_cell_angle_alpha   106.81011263
_cell_angle_beta   90.00000000
_cell_angle_gamma   90.00000000
_symmetry_Int_Tables_number   1
_chemical_formula_structural   Ba2Zn2ClF7
_chemical_formula_sum   'Ba4 Zn4 Cl2 F14'
_cell_volume   400.01878539
_cell_formula_units_Z   2
loop_
 _symmetry_equiv_pos_site_id
 _symmetry_equiv_pos_as_xyz
  1  'x, y, z'
loop_
 _atom_site_type_symbol
 _atom_site_label
 _atom_site_symmetry_multiplicity
 _atom_site_fract_x
 _atom_site_fract_y
 _atom_site_fract_z
 _atom_site_occupancy
  Ba  Ba0  1  0.75000000  0.66752732  0.41262606  1
  Ba  Ba1  1  0.25000000  0.30379087  0.07438015  1
  Ba  Ba2  1  0.75000000  0.69620913  0.92561985  1
  Ba  Ba3  1  0.25000000  0.33247268  0.58737394  1
  Zn  Zn4  1  0.25000000  0.81764888  0.17458200  1
  Zn  Zn5  1  0.75000000  0.17271101  0.26609547  1
  Zn  Zn6  1  0.75000000  0.18235112  0.82541800  1
  Zn  Zn7  1  0.25000000  0.82728899  0.73390453  1
  Cl  Cl8  1  0.25000000  0.88208064  0.47027017  1
  Cl  Cl9  1  0.75000000  0.11791936  0.52972983  1
  F  F10  1  0.99862001  0.99493065  0.17169687  1
  F  F11  1  0.49792660  0.63841565  0.65450912  1
  F  F12  1  0.25000000  0.74605841  0.93374171  1
  F  F13  1  0.50137999  0.99493065  0.17169687  1
  F  F14  1  0.75000000  0.25394159  0.06625829  1
  F  F15  1  0.00137999  0.00506935  0.82830313  1
  F  F16  1  0.00207340  0.63841565  0.65450912  1
  F  F17  1  0.49322090  0.62949708  0.16074807  1
  F  F18  1  0.50207340  0.36158435  0.34549088  1
  F  F19  1  0.99792660  0.36158435  0.34549088  1
  F  F20  1  0.50677910  0.37050292  0.83925193  1
  F  F21  1  0.00677910  0.62949708  0.16074807  1
  F  F22  1  0.99322090  0.37050292  0.83925193  1
  F  F23  1  0.49862001  0.00506935  0.82830313  1
