# generated using pymatgen
data_Ta2Bi4Br7O2
_symmetry_space_group_name_H-M   'P 1'
_cell_length_a   14.99370288
_cell_length_b   14.99370288
_cell_length_c   18.52690977
_cell_angle_alpha   90.00000000
_cell_angle_beta   90.00000000
_cell_angle_gamma   90.00000000
_symmetry_Int_Tables_number   1
_chemical_formula_structural   Ta2Bi4Br7O2
_chemical_formula_sum   'Ta16 Bi32 Br56 O16'
_cell_volume   4165.05544769
_cell_formula_units_Z   8
loop_
 _symmetry_equiv_pos_site_id
 _symmetry_equiv_pos_as_xyz
  1  'x, y, z'
loop_
 _atom_site_type_symbol
 _atom_site_label
 _atom_site_symmetry_multiplicity
 _atom_site_fract_x
 _atom_site_fract_y
 _atom_site_fract_z
 _atom_site_occupancy
  Ta  Ta0  1  0.14889243  0.38093725  0.50000000  1
  Ta  Ta1  1  0.00000000  0.50000000  0.13697511  1
  Ta  Ta2  1  0.50000000  0.00000000  0.36302489  1
  Ta  Ta3  1  0.50000000  0.00000000  0.13697511  1
  Ta  Ta4  1  0.88093725  0.64889243  0.00000000  1
  Ta  Ta5  1  0.00000000  0.50000000  0.63697511  1
  Ta  Ta6  1  0.61906275  0.14889243  0.50000000  1
  Ta  Ta7  1  0.38093725  0.85110757  0.50000000  1
  Ta  Ta8  1  0.50000000  0.00000000  0.86302489  1
  Ta  Ta9  1  0.35110757  0.88093725  0.00000000  1
  Ta  Ta10  1  0.00000000  0.50000000  0.86302489  1
  Ta  Ta11  1  0.50000000  0.00000000  0.63697511  1
  Ta  Ta12  1  0.11906275  0.35110757  0.00000000  1
  Ta  Ta13  1  0.00000000  0.50000000  0.36302489  1
  Ta  Ta14  1  0.85110757  0.61906275  0.50000000  1
  Ta  Ta15  1  0.64889243  0.11906275  0.00000000  1
  Bi  Bi16  1  0.90406274  0.88887358  0.33160814  1
  Bi  Bi17  1  0.00861281  0.85309421  0.81371394  1
  Bi  Bi18  1  0.38887358  0.40406274  0.83160814  1
  Bi  Bi19  1  0.11112642  0.90406274  0.33160814  1
  Bi  Bi20  1  0.00861281  0.85309421  0.18628606  1
  Bi  Bi21  1  0.49138719  0.35309421  0.31371394  1
  Bi  Bi22  1  0.64690579  0.49138719  0.31371394  1
  Bi  Bi23  1  0.11112642  0.90406274  0.66839186  1
  Bi  Bi24  1  0.99138719  0.14690579  0.18628606  1
  Bi  Bi25  1  0.85309421  0.99138719  0.18628606  1
  Bi  Bi26  1  0.50861281  0.64690579  0.31371394  1
  Bi  Bi27  1  0.09593726  0.11112642  0.66839186  1
  Bi  Bi28  1  0.90406274  0.88887358  0.66839186  1
  Bi  Bi29  1  0.85309421  0.99138719  0.81371394  1
  Bi  Bi30  1  0.38887358  0.40406274  0.16839186  1
  Bi  Bi31  1  0.40406274  0.61112642  0.16839186  1
  Bi  Bi32  1  0.14690579  0.00861281  0.81371394  1
  Bi  Bi33  1  0.88887358  0.09593726  0.33160814  1
  Bi  Bi34  1  0.64690579  0.49138719  0.68628606  1
  Bi  Bi35  1  0.14690579  0.00861281  0.18628606  1
  Bi  Bi36  1  0.40406274  0.61112642  0.83160814  1
  Bi  Bi37  1  0.61112642  0.59593726  0.16839186  1
  Bi  Bi38  1  0.59593726  0.38887358  0.83160814  1
  Bi  Bi39  1  0.61112642  0.59593726  0.83160814  1
  Bi  Bi40  1  0.59593726  0.38887358  0.16839186  1
  Bi  Bi41  1  0.50861281  0.64690579  0.68628606  1
  Bi  Bi42  1  0.35309421  0.50861281  0.31371394  1
  Bi  Bi43  1  0.09593726  0.11112642  0.33160814  1
  Bi  Bi44  1  0.49138719  0.35309421  0.68628606  1
  Bi  Bi45  1  0.99138719  0.14690579  0.81371394  1
  Bi  Bi46  1  0.88887358  0.09593726  0.66839186  1
  Bi  Bi47  1  0.35309421  0.50861281  0.68628606  1
  Br  Br48  1  0.61165958  0.87566699  0.85269675  1
  Br  Br49  1  0.87566699  0.38834042  0.14730325  1
  Br  Br50  1  0.24433712  0.95422563  0.50000000  1
  Br  Br51  1  0.58433922  0.08433922  0.75000000  1
  Br  Br52  1  0.37566699  0.11165958  0.35269675  1
  Br  Br53  1  0.01427354  0.75253427  0.00000000  1
  Br  Br54  1  0.45422563  0.74433712  0.00000000  1
  Br  Br55  1  0.62433301  0.88834042  0.64730325  1
  Br  Br56  1  0.41566078  0.91566078  0.75000000  1
  Br  Br57  1  0.25809793  0.80953930  0.10063114  1
  Br  Br58  1  0.74190207  0.19046070  0.10063114  1
  Br  Br59  1  0.25253427  0.51427354  0.50000000  1
  Br  Br60  1  0.54577437  0.25566288  0.00000000  1
  Br  Br61  1  0.04577437  0.24433712  0.50000000  1
  Br  Br62  1  0.61165958  0.87566699  0.14730325  1
  Br  Br63  1  0.69046070  0.24190207  0.60063114  1
  Br  Br64  1  0.75809793  0.69046070  0.39936886  1
  Br  Br65  1  0.24190207  0.30953930  0.60063114  1
  Br  Br66  1  0.74746573  0.48572646  0.50000000  1
  Br  Br67  1  0.11165958  0.62433301  0.64730325  1
  Br  Br68  1  0.88834042  0.37566699  0.35269675  1
  Br  Br69  1  0.30953930  0.75809793  0.39936886  1
  Br  Br70  1  0.11165958  0.62433301  0.35269675  1
  Br  Br71  1  0.25566288  0.45422563  0.00000000  1
  Br  Br72  1  0.74190207  0.19046070  0.89936886  1
  Br  Br73  1  0.91566078  0.58433922  0.75000000  1
  Br  Br74  1  0.88834042  0.37566699  0.64730325  1
  Br  Br75  1  0.80953930  0.74190207  0.89936886  1
  Br  Br76  1  0.98572646  0.24746573  0.00000000  1
  Br  Br77  1  0.19046070  0.25809793  0.89936886  1
  Br  Br78  1  0.41566078  0.91566078  0.25000000  1
  Br  Br79  1  0.75253427  0.98572646  0.00000000  1
  Br  Br80  1  0.58433922  0.08433922  0.25000000  1
  Br  Br81  1  0.91566078  0.58433922  0.25000000  1
  Br  Br82  1  0.24746573  0.01427354  0.00000000  1
  Br  Br83  1  0.25809793  0.80953930  0.89936886  1
  Br  Br84  1  0.37566699  0.11165958  0.64730325  1
  Br  Br85  1  0.08433922  0.41566078  0.25000000  1
  Br  Br86  1  0.62433301  0.88834042  0.35269675  1
  Br  Br87  1  0.74433712  0.54577437  0.00000000  1
  Br  Br88  1  0.19046070  0.25809793  0.10063114  1
  Br  Br89  1  0.75809793  0.69046070  0.60063114  1
  Br  Br90  1  0.87566699  0.38834042  0.85269675  1
  Br  Br91  1  0.48572646  0.25253427  0.50000000  1
  Br  Br92  1  0.12433301  0.61165958  0.14730325  1
  Br  Br93  1  0.69046070  0.24190207  0.39936886  1
  Br  Br94  1  0.95422563  0.75566288  0.50000000  1
  Br  Br95  1  0.80953930  0.74190207  0.10063114  1
  Br  Br96  1  0.38834042  0.12433301  0.14730325  1
  Br  Br97  1  0.30953930  0.75809793  0.60063114  1
  Br  Br98  1  0.08433922  0.41566078  0.75000000  1
  Br  Br99  1  0.24190207  0.30953930  0.39936886  1
  Br  Br100  1  0.38834042  0.12433301  0.85269675  1
  Br  Br101  1  0.12433301  0.61165958  0.85269675  1
  Br  Br102  1  0.51427354  0.74746573  0.50000000  1
  Br  Br103  1  0.75566288  0.04577437  0.50000000  1
  O  O104  1  0.06320809  0.42608012  0.92646798  1
  O  O105  1  0.93679191  0.57391988  0.92646798  1
  O  O106  1  0.43679191  0.92608012  0.42646798  1
  O  O107  1  0.93679191  0.57391988  0.07353202  1
  O  O108  1  0.92608012  0.56320809  0.57353202  1
  O  O109  1  0.07391988  0.43679191  0.42646798  1
  O  O110  1  0.56320809  0.07391988  0.57353202  1
  O  O111  1  0.43679191  0.92608012  0.57353202  1
  O  O112  1  0.92608012  0.56320809  0.42646798  1
  O  O113  1  0.56320809  0.07391988  0.42646798  1
  O  O114  1  0.42608012  0.93679191  0.92646798  1
  O  O115  1  0.42608012  0.93679191  0.07353202  1
  O  O116  1  0.07391988  0.43679191  0.57353202  1
  O  O117  1  0.57391988  0.06320809  0.07353202  1
  O  O118  1  0.57391988  0.06320809  0.92646798  1
  O  O119  1  0.06320809  0.42608012  0.07353202  1
