# generated using pymatgen
data_Li10Si2PbO10
_symmetry_space_group_name_H-M   'P 1'
_cell_length_a   5.19441622
_cell_length_b   6.14533961
_cell_length_c   15.39875796
_cell_angle_alpha   101.50898095
_cell_angle_beta   99.50665163
_cell_angle_gamma   89.99931973
_symmetry_Int_Tables_number   1
_chemical_formula_structural   Li10Si2PbO10
_chemical_formula_sum   'Li20 Si4 Pb2 O20'
_cell_volume   474.77626214
_cell_formula_units_Z   2
loop_
 _symmetry_equiv_pos_site_id
 _symmetry_equiv_pos_as_xyz
  1  'x, y, z'
loop_
 _atom_site_type_symbol
 _atom_site_label
 _atom_site_symmetry_multiplicity
 _atom_site_fract_x
 _atom_site_fract_y
 _atom_site_fract_z
 _atom_site_occupancy
  Li  Li0  1  0.96702470  0.08660631  0.73655842  1
  Li  Li1  1  0.78838966  0.95131434  0.38945472  1
  Li  Li2  1  0.96704884  0.64994611  0.73655653  1
  Li  Li3  1  0.13611605  0.73064539  0.46132225  1
  Li  Li4  1  0.23127455  0.77870380  0.12932797  1
  Li  Li5  1  0.86388395  0.26935461  0.53867775  1
  Li  Li6  1  0.03297530  0.91339369  0.26344158  1
  Li  Li7  1  0.51432779  0.86756524  0.73517110  1
  Li  Li8  1  0.78839068  0.43813984  0.38945182  1
  Li  Li9  1  0.48567221  0.13243476  0.26482890  1
  Li  Li10  1  0.42052662  0.67526431  0.35059402  1
  Li  Li11  1  0.23128207  0.35063951  0.12933640  1
  Li  Li12  1  0.75980274  0.50774175  0.01550006  1
  Li  Li13  1  0.21161034  0.04868566  0.61054528  1
  Li  Li14  1  0.57947338  0.32473569  0.64940598  1
  Li  Li15  1  0.76872545  0.22129620  0.87067203  1
  Li  Li16  1  0.76871793  0.64936049  0.87066360  1
  Li  Li17  1  0.24019726  0.49225825  0.98449994  1
  Li  Li18  1  0.03295116  0.35005389  0.26344347  1
  Li  Li19  1  0.21160932  0.56186016  0.61054818  1
  Si  Si20  1  0.30498730  0.39950256  0.79904800  1
  Si  Si21  1  0.69501270  0.60049744  0.20095200  1
  Si  Si22  1  0.30900953  0.21897594  0.43793521  1
  Si  Si23  1  0.69099047  0.78102406  0.56206479  1
  Pb  Pb24  1  0.21006787  0.96147045  0.92296479  1
  Pb  Pb25  1  0.78993213  0.03852955  0.07703521  1
  O  O26  1  0.49566953  0.44943724  0.89884748  1
  O  O27  1  0.17156966  0.41880651  0.38776944  1
  O  O28  1  0.73607036  0.72796571  0.45595957  1
  O  O29  1  0.99073922  0.40460600  0.80925444  1
  O  O30  1  0.00000320  0.74939065  -0.00000145  1
  O  O31  1  0.17157401  0.96898714  0.38777258  1
  O  O32  1  0.99999680  0.25060935  1.00000145  1
  O  O33  1  0.50433047  0.55056276  0.10115252  1
  O  O34  1  0.38186307  0.78673161  0.57348888  1
  O  O35  1  0.35956456  0.58769390  0.74114966  1
  O  O36  1  0.64042816  0.84657997  0.25885132  1
  O  O37  1  0.82842599  0.03101286  0.61222742  1
  O  O38  1  0.35957184  0.15342003  0.74114868  1
  O  O39  1  0.61813693  0.21326839  0.42651112  1
  O  O40  1  0.64043544  0.41230610  0.25885034  1
  O  O41  1  0.26392964  0.27203429  0.54404043  1
  O  O42  1  0.85804521  0.90804243  0.81613019  1
  O  O43  1  0.82843034  0.58119349  0.61223056  1
  O  O44  1  0.00926078  0.59539400  0.19074556  1
  O  O45  1  0.14195479  0.09195757  0.18386981  1
