# generated using pymatgen
data_Al2Tl3(PO4)3
_symmetry_space_group_name_H-M   'P 1'
_cell_length_a   6.22303930
_cell_length_b   10.54622139
_cell_length_c   18.06112031
_cell_angle_alpha   90.00000000
_cell_angle_beta   90.00000000
_cell_angle_gamma   90.00000000
_symmetry_Int_Tables_number   1
_chemical_formula_structural   Al2Tl3(PO4)3
_chemical_formula_sum   'Al8 Tl12 P12 O48'
_cell_volume   1185.34320163
_cell_formula_units_Z   4
loop_
 _symmetry_equiv_pos_site_id
 _symmetry_equiv_pos_as_xyz
  1  'x, y, z'
loop_
 _atom_site_type_symbol
 _atom_site_label
 _atom_site_symmetry_multiplicity
 _atom_site_fract_x
 _atom_site_fract_y
 _atom_site_fract_z
 _atom_site_occupancy
  Al  Al0  1  0.23958962  0.58298253  0.45435482  1
  Al  Al1  1  0.24571417  0.58307233  0.78866914  1
  Al  Al2  1  0.26041038  0.08298253  0.95435482  1
  Al  Al3  1  0.75428583  0.41692767  0.28866914  1
  Al  Al4  1  0.73958962  0.91701747  0.45435482  1
  Al  Al5  1  0.76041038  0.41701747  0.95435482  1
  Al  Al6  1  0.74571417  0.91692767  0.78866914  1
  Al  Al7  1  0.25428583  0.08307233  0.28866914  1
  Tl  Tl8  1  0.76180715  0.34191427  0.51286461  1
  Tl  Tl9  1  0.23107833  0.35943446  0.12132339  1
  Tl  Tl10  1  0.26180715  0.15808573  0.51286461  1
  Tl  Tl11  1  0.26892167  0.85943446  0.62132339  1
  Tl  Tl12  1  0.76021144  0.34018211  0.72952251  1
  Tl  Tl13  1  0.23978856  0.65981789  0.22952251  1
  Tl  Tl14  1  0.23819285  0.65808573  0.01286461  1
  Tl  Tl15  1  0.26021144  0.15981789  0.72952251  1
  Tl  Tl16  1  0.73819285  0.84191427  0.01286461  1
  Tl  Tl17  1  0.76892167  0.64056554  0.62132339  1
  Tl  Tl18  1  0.73978856  0.84018211  0.22952251  1
  Tl  Tl19  1  0.73107833  0.14056554  0.12132339  1
  P  P20  1  0.24561790  0.87266693  0.41181428  1
  P  P21  1  0.23886667  0.99376014  0.12166286  1
  P  P22  1  0.25438210  0.37266693  0.91181428  1
  P  P23  1  0.74561790  0.62733307  0.41181428  1
  P  P24  1  0.26113333  0.49376014  0.62166286  1
  P  P25  1  0.74769304  0.12698344  0.33118360  1
  P  P26  1  0.25230696  0.87301656  0.83118360  1
  P  P27  1  0.75230696  0.62698344  0.83118360  1
  P  P28  1  0.24769304  0.37301656  0.33118360  1
  P  P29  1  0.76113333  0.00623986  0.62166286  1
  P  P30  1  0.73886667  0.50623986  0.12166286  1
  P  P31  1  0.75438210  0.12733307  0.91181428  1
  O  O32  1  0.95735593  0.07456818  0.94953147  1
  O  O33  1  0.23549968  0.72753602  0.40041193  1
  O  O34  1  0.24330611  0.08700047  0.05402193  1
  O  O35  1  0.06736488  0.40951163  0.96455337  1
  O  O36  1  0.03104026  0.91396595  0.12093916  1
  O  O37  1  0.78535926  0.56992550  0.90948245  1
  O  O38  1  0.43919340  0.91009565  0.77861013  1
  O  O39  1  0.55460528  0.08753414  0.62260442  1
  O  O40  1  0.21464074  0.43007450  0.40948245  1
  O  O41  1  0.71464074  0.06992550  0.40948245  1
  O  O42  1  0.25669389  0.58700047  0.55402193  1
  O  O43  1  0.46895974  0.41396595  0.62093916  1
  O  O44  1  0.77875517  0.56983947  0.33367957  1
  O  O45  1  0.53104026  0.58603405  0.12093916  1
  O  O46  1  0.72124483  0.06983947  0.83367957  1
  O  O47  1  0.56080660  0.08990435  0.27861013  1
  O  O48  1  0.45094606  0.42587265  0.29360745  1
  O  O49  1  0.04264407  0.92543182  0.44953147  1
  O  O50  1  0.22124483  0.43016053  0.83367957  1
  O  O51  1  0.06080660  0.41009565  0.27861013  1
  O  O52  1  0.45735593  0.42543182  0.94953147  1
  O  O53  1  0.56736488  0.09048837  0.96455337  1
  O  O54  1  0.94539472  0.58753414  0.12260442  1
  O  O55  1  0.76450032  0.27246398  0.90041193  1
  O  O56  1  0.95094606  0.07412735  0.29360745  1
  O  O57  1  0.26450032  0.22753602  0.90041193  1
  O  O58  1  0.23715597  0.08766610  0.18898651  1
  O  O59  1  0.54905394  0.57412735  0.79360745  1
  O  O60  1  0.74210987  0.77219196  0.84241642  1
  O  O61  1  0.75669389  0.91299953  0.55402193  1
  O  O62  1  0.26284403  0.58766610  0.68898651  1
  O  O63  1  0.24210987  0.72780804  0.84241642  1
  O  O64  1  0.25789013  0.22780804  0.34241642  1
  O  O65  1  0.73549968  0.77246398  0.40041193  1
  O  O66  1  0.54264407  0.57456818  0.44953147  1
  O  O67  1  0.43263512  0.90951163  0.46455337  1
  O  O68  1  0.44539472  0.91246586  0.12260442  1
  O  O69  1  0.96895974  0.08603405  0.62093916  1
  O  O70  1  0.04905394  0.92587265  0.79360745  1
  O  O71  1  0.05460528  0.41246586  0.62260442  1
  O  O72  1  0.73715597  0.41233390  0.18898651  1
  O  O73  1  0.93263512  0.59048837  0.46455337  1
  O  O74  1  0.28535926  0.93007450  0.90948245  1
  O  O75  1  0.75789013  0.27219196  0.34241642  1
  O  O76  1  0.93919340  0.58990435  0.77861013  1
  O  O77  1  0.27875517  0.93016053  0.33367957  1
  O  O78  1  0.74330611  0.41299953  0.05402193  1
  O  O79  1  0.76284403  0.91233390  0.68898651  1
