# generated using pymatgen
data_Pb2CO3F2
_symmetry_space_group_name_H-M   'P 1'
_cell_length_a   7.00141762
_cell_length_b   8.17462591
_cell_length_c   8.38976058
_cell_angle_alpha   90.00000000
_cell_angle_beta   90.00000000
_cell_angle_gamma   90.00000000
_symmetry_Int_Tables_number   1
_chemical_formula_structural   Pb2CO3F2
_chemical_formula_sum   'Pb8 C4 O12 F8'
_cell_volume   480.17930436
_cell_formula_units_Z   4
loop_
 _symmetry_equiv_pos_site_id
 _symmetry_equiv_pos_as_xyz
  1  'x, y, z'
loop_
 _atom_site_type_symbol
 _atom_site_label
 _atom_site_symmetry_multiplicity
 _atom_site_fract_x
 _atom_site_fract_y
 _atom_site_fract_z
 _atom_site_occupancy
  Pb  Pb0  1  0.55331299  0.31663196  0.34118018  1
  Pb  Pb1  1  0.44668701  0.81663196  0.15881982  1
  Pb  Pb2  1  0.05331299  0.31663196  0.65881982  1
  Pb  Pb3  1  0.44668701  0.68336804  0.65881982  1
  Pb  Pb4  1  0.05331299  0.18336804  0.15881982  1
  Pb  Pb5  1  0.94668701  0.81663196  0.84118018  1
  Pb  Pb6  1  0.55331299  0.18336804  0.84118018  1
  Pb  Pb7  1  0.94668701  0.68336804  0.34118018  1
  C  C8  1  0.25000000  0.50000000  0.01963460  1
  C  C9  1  0.25000000  0.00000000  0.51963460  1
  C  C10  1  0.75000000  0.00000000  0.48036540  1
  C  C11  1  0.75000000  0.50000000  0.98036540  1
  O  O12  1  0.75000000  0.00000000  0.32544814  1
  O  O13  1  0.25000000  0.50000000  0.17455186  1
  O  O14  1  0.80575648  0.62986527  0.05762168  1
  O  O15  1  0.30575648  0.87013473  0.44237832  1
  O  O16  1  0.69424352  0.12986527  0.55762168  1
  O  O17  1  0.75000000  0.50000000  0.82544814  1
  O  O18  1  0.19424352  0.37013473  0.94237832  1
  O  O19  1  0.69424352  0.37013473  0.05762168  1
  O  O20  1  0.80575648  0.87013473  0.55762168  1
  O  O21  1  0.25000000  0.00000000  0.67455186  1
  O  O22  1  0.30575648  0.62986527  0.94237832  1
  O  O23  1  0.19424352  0.12986527  0.44237832  1
  F  F24  1  0.10098651  0.88717270  0.11337689  1
  F  F25  1  0.60098651  0.88717270  0.88662311  1
  F  F26  1  0.89901349  0.11282730  0.88662311  1
  F  F27  1  0.39901349  0.38717270  0.61337689  1
  F  F28  1  0.60098651  0.61282730  0.38662311  1
  F  F29  1  0.89901349  0.38717270  0.38662311  1
  F  F30  1  0.10098651  0.61282730  0.61337689  1
  F  F31  1  0.39901349  0.11282730  0.11337689  1
