# generated using pymatgen
data_Na2TiSiO5
_symmetry_space_group_name_H-M   'P 1'
_cell_length_a   4.86754736
_cell_length_b   9.23820014
_cell_length_c   9.96300614
_cell_angle_alpha   90.00000000
_cell_angle_beta   90.00000000
_cell_angle_gamma   90.00000000
_symmetry_Int_Tables_number   1
_chemical_formula_structural   Na2TiSiO5
_chemical_formula_sum   'Na8 Ti4 Si4 O20'
_cell_volume   448.01025019
_cell_formula_units_Z   4
loop_
 _symmetry_equiv_pos_site_id
 _symmetry_equiv_pos_as_xyz
  1  'x, y, z'
loop_
 _atom_site_type_symbol
 _atom_site_label
 _atom_site_symmetry_multiplicity
 _atom_site_fract_x
 _atom_site_fract_y
 _atom_site_fract_z
 _atom_site_occupancy
  Na  Na0  1  0.00516022  0.25134714  0.49616266  1
  Na  Na1  1  0.00652851  0.50000000  0.24655845  1
  Na  Na2  1  0.99347149  0.50000000  0.74655845  1
  Na  Na3  1  0.40589258  0.00000000  0.99459744  1
  Na  Na4  1  0.99483978  0.25134714  0.99616266  1
  Na  Na5  1  0.99483978  0.74865286  0.99616266  1
  Na  Na6  1  0.59410742  0.00000000  0.49459744  1
  Na  Na7  1  0.00516022  0.74865286  0.49616266  1
  Ti  Ti8  1  0.53285811  0.50000000  0.00109339  1
  Ti  Ti9  1  0.97367798  0.00000000  0.21485551  1
  Ti  Ti10  1  0.02632202  0.00000000  0.71485551  1
  Ti  Ti11  1  0.46714189  0.50000000  0.50109339  1
  Si  Si12  1  0.50441083  0.74996306  0.25063458  1
  Si  Si13  1  0.49558917  0.25003694  0.75063458  1
  Si  Si14  1  0.50441083  0.25003694  0.25063458  1
  Si  Si15  1  0.49558917  0.74996306  0.75063458  1
  O  O16  1  0.63922070  0.64752601  0.86598329  1
  O  O17  1  0.25124240  0.14745333  0.81595197  1
  O  O18  1  0.74052678  0.14918128  0.68532386  1
  O  O19  1  0.82176956  0.50000000  0.50189780  1
  O  O20  1  0.64671090  0.35342500  0.13580111  1
  O  O21  1  0.35328910  0.35342500  0.63580111  1
  O  O22  1  0.63922070  0.35247399  0.86598329  1
  O  O23  1  0.25124240  0.85254667  0.81595197  1
  O  O24  1  0.64671090  0.64657500  0.13580111  1
  O  O25  1  0.35328910  0.64657500  0.63580111  1
  O  O26  1  0.85076862  0.00000000  0.05288249  1
  O  O27  1  0.25947322  0.85081872  0.18532386  1
  O  O28  1  0.36077930  0.64752601  0.36598329  1
  O  O29  1  0.25947322  0.14918128  0.18532386  1
  O  O30  1  0.74875760  0.14745333  0.31595197  1
  O  O31  1  0.74052678  0.85081872  0.68532386  1
  O  O32  1  0.14923138  0.00000000  0.55288249  1
  O  O33  1  0.74875760  0.85254667  0.31595197  1
  O  O34  1  0.17823044  0.50000000  0.00189780  1
  O  O35  1  0.36077930  0.35247399  0.36598329  1
