# generated using pymatgen
data_In2GaBiS6
_symmetry_space_group_name_H-M   'P 1'
_cell_length_a   3.84281184
_cell_length_b   11.38224496
_cell_length_c   12.46611404
_cell_angle_alpha   116.74440269
_cell_angle_beta   90.00000000
_cell_angle_gamma   90.00000000
_symmetry_Int_Tables_number   1
_chemical_formula_structural   In2GaBiS6
_chemical_formula_sum   'In4 Ga2 Bi2 S12'
_cell_volume   486.93472247
_cell_formula_units_Z   2
loop_
 _symmetry_equiv_pos_site_id
 _symmetry_equiv_pos_as_xyz
  1  'x, y, z'
loop_
 _atom_site_type_symbol
 _atom_site_label
 _atom_site_symmetry_multiplicity
 _atom_site_fract_x
 _atom_site_fract_y
 _atom_site_fract_z
 _atom_site_occupancy
  In  In0  1  0.25000000  0.74226067  0.77629365  1
  In  In1  1  0.75000000  0.25773933  0.22370635  1
  In  In2  1  0.75000000  0.05110592  0.64314169  1
  In  In3  1  0.25000000  0.94889408  0.35685831  1
  Ga  Ga4  1  0.25000000  0.16843813  0.90632155  1
  Ga  Ga5  1  0.75000000  0.83156187  0.09367845  1
  Bi  Bi6  1  0.75000000  0.41009465  0.61241715  1
  Bi  Bi7  1  0.25000000  0.58990535  0.38758285  1
  S  S8  1  0.75000000  0.03812263  0.26447323  1
  S  S9  1  0.25000000  0.15536918  0.56765630  1
  S  S10  1  0.75000000  0.64120752  0.60330727  1
  S  S11  1  0.25000000  0.73835376  0.13150107  1
  S  S12  1  0.75000000  0.26164624  0.86849893  1
  S  S13  1  0.25000000  0.96187737  0.73552677  1
  S  S14  1  0.25000000  0.35879248  0.39669273  1
  S  S15  1  0.75000000  0.85706250  0.92294678  1
  S  S16  1  0.25000000  0.14293750  0.07705322  1
  S  S17  1  0.75000000  0.84463082  0.43234370  1
  S  S18  1  0.25000000  0.51339397  0.77859028  1
  S  S19  1  0.75000000  0.48660603  0.22140972  1
