# generated using pymatgen
data_K2Cu3(SeO3)4
_symmetry_space_group_name_H-M   'P 1'
_cell_length_a   5.50064672
_cell_length_b   7.48346813
_cell_length_c   8.57586017
_cell_angle_alpha   96.21050017
_cell_angle_beta   108.39239757
_cell_angle_gamma   93.18858355
_symmetry_Int_Tables_number   1
_chemical_formula_structural   K2Cu3(SeO3)4
_chemical_formula_sum   'K2 Cu3 Se4 O12'
_cell_volume   331.50640192
_cell_formula_units_Z   1
loop_
 _symmetry_equiv_pos_site_id
 _symmetry_equiv_pos_as_xyz
  1  'x, y, z'
loop_
 _atom_site_type_symbol
 _atom_site_label
 _atom_site_symmetry_multiplicity
 _atom_site_fract_x
 _atom_site_fract_y
 _atom_site_fract_z
 _atom_site_occupancy
  K  K0  1  0.84774644  0.41625779  0.70035122  1
  K  K1  1  0.15225356  0.58374221  0.29964878  1
  Cu  Cu2  1  0.59923891  0.25176378  0.21862505  1
  Cu  Cu3  1  0.40076109  0.74823622  0.78137495  1
  Cu  Cu4  1  0.00000000  0.00000000  0.00000000  1
  Se  Se5  1  0.42422964  0.18546666  0.87059753  1
  Se  Se6  1  0.19523975  0.13573233  0.41253757  1
  Se  Se7  1  0.80476025  0.86426767  0.58746243  1
  Se  Se8  1  0.57577036  0.81453334  0.12940247  1
  O  O9  1  0.55769000  0.72336092  0.60717763  1
  O  O10  1  0.72473547  0.23754159  0.02777956  1
  O  O11  1  0.94576310  0.27349495  0.38394084  1
  O  O12  1  0.37248988  0.36912224  0.77349235  1
  O  O13  1  0.88721982  0.02873019  0.75961523  1
  O  O14  1  0.62751012  0.63087776  0.22650765  1
  O  O15  1  0.05423690  0.72650505  0.61605916  1
  O  O16  1  0.27526453  0.76245841  0.97222044  1
  O  O17  1  0.73174858  0.79028894  0.97151031  1
  O  O18  1  0.26825142  0.20971106  0.02848969  1
  O  O19  1  0.44231000  0.27663908  0.39282237  1
  O  O20  1  0.11278018  0.97126981  0.24038477  1
