# generated using pymatgen
data_Na10Be4Si4O17
_symmetry_space_group_name_H-M   'P 1'
_cell_length_a   7.35005412
_cell_length_b   7.35005412
_cell_length_c   7.35005412
_cell_angle_alpha   90.00000000
_cell_angle_beta   90.00000000
_cell_angle_gamma   90.00000000
_symmetry_Int_Tables_number   1
_chemical_formula_structural   Na10Be4Si4O17
_chemical_formula_sum   'Na10 Be4 Si4 O17'
_cell_volume   397.07414616
_cell_formula_units_Z   1
loop_
 _symmetry_equiv_pos_site_id
 _symmetry_equiv_pos_as_xyz
  1  'x, y, z'
loop_
 _atom_site_type_symbol
 _atom_site_label
 _atom_site_symmetry_multiplicity
 _atom_site_fract_x
 _atom_site_fract_y
 _atom_site_fract_z
 _atom_site_occupancy
  Na  Na0  1  0.34082571  0.65917429  0.34082571  1
  Na  Na1  1  0.65917429  0.65917429  0.65917429  1
  Na  Na2  1  0.00000000  0.00000000  0.50000000  1
  Na  Na3  1  0.65917429  0.34082571  0.34082571  1
  Na  Na4  1  0.50000000  0.50000000  0.00000000  1
  Na  Na5  1  0.34082571  0.34082571  0.65917429  1
  Na  Na6  1  0.00000000  0.50000000  0.50000000  1
  Na  Na7  1  0.00000000  0.50000000  0.00000000  1
  Na  Na8  1  0.50000000  0.00000000  0.50000000  1
  Na  Na9  1  0.50000000  0.00000000  0.00000000  1
  Be  Be10  1  0.86746320  0.86746320  0.86746320  1
  Be  Be11  1  0.13253680  0.86746320  0.13253680  1
  Be  Be12  1  0.86746320  0.13253680  0.13253680  1
  Be  Be13  1  0.13253680  0.13253680  0.86746320  1
  Si  Si14  1  0.78018584  0.78018584  0.21981416  1
  Si  Si15  1  0.21981416  0.21981416  0.21981416  1
  Si  Si16  1  0.78018584  0.21981416  0.78018584  1
  Si  Si17  1  0.21981416  0.78018584  0.78018584  1
  O  O18  1  0.26036625  0.99976223  0.26036625  1
  O  O19  1  0.34634764  0.65365236  0.65365236  1
  O  O20  1  0.99976223  0.73963375  0.73963375  1
  O  O21  1  0.73963375  0.99976223  0.73963375  1
  O  O22  1  0.00023777  0.26036625  0.73963375  1
  O  O23  1  0.99976223  0.26036625  0.26036625  1
  O  O24  1  0.26036625  0.26036625  0.99976223  1
  O  O25  1  0.65365236  0.65365236  0.34634764  1
  O  O26  1  0.73963375  0.26036625  0.00023777  1
  O  O27  1  0.73963375  0.73963375  0.99976223  1
  O  O28  1  0.26036625  0.00023777  0.73963375  1
  O  O29  1  0.65365236  0.34634764  0.65365236  1
  O  O30  1  0.34634764  0.34634764  0.34634764  1
  O  O31  1  0.00023777  0.73963375  0.26036625  1
  O  O32  1  0.73963375  0.00023777  0.26036625  1
  O  O33  1  0.26036625  0.73963375  0.00023777  1
  O  O34  1  0.00000000  0.00000000  0.00000000  1
