# generated using pymatgen
data_Sb2BrF15
_symmetry_space_group_name_H-M   'P 1'
_cell_length_a   5.41200705
_cell_length_b   14.62609795
_cell_length_c   14.82987332
_cell_angle_alpha   90.00000000
_cell_angle_beta   90.00000000
_cell_angle_gamma   93.10503324
_symmetry_Int_Tables_number   1
_chemical_formula_structural   Sb2BrF15
_chemical_formula_sum   'Sb8 Br4 F60'
_cell_volume   1172.15818142
_cell_formula_units_Z   4
loop_
 _symmetry_equiv_pos_site_id
 _symmetry_equiv_pos_as_xyz
  1  'x, y, z'
loop_
 _atom_site_type_symbol
 _atom_site_label
 _atom_site_symmetry_multiplicity
 _atom_site_fract_x
 _atom_site_fract_y
 _atom_site_fract_z
 _atom_site_occupancy
  Sb  Sb0  1  0.09261922  0.15193811  0.64717067  1
  Sb  Sb1  1  0.37931574  0.31560458  0.85483993  1
  Sb  Sb2  1  0.90738078  0.84806189  0.35282933  1
  Sb  Sb3  1  0.09261922  0.65193811  0.85282933  1
  Sb  Sb4  1  0.90738078  0.34806189  0.14717067  1
  Sb  Sb5  1  0.62068426  0.18439542  0.35483993  1
  Sb  Sb6  1  0.37931574  0.81560458  0.64516007  1
  Sb  Sb7  1  0.62068426  0.68439542  0.14516007  1
  Br  Br8  1  0.72761717  0.48171921  0.65365023  1
  Br  Br9  1  0.27238283  0.51828079  0.34634977  1
  Br  Br10  1  0.27238283  0.01828079  0.15365023  1
  Br  Br11  1  0.72761717  0.98171921  0.84634977  1
  F  F12  1  0.62454313  0.41640017  0.16399361  1
  F  F13  1  0.53144962  0.90068198  0.56501834  1
  F  F14  1  0.20634076  0.23970601  0.93945695  1
  F  F15  1  0.10175675  0.88501352  0.66839327  1
  F  F16  1  0.81697155  0.72500657  0.84253845  1
  F  F17  1  0.46855038  0.59931802  0.06501834  1
  F  F18  1  0.40939181  0.59015046  0.42839402  1
  F  F19  1  0.53745997  0.88044590  0.75077725  1
  F  F20  1  0.35205784  0.76152512  0.14867592  1
  F  F21  1  0.04928393  0.92450225  0.44267048  1
  F  F22  1  0.06210695  0.42508323  0.24521491  1
  F  F23  1  0.10175675  0.38501352  0.83160673  1
  F  F24  1  0.46254003  0.61955410  0.25077725  1
  F  F25  1  0.45236477  0.54558412  0.64830667  1
  F  F26  1  0.45236477  0.04558412  0.85169333  1
  F  F27  1  0.73616050  0.26120200  0.07256295  1
  F  F28  1  0.54763523  0.45441588  0.35169333  1
  F  F29  1  0.59060819  0.90984954  0.92839402  1
  F  F30  1  0.53745997  0.38044590  0.74922275  1
  F  F31  1  0.85619338  0.05831977  0.92641656  1
  F  F32  1  0.85619338  0.55831977  0.57358344  1
  F  F33  1  0.64794216  0.73847488  0.64867592  1
  F  F34  1  0.79365924  0.26029399  0.43945695  1
  F  F35  1  0.23025526  0.22879483  0.75623910  1
  F  F36  1  0.79365924  0.76029399  0.06054305  1
  F  F37  1  0.99981777  0.91759126  0.85909852  1
  F  F38  1  0.89824325  0.61498648  0.16839327  1
  F  F39  1  0.20634076  0.73970601  0.56054305  1
  F  F40  1  0.95071607  0.07549775  0.55732952  1
  F  F41  1  0.93789305  0.07491677  0.74521491  1
  F  F42  1  0.89824325  0.11498648  0.33160673  1
  F  F43  1  0.18302845  0.77499343  0.34253845  1
  F  F44  1  0.14380662  0.94168023  0.07358344  1
  F  F45  1  0.76974474  0.77120517  0.24376090  1
  F  F46  1  0.62454313  0.91640017  0.33600639  1
  F  F47  1  0.18302845  0.27499343  0.15746155  1
  F  F48  1  0.54763523  0.95441588  0.14830667  1
  F  F49  1  0.00018223  0.08240874  0.14090148  1
  F  F50  1  0.06210695  0.92508323  0.25478509  1
  F  F51  1  0.95071607  0.57549775  0.94267048  1
  F  F52  1  0.99981777  0.41759126  0.64090148  1
  F  F53  1  0.53144962  0.40068198  0.93498166  1
  F  F54  1  0.76974474  0.27120517  0.25623910  1
  F  F55  1  0.93789305  0.57491677  0.75478509  1
  F  F56  1  0.46254003  0.11955410  0.24922275  1
  F  F57  1  0.35205784  0.26152512  0.35132408  1
  F  F58  1  0.73616050  0.76120200  0.42743705  1
  F  F59  1  0.64794216  0.23847488  0.85132408  1
  F  F60  1  0.23025526  0.72879483  0.74376090  1
  F  F61  1  0.04928393  0.42450225  0.05732952  1
  F  F62  1  0.40939181  0.09015046  0.07160598  1
  F  F63  1  0.00018223  0.58240874  0.35909852  1
  F  F64  1  0.37545687  0.08359983  0.66399361  1
  F  F65  1  0.37545687  0.58359983  0.83600639  1
  F  F66  1  0.59060819  0.40984954  0.57160598  1
  F  F67  1  0.46855038  0.09931802  0.43498166  1
  F  F68  1  0.14380662  0.44168023  0.42641656  1
  F  F69  1  0.26383950  0.73879800  0.92743705  1
  F  F70  1  0.81697155  0.22500657  0.65746155  1
  F  F71  1  0.26383950  0.23879800  0.57256295  1
