# generated using pymatgen
data_UTl2(TeO4)2
_symmetry_space_group_name_H-M   'P 1'
_cell_length_a   7.59127698
_cell_length_b   8.18817310
_cell_length_c   9.14551408
_cell_angle_alpha   92.89596864
_cell_angle_beta   107.95298262
_cell_angle_gamma   108.53444038
_symmetry_Int_Tables_number   1
_chemical_formula_structural   UTl2(TeO4)2
_chemical_formula_sum   'U2 Tl4 Te4 O16'
_cell_volume   505.74722951
_cell_formula_units_Z   2
loop_
 _symmetry_equiv_pos_site_id
 _symmetry_equiv_pos_as_xyz
  1  'x, y, z'
loop_
 _atom_site_type_symbol
 _atom_site_label
 _atom_site_symmetry_multiplicity
 _atom_site_fract_x
 _atom_site_fract_y
 _atom_site_fract_z
 _atom_site_occupancy
  U  U0  1  0.11218913  0.94017579  0.71438630  1
  U  U1  1  0.88781087  0.05982421  0.28561370  1
  Tl  Tl2  1  0.03174126  0.41787329  0.68599030  1
  Tl  Tl3  1  0.29676566  0.42518482  0.09613360  1
  Tl  Tl4  1  0.70323434  0.57481518  0.90386640  1
  Tl  Tl5  1  0.96825874  0.58212671  0.31400970  1
  Te  Te6  1  0.39450928  0.28860292  0.48776050  1
  Te  Te7  1  0.60549072  0.71139708  0.51223950  1
  Te  Te8  1  0.66301230  0.09819698  0.86847360  1
  Te  Te9  1  0.33698770  0.90180302  0.13152640  1
  O  O10  1  0.58325295  0.89192380  0.11945507  1
  O  O11  1  0.41674705  0.10807620  0.88054493  1
  O  O12  1  0.42221755  0.49495124  0.61412131  1
  O  O13  1  0.21724575  0.80486621  0.62323899  1
  O  O14  1  0.18161570  0.29408594  0.30983572  1
  O  O15  1  0.99177627  0.91802543  0.19923483  1
  O  O16  1  0.57778245  0.50504876  0.38587869  1
  O  O17  1  0.16420463  0.78673438  0.92877888  1
  O  O18  1  0.83579537  0.21326562  0.07122112  1
  O  O19  1  0.29270976  0.70954248  0.23797308  1
  O  O20  1  0.81838430  0.70591406  0.69016428  1
  O  O21  1  0.70729024  0.29045752  0.76202692  1
  O  O22  1  0.17236814  0.13865353  0.54855827  1
  O  O23  1  0.00822373  0.08197457  0.80076517  1
  O  O24  1  0.78275425  0.19513379  0.37676101  1
  O  O25  1  0.82763186  0.86134647  0.45144173  1
