# generated using pymatgen
data_Li7Mn2(CoO4)3
_symmetry_space_group_name_H-M   'P 1'
_cell_length_a   2.98254413
_cell_length_b   7.79259320
_cell_length_c   10.11700479
_cell_angle_alpha   68.86109455
_cell_angle_beta   91.39001226
_cell_angle_gamma   82.07966477
_symmetry_Int_Tables_number   1
_chemical_formula_structural   Li7Mn2(CoO4)3
_chemical_formula_sum   'Li7 Mn2 Co3 O12'
_cell_volume   216.52507275
_cell_formula_units_Z   1
loop_
 _symmetry_equiv_pos_site_id
 _symmetry_equiv_pos_as_xyz
  1  'x, y, z'
loop_
 _atom_site_type_symbol
 _atom_site_label
 _atom_site_symmetry_multiplicity
 _atom_site_fract_x
 _atom_site_fract_y
 _atom_site_fract_z
 _atom_site_occupancy
  Li  Li0  1  0.82556340  0.33897905  0.07373918  1
  Li  Li1  1  0.16738111  0.66594461  0.41926328  1
  Li  Li2  1  0.49068003  0.01124731  0.74829080  1
  Li  Li3  1  0.17750458  0.66500497  0.91135025  1
  Li  Li4  1  0.50458632  0.99717703  0.25241867  1
  Li  Li5  1  0.83320045  0.32973938  0.59689020  1
  Li  Li6  1  0.34918810  0.32825736  0.82730553  1
  Mn  Mn7  1  0.00115098  0.01015291  0.99409470  1
  Mn  Mn8  1  0.32242065  0.32978050  0.33367372  1
  Co  Co9  1  0.68046602  0.65397286  0.67335942  1
  Co  Co10  1  0.65670038  0.66716042  0.17007298  1
  Co  Co11  1  0.00368287  0.99601055  0.50280661  1
  O  O12  1  0.45329769  0.14575208  0.03689698  1
  O  O13  1  0.70284234  0.50301167  0.36467229  1
  O  O14  1  0.05775531  0.83000489  0.69492162  1
  O  O15  1  0.73732075  0.52308830  0.85596523  1
  O  O16  1  0.08975351  0.83200154  0.19751791  1
  O  O17  1  0.38738373  0.16327508  0.53279808  1
  O  O18  1  0.22168005  0.50324278  0.13118056  1
  O  O19  1  0.61671249  0.83025914  0.47685840  1
  O  O20  1  0.93131351  0.15253420  0.80537376  1
  O  O21  1  0.56123712  0.84874776  0.96977711  1
  O  O22  1  0.94847620  0.15945356  0.30317153  1
  O  O23  1  0.27970240  0.51520206  0.62760116  1
