# generated using pymatgen
data_BaZrF6
_symmetry_space_group_name_H-M   'P 1'
_cell_length_a   6.68299419
_cell_length_b   7.49115944
_cell_length_c   9.72083378
_cell_angle_alpha   90.00000000
_cell_angle_beta   90.00000000
_cell_angle_gamma   97.81449001
_symmetry_Int_Tables_number   1
_chemical_formula_structural   BaZrF6
_chemical_formula_sum   'Ba4 Zr4 F24'
_cell_volume   482.13839288
_cell_formula_units_Z   4
loop_
 _symmetry_equiv_pos_site_id
 _symmetry_equiv_pos_as_xyz
  1  'x, y, z'
loop_
 _atom_site_type_symbol
 _atom_site_label
 _atom_site_symmetry_multiplicity
 _atom_site_fract_x
 _atom_site_fract_y
 _atom_site_fract_z
 _atom_site_occupancy
  Ba  Ba0  1  0.77320109  0.36410946  0.68037397  1
  Ba  Ba1  1  0.27320109  0.86410946  0.81962603  1
  Ba  Ba2  1  0.22679891  0.63589054  0.31962603  1
  Ba  Ba3  1  0.72679891  0.13589054  0.18037397  1
  Zr  Zr4  1  0.74650576  0.86555351  0.53565000  1
  Zr  Zr5  1  0.24650576  0.36555351  0.96435000  1
  Zr  Zr6  1  0.25349424  0.13444649  0.46435000  1
  Zr  Zr7  1  0.75349424  0.63444649  0.03565000  1
  F  F8  1  0.06990119  0.14104151  0.89588135  1
  F  F9  1  0.51214730  0.52904430  0.87702144  1
  F  F10  1  0.33205300  0.88487339  0.53176760  1
  F  F11  1  0.56990119  0.64104151  0.60411865  1
  F  F12  1  0.87598123  0.71058435  0.84796292  1
  F  F13  1  0.66794700  0.11512661  0.46823240  1
  F  F14  1  0.14937260  0.46882705  0.78340628  1
  F  F15  1  0.62401877  0.78941565  0.34796292  1
  F  F16  1  0.83205300  0.38487339  0.96823240  1
  F  F17  1  0.94774428  0.67756006  0.53898277  1
  F  F18  1  0.55225572  0.82243994  0.03898277  1
  F  F19  1  0.48785270  0.47095570  0.12297856  1
  F  F20  1  0.35062740  0.03117295  0.28340628  1
  F  F21  1  0.98785270  0.97095570  0.37702144  1
  F  F22  1  0.93009881  0.85895849  0.10411865  1
  F  F23  1  0.85062740  0.53117295  0.21659372  1
  F  F24  1  0.64937260  0.96882705  0.71659372  1
  F  F25  1  0.01214730  0.02904430  0.62297856  1
  F  F26  1  0.44774428  0.17756006  0.96101723  1
  F  F27  1  0.43009881  0.35895849  0.39588135  1
  F  F28  1  0.37598123  0.21058435  0.65203708  1
  F  F29  1  0.05225572  0.32243994  0.46101723  1
  F  F30  1  0.16794700  0.61512661  0.03176760  1
  F  F31  1  0.12401877  0.28941565  0.15203708  1
