# generated using pymatgen
data_KNaSi2O5
_symmetry_space_group_name_H-M   'P 1'
_cell_length_a   4.91305065
_cell_length_b   7.58261525
_cell_length_c   13.76319939
_cell_angle_alpha   90.00000000
_cell_angle_beta   90.00000000
_cell_angle_gamma   91.25523012
_symmetry_Int_Tables_number   1
_chemical_formula_structural   KNaSi2O5
_chemical_formula_sum   'K4 Na4 Si8 O20'
_cell_volume   512.60806382
_cell_formula_units_Z   4
loop_
 _symmetry_equiv_pos_site_id
 _symmetry_equiv_pos_as_xyz
  1  'x, y, z'
loop_
 _atom_site_type_symbol
 _atom_site_label
 _atom_site_symmetry_multiplicity
 _atom_site_fract_x
 _atom_site_fract_y
 _atom_site_fract_z
 _atom_site_occupancy
  K  K0  1  0.19981227  0.28783026  0.20062906  1
  K  K1  1  0.80018773  0.71216974  0.79937094  1
  K  K2  1  0.80018773  0.21216974  0.70062906  1
  K  K3  1  0.19981227  0.78783026  0.29937094  1
  Na  Na4  1  0.27652036  0.97205835  0.59405209  1
  Na  Na5  1  0.72347964  0.02794165  0.40594791  1
  Na  Na6  1  0.27652036  0.47205835  0.90594791  1
  Na  Na7  1  0.72347964  0.52794165  0.09405209  1
  Si  Si8  1  0.80215437  0.21573792  0.95138667  1
  Si  Si9  1  0.80215437  0.71573792  0.54861333  1
  Si  Si10  1  0.19784563  0.78426208  0.04861333  1
  Si  Si11  1  0.29587886  0.51470240  0.63022114  1
  Si  Si12  1  0.29587886  0.01470240  0.86977886  1
  Si  Si13  1  0.19784563  0.28426208  0.45138667  1
  Si  Si14  1  0.70412114  0.48529760  0.36977886  1
  Si  Si15  1  0.70412114  0.98529760  0.13022114  1
  O  O16  1  0.87466448  0.33273984  0.42996944  1
  O  O17  1  0.21906197  0.99154789  0.75900058  1
  O  O18  1  0.74904477  0.41711699  0.92694805  1
  O  O19  1  0.12533552  0.66726016  0.57003056  1
  O  O20  1  0.37737709  0.92878428  0.11462095  1
  O  O21  1  0.87466448  0.83273984  0.07003056  1
  O  O22  1  0.25187093  0.32429449  0.56923835  1
  O  O23  1  0.74904477  0.91711699  0.57305195  1
  O  O24  1  0.78093803  0.00845211  0.24099942  1
  O  O25  1  0.25095523  0.08288301  0.42694805  1
  O  O26  1  0.74812907  0.17570551  0.06923835  1
  O  O27  1  0.37737709  0.42878428  0.38537905  1
  O  O28  1  0.62262291  0.07121572  0.88537905  1
  O  O29  1  0.78093803  0.50845211  0.25900058  1
  O  O30  1  0.62262291  0.57121572  0.61462095  1
  O  O31  1  0.25095523  0.58288301  0.07305195  1
  O  O32  1  0.21906197  0.49154789  0.74099942  1
  O  O33  1  0.74812907  0.67570551  0.43076165  1
  O  O34  1  0.12533552  0.16726016  0.92996944  1
  O  O35  1  0.25187093  0.82429449  0.93076165  1
