# generated using pymatgen
data_Ba3BiRu2O9
_symmetry_space_group_name_H-M   'P 1'
_cell_length_a   6.02182201
_cell_length_b   6.02182223
_cell_length_c   14.85538271
_cell_angle_alpha   90.82260013
_cell_angle_beta   90.82260002
_cell_angle_gamma   120.09383166
_symmetry_Int_Tables_number   1
_chemical_formula_structural   Ba3BiRu2O9
_chemical_formula_sum   'Ba6 Bi2 Ru4 O18'
_cell_volume   465.88561926
_cell_formula_units_Z   2
loop_
 _symmetry_equiv_pos_site_id
 _symmetry_equiv_pos_as_xyz
  1  'x, y, z'
loop_
 _atom_site_type_symbol
 _atom_site_label
 _atom_site_symmetry_multiplicity
 _atom_site_fract_x
 _atom_site_fract_y
 _atom_site_fract_z
 _atom_site_occupancy
  Ba  Ba0  1  0.99740381  0.00259619  0.25000000  1
  Ba  Ba1  1  0.66140975  0.33022445  0.90432649  1
  Ba  Ba2  1  0.66977555  0.33859025  0.59567351  1
  Ba  Ba3  1  0.33859025  0.66977555  0.09567351  1
  Ba  Ba4  1  0.00259619  0.99740381  0.75000000  1
  Ba  Ba5  1  0.33022445  0.66140975  0.40432649  1
  Bi  Bi6  1  0.00000000  0.00000000  0.00000000  1
  Bi  Bi7  1  0.00000000  0.00000000  0.50000000  1
  Ru  Ru8  1  0.67801111  0.34613241  0.16592365  1
  Ru  Ru9  1  0.65386759  0.32198889  0.33407635  1
  Ru  Ru10  1  0.34613241  0.67801111  0.66592365  1
  Ru  Ru11  1  0.32198889  0.65386759  0.83407635  1
  O  O12  1  0.50222422  0.02615969  0.23985979  1
  O  O13  1  0.85347716  0.19845452  0.09611631  1
  O  O14  1  0.80154548  0.14652284  0.40388369  1
  O  O15  1  0.14652284  0.80154548  0.90388369  1
  O  O16  1  0.67145202  0.86447807  0.60016060  1
  O  O17  1  0.32854798  0.13552193  0.39983940  1
  O  O18  1  0.13552193  0.32854798  0.89983940  1
  O  O19  1  0.22011384  0.39542148  0.57552232  1
  O  O20  1  0.19845452  0.85347716  0.59611631  1
  O  O21  1  0.86447807  0.67145202  0.10016060  1
  O  O22  1  0.50893569  0.49106431  0.25000000  1
  O  O23  1  0.97384031  0.49777578  0.26014021  1
  O  O24  1  0.02615969  0.50222422  0.73985979  1
  O  O25  1  0.49106431  0.50893569  0.75000000  1
  O  O26  1  0.77988616  0.60457852  0.42447768  1
  O  O27  1  0.39542148  0.22011384  0.07552232  1
  O  O28  1  0.60457852  0.77988616  0.92447768  1
  O  O29  1  0.49777578  0.97384031  0.76014021  1
