# generated using pymatgen
data_Tm2Te4O11
_symmetry_space_group_name_H-M   'P 1'
_cell_length_a   5.12623928
_cell_length_b   6.70547192
_cell_length_c   15.92511718
_cell_angle_alpha   80.22153207
_cell_angle_beta   80.73420228
_cell_angle_gamma   67.53411757
_symmetry_Int_Tables_number   1
_chemical_formula_structural   Tm2Te4O11
_chemical_formula_sum   'Tm4 Te8 O22'
_cell_volume   495.72990133
_cell_formula_units_Z   2
loop_
 _symmetry_equiv_pos_site_id
 _symmetry_equiv_pos_as_xyz
  1  'x, y, z'
loop_
 _atom_site_type_symbol
 _atom_site_label
 _atom_site_symmetry_multiplicity
 _atom_site_fract_x
 _atom_site_fract_y
 _atom_site_fract_z
 _atom_site_occupancy
  Tm  Tm0  1  0.87013025  0.29767972  0.46321135  1
  Tm  Tm1  1  0.63104723  0.20232426  0.03678202  1
  Tm  Tm2  1  0.36895277  0.79767574  0.96321798  1
  Tm  Tm3  1  0.12986975  0.70232028  0.53678865  1
  Te  Te4  1  0.59035328  0.87922342  0.37507731  1
  Te  Te5  1  0.59833540  0.54691692  0.69766112  1
  Te  Te6  1  0.40166460  0.45308308  0.30233888  1
  Te  Te7  1  0.84270097  0.95288543  0.80229378  1
  Te  Te8  1  0.40964672  0.12077658  0.62492269  1
  Te  Te9  1  0.84444504  0.62078385  0.12495859  1
  Te  Te10  1  0.15729903  0.04711457  0.19770622  1
  Te  Te11  1  0.15555496  0.37921615  0.87504141  1
  O  O12  1  0.08895052  0.36759026  0.33398524  1
  O  O13  1  0.55070036  0.45356605  0.59433031  1
  O  O14  1  0.59874766  0.04630284  0.90561380  1
  O  O15  1  0.66021731  0.53281378  0.05131741  1
  O  O16  1  0.79094111  0.13239089  0.16599597  1
  O  O17  1  0.14427139  0.75002486  0.24996091  1
  O  O18  1  0.17212408  0.31850477  0.54400271  1
  O  O19  1  0.82787592  0.68149523  0.45599729  1
  O  O20  1  0.85572861  0.24997514  0.75003909  1
  O  O21  1  0.03475827  0.18157396  0.95595569  1
  O  O22  1  0.33978269  0.46718622  0.94868259  1
  O  O23  1  0.19223900  0.36674072  0.12718593  1
  O  O24  1  0.75558190  0.03280611  0.55132402  1
  O  O25  1  0.40125234  0.95369716  0.09438620  1
  O  O26  1  0.20905889  0.86760911  0.83400403  1
  O  O27  1  0.96524173  0.81842604  0.04404431  1
  O  O28  1  0.80776100  0.63325928  0.87281407  1
  O  O29  1  0.91104948  0.63240974  0.66601476  1
  O  O30  1  0.68623374  0.13327072  0.37280881  1
  O  O31  1  0.44929964  0.54643395  0.40566969  1
  O  O32  1  0.31376626  0.86672928  0.62719119  1
  O  O33  1  0.24441810  0.96719389  0.44867598  1
