# generated using pymatgen
data_KGe2BO6
_symmetry_space_group_name_H-M   'P 1'
_cell_length_a   4.86859624
_cell_length_b   10.33975251
_cell_length_c   10.86767044
_cell_angle_alpha   90.00000000
_cell_angle_beta   90.00000000
_cell_angle_gamma   90.00000000
_symmetry_Int_Tables_number   1
_chemical_formula_structural   KGe2BO6
_chemical_formula_sum   'K4 Ge8 B4 O24'
_cell_volume   547.07940146
_cell_formula_units_Z   4
loop_
 _symmetry_equiv_pos_site_id
 _symmetry_equiv_pos_as_xyz
  1  'x, y, z'
loop_
 _atom_site_type_symbol
 _atom_site_label
 _atom_site_symmetry_multiplicity
 _atom_site_fract_x
 _atom_site_fract_y
 _atom_site_fract_z
 _atom_site_occupancy
  K  K0  1  0.30662286  0.53064031  0.18657259  1
  K  K1  1  0.19337714  0.46935969  0.68657259  1
  K  K2  1  0.69337714  0.03064031  0.31342741  1
  K  K3  1  0.80662286  0.96935969  0.81342741  1
  Ge  Ge4  1  0.73015691  0.30168541  0.91956221  1
  Ge  Ge5  1  0.23015691  0.19831459  0.08043779  1
  Ge  Ge6  1  0.76984309  0.69831459  0.41956221  1
  Ge  Ge7  1  0.79951168  0.61516569  0.93326646  1
  Ge  Ge8  1  0.26984309  0.80168541  0.58043779  1
  Ge  Ge9  1  0.70048832  0.38483431  0.43326646  1
  Ge  Ge10  1  0.29951168  0.88483431  0.06673354  1
  Ge  Ge11  1  0.20048832  0.11516569  0.56673354  1
  B  B12  1  0.19502096  0.26568474  0.34249832  1
  B  B13  1  0.30497904  0.73431526  0.84249832  1
  B  B14  1  0.69502096  0.23431526  0.65750168  1
  B  B15  1  0.80497904  0.76568474  0.15750168  1
  O  O16  1  0.07754838  0.25075724  0.21645156  1
  O  O17  1  0.52809182  0.81872596  0.46579984  1
  O  O18  1  0.35707720  0.85897112  0.90792332  1
  O  O19  1  0.00535913  0.70781590  0.83312426  1
  O  O20  1  0.94411913  0.87677113  0.09825039  1
  O  O21  1  0.64292280  0.35897112  0.59207668  1
  O  O22  1  0.99464087  0.20781590  0.66687574  1
  O  O23  1  0.92245162  0.75075724  0.28354844  1
  O  O24  1  0.42245162  0.74924276  0.71645156  1
  O  O25  1  0.55588087  0.12322887  0.59825039  1
  O  O26  1  0.02809182  0.68127404  0.53420016  1
  O  O27  1  0.50535913  0.79218410  0.16687574  1
  O  O28  1  0.09407652  0.95078247  0.59210012  1
  O  O29  1  0.44411913  0.62322887  0.90174961  1
  O  O30  1  0.05588087  0.37677113  0.40174961  1
  O  O31  1  0.14292280  0.14102888  0.40792332  1
  O  O32  1  0.49464087  0.29218410  0.33312426  1
  O  O33  1  0.97190818  0.18127404  0.96579984  1
  O  O34  1  0.90592348  0.45078247  0.90789988  1
  O  O35  1  0.85707720  0.64102888  0.09207668  1
  O  O36  1  0.40592348  0.04921753  0.09210012  1
  O  O37  1  0.59407652  0.54921753  0.40789988  1
  O  O38  1  0.57754838  0.24924276  0.78354844  1
  O  O39  1  0.47190818  0.31872596  0.03420016  1
