# generated using pymatgen
data_Li7Mn2(CoO4)3
_symmetry_space_group_name_H-M   'P 1'
_cell_length_a   2.93962384
_cell_length_b   8.26147676
_cell_length_c   9.82470560
_cell_angle_alpha   65.50121908
_cell_angle_beta   92.64744998
_cell_angle_gamma   90.43839283
_symmetry_Int_Tables_number   1
_chemical_formula_structural   Li7Mn2(CoO4)3
_chemical_formula_sum   'Li7 Mn2 Co3 O12'
_cell_volume   216.86903635
_cell_formula_units_Z   1
loop_
 _symmetry_equiv_pos_site_id
 _symmetry_equiv_pos_as_xyz
  1  'x, y, z'
loop_
 _atom_site_type_symbol
 _atom_site_label
 _atom_site_symmetry_multiplicity
 _atom_site_fract_x
 _atom_site_fract_y
 _atom_site_fract_z
 _atom_site_occupancy
  Li  Li0  1  0.00629916  0.82718256  0.33564326  1
  Li  Li1  1  0.51247860  0.34062720  0.82278779  1
  Li  Li2  1  0.49166959  0.00822417  0.50241067  1
  Li  Li3  1  0.98662418  0.49880056  0.00841837  1
  Li  Li4  1  0.00701114  0.17292379  0.66496323  1
  Li  Li5  1  0.49542412  0.64736360  0.17345217  1
  Li  Li6  1  0.01335909  0.34283645  0.32617615  1
  Mn  Mn7  1  0.99568970  0.99756419  0.00183030  1
  Mn  Mn8  1  0.49449483  0.17342085  0.17274730  1
  Co  Co9  1  0.50286204  0.48966969  0.49471661  1
  Co  Co10  1  0.00542195  0.66380639  0.66555086  1
  Co  Co11  1  0.49710644  0.83395968  0.82947625  1
  O  O12  1  0.47521787  0.93404724  0.15762660  1
  O  O13  1  0.97402781  0.42721197  0.65595119  1
  O  O14  1  0.01333489  0.09242826  0.31543967  1
  O  O15  1  0.49396783  0.59241702  0.81996104  1
  O  O16  1  0.50042933  0.27370029  0.50378218  1
  O  O17  1  0.98662341  0.76364052  0.99221865  1
  O  O18  1  0.51079535  0.72478821  0.50870243  1
  O  O19  1  0.97652505  0.23115910  0.02119282  1
  O  O20  1  0.00930485  0.90962906  0.66926431  1
  O  O21  1  0.50229376  0.39892845  0.16461271  1
  O  O22  1  0.51591095  0.07715970  0.84669067  1
  O  O23  1  0.03312807  0.57851103  0.34638474  1
