# generated using pymatgen
data_Na2LiAlP2H2O9
_symmetry_space_group_name_H-M   'P 1'
_cell_length_a   7.03186726
_cell_length_b   14.20860926
_cell_length_c   14.24731370
_cell_angle_alpha   90.00000000
_cell_angle_beta   90.00000000
_cell_angle_gamma   90.00000000
_symmetry_Int_Tables_number   1
_chemical_formula_structural   Na2LiAlP2H2O9
_chemical_formula_sum   'Na16 Li8 Al8 P16 H16 O72'
_cell_volume   1423.49262685
_cell_formula_units_Z   8
loop_
 _symmetry_equiv_pos_site_id
 _symmetry_equiv_pos_as_xyz
  1  'x, y, z'
loop_
 _atom_site_type_symbol
 _atom_site_label
 _atom_site_symmetry_multiplicity
 _atom_site_fract_x
 _atom_site_fract_y
 _atom_site_fract_z
 _atom_site_occupancy
  Na  Na0  1  0.95873330  0.00000000  0.75000000  1
  Na  Na1  1  0.50000000  0.50000000  0.00000000  1
  Na  Na2  1  0.00000000  0.25000000  0.24640661  1
  Na  Na3  1  0.50000000  0.00000000  0.50000000  1
  Na  Na4  1  0.04126670  0.50000000  0.75000000  1
  Na  Na5  1  0.00000000  0.75000000  0.75359339  1
  Na  Na6  1  0.04126670  0.00000000  0.25000000  1
  Na  Na7  1  0.50000000  0.00000000  0.00000000  1
  Na  Na8  1  0.50000000  0.25000000  0.52071285  1
  Na  Na9  1  0.50000000  0.75000000  0.97928715  1
  Na  Na10  1  0.50000000  0.75000000  0.47928715  1
  Na  Na11  1  0.00000000  0.75000000  0.25359339  1
  Na  Na12  1  0.00000000  0.25000000  0.74640661  1
  Na  Na13  1  0.50000000  0.50000000  0.50000000  1
  Na  Na14  1  0.95873330  0.50000000  0.25000000  1
  Na  Na15  1  0.50000000  0.25000000  0.02071285  1
  Li  Li16  1  0.26003673  0.12578832  0.87417648  1
  Li  Li17  1  0.26003673  0.87421168  0.62582352  1
  Li  Li18  1  0.26003673  0.37421168  0.37417648  1
  Li  Li19  1  0.73996327  0.87421168  0.12582352  1
  Li  Li20  1  0.73996327  0.12578832  0.37417648  1
  Li  Li21  1  0.26003673  0.62578832  0.12582352  1
  Li  Li22  1  0.73996327  0.62578832  0.62582352  1
  Li  Li23  1  0.73996327  0.37421168  0.87417648  1
  Al  Al24  1  0.00000000  0.00000000  0.00000000  1
  Al  Al25  1  0.00000000  0.50000000  0.50000000  1
  Al  Al26  1  0.00000000  0.25000000  0.50109751  1
  Al  Al27  1  0.00000000  0.75000000  0.49890249  1
  Al  Al28  1  0.00000000  0.50000000  0.00000000  1
  Al  Al29  1  0.00000000  0.25000000  1.00109751  1
  Al  Al30  1  0.00000000  0.75000000  -0.00109751  1
  Al  Al31  1  0.00000000  0.00000000  0.50000000  1
  P  P32  1  0.27811011  0.87031636  0.13190833  1
  P  P33  1  0.26111080  0.37905570  0.14351244  1
  P  P34  1  0.72188989  0.37031636  0.36809167  1
  P  P35  1  0.72188989  0.87031636  0.63190833  1
  P  P36  1  0.26111080  0.87905570  0.85648756  1
  P  P37  1  0.73888920  0.87905570  0.35648756  1
  P  P38  1  0.26111080  0.12094430  0.64351244  1
  P  P39  1  0.72188989  0.62968364  0.13190833  1
  P  P40  1  0.27811011  0.37031636  0.86809167  1
  P  P41  1  0.72188989  0.12968364  0.86809167  1
  P  P42  1  0.73888920  0.12094430  0.14351244  1
  P  P43  1  0.27811011  0.62968364  0.63190833  1
  P  P44  1  0.27811011  0.12968364  0.36809167  1
  P  P45  1  0.73888920  0.37905570  0.64351244  1
  P  P46  1  0.26111080  0.62094430  0.35648756  1
  P  P47  1  0.73888920  0.62094430  0.85648756  1
  H  H48  1  0.58944398  0.12643180  0.70321622  1
  H  H49  1  0.41055602  0.12643180  0.20321622  1
  H  H50  1  0.19933056  0.12539279  0.05972116  1
  H  H51  1  0.80066944  0.12539279  0.55972116  1
  H  H52  1  0.80066944  0.62539279  0.44027884  1
  H  H53  1  0.80066944  0.87460721  0.94027884  1
  H  H54  1  0.41055602  0.37356820  0.70321622  1
  H  H55  1  0.41055602  0.62643180  0.79678378  1
  H  H56  1  0.19933056  0.37460721  0.55972116  1
  H  H57  1  0.58944398  0.62643180  0.29678378  1
  H  H58  1  0.41055602  0.87356820  0.29678378  1
  H  H59  1  0.58944398  0.37356820  0.20321622  1
  H  H60  1  0.19933056  0.87460721  0.44027884  1
  H  H61  1  0.58944398  0.87356820  0.79678378  1
  H  H62  1  0.80066944  0.37460721  0.05972116  1
  H  H63  1  0.19933056  0.62539279  0.94027884  1
  O  O64  1  0.19470397  0.46907134  0.08964588  1
  O  O65  1  0.83785780  0.45849210  0.40059191  1
  O  O66  1  0.47917909  0.62858910  0.59168839  1
  O  O67  1  0.88658412  0.12473430  0.50580399  1
  O  O68  1  0.17158869  0.27970674  0.90132515  1
  O  O69  1  0.82841131  0.22029326  0.90132515  1
  O  O70  1  0.51591414  0.87670905  0.36299922  1
  O  O71  1  0.18505394  0.21113354  0.59280556  1
  O  O72  1  0.80529603  0.03092866  0.08964588  1
  O  O73  1  0.48408586  0.62329095  0.36299922  1
  O  O74  1  0.27512782  0.62952835  0.74132483  1
  O  O75  1  0.16214220  0.45849210  0.90059191  1
  O  O76  1  0.48408586  0.87670905  0.86299922  1
  O  O77  1  0.51591414  0.62329095  0.86299922  1
  O  O78  1  0.81494606  0.71113354  0.90719444  1
  O  O79  1  0.16214220  0.95849210  0.09940809  1
  O  O80  1  0.80884497  0.11896398  0.24466201  1
  O  O81  1  0.18505394  0.71113354  0.40719444  1
  O  O82  1  0.88658412  0.87526570  0.99419601  1
  O  O83  1  0.48408586  0.37670905  0.13700078  1
  O  O84  1  0.47917909  0.87141090  0.09168839  1
  O  O85  1  0.19115503  0.38103602  0.24466201  1
  O  O86  1  0.17158869  0.72029326  0.59867485  1
  O  O87  1  0.52082091  0.87141090  0.59168839  1
  O  O88  1  0.88658412  0.62473430  0.49419601  1
  O  O89  1  0.80884497  0.38103602  0.74466201  1
  O  O90  1  0.52082091  0.12858910  0.90831161  1
  O  O91  1  0.11341588  0.37526570  0.50580399  1
  O  O92  1  0.27512782  0.87047165  0.24132483  1
  O  O93  1  0.19470397  0.53092866  0.41035412  1
  O  O94  1  0.80529603  0.96907134  0.41035412  1
  O  O95  1  0.82841131  0.27970674  0.40132515  1
  O  O96  1  0.11341588  0.12473430  0.00580399  1
  O  O97  1  0.52082091  0.62858910  0.09168839  1
  O  O98  1  0.82841131  0.72029326  0.09867485  1
  O  O99  1  0.83785780  0.95849210  0.59940809  1
  O  O100  1  0.72487218  0.62952835  0.24132483  1
  O  O101  1  0.72487218  0.12952835  0.75867517  1
  O  O102  1  0.47917909  0.12858910  0.40831161  1
  O  O103  1  0.47917909  0.37141090  0.90831161  1
  O  O104  1  0.83785780  0.04150790  0.90059191  1
  O  O105  1  0.51591414  0.12329095  0.13700078  1
  O  O106  1  0.19470397  0.03092866  0.58964588  1
  O  O107  1  0.27512782  0.12952835  0.25867517  1
  O  O108  1  0.27512782  0.37047165  0.75867517  1
  O  O109  1  0.48408586  0.12329095  0.63700078  1
  O  O110  1  0.11341588  0.62473430  0.99419601  1
  O  O111  1  0.16214220  0.04150790  0.40059191  1
  O  O112  1  0.83785780  0.54150790  0.09940809  1
  O  O113  1  0.80884497  0.88103602  0.25533799  1
  O  O114  1  0.88658412  0.37526570  0.00580399  1
  O  O115  1  0.51591414  0.37670905  0.63700078  1
  O  O116  1  0.19470397  0.96907134  0.91035412  1
  O  O117  1  0.18505394  0.78886646  0.90719444  1
  O  O118  1  0.72487218  0.87047165  0.74132483  1
  O  O119  1  0.82841131  0.77970674  0.59867485  1
  O  O120  1  0.18505394  0.28886646  0.09280556  1
  O  O121  1  0.72487218  0.37047165  0.25867517  1
  O  O122  1  0.11341588  0.87526570  0.49419601  1
  O  O123  1  0.81494606  0.78886646  0.40719444  1
  O  O124  1  0.80529603  0.46907134  0.58964588  1
  O  O125  1  0.17158869  0.77970674  0.09867485  1
  O  O126  1  0.81494606  0.21113354  0.09280556  1
  O  O127  1  0.19115503  0.61896398  0.25533799  1
  O  O128  1  0.19115503  0.88103602  0.75533799  1
  O  O129  1  0.80529603  0.53092866  0.91035412  1
  O  O130  1  0.81494606  0.28886646  0.59280556  1
  O  O131  1  0.17158869  0.22029326  0.40132515  1
  O  O132  1  0.16214220  0.54150790  0.59940809  1
  O  O133  1  0.19115503  0.11896398  0.74466201  1
  O  O134  1  0.52082091  0.37141090  0.40831161  1
  O  O135  1  0.80884497  0.61896398  0.75533799  1
