# generated using pymatgen
data_Nd2Si2O7
_symmetry_space_group_name_H-M   'P 1'
_cell_length_a   5.43541836
_cell_length_b   8.68770009
_cell_length_c   13.08982354
_cell_angle_alpha   90.00000000
_cell_angle_beta   90.00000000
_cell_angle_gamma   90.00000000
_symmetry_Int_Tables_number   1
_chemical_formula_structural   Nd2Si2O7
_chemical_formula_sum   'Nd8 Si8 O28'
_cell_volume   618.11828242
_cell_formula_units_Z   4
loop_
 _symmetry_equiv_pos_site_id
 _symmetry_equiv_pos_as_xyz
  1  'x, y, z'
loop_
 _atom_site_type_symbol
 _atom_site_label
 _atom_site_symmetry_multiplicity
 _atom_site_fract_x
 _atom_site_fract_y
 _atom_site_fract_z
 _atom_site_occupancy
  Nd  Nd0  1  0.23665533  0.10361320  0.33906898  1
  Nd  Nd1  1  0.26334467  0.60361320  0.66093102  1
  Nd  Nd2  1  0.73665533  0.89638680  0.16093102  1
  Nd  Nd3  1  0.25715265  0.19595764  0.01828708  1
  Nd  Nd4  1  0.75715265  0.80404236  0.48171292  1
  Nd  Nd5  1  0.24284735  0.69595764  0.98171292  1
  Nd  Nd6  1  0.76334467  0.39638680  0.83906898  1
  Nd  Nd7  1  0.74284735  0.30404236  0.51828708  1
  Si  Si8  1  0.27285364  0.50086433  0.42931910  1
  Si  Si9  1  0.77399417  0.24758669  0.22542627  1
  Si  Si10  1  0.22600583  0.25241331  0.72542627  1
  Si  Si11  1  0.72714636  -0.00086433  0.92931910  1
  Si  Si12  1  0.22714636  1.00086433  0.57068090  1
  Si  Si13  1  0.27399417  0.75241331  0.27457373  1
  Si  Si14  1  0.77285364  0.49913567  0.07068090  1
  Si  Si15  1  0.72600583  0.74758669  0.77457373  1
  O  O16  1  0.00223309  0.14616393  0.17494713  1
  O  O17  1  0.99776691  0.35383607  0.67494713  1
  O  O18  1  0.14875786  0.82031474  0.57516426  1
  O  O19  1  0.49769702  0.57595798  0.49725522  1
  O  O20  1  0.23696795  0.07438005  0.68593959  1
  O  O21  1  0.26303205  0.57438005  0.31406041  1
  O  O22  1  0.33413474  0.75977089  0.15319843  1
  O  O23  1  0.83413474  0.24022911  0.34680157  1
  O  O24  1  0.64875786  0.17968526  0.92483574  1
  O  O25  1  0.66586526  0.74022911  0.65319843  1
  O  O26  1  0.52071619  0.15339002  0.19257962  1
  O  O27  1  0.97928381  0.65339002  0.80742038  1
  O  O28  1  0.49776691  0.64616393  0.82505287  1
  O  O29  1  0.50223309  0.85383607  0.32505287  1
  O  O30  1  0.98600677  0.97144616  0.99099063  1
  O  O31  1  0.48600677  0.02855384  0.50900937  1
  O  O32  1  -0.00230298  0.42404202  0.00274478  1
  O  O33  1  1.00230298  0.07595798  0.50274478  1
  O  O34  1  0.73696795  0.92561995  0.81406041  1
  O  O35  1  0.51399323  0.47144616  0.00900937  1
  O  O36  1  0.76303205  0.42561995  0.18593959  1
  O  O37  1  0.01399323  0.52855384  0.49099063  1
  O  O38  1  0.02071619  0.84660998  0.30742038  1
  O  O39  1  0.50230298  0.92404202  0.99725522  1
  O  O40  1  0.47928381  0.34660998  0.69257962  1
  O  O41  1  0.35124214  0.32031474  0.42483574  1
  O  O42  1  0.16586526  0.25977089  0.84680157  1
  O  O43  1  0.85124214  0.67968526  0.07516426  1
