# generated using pymatgen
data_Sr(PO3)2
_symmetry_space_group_name_H-M   'P 1'
_cell_length_a   4.55874952
_cell_length_b   10.51745398
_cell_length_c   11.06983115
_cell_angle_alpha   90.00000000
_cell_angle_beta   90.00000000
_cell_angle_gamma   91.54000429
_symmetry_Int_Tables_number   1
_chemical_formula_structural   Sr(PO3)2
_chemical_formula_sum   'Sr4 P8 O24'
_cell_volume   530.56726768
_cell_formula_units_Z   4
loop_
 _symmetry_equiv_pos_site_id
 _symmetry_equiv_pos_as_xyz
  1  'x, y, z'
loop_
 _atom_site_type_symbol
 _atom_site_label
 _atom_site_symmetry_multiplicity
 _atom_site_fract_x
 _atom_site_fract_y
 _atom_site_fract_z
 _atom_site_occupancy
  Sr  Sr0  1  0.96832241  0.98534880  0.80738284  1
  Sr  Sr1  1  0.03167759  0.01465120  0.19261716  1
  Sr  Sr2  1  0.96832241  0.48534880  0.69261716  1
  Sr  Sr3  1  0.03167759  0.51465120  0.30738284  1
  P  P4  1  0.56344667  0.79335961  0.34936418  1
  P  P5  1  0.43655333  0.20664039  0.65063582  1
  P  P6  1  0.06910753  0.28355069  0.98671113  1
  P  P7  1  0.93089247  0.71644931  0.01328887  1
  P  P8  1  0.43655333  0.70664039  0.84936418  1
  P  P9  1  0.93089247  0.21644931  0.48671113  1
  P  P10  1  0.06910753  0.78355069  0.51328887  1
  P  P11  1  0.56344667  0.29335961  0.15063582  1
  O  O12  1  0.10320223  0.66923628  0.89070335  1
  O  O13  1  0.95804589  0.35989137  0.48461751  1
  O  O14  1  0.04195411  0.64010863  0.51538249  1
  O  O15  1  0.49936319  0.38655373  0.24944239  1
  O  O16  1  0.95804589  0.85989137  0.01538249  1
  O  O17  1  0.01616783  0.14254504  0.37889812  1
  O  O18  1  0.50063681  0.11344627  0.74944239  1
  O  O19  1  0.39271992  0.33102927  0.02754120  1
  O  O20  1  0.89679777  0.33076372  0.10929665  1
  O  O21  1  0.50063681  0.61344627  0.75055761  1
  O  O22  1  0.53097718  0.65268216  0.32775716  1
  O  O23  1  0.04195411  0.14010863  0.98461751  1
  O  O24  1  0.46902282  0.84731784  0.82775716  1
  O  O25  1  0.98383217  0.85745496  0.62110188  1
  O  O26  1  0.10320223  0.16923628  0.60929665  1
  O  O27  1  0.39271992  0.83102927  0.47245880  1
  O  O28  1  0.98383217  0.35745496  0.87889812  1
  O  O29  1  0.46902282  0.34731784  0.67224284  1
  O  O30  1  0.89679777  0.83076372  0.39070335  1
  O  O31  1  0.60728008  0.66897073  0.97245880  1
  O  O32  1  0.49936319  0.88655373  0.25055761  1
  O  O33  1  0.60728008  0.16897073  0.52754120  1
  O  O34  1  0.01616783  0.64254504  0.12110188  1
  O  O35  1  0.53097718  0.15268216  0.17224284  1
