# generated using pymatgen
data_CaZrAl9BO18
_symmetry_space_group_name_H-M   'P 1'
_cell_length_a   8.80807996
_cell_length_b   8.80807961
_cell_length_c   8.56268989
_cell_angle_alpha   90.00000000
_cell_angle_beta   90.00000000
_cell_angle_gamma   120.00000133
_symmetry_Int_Tables_number   1
_chemical_formula_structural   CaZrAl9BO18
_chemical_formula_sum   'Ca2 Zr2 Al18 B2 O36'
_cell_volume   575.31185257
_cell_formula_units_Z   2
loop_
 _symmetry_equiv_pos_site_id
 _symmetry_equiv_pos_as_xyz
  1  'x, y, z'
loop_
 _atom_site_type_symbol
 _atom_site_label
 _atom_site_symmetry_multiplicity
 _atom_site_fract_x
 _atom_site_fract_y
 _atom_site_fract_z
 _atom_site_occupancy
  Ca  Ca0  1  0.00000000  0.00000000  0.99466532  1
  Ca  Ca1  1  0.00000000  0.00000000  0.49466532  1
  Zr  Zr2  1  0.66666700  0.33333300  0.24966437  1
  Zr  Zr3  1  0.33333300  0.66666700  0.74966437  1
  Al  Al4  1  0.36057712  0.01764487  0.57768878  1
  Al  Al5  1  0.01764487  0.65706775  0.07768878  1
  Al  Al6  1  0.33678911  0.00428065  0.24939845  1
  Al  Al7  1  0.65659199  0.63887532  0.92151005  1
  Al  Al8  1  0.63887532  0.98228332  0.42151005  1
  Al  Al9  1  0.63942288  0.98235513  0.07768878  1
  Al  Al10  1  0.36112468  0.01771668  0.92151005  1
  Al  Al11  1  0.98228332  0.34340801  0.92151005  1
  Al  Al12  1  0.34293225  0.36057712  0.07768878  1
  Al  Al13  1  0.65706775  0.63942288  0.57768878  1
  Al  Al14  1  0.66749154  0.66321089  0.24939845  1
  Al  Al15  1  0.01771668  0.65659199  0.42151005  1
  Al  Al16  1  0.66321089  0.99571935  0.74939845  1
  Al  Al17  1  0.99571935  0.33250846  0.24939845  1
  Al  Al18  1  0.34340801  0.36112468  0.42151005  1
  Al  Al19  1  0.98235513  0.34293225  0.57768878  1
  Al  Al20  1  0.33250846  0.33678911  0.74939845  1
  Al  Al21  1  0.00428065  0.66749154  0.74939845  1
  B  B22  1  0.33333300  0.66666700  0.24953805  1
  B  B23  1  0.66666700  0.33333300  0.74953805  1
  O  O24  1  0.88981928  0.67041241  0.24974109  1
  O  O25  1  0.19235983  0.89276779  0.41715046  1
  O  O26  1  0.40525153  0.52243715  0.59226067  1
  O  O27  1  0.59492218  0.47774228  0.40693675  1
  O  O28  1  0.67041241  0.78059312  0.74974109  1
  O  O29  1  0.70040796  0.80764017  0.41715046  1
  O  O30  1  0.47774228  0.88282010  0.90693675  1
  O  O31  1  0.89276779  0.70040796  0.91715046  1
  O  O32  1  0.89322307  0.70118590  0.58170358  1
  O  O33  1  0.44685711  0.84572511  0.24952091  1
  O  O34  1  0.88282010  0.40507782  0.40693675  1
  O  O35  1  0.11717990  0.59492218  0.90693675  1
  O  O36  1  0.21940688  0.88981928  0.74974109  1
  O  O37  1  0.10723221  0.29959204  0.41715046  1
  O  O38  1  0.29959204  0.19235983  0.91715046  1
  O  O39  1  0.11018072  0.32958759  0.74974109  1
  O  O40  1  0.10677693  0.29881410  0.08170358  1
  O  O41  1  0.11718562  0.59474847  0.59226067  1
  O  O42  1  0.88281438  0.40525153  0.09226067  1
  O  O43  1  0.19203717  0.89322307  0.08170358  1
  O  O44  1  0.55314289  0.15427489  0.74952091  1
  O  O45  1  0.84572511  0.39886800  0.74952091  1
  O  O46  1  0.15427489  0.60113200  0.24952091  1
  O  O47  1  0.39886800  0.55314289  0.24952091  1
  O  O48  1  0.70118590  0.80796283  0.08170358  1
  O  O49  1  0.40507782  0.52225772  0.90693675  1
  O  O50  1  0.80764017  0.10723221  0.91715046  1
  O  O51  1  0.60113200  0.44685711  0.74952091  1
  O  O52  1  0.52225772  0.11717990  0.40693675  1
  O  O53  1  0.47756285  0.88281438  0.59226067  1
  O  O54  1  0.78059312  0.11018072  0.24974109  1
  O  O55  1  0.59474847  0.47756285  0.09226067  1
  O  O56  1  0.32958759  0.21940688  0.24974109  1
  O  O57  1  0.52243715  0.11718562  0.09226067  1
  O  O58  1  0.80796283  0.10677693  0.58170358  1
  O  O59  1  0.29881410  0.19203717  0.58170358  1
