# generated using pymatgen
data_K4Nb2S10O
_symmetry_space_group_name_H-M   'P 1'
_cell_length_a   7.68215340
_cell_length_b   12.93657043
_cell_length_c   18.15251544
_cell_angle_alpha   90.00000000
_cell_angle_beta   90.00000000
_cell_angle_gamma   90.00000000
_symmetry_Int_Tables_number   1
_chemical_formula_structural   K4Nb2S10O
_chemical_formula_sum   'K16 Nb8 S40 O4'
_cell_volume   1804.01002725
_cell_formula_units_Z   4
loop_
 _symmetry_equiv_pos_site_id
 _symmetry_equiv_pos_as_xyz
  1  'x, y, z'
loop_
 _atom_site_type_symbol
 _atom_site_label
 _atom_site_symmetry_multiplicity
 _atom_site_fract_x
 _atom_site_fract_y
 _atom_site_fract_z
 _atom_site_occupancy
  K  K0  1  0.78906175  0.93999072  0.16483708  1
  K  K1  1  0.85646725  0.90240283  0.46444199  1
  K  K2  1  0.21093825  0.43999072  0.16483708  1
  K  K3  1  0.85646725  0.59759717  0.96444199  1
  K  K4  1  0.21093825  0.06000928  0.66483708  1
  K  K5  1  0.14353275  0.40240283  0.46444199  1
  K  K6  1  0.81387852  0.24015328  0.79976964  1
  K  K7  1  0.14353275  0.09759717  0.96444199  1
  K  K8  1  0.66758713  0.23512713  0.03173080  1
  K  K9  1  0.18612148  0.75984672  0.29976964  1
  K  K10  1  0.78906175  0.56000928  0.66483708  1
  K  K11  1  0.81387852  0.25984672  0.29976964  1
  K  K12  1  0.66758713  0.26487287  0.53173080  1
  K  K13  1  0.18612148  0.74015328  0.79976964  1
  K  K14  1  0.33241287  0.76487287  0.53173080  1
  K  K15  1  0.33241287  0.73512713  0.03173080  1
  Nb  Nb16  1  0.74249438  0.96306499  0.89541968  1
  Nb  Nb17  1  0.25750562  0.03693501  0.39541968  1
  Nb  Nb18  1  0.21446531  0.39840550  0.70582005  1
  Nb  Nb19  1  0.74249438  0.53693501  0.39541968  1
  Nb  Nb20  1  0.21446531  0.10159450  0.20582005  1
  Nb  Nb21  1  0.78553469  0.89840550  0.70582005  1
  Nb  Nb22  1  0.25750562  0.46306499  0.89541968  1
  Nb  Nb23  1  0.78553469  0.60159450  0.20582005  1
  S  S24  1  0.02636453  0.35082556  0.95072886  1
  S  S25  1  0.75238082  0.77209188  0.80972028  1
  S  S26  1  0.25032705  0.93031310  0.14744089  1
  S  S27  1  0.53754125  0.48927393  0.29409053  1
  S  S28  1  0.57665177  0.43617775  0.88359314  1
  S  S29  1  0.26643280  0.34033071  0.00335735  1
  S  S30  1  0.46245875  0.51072607  0.79409053  1
  S  S31  1  0.75238082  0.72790812  0.30972028  1
  S  S32  1  0.03042937  0.49559585  0.79762056  1
  S  S33  1  0.97363547  0.85082556  0.95072886  1
  S  S34  1  0.46245875  0.98927393  0.29409053  1
  S  S35  1  0.99301653  0.17340312  0.14033779  1
  S  S36  1  0.24761918  0.27209188  0.80972028  1
  S  S37  1  0.57665177  0.06382225  0.38359314  1
  S  S38  1  0.42556877  0.24205346  0.22409029  1
  S  S39  1  0.59007728  0.54383683  0.10223489  1
  S  S40  1  0.03042937  0.00440415  0.29762056  1
  S  S41  1  0.96957063  0.99559585  0.79762056  1
  S  S42  1  0.24761918  0.22790812  0.30972028  1
  S  S43  1  0.00698347  0.82659688  0.64033779  1
  S  S44  1  0.42334823  0.56382225  0.38359314  1
  S  S45  1  0.02636453  0.14917444  0.45072886  1
  S  S46  1  0.99301653  0.32659688  0.64033779  1
  S  S47  1  0.00698347  0.67340312  0.14033779  1
  S  S48  1  0.42556877  0.25794654  0.72409029  1
  S  S49  1  0.74967295  0.43031310  0.14744089  1
  S  S50  1  0.97363547  0.64917444  0.45072886  1
  S  S51  1  0.42334823  0.93617775  0.88359314  1
  S  S52  1  0.96957063  0.50440415  0.29762056  1
  S  S53  1  0.57443123  0.75794654  0.72409029  1
  S  S54  1  0.73356720  0.84033071  0.00335735  1
  S  S55  1  0.53754125  0.01072607  0.79409053  1
  S  S56  1  0.26643280  0.15966929  0.50335735  1
  S  S57  1  0.40992272  0.45616317  0.60223489  1
  S  S58  1  0.57443123  0.74205346  0.22409029  1
  S  S59  1  0.59007728  0.95616317  0.60223489  1
  S  S60  1  0.40992272  0.04383683  0.10223489  1
  S  S61  1  0.25032705  0.56968690  0.64744089  1
  S  S62  1  0.74967295  0.06968690  0.64744089  1
  S  S63  1  0.73356720  0.65966929  0.50335735  1
  O  O64  1  0.77194783  0.41615301  0.44271618  1
  O  O65  1  0.77194783  0.08384699  0.94271618  1
  O  O66  1  0.22805217  0.91615301  0.44271618  1
  O  O67  1  0.22805217  0.58384699  0.94271618  1
