# generated using pymatgen
data_Ti3(BiO3)4
_symmetry_space_group_name_H-M   'P 1'
_cell_length_a   5.43020651
_cell_length_b   5.49598955
_cell_length_c   17.00772813
_cell_angle_alpha   90.08359200
_cell_angle_beta   99.18596634
_cell_angle_gamma   89.99999924
_symmetry_Int_Tables_number   1
_chemical_formula_structural   Ti3(BiO3)4
_chemical_formula_sum   'Ti6 Bi8 O24'
_cell_volume   501.07461060
_cell_formula_units_Z   2
loop_
 _symmetry_equiv_pos_site_id
 _symmetry_equiv_pos_as_xyz
  1  'x, y, z'
loop_
 _atom_site_type_symbol
 _atom_site_label
 _atom_site_symmetry_multiplicity
 _atom_site_fract_x
 _atom_site_fract_y
 _atom_site_fract_z
 _atom_site_occupancy
  Ti  Ti0  1  0.00656360  0.48078915  0.00387615  1
  Ti  Ti1  1  0.13164728  0.47147359  0.25667104  1
  Ti  Ti2  1  0.36890454  0.97610615  0.74158313  1
  Ti  Ti3  1  0.87267859  0.47610615  0.74158313  1
  Ti  Ti4  1  0.62502376  0.97147359  0.25667104  1
  Ti  Ti5  1  0.49731254  0.98078915  0.00387615  1
  Bi  Bi6  1  0.71938783  0.53961599  0.41951862  1
  Bi  Bi7  1  0.78795351  0.03201538  0.57336885  1
  Bi  Bi8  1  0.20013078  0.03961599  0.41951862  1
  Bi  Bi9  1  0.43792377  0.52500150  0.86600416  1
  Bi  Bi10  1  0.28541533  0.53201538  0.57336885  1
  Bi  Bi11  1  0.56983195  0.51784368  0.13246888  1
  Bi  Bi12  1  0.06263693  0.01784368  0.13246888  1
  Bi  Bi13  1  0.92808039  0.02500150  0.86600416  1
  O  O14  1  0.72525369  0.23167130  0.02507938  1
  O  O15  1  0.27411977  0.97052126  0.63772073  1
  O  O16  1  0.32359169  0.15253242  0.25159380  1
  O  O17  1  0.48106471  0.92832552  0.12014464  1
  O  O18  1  0.99774098  0.26293239  0.49875533  1
  O  O19  1  0.87438912  0.43373355  0.88916848  1
  O  O20  1  0.13907993  0.42832552  0.12014464  1
  O  O21  1  0.89419783  0.73084239  0.22168831  1
  O  O22  1  0.51477936  0.93373355  0.88916848  1
  O  O23  1  0.73920106  0.96050159  0.36160441  1
  O  O24  1  0.12037756  0.73078351  0.77833655  1
  O  O25  1  0.86360096  0.47052126  0.63772073  1
  O  O26  1  0.19821672  0.15385882  0.98762123  1
  O  O27  1  0.59178721  0.67713498  0.75535882  1
  O  O28  1  0.42800211  0.65253242  0.25159380  1
  O  O29  1  0.49732360  0.26661682  0.49823751  1
  O  O30  1  0.15795898  0.23078351  0.77833655  1
  O  O31  1  0.12240335  0.46050159  0.36160441  1
  O  O32  1  0.28940451  0.65385882  0.98762123  1
  O  O33  1  0.00101435  0.76293239  0.49875533  1
  O  O34  1  0.82749048  0.23084239  0.22168831  1
  O  O35  1  0.50091391  0.76661682  0.49823751  1
  O  O36  1  0.66357161  0.17713498  0.75535882  1
  O  O37  1  0.79982569  0.73167130  0.02507938  1
