# generated using pymatgen
data_LiUAsO6
_symmetry_space_group_name_H-M   'P 1'
_cell_length_a   5.17043091
_cell_length_b   5.43623465
_cell_length_c   10.12710734
_cell_angle_alpha   90.30572470
_cell_angle_beta   97.37318837
_cell_angle_gamma   104.32309255
_symmetry_Int_Tables_number   1
_chemical_formula_structural   LiUAsO6
_chemical_formula_sum   'Li2 U2 As2 O12'
_cell_volume   273.31715623
_cell_formula_units_Z   2
loop_
 _symmetry_equiv_pos_site_id
 _symmetry_equiv_pos_as_xyz
  1  'x, y, z'
loop_
 _atom_site_type_symbol
 _atom_site_label
 _atom_site_symmetry_multiplicity
 _atom_site_fract_x
 _atom_site_fract_y
 _atom_site_fract_z
 _atom_site_occupancy
  Li  Li0  1  0.94707819  0.55232520  0.22927001  1
  Li  Li1  1  0.05292181  0.44767480  0.77072999  1
  U  U2  1  0.50000000  0.50000000  0.50000000  1
  U  U3  1  0.00000000  0.00000000  0.00000000  1
  As  As4  1  0.42459804  0.02317940  0.74258882  1
  As  As5  1  0.57540196  0.97682060  0.25741118  1
  O  O6  1  0.17898933  0.49013289  0.39684083  1
  O  O7  1  0.22778831  0.31030542  0.98642703  1
  O  O8  1  0.73761248  0.14489491  0.83370456  1
  O  O9  1  0.70142090  0.73467192  0.32610036  1
  O  O10  1  0.79870458  0.15955679  0.16154483  1
  O  O11  1  0.29857910  0.26532808  0.67389964  1
  O  O12  1  0.45932794  0.82767947  0.61746531  1
  O  O13  1  0.26238752  0.85510509  0.16629544  1
  O  O14  1  0.54067206  0.17232053  0.38253469  1
  O  O15  1  0.20129542  0.84044321  0.83845517  1
  O  O16  1  0.82101067  0.50986711  0.60315917  1
  O  O17  1  0.77221169  0.68969458  0.01357297  1
