# generated using pymatgen
data_Na5La(WO4)4
_symmetry_space_group_name_H-M   'P 1'
_cell_length_a   10.20332637
_cell_length_b   10.20332602
_cell_length_c   10.20332588
_cell_angle_alpha   108.95005395
_cell_angle_beta   108.95005327
_cell_angle_gamma   110.51865626
_symmetry_Int_Tables_number   1
_chemical_formula_structural   Na5La(WO4)4
_chemical_formula_sum   'Na10 La2 W8 O32'
_cell_volume   817.51236072
_cell_formula_units_Z   2
loop_
 _symmetry_equiv_pos_site_id
 _symmetry_equiv_pos_as_xyz
  1  'x, y, z'
loop_
 _atom_site_type_symbol
 _atom_site_label
 _atom_site_symmetry_multiplicity
 _atom_site_fract_x
 _atom_site_fract_y
 _atom_site_fract_z
 _atom_site_occupancy
  Na  Na0  1  0.62500000  0.87500000  0.75000000  1
  Na  Na1  1  0.37500000  0.12500000  0.25000000  1
  Na  Na2  1  0.77871846  0.20385396  0.16725440  1
  Na  Na3  1  0.70385396  0.03659956  0.42513550  1
  Na  Na4  1  0.11146406  0.27871846  0.07486450  1
  Na  Na5  1  0.53659956  0.61146406  0.33274560  1
  Na  Na6  1  0.22128154  0.79614604  0.83274560  1
  Na  Na7  1  0.29614604  0.96340044  0.57486450  1
  Na  Na8  1  0.88853594  0.72128154  0.92513550  1
  Na  Na9  1  0.46340044  0.38853594  0.66725440  1
  La  La10  1  0.12500000  0.37500000  0.75000000  1
  La  La11  1  0.87500000  0.62500000  0.25000000  1
  W  W12  1  0.04466389  0.07495378  0.33420355  1
  W  W13  1  0.57495378  0.74075023  0.03028988  1
  W  W14  1  0.21046035  0.54466389  0.46971012  1
  W  W15  1  0.24075023  0.71046035  0.16579645  1
  W  W16  1  0.95533611  0.92504622  0.66579645  1
  W  W17  1  0.42504622  0.25924977  0.96971012  1
  W  W18  1  0.78953965  0.45533611  0.53028988  1
  W  W19  1  0.75924977  0.28953965  0.83420355  1
  O  O20  1  0.93046986  0.85746695  0.19633207  1
  O  O21  1  0.35746695  0.66113487  0.92699809  1
  O  O22  1  0.23413679  0.43046986  0.57300191  1
  O  O23  1  0.16113487  0.73413679  0.30366793  1
  O  O24  1  0.06953014  0.14253305  0.80366793  1
  O  O25  1  0.64253305  0.33886513  0.07300191  1
  O  O26  1  0.76586321  0.56953014  0.42699809  1
  O  O27  1  0.83886513  0.26586321  0.69633207  1
  O  O28  1  0.01480546  0.16749042  0.21267109  1
  O  O29  1  0.66749042  0.95481933  0.15268496  1
  O  O30  1  0.30213437  0.51480546  0.34731504  1
  O  O31  1  0.45481933  0.80213437  0.28732891  1
  O  O32  1  0.98519454  0.83250958  0.78732891  1
  O  O33  1  0.33250958  0.04518067  0.84731504  1
  O  O34  1  0.69786563  0.48519454  0.65268496  1
  O  O35  1  0.54518067  0.19786563  0.71267109  1
  O  O36  1  0.97792073  0.12964200  0.48133826  1
  O  O37  1  0.62964200  0.64830474  0.15172127  1
  O  O38  1  0.99658247  0.47792073  0.34827873  1
  O  O39  1  0.14830474  0.49658247  0.01866174  1
  O  O40  1  0.02207927  0.87035800  0.51866174  1
  O  O41  1  0.37035800  0.35169526  0.84827873  1
  O  O42  1  0.00341753  0.52207927  0.65172127  1
  O  O43  1  0.85169526  0.50341753  0.98133826  1
  O  O44  1  0.25507019  0.13100518  0.42372859  1
  O  O45  1  0.63100518  0.70727659  0.87593399  1
  O  O46  1  0.33134260  0.75507019  0.62406601  1
  O  O47  1  0.20727659  0.83134260  0.07627141  1
  O  O48  1  0.74492981  0.86899482  0.57627141  1
  O  O49  1  0.36899482  0.29272341  0.12406601  1
  O  O50  1  0.66865740  0.24492981  0.37593399  1
  O  O51  1  0.79272341  0.16865740  0.92372859  1
