# generated using pymatgen
data_KNd(SO4)2
_symmetry_space_group_name_H-M   'P 1'
_cell_length_a   5.43518121
_cell_length_b   7.02535237
_cell_length_c   9.18454502
_cell_angle_alpha   97.60671639
_cell_angle_beta   92.44854756
_cell_angle_gamma   90.98263276
_symmetry_Int_Tables_number   1
_chemical_formula_structural   KNd(SO4)2
_chemical_formula_sum   'K2 Nd2 S4 O16'
_cell_volume   347.20759418
_cell_formula_units_Z   2
loop_
 _symmetry_equiv_pos_site_id
 _symmetry_equiv_pos_as_xyz
  1  'x, y, z'
loop_
 _atom_site_type_symbol
 _atom_site_label
 _atom_site_symmetry_multiplicity
 _atom_site_fract_x
 _atom_site_fract_y
 _atom_site_fract_z
 _atom_site_occupancy
  K  K0  1  0.72534277  0.17765347  0.18474517  1
  K  K1  1  0.27465723  0.82234653  0.81525483  1
  Nd  Nd2  1  0.24684358  0.69620999  0.27946621  1
  Nd  Nd3  1  0.75315642  0.30379001  0.72053379  1
  S  S4  1  0.23675454  0.31579303  0.92732535  1
  S  S5  1  0.77147321  0.77606940  0.55979392  1
  S  S6  1  0.76324546  0.68420697  0.07267465  1
  S  S7  1  0.22852679  0.22393060  0.44020608  1
  O  O8  1  0.72802620  0.56944860  0.92689385  1
  O  O9  1  0.30918165  0.39702542  0.37598907  1
  O  O10  1  0.69081835  0.60297458  0.62401093  1
  O  O11  1  0.02484559  0.74891051  0.50523016  1
  O  O12  1  0.22233862  0.05638861  0.32202506  1
  O  O13  1  0.45912256  0.19569590  0.89797663  1
  O  O14  1  0.98686260  0.81289888  0.07855078  1
  O  O15  1  0.19774696  0.43706575  0.80629996  1
  O  O16  1  0.97515441  0.25108949  0.49476984  1
  O  O17  1  0.54087744  0.80430410  0.10202337  1
  O  O18  1  0.80225304  0.56293425  0.19370004  1
  O  O19  1  0.27197380  0.43055140  0.07310615  1
  O  O20  1  0.01313740  0.18710112  0.92144922  1
  O  O21  1  0.77766138  0.94361139  0.67797494  1
  O  O22  1  0.40309633  0.19116912  0.56206302  1
  O  O23  1  0.59690367  0.80883088  0.43793698  1
