# generated using pymatgen
data_Li7Mn2(CoO4)3
_symmetry_space_group_name_H-M   'P 1'
_cell_length_a   2.88454568
_cell_length_b   14.55359066
_cell_length_c   5.15332953
_cell_angle_alpha   89.67121307
_cell_angle_beta   88.88071385
_cell_angle_gamma   91.00840297
_symmetry_Int_Tables_number   1
_chemical_formula_structural   Li7Mn2(CoO4)3
_chemical_formula_sum   'Li7 Mn2 Co3 O12'
_cell_volume   216.26055428
_cell_formula_units_Z   1
loop_
 _symmetry_equiv_pos_site_id
 _symmetry_equiv_pos_as_xyz
  1  'x, y, z'
loop_
 _atom_site_type_symbol
 _atom_site_label
 _atom_site_symmetry_multiplicity
 _atom_site_fract_x
 _atom_site_fract_y
 _atom_site_fract_z
 _atom_site_occupancy
  Li  Li0  1  0.98751165  0.18842276  0.69915839  1
  Li  Li1  1  0.51029861  0.49478596  0.48862559  1
  Li  Li2  1  0.99839834  0.82706348  0.33549263  1
  Li  Li3  1  0.49436246  0.17400732  0.17626051  1
  Li  Li4  1  0.00456202  0.48942269  0.97327740  1
  Li  Li5  1  0.49353958  0.82952293  0.83481677  1
  Li  Li6  1  0.50087098  0.33538972  0.83488710  1
  Mn  Mn7  1  0.99794642  0.00008925  0.00063520  1
  Mn  Mn8  1  0.00252033  0.33343214  0.33299695  1
  Co  Co9  1  0.00134650  0.66502561  0.66418531  1
  Co  Co10  1  0.49748790  0.00097645  0.50216608  1
  Co  Co11  1  0.50094459  0.66468307  0.16308624  1
  O  O12  1  0.50871415  0.07523054  0.86001077  1
  O  O13  1  0.00188881  0.41039789  0.63171740  1
  O  O14  1  0.48325335  0.74505943  0.50495657  1
  O  O15  1  0.00074396  0.06961868  0.31664471  1
  O  O16  1  0.51256396  0.40659264  0.18149930  1
  O  O17  1  0.98192258  0.74367398  0.00363035  1
  O  O18  1  0.49302167  0.25808119  0.48793083  1
  O  O19  1  0.02055946  0.59137692  0.32484015  1
  O  O20  1  0.48779060  0.92424119  0.14175229  1
  O  O21  1  0.00349052  0.25584875  0.03346089  1
  O  O22  1  0.52119248  0.58915287  0.82472494  1
  O  O23  1  0.99506906  0.92790456  0.68324361  1
