# generated using pymatgen
data_Cu9Se4(Cl3O7)2
_symmetry_space_group_name_H-M   'P 1'
_cell_length_a   6.32225059
_cell_length_b   8.28914621
_cell_length_c   11.95654826
_cell_angle_alpha   79.81930401
_cell_angle_beta   74.66962279
_cell_angle_gamma   67.58222437
_symmetry_Int_Tables_number   1
_chemical_formula_structural   Cu9Se4(Cl3O7)2
_chemical_formula_sum   'Cu9 Se4 Cl6 O14'
_cell_volume   556.60176729
_cell_formula_units_Z   1
loop_
 _symmetry_equiv_pos_site_id
 _symmetry_equiv_pos_as_xyz
  1  'x, y, z'
loop_
 _atom_site_type_symbol
 _atom_site_label
 _atom_site_symmetry_multiplicity
 _atom_site_fract_x
 _atom_site_fract_y
 _atom_site_fract_z
 _atom_site_occupancy
  Cu  Cu0  1  0.87837864  0.14945610  0.09378661  1
  Cu  Cu1  1  0.28911841  0.15649688  0.26526631  1
  Cu  Cu2  1  0.38445158  0.44631567  0.78478118  1
  Cu  Cu3  1  0.61554842  0.55368433  0.21521882  1
  Cu  Cu4  1  0.50000000  0.50000000  0.50000000  1
  Cu  Cu5  1  0.12162136  0.85054390  0.90621339  1
  Cu  Cu6  1  0.50000000  0.50000000  0.00000000  1
  Cu  Cu7  1  0.71088159  0.84350312  0.73473369  1
  Cu  Cu8  1  0.00000000  0.50000000  0.00000000  1
  Se  Se9  1  0.96055376  0.27372815  0.80516433  1
  Se  Se10  1  0.03944624  0.72627185  0.19483567  1
  Se  Se11  1  0.25407802  0.85408464  0.63775932  1
  Se  Se12  1  0.74592198  0.14591536  0.36224068  1
  Cl  Cl13  1  0.36711915  0.19541387  0.07034783  1
  Cl  Cl14  1  0.44874063  0.74132740  0.36119134  1
  Cl  Cl15  1  0.63288085  0.80458613  0.92965217  1
  Cl  Cl16  1  0.55125937  0.25867260  0.63880866  1
  Cl  Cl17  1  0.16394815  0.22508059  0.44702312  1
  Cl  Cl18  1  0.83605185  0.77491941  0.55297688  1
  O  O19  1  0.75861130  0.40367669  0.07910072  1
  O  O20  1  0.91938550  0.59397640  0.15420585  1
  O  O21  1  0.36851064  0.62737724  0.63560148  1
  O  O22  1  0.33243225  0.59397640  0.15420585  1
  O  O23  1  0.98415635  0.11088490  0.92080241  1
  O  O24  1  0.38088262  0.87804333  0.74598280  1
  O  O25  1  0.00490875  0.12195667  0.25401720  1
  O  O26  1  0.66756775  0.40602360  0.84579415  1
  O  O27  1  0.08061450  0.40602360  0.84579415  1
  O  O28  1  0.01584365  0.88911510  0.07919759  1
  O  O29  1  0.24138870  0.59632331  0.92089928  1
  O  O30  1  0.63148936  0.37262276  0.36439852  1
  O  O31  1  0.99509125  0.87804333  0.74598280  1
  O  O32  1  0.61911738  0.12195667  0.25401720  1
