# generated using pymatgen
data_Ca(GaO2)2
_symmetry_space_group_name_H-M   'P 1'
_cell_length_a   7.83661744
_cell_length_b   9.24074180
_cell_length_c   10.45652217
_cell_angle_alpha   90.00000000
_cell_angle_beta   90.00000000
_cell_angle_gamma   90.00000000
_symmetry_Int_Tables_number   1
_chemical_formula_structural   Ca(GaO2)2
_chemical_formula_sum   'Ca8 Ga16 O32'
_cell_volume   757.22116524
_cell_formula_units_Z   8
loop_
 _symmetry_equiv_pos_site_id
 _symmetry_equiv_pos_as_xyz
  1  'x, y, z'
loop_
 _atom_site_type_symbol
 _atom_site_label
 _atom_site_symmetry_multiplicity
 _atom_site_fract_x
 _atom_site_fract_y
 _atom_site_fract_z
 _atom_site_occupancy
  Ca  Ca0  1  0.50258605  0.07858622  0.88686758  1
  Ca  Ca1  1  0.49593331  0.62695066  0.67912564  1
  Ca  Ca2  1  0.99593331  0.12695066  0.82087436  1
  Ca  Ca3  1  0.00258605  0.57858622  0.61313242  1
  Ca  Ca4  1  0.50406669  0.12695066  0.32087436  1
  Ca  Ca5  1  0.49741395  0.57858622  0.11313242  1
  Ca  Ca6  1  0.99741395  0.07858622  0.38686758  1
  Ca  Ca7  1  0.00406669  0.62695066  0.17912564  1
  Ga  Ga8  1  0.78598318  0.75113427  0.88304466  1
  Ga  Ga9  1  0.74303089  0.42396009  0.84789241  1
  Ga  Ga10  1  0.69370237  0.92373645  0.62862278  1
  Ga  Ga11  1  0.25696911  0.92396009  0.15210759  1
  Ga  Ga12  1  0.28598318  0.25113427  0.61695534  1
  Ga  Ga13  1  0.80629763  0.92373645  0.12862278  1
  Ga  Ga14  1  0.71401682  0.75113427  0.38304466  1
  Ga  Ga15  1  0.30629763  0.42373645  0.37137722  1
  Ga  Ga16  1  0.31267725  0.75095909  0.40619993  1
  Ga  Ga17  1  0.81267725  0.25095909  0.09380007  1
  Ga  Ga18  1  0.68732275  0.25095909  0.59380007  1
  Ga  Ga19  1  0.75696911  0.42396009  0.34789241  1
  Ga  Ga20  1  0.24303089  0.92396009  0.65210759  1
  Ga  Ga21  1  0.19370237  0.42373645  0.87137722  1
  Ga  Ga22  1  0.21401682  0.25113427  0.11695534  1
  Ga  Ga23  1  0.18732275  0.75095909  0.90619993  1
  O  O24  1  0.33799576  0.92417734  0.32080725  1
  O  O25  1  0.67333313  0.27216567  0.95129386  1
  O  O26  1  0.97863079  0.68817261  0.96855187  1
  O  O27  1  0.25028109  0.60121790  0.79545080  1
  O  O28  1  0.26112739  0.43056642  0.04281642  1
  O  O29  1  0.97339701  0.39808662  0.80186024  1
  O  O30  1  0.76112739  0.93056642  0.45718358  1
  O  O31  1  0.82666687  0.27216567  0.45129386  1
  O  O32  1  0.74971891  0.10121790  0.20454920  1
  O  O33  1  0.17333313  0.77216567  0.54870614  1
  O  O34  1  0.52136921  0.68817261  0.46855187  1
  O  O35  1  0.16200424  0.92417734  0.82080725  1
  O  O36  1  0.47339701  0.89808662  0.69813976  1
  O  O37  1  0.23887261  0.43056642  0.54281642  1
  O  O38  1  0.13713311  0.09344738  0.59129506  1
  O  O39  1  0.70453743  0.75703927  0.20333703  1
  O  O40  1  0.02136921  0.18817261  0.03144813  1
  O  O41  1  0.75028109  0.10121790  0.70454920  1
  O  O42  1  0.32666687  0.77216567  0.04870614  1
  O  O43  1  0.24971891  0.60121790  0.29545080  1
  O  O44  1  0.20453743  0.25703927  0.29666297  1
  O  O45  1  0.73887261  0.93056642  0.95718358  1
  O  O46  1  0.52660299  0.39808662  0.30186024  1
  O  O47  1  0.86286689  0.59344738  0.40870494  1
  O  O48  1  0.79546257  0.75703927  0.70333703  1
  O  O49  1  0.29546257  0.25703927  0.79666297  1
  O  O50  1  0.47863079  0.18817261  0.53144813  1
  O  O51  1  0.36286689  0.09344738  0.09129506  1
  O  O52  1  0.83799576  0.42417734  0.17919275  1
  O  O53  1  0.02660299  0.89808662  0.19813976  1
  O  O54  1  0.63713311  0.59344738  0.90870494  1
  O  O55  1  0.66200424  0.42417734  0.67919275  1
