# generated using pymatgen
data_Li7Mn2(CoO4)3
_symmetry_space_group_name_H-M   'P 1'
_cell_length_a   2.92088302
_cell_length_b   14.56835700
_cell_length_c   5.08092223
_cell_angle_alpha   88.68609313
_cell_angle_beta   90.00000000
_cell_angle_gamma   90.00000000
_symmetry_Int_Tables_number   1
_chemical_formula_structural   Li7Mn2(CoO4)3
_chemical_formula_sum   'Li7 Mn2 Co3 O12'
_cell_volume   216.14892719
_cell_formula_units_Z   1
loop_
 _symmetry_equiv_pos_site_id
 _symmetry_equiv_pos_as_xyz
  1  'x, y, z'
loop_
 _atom_site_type_symbol
 _atom_site_label
 _atom_site_symmetry_multiplicity
 _atom_site_fract_x
 _atom_site_fract_y
 _atom_site_fract_z
 _atom_site_occupancy
  Li  Li0  1  -0.00000000  0.50391167  0.99655198  1
  Li  Li1  1  0.50000000  0.83757055  0.16480979  1
  Li  Li2  1  -0.00000000  0.15287347  0.34996755  1
  Li  Li3  1  -0.00000000  0.84377604  0.64834039  1
  Li  Li4  1  0.50000000  0.15630193  0.83165059  1
  Li  Li5  1  0.50000000  0.50561975  0.50235799  1
  Li  Li6  1  0.50000000  0.99973730  0.50054525  1
  Mn  Mn7  1  0.00000000  0.99955344  -0.00022135  1
  Mn  Mn8  1  0.50000000  0.33353157  0.16807430  1
  Co  Co9  1  0.00000000  0.66792595  0.33102928  1
  Co  Co10  1  -0.00000000  0.33232453  0.66757700  1
  Co  Co11  1  0.50000000  0.66783595  0.83128203  1
  O  O12  1  -0.00000000  0.74182032  0.01167661  1
  O  O13  1  0.50000000  0.07327976  0.14975925  1
  O  O14  1  -0.00000000  0.40871774  0.30668652  1
  O  O15  1  -0.00000000  0.07995580  0.69261642  1
  O  O16  1  0.50000000  0.40643185  0.84182032  1
  O  O17  1  0.50000000  0.74359145  0.51411517  1
  O  O18  1  0.00000000  0.25980592  0.03223357  1
  O  O19  1  0.50000000  0.58893430  0.15604309  1
  O  O20  1  0.00000000  0.92134044  0.30691794  1
  O  O21  1  -0.00000000  0.58780878  0.65467572  1
  O  O22  1  0.50000000  0.92672111  0.85017668  1
  O  O23  1  0.50000000  0.26063037  0.49131391  1
