# generated using pymatgen
data_Cs11O3
_symmetry_space_group_name_H-M   'P 1'
_cell_length_a   9.34977427
_cell_length_b   17.82712016
_cell_length_c   24.33323432
_cell_angle_alpha   100.20009364
_cell_angle_beta   90.00000000
_cell_angle_gamma   90.00000000
_symmetry_Int_Tables_number   1
_chemical_formula_structural   Cs11O3
_chemical_formula_sum   'Cs44 O12'
_cell_volume   3991.75107438
_cell_formula_units_Z   4
loop_
 _symmetry_equiv_pos_site_id
 _symmetry_equiv_pos_as_xyz
  1  'x, y, z'
loop_
 _atom_site_type_symbol
 _atom_site_label
 _atom_site_symmetry_multiplicity
 _atom_site_fract_x
 _atom_site_fract_y
 _atom_site_fract_z
 _atom_site_occupancy
  Cs  Cs0  1  0.88584448  0.77994586  0.67693988  1
  Cs  Cs1  1  0.19685759  0.06594459  0.43179375  1
  Cs  Cs2  1  0.26318501  0.31593279  0.96894315  1
  Cs  Cs3  1  0.07031197  0.56415839  0.61779007  1
  Cs  Cs4  1  0.32928579  0.15128922  0.65088649  1
  Cs  Cs5  1  0.38584448  0.22005414  0.82306012  1
  Cs  Cs6  1  0.58090922  0.23887052  0.16897002  1
  Cs  Cs7  1  0.60469219  0.16162879  0.45402866  1
  Cs  Cs8  1  0.98072201  0.69675037  0.15909269  1
  Cs  Cs9  1  0.92968803  0.43584161  0.38220993  1
  Cs  Cs10  1  0.89530781  0.16162879  0.95402866  1
  Cs  Cs11  1  0.23681499  0.31593279  0.46894315  1
  Cs  Cs12  1  0.80314241  0.93405541  0.56820625  1
  Cs  Cs13  1  0.76318501  0.68406721  0.53105685  1
  Cs  Cs14  1  0.69685759  0.93405541  0.06820625  1
  Cs  Cs15  1  0.66726194  0.47415027  0.59854238  1
  Cs  Cs16  1  0.10469219  0.83837121  0.04597134  1
  Cs  Cs17  1  0.01927799  0.30324963  0.84090731  1
  Cs  Cs18  1  0.55754259  0.90860698  0.71675218  1
  Cs  Cs19  1  0.11415552  0.22005414  0.32306012  1
  Cs  Cs20  1  0.67071421  0.84871078  0.34911351  1
  Cs  Cs21  1  0.83273806  0.47415027  0.09854238  1
  Cs  Cs22  1  0.30314241  0.06594459  0.93179375  1
  Cs  Cs23  1  0.73681499  0.68406721  0.03105685  1
  Cs  Cs24  1  0.44245741  0.09139302  0.28324782  1
  Cs  Cs25  1  0.39530781  0.83837121  0.54597134  1
  Cs  Cs26  1  0.22018444  0.38002483  0.24342151  1
  Cs  Cs27  1  0.16726194  0.52584973  0.90145762  1
  Cs  Cs28  1  0.41909078  0.76112948  0.83102998  1
  Cs  Cs29  1  0.42968803  0.56415839  0.11779007  1
  Cs  Cs30  1  0.17071421  0.15128922  0.15088649  1
  Cs  Cs31  1  0.61415552  0.77994586  0.17693988  1
  Cs  Cs32  1  0.82928579  0.84871078  0.84911351  1
  Cs  Cs33  1  0.05754259  0.09139302  0.78324782  1
  Cs  Cs34  1  0.77981556  0.61997517  0.75657849  1
  Cs  Cs35  1  0.33273806  0.52584973  0.40145762  1
  Cs  Cs36  1  0.51927799  0.69675037  0.65909269  1
  Cs  Cs37  1  0.48072201  0.30324963  0.34090731  1
  Cs  Cs38  1  0.27981556  0.38002483  0.74342151  1
  Cs  Cs39  1  0.72018444  0.61997517  0.25657849  1
  Cs  Cs40  1  0.57031197  0.43584161  0.88220993  1
  Cs  Cs41  1  0.94245741  0.90860698  0.21675218  1
  Cs  Cs42  1  0.08090922  0.76112948  0.33102998  1
  Cs  Cs43  1  0.91909078  0.23887052  0.66897002  1
  O  O44  1  0.34156236  0.22362236  0.23580353  1
  O  O45  1  0.70466603  0.61666463  0.13461186  1
  O  O46  1  0.14527880  0.17961540  0.89513605  1
  O  O47  1  0.35472120  0.17961540  0.39513605  1
  O  O48  1  0.79533397  0.61666463  0.63461186  1
  O  O49  1  0.29533397  0.38333537  0.86538814  1
  O  O50  1  0.15843764  0.22362236  0.73580353  1
  O  O51  1  0.85472120  0.82038460  0.10486395  1
  O  O52  1  0.65843764  0.77637764  0.76419647  1
  O  O53  1  0.64527880  0.82038460  0.60486395  1
  O  O54  1  0.84156236  0.77637764  0.26419647  1
  O  O55  1  0.20466603  0.38333537  0.36538814  1
