# generated using pymatgen
data_CdSb6(S2I)4
_symmetry_space_group_name_H-M   'P 1'
_cell_length_a   7.56550299
_cell_length_b   9.09708732
_cell_length_c   9.14643193
_cell_angle_alpha   91.23752857
_cell_angle_beta   71.25191436
_cell_angle_gamma   84.50342458
_symmetry_Int_Tables_number   1
_chemical_formula_structural   CdSb6(S2I)4
_chemical_formula_sum   'Cd1 Sb6 S8 I4'
_cell_volume   592.43609899
_cell_formula_units_Z   1
loop_
 _symmetry_equiv_pos_site_id
 _symmetry_equiv_pos_as_xyz
  1  'x, y, z'
loop_
 _atom_site_type_symbol
 _atom_site_label
 _atom_site_symmetry_multiplicity
 _atom_site_fract_x
 _atom_site_fract_y
 _atom_site_fract_z
 _atom_site_occupancy
  Cd  Cd0  1  0.00000000  0.00000000  0.00000000  1
  Sb  Sb1  1  0.24281895  0.35586062  0.85234603  1
  Sb  Sb2  1  0.23770901  0.07140242  0.56490080  1
  Sb  Sb3  1  0.75718105  0.64413938  0.14765397  1
  Sb  Sb4  1  0.20786473  0.70368009  0.22030590  1
  Sb  Sb5  1  0.79213527  0.29631991  0.77969410  1
  Sb  Sb6  1  0.76229099  0.92859758  0.43509920  1
  S  S7  1  0.66941993  0.92377571  0.19010443  1
  S  S8  1  0.08449161  0.68816988  0.98727107  1
  S  S9  1  0.91550839  0.31183012  0.01272893  1
  S  S10  1  0.91244253  0.01747230  0.72498008  1
  S  S11  1  0.10195389  0.35575421  0.60828758  1
  S  S12  1  0.89804611  0.64424579  0.39171242  1
  S  S13  1  0.33058007  0.07622429  0.80989557  1
  S  S14  1  0.08755747  0.98252770  0.27501992  1
  I  I15  1  0.35182314  0.33153928  0.14002011  1
  I  I16  1  0.64565923  0.27219179  0.45900731  1
  I  I17  1  0.64817686  0.66846072  0.85997989  1
  I  I18  1  0.35434077  0.72780821  0.54099269  1
