# generated using pymatgen
data_Rb2Cr2O7
_symmetry_space_group_name_H-M   'P 1'
_cell_length_a   7.87839104
_cell_length_b   7.91480815
_cell_length_c   13.84631777
_cell_angle_alpha   82.61342018
_cell_angle_beta   89.08426968
_cell_angle_gamma   86.59103183
_symmetry_Int_Tables_number   1
_chemical_formula_structural   Rb2Cr2O7
_chemical_formula_sum   'Rb8 Cr8 O28'
_cell_volume   854.68985853
_cell_formula_units_Z   4
loop_
 _symmetry_equiv_pos_site_id
 _symmetry_equiv_pos_as_xyz
  1  'x, y, z'
loop_
 _atom_site_type_symbol
 _atom_site_label
 _atom_site_symmetry_multiplicity
 _atom_site_fract_x
 _atom_site_fract_y
 _atom_site_fract_z
 _atom_site_occupancy
  Rb  Rb0  1  0.88865613  0.87863954  0.86492812  1
  Rb  Rb1  1  0.11134387  0.12136046  0.13507188  1
  Rb  Rb2  1  0.78091829  0.62108129  0.15685415  1
  Rb  Rb3  1  0.21908171  0.37891871  0.84314585  1
  Rb  Rb4  1  0.44098364  0.80641052  0.65813804  1
  Rb  Rb5  1  0.55901636  0.19358948  0.34186196  1
  Rb  Rb6  1  0.21634960  0.70841315  0.36877011  1
  Rb  Rb7  1  0.78365040  0.29158685  0.63122989  1
  Cr  Cr8  1  0.71505722  0.39061254  0.89021068  1
  Cr  Cr9  1  0.28494278  0.60938746  0.10978932  1
  Cr  Cr10  1  0.64980885  0.13721608  0.08522797  1
  Cr  Cr11  1  0.35019115  0.86278392  0.91477203  1
  Cr  Cr12  1  0.93604160  0.75248544  0.61142678  1
  Cr  Cr13  1  0.06395840  0.24751456  0.38857322  1
  Cr  Cr14  1  0.69784068  0.71416322  0.41745956  1
  Cr  Cr15  1  0.30215932  0.28583678  0.58254044  1
  O  O16  1  0.58114279  0.27219810  0.97728693  1
  O  O17  1  0.41885721  0.72780190  0.02271307  1
  O  O18  1  0.59379709  0.48651279  0.80285856  1
  O  O19  1  0.40620291  0.51348721  0.19714144  1
  O  O20  1  0.85498424  0.25850551  0.84556977  1
  O  O21  1  0.14501576  0.74149449  0.15443023  1
  O  O22  1  0.81354700  0.52833972  0.94381755  1
  O  O23  1  0.18645300  0.47166028  0.05618345  1
  O  O24  1  0.48571633  0.06127842  0.14552430  1
  O  O25  1  0.51428367  0.93872158  0.85447570  1
  O  O26  1  0.75270183  0.25029787  0.15370881  1
  O  O27  1  0.24729817  0.74970213  0.84629119  1
  O  O28  1  0.78047477  0.98232915  0.05616581  1
  O  O29  1  0.21952523  0.01767085  0.94383419  1
  O  O30  1  0.81271182  0.65212437  0.52875101  1
  O  O31  1  0.18728818  0.34787563  0.47124899  1
  O  O32  1  0.98515351  0.60544736  0.70199806  1
  O  O33  1  0.01484649  0.39455264  0.29800194  1
  O  O34  1  0.82210831  0.90845770  0.65296126  1
  O  O35  1  0.17789169  0.09154230  0.34703874  1
  O  O36  1  0.10827102  0.82202540  0.55748096  1
  O  O37  1  0.89172898  0.17797460  0.44251904  1
  O  O38  1  0.62917759  0.54242054  0.38124975  1
  O  O39  1  0.37082241  0.45757946  0.61875025  1
  O  O40  1  0.81987430  0.80922430  0.33349692  1
  O  O41  1  0.18012570  0.19077570  0.66650308  1
  O  O42  1  0.53409083  0.84241848  0.43819834  1
  O  O43  1  0.46590917  0.15758152  0.56180166  1
