# generated using pymatgen
data_U3O8
_symmetry_space_group_name_H-M   'P 1'
_cell_length_a   6.98435707
_cell_length_b   8.31849626
_cell_length_c   11.63237203
_cell_angle_alpha   90.00000000
_cell_angle_beta   90.08226618
_cell_angle_gamma   90.00000000
_symmetry_Int_Tables_number   1
_chemical_formula_structural   U3O8
_chemical_formula_sum   'U12 O32'
_cell_volume   675.83253572
_cell_formula_units_Z   4
loop_
 _symmetry_equiv_pos_site_id
 _symmetry_equiv_pos_as_xyz
  1  'x, y, z'
loop_
 _atom_site_type_symbol
 _atom_site_label
 _atom_site_symmetry_multiplicity
 _atom_site_fract_x
 _atom_site_fract_y
 _atom_site_fract_z
 _atom_site_occupancy
  U  U0  1  0.50431071  0.25000000  0.18016473  1
  U  U1  1  0.01083849  0.25000000  0.00010275  1
  U  U2  1  0.99621945  0.75000000  0.68024451  1
  U  U3  1  0.49568929  0.75000000  0.81983527  1
  U  U4  1  0.00378055  0.25000000  0.31975549  1
  U  U5  1  0.98916151  0.75000000  0.99989725  1
  U  U6  1  0.00438507  0.25000000  0.68014789  1
  U  U7  1  0.49631646  0.75000000  0.18023107  1
  U  U8  1  0.50368354  0.25000000  0.81976893  1
  U  U9  1  0.48909704  0.75000000  0.49995586  1
  U  U10  1  0.99561493  0.75000000  0.31985211  1
  U  U11  1  0.51090296  0.25000000  0.50004414  1
  O  O12  1  0.00098877  0.99944976  0.68206262  1
  O  O13  1  0.52786704  0.75000000  0.99987586  1
  O  O14  1  0.50000000  0.50000000  0.50000000  1
  O  O15  1  0.68269357  0.25000000  0.65513958  1
  O  O16  1  0.02743232  0.75000000  0.49988665  1
  O  O17  1  0.81740117  0.75000000  0.84483010  1
  O  O18  1  0.18188129  0.25000000  0.84479757  1
  O  O19  1  0.49902026  0.49980423  0.81803338  1
  O  O20  1  0.18661115  0.75000000  0.13888443  1
  O  O21  1  0.31400762  0.25000000  0.63949902  1
  O  O22  1  0.18612085  0.75000000  0.86057225  1
  O  O23  1  0.49902026  0.00019577  0.81803338  1
  O  O24  1  0.68599238  0.75000000  0.36050098  1
  O  O25  1  0.00098877  0.50055024  0.68206262  1
  O  O26  1  0.68644534  0.75000000  0.63905070  1
  O  O27  1  0.47213296  0.25000000  0.00012414  1
  O  O28  1  0.99901123  0.49944976  0.31793738  1
  O  O29  1  0.81338885  0.25000000  0.86111557  1
  O  O30  1  0.31730643  0.75000000  0.34486042  1
  O  O31  1  0.99901123  0.00055024  0.31793738  1
  O  O32  1  0.50097974  0.50019577  0.18196662  1
  O  O33  1  0.31355466  0.25000000  0.36094930  1
  O  O34  1  0.97256768  0.25000000  0.50011335  1
  O  O35  1  0.68211073  0.25000000  0.34493556  1
  O  O36  1  0.18259883  0.25000000  0.15516990  1
  O  O37  1  -0.00000000  0.00000000  0.00000000  1
  O  O38  1  0.81811871  0.75000000  0.15520243  1
  O  O39  1  0.50097974  0.99980423  0.18196662  1
  O  O40  1  0.31788927  0.75000000  0.65506444  1
  O  O41  1  0.50000000  0.00000000  0.50000000  1
  O  O42  1  0.81387915  0.25000000  0.13942775  1
  O  O43  1  -0.00000000  0.50000000  0.00000000  1
