# generated using pymatgen
data_Na2Mg5(PO4)4
_symmetry_space_group_name_H-M   'P 1'
_cell_length_a   5.22312068
_cell_length_b   8.01571639
_cell_length_c   8.21645399
_cell_angle_alpha   110.74557779
_cell_angle_beta   90.33867727
_cell_angle_gamma   101.93792680
_symmetry_Int_Tables_number   1
_chemical_formula_structural   Na2Mg5(PO4)4
_chemical_formula_sum   'Na2 Mg5 P4 O16'
_cell_volume   313.55632866
_cell_formula_units_Z   1
loop_
 _symmetry_equiv_pos_site_id
 _symmetry_equiv_pos_as_xyz
  1  'x, y, z'
loop_
 _atom_site_type_symbol
 _atom_site_label
 _atom_site_symmetry_multiplicity
 _atom_site_fract_x
 _atom_site_fract_y
 _atom_site_fract_z
 _atom_site_occupancy
  Na  Na0  1  0.43711897  0.96206714  0.70537997  1
  Na  Na1  1  0.56288103  0.03793286  0.29462003  1
  Mg  Mg2  1  0.09377613  0.25490648  0.78043344  1
  Mg  Mg3  1  0.63547008  0.40845391  0.67201755  1
  Mg  Mg4  1  0.90622387  0.74509352  0.21956656  1
  Mg  Mg5  1  0.00000000  0.00000000  0.00000000  1
  Mg  Mg6  1  0.36452992  0.59154609  0.32798245  1
  P  P7  1  0.13077594  0.21281415  0.43000521  1
  P  P8  1  0.86922406  0.78718585  0.56999479  1
  P  P9  1  0.61963667  0.30185791  0.02694328  1
  P  P10  1  0.38036333  0.69814209  0.97305672  1
  O  O11  1  0.25651050  0.82958179  0.91805688  1
  O  O12  1  0.32533000  0.18612091  0.56246076  1
  O  O13  1  0.32042260  0.21653462  0.96670911  1
  O  O14  1  0.67957740  0.78346538  0.03329089  1
  O  O15  1  0.93327599  0.96992740  0.73296471  1
  O  O16  1  0.06672401  0.03007260  0.26703529  1
  O  O17  1  0.67467000  0.81387909  0.43753924  1
  O  O18  1  0.74348950  0.17041821  0.08194312  1
  O  O19  1  0.24238558  0.67311901  0.13558230  1
  O  O20  1  0.34261702  0.50784998  0.82595332  1
  O  O21  1  0.75761442  0.32688099  0.86441770  1
  O  O22  1  0.65738298  0.49215002  0.17404668  1
  O  O23  1  0.11498736  0.75245278  0.46992601  1
  O  O24  1  0.26669152  0.36878427  0.37645273  1
  O  O25  1  0.88501264  0.24754722  0.53007399  1
  O  O26  1  0.73330848  0.63121573  0.62354727  1
