# generated using pymatgen
data_Na5Bi(P2O7)2
_symmetry_space_group_name_H-M   'P 1'
_cell_length_a   7.39154343
_cell_length_b   9.42046555
_cell_length_c   9.94798694
_cell_angle_alpha   81.13778788
_cell_angle_beta   77.75686033
_cell_angle_gamma   70.45298592
_symmetry_Int_Tables_number   1
_chemical_formula_structural   Na5Bi(P2O7)2
_chemical_formula_sum   'Na10 Bi2 P8 O28'
_cell_volume   635.32485062
_cell_formula_units_Z   2
loop_
 _symmetry_equiv_pos_site_id
 _symmetry_equiv_pos_as_xyz
  1  'x, y, z'
loop_
 _atom_site_type_symbol
 _atom_site_label
 _atom_site_symmetry_multiplicity
 _atom_site_fract_x
 _atom_site_fract_y
 _atom_site_fract_z
 _atom_site_occupancy
  Na  Na0  1  0.06283006  0.48669426  0.15871152  1
  Na  Na1  1  0.56780874  0.52405459  0.66110295  1
  Na  Na2  1  0.24564626  0.73485471  0.87961013  1
  Na  Na3  1  0.65477213  0.84836953  0.73132648  1
  Na  Na4  1  0.75435374  0.26514529  0.12038987  1
  Na  Na5  1  0.34522787  0.15163047  0.26867352  1
  Na  Na6  1  0.72286949  0.73593710  0.40354429  1
  Na  Na7  1  0.43219126  0.47594541  0.33889705  1
  Na  Na8  1  0.27713051  0.26406290  0.59645571  1
  Na  Na9  1  0.93716994  0.51330574  0.84128848  1
  Bi  Bi10  1  0.87038319  0.12598736  0.76885190  1
  Bi  Bi11  1  0.12961681  0.87401264  0.23114810  1
  P  P12  1  0.41153381  0.33987174  0.94696734  1
  P  P13  1  0.90214364  0.34724470  0.45469058  1
  P  P14  1  0.82016147  0.86423656  0.03207536  1
  P  P15  1  0.17983853  0.13576344  0.96792464  1
  P  P16  1  0.58846619  0.66012826  0.05303266  1
  P  P17  1  0.28104479  0.88981049  0.54881147  1
  P  P18  1  0.71895521  0.11018951  0.45118853  1
  P  P19  1  0.09785636  0.65275530  0.54530942  1
  O  O20  1  0.96356211  0.76301318  0.13028361  1
  O  O21  1  0.57455767  0.67279000  0.90101794  1
  O  O22  1  0.89838459  0.64700790  0.61872055  1
  O  O23  1  0.03643789  0.23698682  0.86971639  1
  O  O24  1  0.88993859  0.32273393  0.61531918  1
  O  O25  1  0.11006141  0.67726607  0.38468082  1
  O  O26  1  0.60784050  0.33108154  0.84847872  1
  O  O27  1  0.89706413  0.82560485  0.88204538  1
  O  O28  1  0.75621467  0.52401296  0.09294283  1
  O  O29  1  0.42544233  0.32721000  0.09898206  1
  O  O30  1  0.32177758  0.91478274  0.38907667  1
  O  O31  1  0.10293587  0.17439515  0.11795462  1
  O  O32  1  0.46058713  0.78558650  0.60570546  1
  O  O33  1  0.24378533  0.47598704  0.90705717  1
  O  O34  1  0.67822242  0.08521726  0.61092333  1
  O  O35  1  0.81268982  0.96234665  0.38040408  1
  O  O36  1  0.88826864  0.19169304  0.40850694  1
  O  O37  1  0.18731018  0.03765335  0.61959592  1
  O  O38  1  0.23078007  0.96816185  0.95241522  1
  O  O39  1  0.39215950  0.66891846  0.15152128  1
  O  O40  1  0.53941287  0.21441350  0.39429454  1
  O  O41  1  0.27215090  0.52106415  0.58141248  1
  O  O42  1  0.11173136  0.80830696  0.59149306  1
  O  O43  1  0.37642374  0.18410219  0.91365462  1
  O  O44  1  0.76921993  0.03183815  0.04758478  1
  O  O45  1  0.62357626  0.81589781  0.08634538  1
  O  O46  1  0.10161541  0.35299210  0.38127945  1
  O  O47  1  0.72784910  0.47893585  0.41858752  1
