# generated using pymatgen
data_Li7Mn2(CoO4)3
_symmetry_space_group_name_H-M   'P 1'
_cell_length_a   2.90749666
_cell_length_b   5.11472479
_cell_length_c   14.47682664
_cell_angle_alpha   90.51806922
_cell_angle_beta   90.00000000
_cell_angle_gamma   90.00000000
_symmetry_Int_Tables_number   1
_chemical_formula_structural   Li7Mn2(CoO4)3
_chemical_formula_sum   'Li7 Mn2 Co3 O12'
_cell_volume   215.27674323
_cell_formula_units_Z   1
loop_
 _symmetry_equiv_pos_site_id
 _symmetry_equiv_pos_as_xyz
  1  'x, y, z'
loop_
 _atom_site_type_symbol
 _atom_site_label
 _atom_site_symmetry_multiplicity
 _atom_site_fract_x
 _atom_site_fract_y
 _atom_site_fract_z
 _atom_site_occupancy
  Li  Li0  1  0.00000000  0.35159812  0.16544529  1
  Li  Li1  1  0.50000000  0.16614302  0.32986303  1
  Li  Li2  1  0.00000000  0.99692418  0.48981470  1
  Li  Li3  1  0.50000000  0.83349482  0.66554488  1
  Li  Li4  1  0.00000000  0.66158459  0.84190201  1
  Li  Li5  1  0.50000000  0.50386078  0.00825885  1
  Li  Li6  1  0.50000000  0.82115433  0.16574732  1
  Mn  Mn7  1  0.00000000  0.98465569  0.00610405  1
  Mn  Mn8  1  0.00000000  0.33395431  0.66637883  1
  Co  Co9  1  0.00000000  0.68262749  0.32613724  1
  Co  Co10  1  0.50000000  0.50703441  0.49603218  1
  Co  Co11  1  0.50000000  0.16491163  0.83581805  1
  O  O12  1  0.00000000  0.96215887  0.25974532  1
  O  O13  1  0.50000000  0.83219160  0.41295932  1
  O  O14  1  0.00000000  0.63272972  0.58378068  1
  O  O15  1  0.50000000  0.49060162  0.73924713  1
  O  O16  1  0.00000000  0.29796346  0.91631129  1
  O  O17  1  0.50000000  0.14679165  0.07464963  1
  O  O18  1  0.00000000  0.69023465  0.07753009  1
  O  O19  1  0.50000000  0.50516302  0.25687312  1
  O  O20  1  0.00000000  0.38093232  0.41393892  1
  O  O21  1  0.50000000  0.17957308  0.59315942  1
  O  O22  1  0.00000000  0.03246747  0.74896848  1
  O  O23  1  0.50000000  0.84124916  0.92579015  1
