# generated using pymatgen
data_NaFe3Si3O10
_symmetry_space_group_name_H-M   'P 1'
_cell_length_a   9.05203190
_cell_length_b   9.82090612
_cell_length_c   10.46176323
_cell_angle_alpha   65.12559201
_cell_angle_beta   83.53834512
_cell_angle_gamma   65.91380951
_symmetry_Int_Tables_number   1
_chemical_formula_structural   NaFe3Si3O10
_chemical_formula_sum   'Na4 Fe12 Si12 O40'
_cell_volume   768.33417068
_cell_formula_units_Z   4
loop_
 _symmetry_equiv_pos_site_id
 _symmetry_equiv_pos_as_xyz
  1  'x, y, z'
loop_
 _atom_site_type_symbol
 _atom_site_label
 _atom_site_symmetry_multiplicity
 _atom_site_fract_x
 _atom_site_fract_y
 _atom_site_fract_z
 _atom_site_occupancy
  Na  Na0  1  0.61175804  0.63410207  0.57766320  1
  Na  Na1  1  0.63055068  0.61303386  0.04824289  1
  Na  Na2  1  0.38824196  0.36589793  0.42233680  1
  Na  Na3  1  0.36944932  0.38696614  0.95175711  1
  Fe  Fe4  1  0.15180090  0.18073151  0.05148768  1
  Fe  Fe5  1  0.81899829  0.85226905  0.46749245  1
  Fe  Fe6  1  0.84819910  0.81926849  0.94851232  1
  Fe  Fe7  1  0.26402576  0.26276238  0.74343019  1
  Fe  Fe8  1  0.18100171  0.14773095  0.53250755  1
  Fe  Fe9  1  0.94164278  0.93448455  0.15889553  1
  Fe  Fe10  1  0.93352504  0.94154538  0.65365983  1
  Fe  Fe11  1  0.06647496  0.05845462  0.34634017  1
  Fe  Fe12  1  0.50000000  0.00000000  0.00000000  1
  Fe  Fe13  1  0.73597424  0.73723762  0.25656981  1
  Fe  Fe14  1  0.00000000  0.50000000  0.50000000  1
  Fe  Fe15  1  0.05835722  0.06551545  0.84110447  1
  Si  Si16  1  0.44879528  0.05351237  0.29669117  1
  Si  Si17  1  0.22304850  0.66299471  0.06176371  1
  Si  Si18  1  0.55120472  0.94648763  0.70330883  1
  Si  Si19  1  0.34222571  0.76718918  0.24895808  1
  Si  Si20  1  0.67119442  0.23400468  0.24192800  1
  Si  Si21  1  0.04636566  0.44372967  0.20507651  1
  Si  Si22  1  0.65777429  0.23281082  0.75104192  1
  Si  Si23  1  0.23990894  0.66260843  0.54773850  1
  Si  Si24  1  0.76009106  0.33739157  0.45226150  1
  Si  Si25  1  0.77695150  0.33700529  0.93823629  1
  Si  Si26  1  0.95363434  0.55627033  0.79492349  1
  Si  Si27  1  0.32880558  0.76599532  0.75807200  1
  O  O28  1  0.27675715  0.06837510  0.91825181  1
  O  O29  1  0.37297552  0.67900536  0.42360687  1
  O  O30  1  0.62702448  0.32099464  0.57639313  1
  O  O31  1  0.82394930  0.06759376  0.79192232  1
  O  O32  1  0.93693083  0.16731582  0.98594148  1
  O  O33  1  0.66655070  0.36125578  0.30987282  1
  O  O34  1  0.12967890  0.39881191  0.85270357  1
  O  O35  1  0.92560916  0.17026490  0.49249075  1
  O  O36  1  0.39593615  0.12483231  0.63583090  1
  O  O37  1  0.16458643  0.93150983  0.71427837  1
  O  O38  1  0.88771190  0.60412171  0.63429514  1
  O  O39  1  0.92942708  0.72470223  0.34203544  1
  O  O40  1  0.04203784  0.28768143  0.18760157  1
  O  O41  1  0.17605070  0.93240624  0.20807768  1
  O  O42  1  0.60377246  0.88268685  0.87172017  1
  O  O43  1  0.07057292  0.27529777  0.65796456  1
  O  O44  1  0.72324285  0.93162490  0.08174819  1
  O  O45  1  0.67935675  0.36701907  0.79875299  1
  O  O46  1  0.49127728  0.80309049  0.70526277  1
  O  O47  1  0.18510530  0.50136984  0.10010739  1
  O  O48  1  0.11228810  0.39587829  0.36570486  1
  O  O49  1  0.06306917  0.83268418  0.01405852  1
  O  O50  1  0.70226177  0.95106691  0.60325472  1
  O  O51  1  0.95796216  0.71231857  0.81239843  1
  O  O52  1  0.35013096  0.66105413  0.93312292  1
  O  O53  1  0.39622754  0.11731315  0.12827983  1
  O  O54  1  0.64986904  0.33894587  0.06687708  1
  O  O55  1  0.50779728  0.78333994  0.17470035  1
  O  O56  1  0.21837532  0.49553009  0.57098340  1
  O  O57  1  0.07439084  0.82973510  0.50750925  1
  O  O58  1  0.33344930  0.63874422  0.69012718  1
  O  O59  1  0.60406385  0.87516769  0.36416910  1
  O  O60  1  0.49220272  0.21666006  0.82529965  1
  O  O61  1  0.83541357  0.06849017  0.28572163  1
  O  O62  1  0.29773823  0.04893309  0.39674528  1
  O  O63  1  0.81489470  0.49863016  0.89989261  1
  O  O64  1  0.50872272  0.19690951  0.29473723  1
  O  O65  1  0.78162468  0.50446991  0.42901660  1
  O  O66  1  0.87032110  0.60118809  0.14729643  1
  O  O67  1  0.32064325  0.63298093  0.20124701  1
