# generated using pymatgen
data_MnSiO3
_symmetry_space_group_name_H-M   'P 1'
_cell_length_a   6.80165879
_cell_length_b   7.73032616
_cell_length_c   12.02802133
_cell_angle_alpha   105.76209460
_cell_angle_beta   92.44259830
_cell_angle_gamma   94.59550675
_symmetry_Int_Tables_number   1
_chemical_formula_structural   MnSiO3
_chemical_formula_sum   'Mn10 Si10 O30'
_cell_volume   605.31687937
_cell_formula_units_Z   10
loop_
 _symmetry_equiv_pos_site_id
 _symmetry_equiv_pos_as_xyz
  1  'x, y, z'
loop_
 _atom_site_type_symbol
 _atom_site_label
 _atom_site_symmetry_multiplicity
 _atom_site_fract_x
 _atom_site_fract_y
 _atom_site_fract_z
 _atom_site_occupancy
  Mn  Mn0  1  0.13018345  0.31615886  0.44665492  1
  Mn  Mn1  1  0.65563972  0.03312257  0.70552299  1
  Mn  Mn2  1  0.02766791  0.12259624  0.14713955  1
  Mn  Mn3  1  0.34436028  0.96687743  0.29447701  1
  Mn  Mn4  1  0.20806242  0.70164083  0.02797489  1
  Mn  Mn5  1  0.79193758  0.29835917  0.97202511  1
  Mn  Mn6  1  0.81406460  0.49006634  0.26914612  1
  Mn  Mn7  1  0.18593540  0.50993366  0.73085388  1
  Mn  Mn8  1  0.97233209  0.87740376  0.85286045  1
  Mn  Mn9  1  0.86981655  0.68384114  0.55334508  1
  Si  Si10  1  0.49418980  0.22357601  0.12413133  1
  Si  Si11  1  0.24269347  0.25510589  0.91094467  1
  Si  Si12  1  0.70275641  0.45126669  0.73384356  1
  Si  Si13  1  0.29724359  0.54873331  0.26615644  1
  Si  Si14  1  0.75730653  0.74489411  0.08905533  1
  Si  Si15  1  0.36151021  0.73986927  0.53355571  1
  Si  Si16  1  0.15090347  0.07592565  0.65524644  1
  Si  Si17  1  0.63848979  0.26013073  0.46644429  1
  Si  Si18  1  0.50581020  0.77642399  0.87586867  1
  Si  Si19  1  0.84909653  0.92407435  0.34475356  1
  O  O20  1  0.89135002  0.59529285  0.73233577  1
  O  O21  1  0.41947117  0.23089901  0.40229141  1
  O  O22  1  0.48238013  0.42654563  0.21786072  1
  O  O23  1  0.94469378  0.84370251  0.03976000  1
  O  O24  1  0.33758968  0.06895793  0.14505351  1
  O  O25  1  0.19536310  0.59812866  0.56555849  1
  O  O26  1  0.26908262  0.79644157  0.86917452  1
  O  O27  1  0.26221683  0.69582503  0.19508963  1
  O  O28  1  0.70573891  0.86100111  0.22094744  1
  O  O29  1  0.66241032  0.93104207  0.85494649  1
  O  O30  1  0.29426109  0.13899889  0.77905256  1
  O  O31  1  0.10864998  0.40470715  0.26766423  1
  O  O32  1  0.89018440  0.74877619  0.38796175  1
  O  O33  1  0.28363440  0.94494047  0.56207498  1
  O  O34  1  0.71636560  0.05505953  0.43792502  1
  O  O35  1  0.05530622  0.15629749  0.96024000  1
  O  O36  1  0.10981560  0.25122381  0.61203825  1
  O  O37  1  0.95679448  0.95460495  0.68011759  1
  O  O38  1  0.38368648  0.67865345  0.39325835  1
  O  O39  1  0.44469112  0.25654395  0.99420719  1
  O  O40  1  0.61631352  0.32134655  0.60674165  1
  O  O41  1  0.18896531  0.45217996  0.90467610  1
  O  O42  1  0.73091738  0.20355843  0.13082548  1
  O  O43  1  0.73778317  0.30417497  0.80491037  1
  O  O44  1  0.55530888  0.74345605  0.00579281  1
  O  O45  1  0.81103469  0.54782004  0.09532390  1
  O  O46  1  0.04320552  0.04539505  0.31988241  1
  O  O47  1  0.51761987  0.57345537  0.78213928  1
  O  O48  1  0.80463690  0.40187134  0.43444151  1
  O  O49  1  0.58052883  0.76910099  0.59770859  1
