# generated using pymatgen
data_BaCaVP2O9
_symmetry_space_group_name_H-M   'P 1'
_cell_length_a   7.16020321
_cell_length_b   7.41048524
_cell_length_c   14.64780163
_cell_angle_alpha   101.62185415
_cell_angle_beta   90.00000000
_cell_angle_gamma   90.00000000
_symmetry_Int_Tables_number   1
_chemical_formula_structural   BaCaVP2O9
_chemical_formula_sum   'Ba4 Ca4 V4 P8 O36'
_cell_volume   761.28664542
_cell_formula_units_Z   4
loop_
 _symmetry_equiv_pos_site_id
 _symmetry_equiv_pos_as_xyz
  1  'x, y, z'
loop_
 _atom_site_type_symbol
 _atom_site_label
 _atom_site_symmetry_multiplicity
 _atom_site_fract_x
 _atom_site_fract_y
 _atom_site_fract_z
 _atom_site_occupancy
  Ba  Ba0  1  0.23411043  0.37854098  0.42742087  1
  Ba  Ba1  1  0.76588957  0.62145902  0.57257913  1
  Ba  Ba2  1  0.73411043  0.62145902  0.07257913  1
  Ba  Ba3  1  0.26588957  0.37854098  0.92742087  1
  Ca  Ca4  1  0.01910466  0.18841738  0.66186289  1
  Ca  Ca5  1  0.51910466  0.81158262  0.83813711  1
  Ca  Ca6  1  0.48089534  0.18841738  0.16186289  1
  Ca  Ca7  1  0.98089534  0.81158262  0.33813711  1
  V  V8  1  0.51529514  0.15598049  0.66591091  1
  V  V9  1  0.48470486  0.84401951  0.33408909  1
  V  V10  1  0.98470486  0.15598049  0.16591091  1
  V  V11  1  0.01529514  0.84401951  0.83408909  1
  P  P12  1  0.72595902  0.12067816  0.50181960  1
  P  P13  1  0.22595902  0.87932184  0.99818040  1
  P  P14  1  0.22344567  0.53772204  0.19848199  1
  P  P15  1  0.77404098  0.12067816  0.00181960  1
  P  P16  1  0.72344567  0.46227796  0.30151801  1
  P  P17  1  0.27655433  0.53772204  0.69848199  1
  P  P18  1  0.77655433  0.46227796  0.80151801  1
  P  P19  1  0.27404098  0.87932184  0.49818040  1
  O  O20  1  0.68081721  0.66110636  0.28106016  1
  O  O21  1  0.91657740  0.21659561  0.50536195  1
  O  O22  1  0.31918279  0.33889364  0.71893984  1
  O  O23  1  0.72298106  0.01173663  0.58523342  1
  O  O24  1  0.79693580  0.97902213  0.90827811  1
  O  O25  1  0.21525015  0.65231486  0.79667446  1
  O  O26  1  0.81918279  0.66110636  0.78106016  1
  O  O27  1  0.06124726  0.74183557  0.97362403  1
  O  O28  1  0.38082090  0.50329767  0.12595714  1
  O  O29  1  0.11917910  0.50329767  0.62595714  1
  O  O30  1  0.58342260  0.21659561  0.00536195  1
  O  O31  1  0.71525015  0.34768514  0.70332554  1
  O  O32  1  0.18081721  0.33889364  0.21893984  1
  O  O33  1  0.20306420  0.02097787  0.09172189  1
  O  O34  1  0.28474985  0.65231486  0.29667446  1
  O  O35  1  0.97151344  0.04369694  0.25308631  1
  O  O36  1  0.61917910  0.49670233  0.87404286  1
  O  O37  1  0.88082090  0.49670233  0.37404286  1
  O  O38  1  0.08342260  0.78340439  0.49463805  1
  O  O39  1  0.52848656  0.04369694  0.75308631  1
  O  O40  1  0.93875274  0.25816443  0.02637597  1
  O  O41  1  0.95167572  0.36670997  0.82660372  1
  O  O42  1  0.70306420  0.97902213  0.40827811  1
  O  O43  1  0.29693580  0.02097787  0.59172189  1
  O  O44  1  0.22298106  0.98826337  0.91476658  1
  O  O45  1  0.78474985  0.34768514  0.20332554  1
  O  O46  1  0.02848656  0.95630306  0.74691369  1
  O  O47  1  0.47151344  0.95630306  0.24691369  1
  O  O48  1  0.41657740  0.78340439  0.99463805  1
  O  O49  1  0.27701894  0.98826337  0.41476658  1
  O  O50  1  0.04832428  0.63329003  0.17339628  1
  O  O51  1  0.77701894  0.01173663  0.08523342  1
  O  O52  1  0.43875274  0.74183557  0.47362403  1
  O  O53  1  0.45167572  0.63329003  0.67339628  1
  O  O54  1  0.56124726  0.25816443  0.52637597  1
  O  O55  1  0.54832428  0.36670997  0.32660372  1
