# generated using pymatgen
data_V2Cd(PO5)2
_symmetry_space_group_name_H-M   'P 1'
_cell_length_a   6.84780810
_cell_length_b   6.84780797
_cell_length_c   8.89397198
_cell_angle_alpha   102.54071300
_cell_angle_beta   102.54071271
_cell_angle_gamma   115.84716624
_symmetry_Int_Tables_number   1
_chemical_formula_structural   V2Cd(PO5)2
_chemical_formula_sum   'V4 Cd2 P4 O20'
_cell_volume   342.52950641
_cell_formula_units_Z   2
loop_
 _symmetry_equiv_pos_site_id
 _symmetry_equiv_pos_as_xyz
  1  'x, y, z'
loop_
 _atom_site_type_symbol
 _atom_site_label
 _atom_site_symmetry_multiplicity
 _atom_site_fract_x
 _atom_site_fract_y
 _atom_site_fract_z
 _atom_site_occupancy
  V  V0  1  0.09363368  0.36494676  0.73971686  1
  V  V1  1  0.61494676  0.84363368  0.23971686  1
  V  V2  1  0.62522990  0.35391682  0.26028314  1
  V  V3  1  0.60391682  0.37522990  0.76028314  1
  Cd  Cd4  1  0.99938949  0.99938949  0.00000000  1
  Cd  Cd5  1  0.24938949  0.74938949  0.50000000  1
  P  P6  1  0.20204196  0.20284593  0.41666821  1
  P  P7  1  0.45284593  0.95204196  0.91666821  1
  P  P8  1  0.78617772  0.78537375  0.58333179  1
  P  P9  1  0.03537375  0.53617772  0.08333179  1
  O  O10  1  0.34448860  0.13216212  0.53338621  1
  O  O11  1  0.89109993  0.60993382  0.97096763  1
  O  O12  1  0.85993382  0.64109993  0.47096763  1
  O  O13  1  0.99735931  0.02632011  0.69359142  1
  O  O14  1  0.69035780  0.66480088  0.69949878  1
  O  O15  1  0.55376788  0.08272869  0.80640858  1
  O  O16  1  0.82338303  0.32704237  0.66777667  1
  O  O17  1  0.06110239  0.34877591  0.96661379  1
  O  O18  1  0.65926570  0.15560636  0.33222333  1
  O  O19  1  0.33272869  0.30376788  0.30640858  1
  O  O20  1  0.27632011  0.74735931  0.19359142  1
  O  O21  1  0.40560636  0.40926570  0.83222333  1
  O  O22  1  0.59877591  0.81110239  0.46661379  1
  O  O23  1  0.38216212  0.09448860  0.03338621  1
  O  O24  1  0.91480088  0.44035780  0.19949878  1
  O  O25  1  0.57704237  0.57338303  0.16777667  1
  O  O26  1  0.63896619  0.92013230  0.02903237  1
  O  O27  1  0.96530210  0.99085902  0.30050122  1
  O  O28  1  0.17013230  0.38896619  0.52903237  1
  O  O29  1  0.24085902  0.71530210  0.80050122  1
