# generated using pymatgen
data_VCdAgO4
_symmetry_space_group_name_H-M   'P 1'
_cell_length_a   5.54324413
_cell_length_b   7.09974346
_cell_length_c   10.04215497
_cell_angle_alpha   90.00000000
_cell_angle_beta   90.00000000
_cell_angle_gamma   90.00000000
_symmetry_Int_Tables_number   1
_chemical_formula_structural   VCdAgO4
_chemical_formula_sum   'V4 Cd4 Ag4 O16'
_cell_volume   395.21514720
_cell_formula_units_Z   4
loop_
 _symmetry_equiv_pos_site_id
 _symmetry_equiv_pos_as_xyz
  1  'x, y, z'
loop_
 _atom_site_type_symbol
 _atom_site_label
 _atom_site_symmetry_multiplicity
 _atom_site_fract_x
 _atom_site_fract_y
 _atom_site_fract_z
 _atom_site_occupancy
  V  V0  1  0.98860816  0.75000000  0.32089870  1
  V  V1  1  0.48860816  0.25000000  0.17910130  1
  V  V2  1  0.01139184  0.25000000  0.67910130  1
  V  V3  1  0.51139184  0.75000000  0.82089870  1
  Cd  Cd4  1  0.50000000  0.50000000  0.50000000  1
  Cd  Cd5  1  0.00000000  0.50000000  0.00000000  1
  Cd  Cd6  1  0.50000000  0.00000000  0.50000000  1
  Cd  Cd7  1  0.00000000  0.00000000  0.00000000  1
  Ag  Ag8  1  0.99757768  0.75000000  0.65066758  1
  Ag  Ag9  1  0.49757768  0.25000000  0.84933242  1
  Ag  Ag10  1  0.00242232  0.25000000  0.34933242  1
  Ag  Ag11  1  0.50242232  0.75000000  0.15066758  1
  O  O12  1  0.94116198  0.75000000  0.14299945  1
  O  O13  1  0.44116198  0.25000000  0.35700055  1
  O  O14  1  0.05883802  0.25000000  0.85700055  1
  O  O15  1  0.55883802  0.75000000  0.64299945  1
  O  O16  1  0.29345254  0.75000000  0.37369898  1
  O  O17  1  0.79345254  0.25000000  0.12630102  1
  O  O18  1  0.70654746  0.25000000  0.62630102  1
  O  O19  1  0.20654746  0.75000000  0.87369898  1
  O  O20  1  0.84491157  0.55265567  0.38272481  1
  O  O21  1  0.34491157  0.44734433  0.11727519  1
  O  O22  1  0.15508843  0.05265567  0.61727519  1
  O  O23  1  0.65508843  0.94734433  0.88272481  1
  O  O24  1  0.15508843  0.44734433  0.61727519  1
  O  O25  1  0.65508843  0.55265567  0.88272481  1
  O  O26  1  0.84491157  0.94734433  0.38272481  1
  O  O27  1  0.34491157  0.05265567  0.11727519  1
