# generated using pymatgen
data_Na3VB6O13
_symmetry_space_group_name_H-M   'P 1'
_cell_length_a   7.75098408
_cell_length_b   10.33244996
_cell_length_c   12.76914316
_cell_angle_alpha   90.00000000
_cell_angle_beta   90.00000000
_cell_angle_gamma   90.00000000
_symmetry_Int_Tables_number   1
_chemical_formula_structural   Na3VB6O13
_chemical_formula_sum   'Na12 V4 B24 O52'
_cell_volume   1022.63796478
_cell_formula_units_Z   4
loop_
 _symmetry_equiv_pos_site_id
 _symmetry_equiv_pos_as_xyz
  1  'x, y, z'
loop_
 _atom_site_type_symbol
 _atom_site_label
 _atom_site_symmetry_multiplicity
 _atom_site_fract_x
 _atom_site_fract_y
 _atom_site_fract_z
 _atom_site_occupancy
  Na  Na0  1  0.73521134  0.28928196  0.23814024  1
  Na  Na1  1  0.75824406  0.27568855  0.73908138  1
  Na  Na2  1  0.12947107  0.49483318  0.52206256  1
  Na  Na3  1  0.23521134  0.21071804  0.76185976  1
  Na  Na4  1  0.62947107  0.00516682  0.47793744  1
  Na  Na5  1  0.26478866  0.78928196  0.26185976  1
  Na  Na6  1  0.74175594  0.72431145  0.23908138  1
  Na  Na7  1  0.76478866  0.71071804  0.73814024  1
  Na  Na8  1  0.24175594  0.77568855  0.76091862  1
  Na  Na9  1  0.25824406  0.22431145  0.26091862  1
  Na  Na10  1  0.87052893  0.99483318  0.97793744  1
  Na  Na11  1  0.37052893  0.50516682  0.02206256  1
  V  V12  1  0.05056623  0.50881881  0.24701219  1
  V  V13  1  0.94943377  0.00881881  0.25298781  1
  V  V14  1  0.55056623  0.99118119  0.75298781  1
  V  V15  1  0.44943377  0.49118119  0.74701219  1
  B  B16  1  0.03005598  0.12924061  0.57501420  1
  B  B17  1  0.40547465  0.50087939  0.27787207  1
  B  B18  1  0.02929152  0.87026977  0.57554417  1
  B  B19  1  0.79967919  0.72429803  0.49484591  1
  B  B20  1  0.90547465  0.99912061  0.72212793  1
  B  B21  1  0.53005598  0.37075939  0.42498580  1
  B  B22  1  0.22169287  0.99845103  0.44191887  1
  B  B23  1  0.09452535  0.49912061  0.77787207  1
  B  B24  1  0.52929152  0.62973023  0.42445583  1
  B  B25  1  0.29736973  0.22420228  0.50358589  1
  B  B26  1  0.47070848  0.12973023  0.07554417  1
  B  B27  1  0.20263027  0.77579772  0.00358589  1
  B  B28  1  0.97070848  0.37026977  0.92445583  1
  B  B29  1  0.70263027  0.72420228  0.99641411  1
  B  B30  1  0.77830713  0.49845103  0.05808113  1
  B  B31  1  0.79736973  0.27579772  0.49641411  1
  B  B32  1  0.29967919  0.77570197  0.50515409  1
  B  B33  1  0.46994402  0.87075939  0.07501420  1
  B  B34  1  0.96994402  0.62924061  0.92498580  1
  B  B35  1  0.59452535  0.00087939  0.22212793  1
  B  B36  1  0.27830713  0.00154897  0.94191887  1
  B  B37  1  0.72169287  0.50154897  0.55808113  1
  B  B38  1  0.70032081  0.27570197  0.99484591  1
  B  B39  1  0.20032081  0.22429803  0.00515409  1
  O  O40  1  0.17741464  0.88086963  0.93773028  1
  O  O41  1  0.88938638  0.16299555  0.50440575  1
  O  O42  1  0.11589297  0.33954976  0.99248899  1
  O  O43  1  0.53321290  0.11643751  0.18468997  1
  O  O44  1  0.33878219  0.88606267  0.44791136  1
  O  O45  1  0.88410703  0.83954976  0.50751101  1
  O  O46  1  0.16121781  0.11393733  0.94791136  1
  O  O47  1  0.60497085  0.50023898  0.46159659  1
  O  O48  1  0.33541924  0.22607218  0.07528163  1
  O  O49  1  0.61589297  0.16045024  0.00751101  1
  O  O50  1  0.61061362  0.83700445  0.00440575  1
  O  O51  1  0.10497085  0.99976102  0.53840341  1
  O  O52  1  0.87938484  0.48432749  0.15512909  1
  O  O53  1  0.22121153  0.49926177  0.70072988  1
  O  O54  1  0.03602680  0.61503875  0.81671581  1
  O  O55  1  0.54055060  0.10467107  0.65897629  1
  O  O56  1  0.37938484  0.01567251  0.84487091  1
  O  O57  1  0.52536241  0.84664672  0.69478364  1
  O  O58  1  0.46678710  0.61643751  0.31531003  1
  O  O59  1  0.89502915  0.49976102  0.96159659  1
  O  O60  1  0.82258536  0.38086963  0.56226972  1
  O  O61  1  0.32258536  0.11913037  0.43773028  1
  O  O62  1  0.83217865  0.72418522  0.92242559  1
  O  O63  1  0.33217865  0.77581478  0.07757441  1
  O  O64  1  0.66121781  0.38606267  0.05208864  1
  O  O65  1  0.11061362  0.66299555  0.99559425  1
  O  O66  1  0.53602680  0.88496125  0.18328419  1
  O  O67  1  0.16782135  0.22418522  0.57757441  1
  O  O68  1  0.67741464  0.61913037  0.06226972  1
  O  O69  1  0.03321190  0.38356249  0.81531003  1
  O  O70  1  0.77878847  0.99926177  0.79927012  1
  O  O71  1  0.62061516  0.51567251  0.65512909  1
  O  O72  1  0.95944940  0.89532893  0.15897629  1
  O  O73  1  0.47463759  0.34664672  0.80521636  1
  O  O74  1  0.04055060  0.39532893  0.34102371  1
  O  O75  1  0.83878219  0.61393733  0.55208864  1
  O  O76  1  0.96678710  0.88356249  0.68468997  1
  O  O77  1  0.66782135  0.27581478  0.42242559  1
  O  O78  1  0.38938638  0.33700445  0.49559425  1
  O  O79  1  0.27878847  0.50073823  0.20072988  1
  O  O80  1  0.46397320  0.38496125  0.31671581  1
  O  O81  1  0.97463759  0.15335328  0.19478364  1
  O  O82  1  0.72121153  0.00073823  0.29927012  1
  O  O83  1  0.45944940  0.60467107  0.84102371  1
  O  O84  1  0.83541924  0.27392782  0.92471837  1
  O  O85  1  0.38410703  0.66045024  0.49248899  1
  O  O86  1  0.12061516  0.98432749  0.34487091  1
  O  O87  1  0.39502915  0.00023898  0.03840341  1
  O  O88  1  0.16458076  0.77392782  0.57528163  1
  O  O89  1  0.66458076  0.72607218  0.42471837  1
  O  O90  1  0.02536241  0.65335328  0.30521636  1
  O  O91  1  0.96397320  0.11503875  0.68328419  1
