# generated using pymatgen
data_Na2VS2O9
_symmetry_space_group_name_H-M   'P 1'
_cell_length_a   6.39860044
_cell_length_b   6.91609752
_cell_length_c   16.90180309
_cell_angle_alpha   90.00000000
_cell_angle_beta   90.00000000
_cell_angle_gamma   90.00000000
_symmetry_Int_Tables_number   1
_chemical_formula_structural   Na2VS2O9
_chemical_formula_sum   'Na8 V4 S8 O36'
_cell_volume   747.96131709
_cell_formula_units_Z   4
loop_
 _symmetry_equiv_pos_site_id
 _symmetry_equiv_pos_as_xyz
  1  'x, y, z'
loop_
 _atom_site_type_symbol
 _atom_site_label
 _atom_site_symmetry_multiplicity
 _atom_site_fract_x
 _atom_site_fract_y
 _atom_site_fract_z
 _atom_site_occupancy
  Na  Na0  1  0.31264044  0.65025488  0.91493647  1
  Na  Na1  1  0.68735956  0.15025488  0.58506353  1
  Na  Na2  1  0.12909053  0.89348392  0.73809346  1
  Na  Na3  1  0.18735956  0.34974512  0.41493647  1
  Na  Na4  1  0.87090947  0.39348392  0.76190654  1
  Na  Na5  1  0.62909053  0.60651608  0.26190654  1
  Na  Na6  1  0.37090947  0.10651608  0.23809346  1
  Na  Na7  1  0.81264044  0.84974512  0.08506353  1
  V  V8  1  0.03437613  0.35120451  0.09010924  1
  V  V9  1  0.46562387  0.64879549  0.59010924  1
  V  V10  1  0.53437613  0.14879549  0.90989076  1
  V  V11  1  0.96562387  0.85120451  0.40989076  1
  S  S12  1  0.85649434  0.10249586  0.24863749  1
  S  S13  1  0.14350566  0.60249586  0.25136251  1
  S  S14  1  0.96439613  0.58693714  0.56804586  1
  S  S15  1  0.03560387  0.08693714  0.93195414  1
  S  S16  1  0.46439613  0.91306286  0.43195414  1
  S  S17  1  0.64350566  0.89750414  0.74863749  1
  S  S18  1  0.35649434  0.39750414  0.75136251  1
  S  S19  1  0.53560387  0.41306286  0.06804586  1
  O  O20  1  0.78067210  0.70083712  0.59530773  1
  O  O21  1  0.01274713  0.55067892  0.17919580  1
  O  O22  1  0.01785624  0.14406365  0.18553396  1
  O  O23  1  0.22513061  0.23064737  0.73318657  1
  O  O24  1  0.02225225  0.09794507  0.02096048  1
  O  O25  1  0.47774775  0.90205493  0.52096048  1
  O  O26  1  0.45264218  0.11490888  0.40782863  1
  O  O27  1  0.98214376  0.64406365  0.31446604  1
  O  O28  1  0.51274713  0.94932108  0.82080420  1
  O  O29  1  0.51785624  0.35593635  0.81446604  1
  O  O30  1  0.35108315  0.31116342  0.10444838  1
  O  O31  1  0.71932790  0.29916288  0.09530773  1
  O  O32  1  0.97774775  0.59794507  0.47903952  1
  O  O33  1  0.77245102  0.06300270  0.72182071  1
  O  O34  1  0.14891685  0.68883658  0.60444838  1
  O  O35  1  0.27486939  0.76935263  0.23318657  1
  O  O36  1  0.85108315  0.18883658  0.89555162  1
  O  O37  1  0.72513061  0.26935263  0.26681343  1
  O  O38  1  0.45750804  0.48712410  0.51898421  1
  O  O39  1  0.72754898  0.93699730  0.22182071  1
  O  O40  1  0.77486939  0.73064737  0.76681343  1
  O  O41  1  0.48725287  0.44932108  0.67919580  1
  O  O42  1  0.04735782  0.88509112  0.90782863  1
  O  O43  1  0.22754898  0.56300270  0.77817929  1
  O  O44  1  0.27245102  0.43699730  0.27817929  1
  O  O45  1  0.98725287  0.05067892  0.32080420  1
  O  O46  1  0.28067210  0.79916288  0.40469227  1
  O  O47  1  0.52225225  0.40205493  0.97903952  1
  O  O48  1  0.64891685  0.81116342  0.39555162  1
  O  O49  1  0.04249196  0.51287590  0.01898421  1
  O  O50  1  0.95264218  0.38509112  0.59217137  1
  O  O51  1  0.48214376  0.85593635  0.68553396  1
  O  O52  1  0.54249196  0.98712410  0.98101579  1
  O  O53  1  0.21932790  0.20083712  0.90469227  1
  O  O54  1  0.95750804  0.01287590  0.48101579  1
  O  O55  1  0.54735782  0.61490888  0.09217137  1
