# generated using pymatgen
data_NaFe4(MoO4)5
_symmetry_space_group_name_H-M   'P 1'
_cell_length_a   7.04858080
_cell_length_b   7.14259620
_cell_length_c   18.23186536
_cell_angle_alpha   87.54217381
_cell_angle_beta   87.87917400
_cell_angle_gamma   79.41521181
_symmetry_Int_Tables_number   1
_chemical_formula_structural   NaFe4(MoO4)5
_chemical_formula_sum   'Na2 Fe8 Mo10 O40'
_cell_volume   901.04102844
_cell_formula_units_Z   2
loop_
 _symmetry_equiv_pos_site_id
 _symmetry_equiv_pos_as_xyz
  1  'x, y, z'
loop_
 _atom_site_type_symbol
 _atom_site_label
 _atom_site_symmetry_multiplicity
 _atom_site_fract_x
 _atom_site_fract_y
 _atom_site_fract_z
 _atom_site_occupancy
  Na  Na0  1  0.88117849  0.66735818  0.69840387  1
  Na  Na1  1  0.11882151  0.33264182  0.30159613  1
  Fe  Fe2  1  0.17446100  0.08180847  0.11317758  1
  Fe  Fe3  1  0.24986616  0.30099763  0.73354654  1
  Fe  Fe4  1  0.18548497  0.82740694  0.49270344  1
  Fe  Fe5  1  0.22226185  0.57425931  0.87486405  1
  Fe  Fe6  1  0.75013384  0.69900237  0.26645346  1
  Fe  Fe7  1  0.81451503  0.17259306  0.50729656  1
  Fe  Fe8  1  0.77773815  0.42574069  0.12513595  1
  Fe  Fe9  1  0.82553900  0.91819153  0.88682242  1
  Mo  Mo10  1  0.68154638  0.21993681  0.30887101  1
  Mo  Mo11  1  0.72962447  0.69181354  0.47156965  1
  Mo  Mo12  1  0.72811465  0.93901328  0.09585815  1
  Mo  Mo13  1  0.21731842  0.82446141  0.28474781  1
  Mo  Mo14  1  0.27188535  0.06098672  0.90414185  1
  Mo  Mo15  1  0.75140004  0.45574315  0.91314567  1
  Mo  Mo16  1  0.31845362  0.78006319  0.69112899  1
  Mo  Mo17  1  0.24859996  0.54425685  0.08685433  1
  Mo  Mo18  1  0.78268158  0.17553859  0.71525219  1
  Mo  Mo19  1  0.27037553  0.30818646  0.52843035  1
  O  O20  1  0.08711227  0.38491403  0.12510540  1
  O  O21  1  0.79327603  0.88149539  0.00422304  1
  O  O22  1  0.87625853  0.86344326  0.49735798  1
  O  O23  1  0.18213356  0.79845875  0.61021786  1
  O  O24  1  0.20213696  0.52880308  0.47883178  1
  O  O25  1  0.82984688  0.21228336  0.88899400  1
  O  O26  1  0.04739105  0.66483136  0.26881944  1
  O  O27  1  0.76956008  0.71728258  0.15498954  1
  O  O28  1  0.47876619  0.03465800  0.10442543  1
  O  O29  1  0.46285433  0.71391979  0.26398706  1
  O  O30  1  0.52123381  0.96534200  0.89557457  1
  O  O31  1  0.75426701  0.65149850  0.37354441  1
  O  O32  1  0.25168414  0.53422002  0.99006748  1
  O  O33  1  0.16201243  0.04755429  0.23388032  1
  O  O34  1  0.53714567  0.28608021  0.73601294  1
  O  O35  1  0.56341256  0.70706949  0.66884533  1
  O  O36  1  0.43658744  0.29293051  0.33115467  1
  O  O37  1  0.19719868  0.87973177  0.37844847  1
  O  O38  1  0.48565244  0.78745733  0.49284926  1
  O  O39  1  0.80280132  0.12026823  0.62155153  1
  O  O40  1  0.71615590  0.98625031  0.26916070  1
  O  O41  1  0.79786304  0.47119692  0.52116822  1
  O  O42  1  0.23043992  0.28271742  0.84501046  1
  O  O43  1  0.77556628  0.40336392  0.24869060  1
  O  O44  1  0.12374147  0.13655674  0.50264202  1
  O  O45  1  0.83798757  0.95244571  0.76611968  1
  O  O46  1  0.48094009  0.45885734  0.12330959  1
  O  O47  1  0.95260895  0.33516864  0.73118056  1
  O  O48  1  0.74831586  0.46577998  0.00993252  1
  O  O49  1  0.28384410  0.01374969  0.73083930  1
  O  O50  1  0.81786644  0.20154125  0.38978214  1
  O  O51  1  0.86017530  0.12308516  0.11897727  1
  O  O52  1  0.13982470  0.87691484  0.88102273  1
  O  O53  1  0.24573299  0.34850150  0.62645559  1
  O  O54  1  0.51434756  0.21254267  0.50715074  1
  O  O55  1  0.51905991  0.54114266  0.87669041  1
  O  O56  1  0.91288773  0.61508597  0.87489460  1
  O  O57  1  0.22443372  0.59663608  0.75130940  1
  O  O58  1  0.20672397  0.11850461  0.99577696  1
  O  O59  1  0.17015312  0.78771664  0.11100600  1
