# generated using pymatgen
data_Ba2MnNiClF7
_symmetry_space_group_name_H-M   'P 1'
_cell_length_a   5.91770354
_cell_length_b   7.84473858
_cell_length_c   9.06925751
_cell_angle_alpha   106.08593419
_cell_angle_beta   90.00000000
_cell_angle_gamma   90.00000000
_symmetry_Int_Tables_number   1
_chemical_formula_structural   Ba2MnNiClF7
_chemical_formula_sum   'Ba4 Mn2 Ni2 Cl2 F14'
_cell_volume   404.53652961
_cell_formula_units_Z   2
loop_
 _symmetry_equiv_pos_site_id
 _symmetry_equiv_pos_as_xyz
  1  'x, y, z'
loop_
 _atom_site_type_symbol
 _atom_site_label
 _atom_site_symmetry_multiplicity
 _atom_site_fract_x
 _atom_site_fract_y
 _atom_site_fract_z
 _atom_site_occupancy
  Ba  Ba0  1  0.25000000  0.30862856  0.07407168  1
  Ba  Ba1  1  0.75000000  0.69137144  0.92592832  1
  Ba  Ba2  1  0.75000000  0.66597094  0.41154220  1
  Ba  Ba3  1  0.25000000  0.33402906  0.58845780  1
  Mn  Mn4  1  0.25000000  0.83061254  0.73421171  1
  Mn  Mn5  1  0.75000000  0.16938746  0.26578829  1
  Ni  Ni6  1  0.75000000  0.18519353  0.82943261  1
  Ni  Ni7  1  0.25000000  0.81480647  0.17056739  1
  Cl  Cl8  1  0.25000000  0.88432303  0.45937823  1
  Cl  Cl9  1  0.75000000  0.11567697  0.54062177  1
  F  F10  1  0.00182594  0.36591074  0.34676915  1
  F  F11  1  0.50643180  0.00838809  0.83350655  1
  F  F12  1  0.49202750  0.63194645  0.16120039  1
  F  F13  1  0.99202750  0.36805355  0.83879961  1
  F  F14  1  0.99356820  0.00838809  0.83350655  1
  F  F15  1  0.50797250  0.36805355  0.83879961  1
  F  F16  1  0.49356820  0.99161191  0.16649345  1
  F  F17  1  0.49817406  0.36591074  0.34676915  1
  F  F18  1  0.00643180  0.99161191  0.16649345  1
  F  F19  1  0.75000000  0.26095494  0.06288013  1
  F  F20  1  0.50182594  0.63408926  0.65323085  1
  F  F21  1  0.99817406  0.63408926  0.65323085  1
  F  F22  1  0.25000000  0.73904506  0.93711987  1
  F  F23  1  0.00797250  0.63194645  0.16120039  1
