# generated using pymatgen
data_TiF3
_symmetry_space_group_name_H-M   'P 1'
_cell_length_a   5.58507251
_cell_length_b   5.58507265
_cell_length_c   5.58507221
_cell_angle_alpha   59.62166734
_cell_angle_beta   59.62166607
_cell_angle_gamma   59.62166547
_symmetry_Int_Tables_number   1
_chemical_formula_structural   TiF3
_chemical_formula_sum   'Ti2 F6'
_cell_volume   122.12968919
_cell_formula_units_Z   2
loop_
 _symmetry_equiv_pos_site_id
 _symmetry_equiv_pos_as_xyz
  1  'x, y, z'
loop_
 _atom_site_type_symbol
 _atom_site_label
 _atom_site_symmetry_multiplicity
 _atom_site_fract_x
 _atom_site_fract_y
 _atom_site_fract_z
 _atom_site_occupancy
  Ti  Ti0  1  0.50000000  0.50000000  0.50000000  1
  Ti  Ti1  1  0.00000000  0.00000000  -0.00000000  1
  F  F2  1  0.72909201  0.25000000  0.77090799  1
  F  F3  1  0.25000000  0.77090799  0.72909201  1
  F  F4  1  0.22909201  0.27090799  0.75000000  1
  F  F5  1  0.75000000  0.22909201  0.27090799  1
  F  F6  1  0.27090799  0.75000000  0.22909201  1
  F  F7  1  0.77090799  0.72909201  0.25000000  1
