# generated using pymatgen
data_Al45V7
_symmetry_space_group_name_H-M   'P 1'
_cell_length_a   7.60321681
_cell_length_b   11.08407523
_cell_length_c   11.10571162
_cell_angle_alpha   105.92151157
_cell_angle_beta   110.00685321
_cell_angle_gamma   90.00256836
_symmetry_Int_Tables_number   1
_chemical_formula_structural   Al45V7
_chemical_formula_sum   'Al45 V7'
_cell_volume   841.13231642
_cell_formula_units_Z   1
loop_
 _symmetry_equiv_pos_site_id
 _symmetry_equiv_pos_as_xyz
  1  'x, y, z'
loop_
 _atom_site_type_symbol
 _atom_site_label
 _atom_site_symmetry_multiplicity
 _atom_site_fract_x
 _atom_site_fract_y
 _atom_site_fract_z
 _atom_site_occupancy
  Al  Al0  1  0.38653268  0.98963922  0.13747360  1
  Al  Al1  1  0.61346732  0.01036078  0.86252640  1
  Al  Al2  1  0.24913315  0.01034164  0.86253499  1
  Al  Al3  1  0.14938858  0.37683281  0.90927031  1
  Al  Al4  1  0.70721979  0.48963991  0.41433764  1
  Al  Al5  1  0.36539147  0.35164820  0.36094253  1
  Al  Al6  1  0.24014298  0.62326585  0.09068667  1
  Al  Al7  1  0.77766244  0.79439970  0.92823915  1
  Al  Al8  1  0.14151254  0.14373119  0.66993250  1
  Al  Al9  1  0.52004641  0.13276092  0.41116199  1
  Al  Al10  1  0.52865165  0.14384659  0.67014850  1
  Al  Al11  1  0.47134835  0.85615341  0.32985150  1
  Al  Al12  1  0.62505476  0.63827194  0.25001268  1
  Al  Al13  1  0.62573997  0.37814573  0.62003829  1
  Al  Al14  1  0.89090192  0.13295305  0.41112182  1
  Al  Al15  1  0.87122024  0.88716486  0.74254184  1
  Al  Al16  1  0.12877976  0.11283514  0.25745816  1
  Al  Al17  1  0.47939638  0.24319914  0.95854819  1
  Al  Al18  1  0.77531206  0.00777467  0.55071806  1
  Al  Al19  1  0.00571428  0.62176654  0.38011682  1
  Al  Al20  1  0.85848746  0.85626881  0.33006750  1
  Al  Al21  1  0.63460853  0.64835180  0.63905747  1
  Al  Al22  1  0.38442315  0.77205931  0.76884935  1
  Al  Al23  1  0.99428572  0.37823346  0.61988318  1
  Al  Al24  1  0.09036091  0.84547739  0.18091645  1
  Al  Al25  1  0.22233756  0.20560030  0.07176085  1
  Al  Al26  1  0.37494524  0.36172806  0.74998732  1
  Al  Al27  1  0.52060362  0.75680086  0.04145181  1
  Al  Al28  1  0.08271568  0.44203039  0.16514257  1
  Al  Al29  1  0.61557685  0.22794069  0.23115065  1
  Al  Al30  1  0.50000000  0.50000000  0.00000000  1
  Al  Al31  1  0.85061142  0.62316719  0.09072969  1
  Al  Al32  1  0.22468794  0.99222533  0.44928194  1
  Al  Al33  1  0.37426003  0.62185427  0.37996171  1
  Al  Al34  1  0.75086685  0.98965836  0.13746501  1
  Al  Al35  1  0.99563844  0.35190903  0.36103471  1
  Al  Al36  1  0.15035676  0.79436870  0.92798343  1
  Al  Al37  1  0.75985702  0.37673415  0.90931333  1
  Al  Al38  1  0.91728432  0.55796961  0.83485743  1
  Al  Al39  1  0.90963909  0.15452261  0.81908355  1
  Al  Al40  1  0.10909808  0.86704695  0.58887818  1
  Al  Al41  1  0.29278021  0.51036009  0.58566236  1
  Al  Al42  1  0.84964324  0.20563130  0.07201657  1
  Al  Al43  1  0.00436156  0.64809097  0.63896529  1
  Al  Al44  1  0.47995359  0.86723908  0.58883801  1
  V  V45  1  0.74899481  0.76054328  0.49797865  1
  V  V46  1  0.75577133  0.41906132  0.17159094  1
  V  V47  1  0.24422867  0.58093868  0.82840906  1
  V  V48  1  0.25100519  0.23945672  0.50202135  1
  V  V49  1  0.41615946  0.41896190  0.17183614  1
  V  V50  1  0.00000000  0.00000000  0.00000000  1
  V  V51  1  0.58384054  0.58103810  0.82816386  1
