# generated using pymatgen
data_C
_symmetry_space_group_name_H-M   'P 1'
_cell_length_a   4.27706599
_cell_length_b   4.93348223
_cell_length_c   8.14990255
_cell_angle_alpha   90.00000000
_cell_angle_beta   90.00000000
_cell_angle_gamma   90.00000000
_symmetry_Int_Tables_number   1
_chemical_formula_structural   C
_chemical_formula_sum   C16
_cell_volume   171.96970055
_cell_formula_units_Z   16
loop_
 _symmetry_equiv_pos_site_id
 _symmetry_equiv_pos_as_xyz
  1  'x, y, z'
loop_
 _atom_site_type_symbol
 _atom_site_label
 _atom_site_symmetry_multiplicity
 _atom_site_fract_x
 _atom_site_fract_y
 _atom_site_fract_z
 _atom_site_occupancy
  C  C0  1  0.16675023  0.12497164  0.23412586  1
  C  C1  1  0.33324977  0.12497164  0.76587414  1
  C  C2  1  0.83326775  0.12498718  0.23412167  1
  C  C3  1  0.83326775  0.37501282  0.76587833  1
  C  C4  1  0.33324977  0.37502836  0.23412586  1
  C  C5  1  0.33326775  0.87501282  0.23412167  1
  C  C6  1  0.16675023  0.37502836  0.76587414  1
  C  C7  1  0.16673225  0.62498718  0.23412167  1
  C  C8  1  0.83324977  0.62497164  0.23412586  1
  C  C9  1  0.16673225  0.87501282  0.76587833  1
  C  C10  1  0.66673225  0.37501282  0.23412167  1
  C  C11  1  0.83324977  0.87502836  0.76587414  1
  C  C12  1  0.33326775  0.62498718  0.76587833  1
  C  C13  1  0.66675023  0.87502836  0.23412586  1
  C  C14  1  0.66673225  0.12498718  0.76587833  1
  C  C15  1  0.66675023  0.62497164  0.76587414  1
