# generated using pymatgen
data_Na4Ge2Te5
_symmetry_space_group_name_H-M   'P 1'
_cell_length_a   13.08538535
_cell_length_b   14.31725162
_cell_length_c   15.25556177
_cell_angle_alpha   92.74618318
_cell_angle_beta   90.00000000
_cell_angle_gamma   90.00000000
_symmetry_Int_Tables_number   1
_chemical_formula_structural   Na4Ge2Te5
_chemical_formula_sum   'Na32 Ge16 Te40'
_cell_volume   2854.79771277
_cell_formula_units_Z   8
loop_
 _symmetry_equiv_pos_site_id
 _symmetry_equiv_pos_as_xyz
  1  'x, y, z'
loop_
 _atom_site_type_symbol
 _atom_site_label
 _atom_site_symmetry_multiplicity
 _atom_site_fract_x
 _atom_site_fract_y
 _atom_site_fract_z
 _atom_site_occupancy
  Na  Na0  1  0.37926444  0.90490339  0.55142038  1
  Na  Na1  1  0.86539771  0.42266102  0.07282447  1
  Na  Na2  1  0.84322591  0.01124730  0.23127124  1
  Na  Na3  1  0.35668542  0.71554895  0.15337228  1
  Na  Na4  1  0.36596064  0.38028802  0.03737714  1
  Na  Na5  1  0.40967866  0.50868997  0.77229684  1
  Na  Na6  1  0.14331458  0.71554895  0.65337228  1
  Na  Na7  1  0.63460229  0.42266102  0.57282447  1
  Na  Na8  1  0.37908141  0.09771179  0.93963540  1
  Na  Na9  1  0.90742369  0.79756984  0.85934236  1
  Na  Na10  1  0.64331458  0.28445105  0.84662772  1
  Na  Na11  1  0.86596064  0.61971198  0.46262286  1
  Na  Na12  1  0.40742369  0.20243016  0.64065764  1
  Na  Na13  1  0.65677409  0.01124730  0.73127124  1
  Na  Na14  1  0.13403936  0.38028802  0.53737714  1
  Na  Na15  1  0.62073556  0.09509661  0.44857962  1
  Na  Na16  1  0.09257631  0.20243016  0.14065764  1
  Na  Na17  1  0.36539771  0.57733898  0.42717553  1
  Na  Na18  1  0.85668542  0.28445105  0.34662772  1
  Na  Na19  1  0.59257631  0.79756984  0.35934236  1
  Na  Na20  1  0.15677409  0.98875270  0.76872876  1
  Na  Na21  1  0.87926444  0.09509661  0.94857962  1
  Na  Na22  1  0.34322591  0.98875270  0.26872876  1
  Na  Na23  1  0.09032134  0.50868997  0.27229684  1
  Na  Na24  1  0.62091859  0.90228821  0.06036460  1
  Na  Na25  1  0.12073556  0.90490339  0.05142038  1
  Na  Na26  1  0.90967866  0.49131003  0.72770316  1
  Na  Na27  1  0.12091859  0.09771179  0.43963540  1
  Na  Na28  1  0.59032134  0.49131003  0.22770316  1
  Na  Na29  1  0.13460229  0.57733898  0.92717553  1
  Na  Na30  1  0.87908141  0.90228821  0.56036460  1
  Na  Na31  1  0.63403936  0.61971198  0.96262286  1
  Ge  Ge32  1  0.69683517  0.67930580  0.71435110  1
  Ge  Ge33  1  0.33654648  0.77922033  0.91825794  1
  Ge  Ge34  1  0.16345352  0.77922033  0.41825794  1
  Ge  Ge35  1  0.40949918  0.28007503  0.41395236  1
  Ge  Ge36  1  0.44201653  0.82596743  0.79038732  1
  Ge  Ge37  1  0.55798347  0.17403257  0.20961268  1
  Ge  Ge38  1  0.94201653  0.17403257  0.70961268  1
  Ge  Ge39  1  0.30316483  0.32069420  0.28564890  1
  Ge  Ge40  1  0.19683517  0.32069420  0.78564890  1
  Ge  Ge41  1  0.83654648  0.22077967  0.58174206  1
  Ge  Ge42  1  0.59050082  0.71992497  0.58604764  1
  Ge  Ge43  1  0.09050082  0.28007503  0.91395236  1
  Ge  Ge44  1  0.05798347  0.82596743  0.29038732  1
  Ge  Ge45  1  0.90949918  0.71992497  0.08604764  1
  Ge  Ge46  1  0.80316483  0.67930580  0.21435110  1
  Ge  Ge47  1  0.66345352  0.22077967  0.08174206  1
  Te  Te48  1  0.34811501  0.78738112  0.35448847  1
  Te  Te49  1  0.59573976  0.00403055  0.24917331  1
  Te  Te50  1  0.90428277  0.29761828  0.84251879  1
  Te  Te51  1  0.87033186  0.09722306  0.45504353  1
  Te  Te52  1  0.88403775  0.38732926  0.53505162  1
  Te  Te53  1  0.38403775  0.61267074  0.96494838  1
  Te  Te54  1  0.33887545  0.48635950  0.23305767  1
  Te  Te55  1  0.63889555  0.81112172  0.83615661  1
  Te  Te56  1  0.88461755  0.70559952  0.66638041  1
  Te  Te57  1  0.09571723  0.70238172  0.15748121  1
  Te  Te58  1  0.13889555  0.18887828  0.66384339  1
  Te  Te59  1  0.40426024  0.99596945  0.75082669  1
  Te  Te60  1  0.90426024  0.00403055  0.74917331  1
  Te  Te61  1  0.66112455  0.51364050  0.76694233  1
  Te  Te62  1  0.38024006  0.39700060  0.54488525  1
  Te  Te63  1  0.86110445  0.81112172  0.33615661  1
  Te  Te64  1  0.65188499  0.21261888  0.64551153  1
  Te  Te65  1  0.09573976  0.99596945  0.25082669  1
  Te  Te66  1  0.88024006  0.60299940  0.95511475  1
  Te  Te67  1  0.61975994  0.60299940  0.45511475  1
  Te  Te68  1  0.36110445  0.18887828  0.16384339  1
  Te  Te69  1  0.16112455  0.48635950  0.73305767  1
  Te  Te70  1  0.11596225  0.61267074  0.46494838  1
  Te  Te71  1  0.11538245  0.29440048  0.33361959  1
  Te  Te72  1  0.83887545  0.51364050  0.26694233  1
  Te  Te73  1  0.15188499  0.78738112  0.85448847  1
  Te  Te74  1  0.37033186  0.90277694  0.04495647  1
  Te  Te75  1  0.61538245  0.70559952  0.16638041  1
  Te  Te76  1  0.62944596  0.89036412  0.54706701  1
  Te  Te77  1  0.12966814  0.90277694  0.54495647  1
  Te  Te78  1  0.37055404  0.10963588  0.45293299  1
  Te  Te79  1  0.87055404  0.89036412  0.04706701  1
  Te  Te80  1  0.84811501  0.21261888  0.14551153  1
  Te  Te81  1  0.11975994  0.39700060  0.04488525  1
  Te  Te82  1  0.38461755  0.29440048  0.83361959  1
  Te  Te83  1  0.61596225  0.38732926  0.03505162  1
  Te  Te84  1  0.12944596  0.10963588  0.95293299  1
  Te  Te85  1  0.59571723  0.29761828  0.34251879  1
  Te  Te86  1  0.40428277  0.70238172  0.65748121  1
  Te  Te87  1  0.62966814  0.09722306  0.95504353  1
