# generated using pymatgen
data_Na2ErMoPO8
_symmetry_space_group_name_H-M   'P 1'
_cell_length_a   6.90410819
_cell_length_b   11.47746321
_cell_length_c   11.47746352
_cell_angle_alpha   63.94097339
_cell_angle_beta   72.49625624
_cell_angle_gamma   72.49625847
_symmetry_Int_Tables_number   1
_chemical_formula_structural   Na2ErMoPO8
_chemical_formula_sum   'Na8 Er4 Mo4 P4 O32'
_cell_volume   763.96027208
_cell_formula_units_Z   4
loop_
 _symmetry_equiv_pos_site_id
 _symmetry_equiv_pos_as_xyz
  1  'x, y, z'
loop_
 _atom_site_type_symbol
 _atom_site_label
 _atom_site_symmetry_multiplicity
 _atom_site_fract_x
 _atom_site_fract_y
 _atom_site_fract_z
 _atom_site_occupancy
  Na  Na0  1  0.15834692  0.79155281  0.40042546  1
  Na  Na1  1  0.64967481  0.29155281  0.90042546  1
  Na  Na2  1  0.84165308  0.20844719  0.59957454  1
  Na  Na3  1  0.85032519  0.59957454  0.20844719  1
  Na  Na4  1  0.65834692  0.90042546  0.29155281  1
  Na  Na5  1  0.35032519  0.70844719  0.09957454  1
  Na  Na6  1  0.34165308  0.09957454  0.70844719  1
  Na  Na7  1  0.14967481  0.40042546  0.79155281  1
  Er  Er8  1  0.75000000  0.32172916  0.17827084  1
  Er  Er9  1  0.25000000  0.17827084  0.32172916  1
  Er  Er10  1  0.25000000  0.67827084  0.82172916  1
  Er  Er11  1  0.75000000  0.82172916  0.67827084  1
  Mo  Mo12  1  0.82300859  0.92699141  0.92699141  1
  Mo  Mo13  1  0.17699141  0.07300859  0.07300859  1
  Mo  Mo14  1  0.67699141  0.57300859  0.57300859  1
  Mo  Mo15  1  0.32300859  0.42699141  0.42699141  1
  P  P16  1  0.75000000  0.06877153  0.43122847  1
  P  P17  1  0.25000000  0.93122847  0.56877153  1
  P  P18  1  0.75000000  0.56877153  0.93122847  1
  P  P19  1  0.25000000  0.43122847  0.06877153  1
  O  O20  1  0.77311128  0.39882343  0.63954345  1
  O  O21  1  0.69145629  0.56035014  0.07555295  1
  O  O22  1  0.72688872  0.86045655  0.10117657  1
  O  O23  1  0.32735938  0.93964986  0.42444705  1
  O  O24  1  0.31147816  0.36045655  0.60117657  1
  O  O25  1  0.58118590  0.14186963  0.34446493  1
  O  O26  1  0.90886604  0.15468292  0.10482829  1
  O  O27  1  0.82735938  0.92444705  0.43964986  1
  O  O28  1  0.33162275  0.10482829  0.15468292  1
  O  O29  1  0.56752045  0.65553507  0.85813037  1
  O  O30  1  0.30854371  0.43964986  0.92444705  1
  O  O31  1  0.41881410  0.85813037  0.65553507  1
  O  O32  1  0.81147816  0.10117657  0.86045655  1
  O  O33  1  0.40886604  0.60482829  0.65468292  1
  O  O34  1  0.17264062  0.07555295  0.56035014  1
  O  O35  1  0.83162275  0.65468292  0.60482829  1
  O  O36  1  0.18852184  0.89882343  0.13954345  1
  O  O37  1  0.22688872  0.60117657  0.36045655  1
  O  O38  1  0.16837725  0.34531708  0.39517171  1
  O  O39  1  0.08118590  0.84446493  0.64186963  1
  O  O40  1  0.67264062  0.06035014  0.57555295  1
  O  O41  1  0.43247955  0.34446493  0.14186963  1
  O  O42  1  0.80854371  0.42444705  0.93964986  1
  O  O43  1  0.59113396  0.39517171  0.34531708  1
  O  O44  1  0.06752045  0.35813037  0.15553507  1
  O  O45  1  0.66837725  0.89517171  0.84531708  1
  O  O46  1  0.19145629  0.57555295  0.06035014  1
  O  O47  1  0.27311128  0.13954345  0.89882343  1
  O  O48  1  0.91881410  0.15553507  0.35813037  1
  O  O49  1  0.93247955  0.64186963  0.84446493  1
  O  O50  1  0.09113396  0.84531708  0.89517171  1
  O  O51  1  0.68852184  0.63954345  0.39882343  1
