# generated using pymatgen
data_Hg2Mo2O7
_symmetry_space_group_name_H-M   'P 1'
_cell_length_a   7.20598044
_cell_length_b   7.33597574
_cell_length_c   8.36910542
_cell_angle_alpha   64.72746113
_cell_angle_beta   67.20498449
_cell_angle_gamma   66.22225752
_symmetry_Int_Tables_number   1
_chemical_formula_structural   Hg2Mo2O7
_chemical_formula_sum   'Hg4 Mo4 O14'
_cell_volume   353.50245392
_cell_formula_units_Z   2
loop_
 _symmetry_equiv_pos_site_id
 _symmetry_equiv_pos_as_xyz
  1  'x, y, z'
loop_
 _atom_site_type_symbol
 _atom_site_label
 _atom_site_symmetry_multiplicity
 _atom_site_fract_x
 _atom_site_fract_y
 _atom_site_fract_z
 _atom_site_occupancy
  Hg  Hg0  1  0.18202006  0.32651072  0.36675726  1
  Hg  Hg1  1  0.37513493  0.17572528  0.62046878  1
  Hg  Hg2  1  0.81797994  0.67348928  0.63324274  1
  Hg  Hg3  1  0.62486507  0.82427472  0.37953122  1
  Mo  Mo4  1  0.81388588  0.37183916  0.13200069  1
  Mo  Mo5  1  0.18611412  0.62816084  0.86799931  1
  Mo  Mo6  1  0.69581148  0.12349488  0.88124378  1
  Mo  Mo7  1  0.30418852  0.87650512  0.11875622  1
  O  O8  1  0.53326793  0.99927296  0.83752848  1
  O  O9  1  0.22864464  0.81466638  0.65152069  1
  O  O10  1  0.46673207  0.00072704  0.16247152  1
  O  O11  1  0.70415763  0.28776017  0.00662850  1
  O  O12  1  0.17837751  0.75477847  0.34192257  1
  O  O13  1  0.77135536  0.18533362  0.34847931  1
  O  O14  1  0.96805788  0.54629198  0.84979992  1
  O  O15  1  0.59741161  0.59643697  0.16225920  1
  O  O16  1  0.03194212  0.45370802  0.15020008  1
  O  O17  1  0.29584237  0.71223983  0.99337150  1
  O  O18  1  0.10298559  0.10936487  0.05102905  1
  O  O19  1  0.40258839  0.40356303  0.83774080  1
  O  O20  1  0.89701441  0.89063513  0.94897095  1
  O  O21  1  0.82162249  0.24522153  0.65807743  1
