# generated using pymatgen
data_Na2LuMoPO8
_symmetry_space_group_name_H-M   'P 1'
_cell_length_a   6.82351260
_cell_length_b   11.42466459
_cell_length_c   11.42466394
_cell_angle_alpha   63.69274870
_cell_angle_beta   72.62461557
_cell_angle_gamma   72.62461581
_symmetry_Int_Tables_number   1
_chemical_formula_structural   Na2LuMoPO8
_chemical_formula_sum   'Na8 Lu4 Mo4 P4 O32'
_cell_volume   747.42140292
_cell_formula_units_Z   4
loop_
 _symmetry_equiv_pos_site_id
 _symmetry_equiv_pos_as_xyz
  1  'x, y, z'
loop_
 _atom_site_type_symbol
 _atom_site_label
 _atom_site_symmetry_multiplicity
 _atom_site_fract_x
 _atom_site_fract_y
 _atom_site_fract_z
 _atom_site_occupancy
  Na  Na0  1  0.66447979  0.90384133  0.28872227  1
  Na  Na1  1  0.14295662  0.40384133  0.78872227  1
  Na  Na2  1  0.35704338  0.71127773  0.09615867  1
  Na  Na3  1  0.16447979  0.78872227  0.40384133  1
  Na  Na4  1  0.64295662  0.28872227  0.90384133  1
  Na  Na5  1  0.85704338  0.59615867  0.21127773  1
  Na  Na6  1  0.83552021  0.21127773  0.59615867  1
  Na  Na7  1  0.33552021  0.09615867  0.71127773  1
  Lu  Lu8  1  0.25000000  0.17845546  0.32154454  1
  Lu  Lu9  1  0.75000000  0.82154454  0.67845546  1
  Lu  Lu10  1  0.25000000  0.67845546  0.82154454  1
  Lu  Lu11  1  0.75000000  0.32154454  0.17845546  1
  Mo  Mo12  1  0.82430561  0.92569439  0.92569439  1
  Mo  Mo13  1  0.67569439  0.57430561  0.57430561  1
  Mo  Mo14  1  0.17569439  0.07430561  0.07430561  1
  Mo  Mo15  1  0.32430561  0.42569439  0.42569439  1
  P  P16  1  0.75000000  0.06839800  0.43160200  1
  P  P17  1  0.25000000  0.43160200  0.06839800  1
  P  P18  1  0.75000000  0.56839800  0.93160200  1
  P  P19  1  0.25000000  0.93160200  0.56839800  1
  O  O20  1  0.80705314  0.42331198  0.94096350  1
  O  O21  1  0.77209155  0.39905099  0.64104695  1
  O  O22  1  0.82867139  0.92331198  0.44096350  1
  O  O23  1  0.56578582  0.65643787  0.85772666  1
  O  O24  1  0.67132861  0.05903650  0.57668802  1
  O  O25  1  0.92004965  0.15643787  0.35772666  1
  O  O26  1  0.07995035  0.84356213  0.64227334  1
  O  O27  1  0.72790845  0.85895305  0.10094901  1
  O  O28  1  0.90454651  0.15558520  0.10689793  1
  O  O29  1  0.83297036  0.65558520  0.60689793  1
  O  O30  1  0.22790845  0.60094901  0.35895305  1
  O  O31  1  0.43421418  0.34356213  0.14227334  1
  O  O32  1  0.17132861  0.07668802  0.55903650  1
  O  O33  1  0.33297036  0.10689793  0.15558520  1
  O  O34  1  0.09545349  0.84441480  0.89310207  1
  O  O35  1  0.42004965  0.85772666  0.65643787  1
  O  O36  1  0.40454651  0.60689793  0.65558520  1
  O  O37  1  0.69294686  0.55903650  0.07668802  1
  O  O38  1  0.27209155  0.14104695  0.89905099  1
  O  O39  1  0.18781051  0.89905099  0.14104695  1
  O  O40  1  0.57995035  0.14227334  0.34356213  1
  O  O41  1  0.32867139  0.94096350  0.42331198  1
  O  O42  1  0.68781051  0.64104695  0.39905099  1
  O  O43  1  0.93421418  0.64227334  0.84356213  1
  O  O44  1  0.66702964  0.89310207  0.84441480  1
  O  O45  1  0.30705314  0.44096350  0.92331198  1
  O  O46  1  0.19294686  0.57668802  0.05903650  1
  O  O47  1  0.81218949  0.10094901  0.85895305  1
  O  O48  1  0.06578582  0.35772666  0.15643787  1
  O  O49  1  0.16702964  0.34441480  0.39310207  1
  O  O50  1  0.59545349  0.39310207  0.34441480  1
  O  O51  1  0.31218949  0.35895305  0.60094901  1
