# generated using pymatgen
data_SmSbMo2O9
_symmetry_space_group_name_H-M   'P 1'
_cell_length_a   9.83242801
_cell_length_b   9.83242862
_cell_length_c   10.99192975
_cell_angle_alpha   111.76524184
_cell_angle_beta   111.76524332
_cell_angle_gamma   95.69737458
_symmetry_Int_Tables_number   1
_chemical_formula_structural   SmSbMo2O9
_chemical_formula_sum   'Sm4 Sb4 Mo8 O36'
_cell_volume   881.33975318
_cell_formula_units_Z   4
loop_
 _symmetry_equiv_pos_site_id
 _symmetry_equiv_pos_as_xyz
  1  'x, y, z'
loop_
 _atom_site_type_symbol
 _atom_site_label
 _atom_site_symmetry_multiplicity
 _atom_site_fract_x
 _atom_site_fract_y
 _atom_site_fract_z
 _atom_site_occupancy
  Sm  Sm0  1  0.67343195  0.32656805  0.25000000  1
  Sm  Sm1  1  0.87505845  0.12494155  0.75000000  1
  Sm  Sm2  1  0.12494155  0.87505845  0.25000000  1
  Sm  Sm3  1  0.32656805  0.67343195  0.75000000  1
  Sb  Sb4  1  0.35167058  0.37875925  0.96286034  1
  Sb  Sb5  1  0.64832942  0.62124075  0.03713966  1
  Sb  Sb6  1  0.62124075  0.64832942  0.53713966  1
  Sb  Sb7  1  0.37875925  0.35167058  0.46286034  1
  Mo  Mo8  1  0.43452733  0.05920988  0.69453431  1
  Mo  Mo9  1  0.56547267  0.94079012  0.30546569  1
  Mo  Mo10  1  0.25893753  0.04804996  0.02587317  1
  Mo  Mo11  1  0.95195004  0.74106247  0.47412683  1
  Mo  Mo12  1  0.94079012  0.56547267  0.80546569  1
  Mo  Mo13  1  0.74106247  0.95195004  0.97412683  1
  Mo  Mo14  1  0.05920988  0.43452733  0.19453431  1
  Mo  Mo15  1  0.04804996  0.25893753  0.52587317  1
  O  O16  1  0.12611025  0.70291870  0.56450154  1
  O  O17  1  0.54114886  0.42373129  0.40138199  1
  O  O18  1  0.40426378  0.22005559  0.07701829  1
  O  O19  1  0.57626871  0.45885114  0.09861801  1
  O  O20  1  0.93474299  0.90470198  0.60059296  1
  O  O21  1  0.04798618  0.22444580  0.67539351  1
  O  O22  1  0.55820668  0.09039756  0.25055819  1
  O  O23  1  0.69358574  0.01787029  0.49359178  1
  O  O24  1  0.21134854  0.36987156  0.29958061  1
  O  O25  1  0.38077631  0.85873773  0.27584959  1
  O  O26  1  0.44179332  0.90960244  0.74944181  1
  O  O27  1  0.98212971  0.30641426  0.00640822  1
  O  O28  1  0.45885114  0.57626871  0.59861801  1
  O  O29  1  0.90470198  0.93474299  0.10059296  1
  O  O30  1  0.14126227  0.61922369  0.22415041  1
  O  O31  1  0.29708130  0.87388975  0.93549846  1
  O  O32  1  0.90960244  0.44179332  0.24944181  1
  O  O33  1  0.42373129  0.54114886  0.90138199  1
  O  O34  1  0.22005559  0.40426378  0.57701829  1
  O  O35  1  0.87388975  0.29708130  0.43549846  1
  O  O36  1  0.09529802  0.06525701  0.89940704  1
  O  O37  1  0.01787029  0.69358574  0.99359178  1
  O  O38  1  0.09039756  0.55820668  0.75055819  1
  O  O39  1  0.77994441  0.59573622  0.42298171  1
  O  O40  1  0.59573622  0.77994441  0.92298171  1
  O  O41  1  0.85873773  0.38077631  0.77584959  1
  O  O42  1  0.22444580  0.04798618  0.17539351  1
  O  O43  1  0.36987156  0.21134854  0.79958061  1
  O  O44  1  0.63012844  0.78865146  0.20041939  1
  O  O45  1  0.70291870  0.12611025  0.06450154  1
  O  O46  1  0.06525701  0.09529802  0.39940704  1
  O  O47  1  0.61922369  0.14126227  0.72415041  1
  O  O48  1  0.77555420  0.95201382  0.82460649  1
  O  O49  1  0.78865146  0.63012844  0.70041939  1
  O  O50  1  0.30641426  0.98212971  0.50640822  1
  O  O51  1  0.95201382  0.77555420  0.32460649  1
