# generated using pymatgen
data_Zn3As2
_symmetry_space_group_name_H-M   'P 1'
_cell_length_a   11.90409219
_cell_length_b   11.90409240
_cell_length_c   14.63075553
_cell_angle_alpha   114.00506571
_cell_angle_beta   114.00506619
_cell_angle_gamma   89.99999895
_symmetry_Int_Tables_number   1
_chemical_formula_structural   Zn3As2
_chemical_formula_sum   'Zn48 As32'
_cell_volume   1695.79019491
_cell_formula_units_Z   16
loop_
 _symmetry_equiv_pos_site_id
 _symmetry_equiv_pos_as_xyz
  1  'x, y, z'
loop_
 _atom_site_type_symbol
 _atom_site_label
 _atom_site_symmetry_multiplicity
 _atom_site_fract_x
 _atom_site_fract_y
 _atom_site_fract_z
 _atom_site_occupancy
  Zn  Zn0  1  0.30819469  0.83465886  0.37606803  1
  Zn  Zn1  1  0.41802901  0.18419289  0.12568723  1
  Zn  Zn2  1  0.46049174  0.45821631  0.14178142  1
  Zn  Zn3  1  0.04084979  0.54305411  0.85854443  1
  Zn  Zn4  1  0.16651718  0.41866011  0.60748124  1
  Zn  Zn5  1  0.43356511  0.93128968  0.64178142  1
  Zn  Zn6  1  0.81769463  0.31549031  0.85854443  1
  Zn  Zn7  1  0.96049174  0.18356511  0.14178142  1
  Zn  Zn8  1  0.68128968  0.68356511  0.14178142  1
  Zn  Zn9  1  0.19149434  0.16802901  0.62568723  1
  Zn  Zn10  1  0.91802901  0.44149434  0.12568723  1
  Zn  Zn11  1  0.31769463  0.04305411  0.85854443  1
  Zn  Zn12  1  0.56787334  0.33465886  0.37606803  1
  Zn  Zn13  1  0.20821631  0.71049174  0.64178142  1
  Zn  Zn14  1  0.44096406  0.18882112  0.60748124  1
  Zn  Zn15  1  0.06549031  0.06769463  0.35854443  1
  Zn  Zn16  1  0.29140916  0.31787334  0.87606803  1
  Zn  Zn17  1  0.16866011  0.41651718  0.10748124  1
  Zn  Zn18  1  0.79140916  0.05819469  0.87606803  1
  Zn  Zn19  1  0.18128968  0.95821631  0.14178142  1
  Zn  Zn20  1  0.66651718  0.68882112  0.60748124  1
  Zn  Zn21  1  0.93419289  0.66802901  0.62568723  1
  Zn  Zn22  1  0.58465886  0.55819469  0.87606803  1
  Zn  Zn23  1  0.33097723  0.58357154  0.89098293  1
  Zn  Zn24  1  0.08465886  0.81787334  0.87606803  1
  Zn  Zn25  1  0.43419289  0.45765822  0.62568723  1
  Zn  Zn26  1  0.69149434  0.95765822  0.62568723  1
  Zn  Zn27  1  0.66866011  0.19096406  0.10748124  1
  Zn  Zn28  1  0.70765822  0.94149434  0.12568723  1
  Zn  Zn29  1  0.33357154  0.58097723  0.39098293  1
  Zn  Zn30  1  0.06000571  0.08357154  0.89098293  1
  Zn  Zn31  1  0.80819469  0.04140916  0.37606803  1
  Zn  Zn32  1  0.56549031  0.79084979  0.35854443  1
  Zn  Zn33  1  0.43882112  0.91651718  0.10748124  1
  Zn  Zn34  1  0.83357154  0.31000571  0.39098293  1
  Zn  Zn35  1  0.55741140  0.08097723  0.39098293  1
  Zn  Zn36  1  0.20765822  0.68419289  0.12568723  1
  Zn  Zn37  1  0.93356511  0.21049174  0.64178142  1
  Zn  Zn38  1  0.56000571  0.30741140  0.89098293  1
  Zn  Zn39  1  0.06787334  0.54140916  0.37606803  1
  Zn  Zn40  1  0.83097723  0.80741140  0.89098293  1
  Zn  Zn41  1  0.70821631  0.43128968  0.64178142  1
  Zn  Zn42  1  0.94096406  0.91866011  0.60748124  1
  Zn  Zn43  1  0.54084979  0.81549031  0.85854443  1
  Zn  Zn44  1  0.93882112  0.69096406  0.10748124  1
  Zn  Zn45  1  0.29305411  0.29084979  0.35854443  1
  Zn  Zn46  1  0.79305411  0.56769463  0.35854443  1
  Zn  Zn47  1  0.05741140  0.81000571  0.39098293  1
  As  As48  1  0.87813809  0.63136146  0.25248948  1
  As  As49  1  0.49860824  0.99860824  0.99721648  1
  As  As50  1  0.11773893  0.87088154  0.24640439  1
  As  As51  1  0.25470671  0.24936107  1.00004561  1
  As  As52  1  0.74533890  0.75068454  1.00004561  1
  As  As53  1  0.12088154  0.87866546  0.74640439  1
  As  As54  1  0.99936107  0.50470671  0.50004561  1
  As  As55  1  0.50050699  0.50050699  1.00101398  1
  As  As56  1  0.37112802  0.62435139  0.75248948  1
  As  As57  1  0.12866546  0.37552285  0.24640439  1
  As  As58  1  0.87112802  0.62813809  0.75248948  1
  As  As59  1  0.75470671  0.25068454  1.00004561  1
  As  As60  1  0.62866546  0.37088154  0.24640439  1
  As  As61  1  0.62552285  0.86773893  0.74640439  1
  As  As62  1  0.74860824  0.74860824  0.49721648  1
  As  As63  1  0.37813809  0.12112802  0.25248948  1
  As  As64  1  0.38136146  0.12813809  0.75248948  1
  As  As65  1  0.00068454  0.00470671  0.50004561  1
  As  As66  1  0.24533890  0.74936107  1.00004561  1
  As  As67  1  0.75050699  0.25050699  0.50101398  1
  As  As68  1  1.00050699  1.00050699  1.00101398  1
  As  As69  1  0.37435139  0.62112802  0.25248948  1
  As  As70  1  0.50068454  0.99533890  0.50004561  1
  As  As71  1  0.61773893  0.87552285  0.24640439  1
  As  As72  1  0.88136146  0.12435139  0.75248948  1
  As  As73  1  0.25050699  0.75050699  0.50101398  1
  As  As74  1  0.62088154  0.36773893  0.74640439  1
  As  As75  1  0.87435139  0.13136146  0.25248948  1
  As  As76  1  0.99860824  0.49860824  0.99721648  1
  As  As77  1  0.49936107  0.49533890  0.50004561  1
  As  As78  1  0.12552285  0.37866546  0.74640439  1
  As  As79  1  0.24860824  0.24860824  0.49721648  1
