# generated using pymatgen
data_Li7Mn2(CoO4)3
_symmetry_space_group_name_H-M   'P 1'
_cell_length_a   2.94344586
_cell_length_b   6.50791126
_cell_length_c   12.04165040
_cell_angle_alpha   75.88217715
_cell_angle_beta   90.00000000
_cell_angle_gamma   103.07013377
_symmetry_Int_Tables_number   1
_chemical_formula_structural   Li7Mn2(CoO4)3
_chemical_formula_sum   'Li7 Mn2 Co3 O12'
_cell_volume   217.53212170
_cell_formula_units_Z   1
loop_
 _symmetry_equiv_pos_site_id
 _symmetry_equiv_pos_as_xyz
  1  'x, y, z'
loop_
 _atom_site_type_symbol
 _atom_site_label
 _atom_site_symmetry_multiplicity
 _atom_site_fract_x
 _atom_site_fract_y
 _atom_site_fract_z
 _atom_site_occupancy
  Li  Li0  1  0.32761501  0.65523102  0.42715104  1
  Li  Li1  1  0.66650059  0.33300017  0.57406054  1
  Li  Li2  1  -0.00008836  -0.00017671  0.73797544  1
  Li  Li3  1  0.33223768  0.66447636  0.90692778  1
  Li  Li4  1  0.66628776  0.33257452  0.09143611  1
  Li  Li5  1  0.00553888  0.01107776  0.26739575  1
  Li  Li6  1  0.66323225  0.32646350  0.33696691  1
  Mn  Mn7  1  -0.00045307  -0.00090614  0.00062572  1
  Mn  Mn8  1  0.32680540  0.65361179  0.17182165  1
  Co  Co9  1  0.01059183  0.02118366  0.48628932  1
  Co  Co10  1  0.34211063  0.68422225  0.65897541  1
  Co  Co11  1  0.67254987  0.34509874  0.82752089  1
  O  O12  1  0.49272769  0.98545439  0.62738098  1
  O  O13  1  0.82995387  0.65990775  0.79163110  1
  O  O14  1  0.15451633  0.30903366  0.95358721  1
  O  O15  1  0.49569754  0.99139408  0.10940265  1
  O  O16  1  0.83609462  0.67218924  0.27084098  1
  O  O17  1  0.15751224  0.31502548  0.46168958  1
  O  O18  1  0.18081385  0.36162770  0.20014403  1
  O  O19  1  0.49566498  0.99133096  0.37887027  1
  O  O20  1  0.83498823  0.66997546  0.54976528  1
  O  O21  1  0.16937939  0.33875879  0.72227034  1
  O  O22  1  0.49758068  -0.00483764  0.89484037  1
  O  O23  1  0.84214211  0.68428321  0.05243065  1
