# generated using pymatgen
data_Cs2SnAs2Se9
_symmetry_space_group_name_H-M   'P 1'
_cell_length_a   7.42909259
_cell_length_b   7.99952475
_cell_length_c   18.19709443
_cell_angle_alpha   90.00000000
_cell_angle_beta   90.00000000
_cell_angle_gamma   115.21472106
_symmetry_Int_Tables_number   1
_chemical_formula_structural   Cs2SnAs2Se9
_chemical_formula_sum   'Cs4 Sn2 As4 Se18'
_cell_volume   978.39687706
_cell_formula_units_Z   2
loop_
 _symmetry_equiv_pos_site_id
 _symmetry_equiv_pos_as_xyz
  1  'x, y, z'
loop_
 _atom_site_type_symbol
 _atom_site_label
 _atom_site_symmetry_multiplicity
 _atom_site_fract_x
 _atom_site_fract_y
 _atom_site_fract_z
 _atom_site_occupancy
  Cs  Cs0  1  0.30772716  0.24218657  0.06346664  1
  Cs  Cs1  1  0.91490146  0.48320960  0.79166896  1
  Cs  Cs2  1  0.69227284  0.75781343  0.56346664  1
  Cs  Cs3  1  0.08509854  0.51679040  0.29166896  1
  Sn  Sn4  1  0.32271243  0.11837415  0.66794871  1
  Sn  Sn5  1  0.67728757  0.88162585  0.16794871  1
  As  As6  1  0.80911946  0.93597023  0.35465260  1
  As  As7  1  0.63823519  0.84063072  0.95359111  1
  As  As8  1  0.36176481  0.15936928  0.45359111  1
  As  As9  1  0.19088054  0.06402977  0.85465260  1
  Se  Se10  1  0.29854895  0.79231050  0.11840593  1
  Se  Se11  1  0.97259215  0.00572034  0.75343278  1
  Se  Se12  1  0.81252027  0.22761222  0.10613570  1
  Se  Se13  1  0.56716738  0.01012889  0.29286408  1
  Se  Se14  1  0.37545098  0.41243406  0.85138529  1
  Se  Se15  1  0.29204862  0.68958220  0.99540279  1
  Se  Se16  1  0.60268313  0.53598771  0.22369562  1
  Se  Se17  1  0.62454902  0.58756594  0.35138529  1
  Se  Se18  1  0.43283262  0.98987111  0.79286408  1
  Se  Se19  1  0.80067665  0.75620346  0.04800648  1
  Se  Se20  1  0.02740785  0.99427966  0.25343278  1
  Se  Se21  1  0.25552593  0.82711877  0.47854331  1
  Se  Se22  1  0.70795138  0.31041780  0.49540279  1
  Se  Se23  1  0.39731687  0.46401229  0.72369562  1
  Se  Se24  1  0.18747973  0.77238778  0.60613570  1
  Se  Se25  1  0.19932335  0.24379654  0.54800648  1
  Se  Se26  1  0.70145105  0.20768950  0.61840593  1
  Se  Se27  1  0.74447407  0.17288123  0.97854331  1
