# generated using pymatgen
data_CsSnI3
_symmetry_space_group_name_H-M   'P 1'
_cell_length_a   8.87221046
_cell_length_b   8.73317055
_cell_length_c   12.66308172
_cell_angle_alpha   90.00000000
_cell_angle_beta   90.00000000
_cell_angle_gamma   90.00000000
_symmetry_Int_Tables_number   1
_chemical_formula_structural   CsSnI3
_chemical_formula_sum   'Cs4 Sn4 I12'
_cell_volume   981.16757257
_cell_formula_units_Z   4
loop_
 _symmetry_equiv_pos_site_id
 _symmetry_equiv_pos_as_xyz
  1  'x, y, z'
loop_
 _atom_site_type_symbol
 _atom_site_label
 _atom_site_symmetry_multiplicity
 _atom_site_fract_x
 _atom_site_fract_y
 _atom_site_fract_z
 _atom_site_occupancy
  Cs  Cs0  1  0.97666665  0.99531680  0.25000000  1
  Cs  Cs1  1  0.52333335  0.49531680  0.25000000  1
  Cs  Cs2  1  0.02333335  0.00468320  0.75000000  1
  Cs  Cs3  1  0.47666665  0.50468320  0.75000000  1
  Sn  Sn4  1  0.00000000  0.50000000  0.00000000  1
  Sn  Sn5  1  0.50000000  0.00000000  0.50000000  1
  Sn  Sn6  1  0.50000000  0.00000000  0.00000000  1
  Sn  Sn7  1  0.00000000  0.50000000  0.50000000  1
  I  I8  1  0.29632794  0.29690172  0.00756430  1
  I  I9  1  0.70367206  0.70309828  0.50756430  1
  I  I10  1  0.29632794  0.29690172  0.49243570  1
  I  I11  1  0.70367206  0.70309828  0.99243570  1
  I  I12  1  0.01998212  0.49735219  0.75000000  1
  I  I13  1  0.20367206  0.79690172  0.49243570  1
  I  I14  1  0.51998212  0.00264781  0.25000000  1
  I  I15  1  0.79632794  0.20309828  0.50756430  1
  I  I16  1  0.79632794  0.20309828  0.99243570  1
  I  I17  1  0.98001788  0.50264781  0.25000000  1
  I  I18  1  0.48001788  0.99735219  0.75000000  1
  I  I19  1  0.20367206  0.79690172  0.00756430  1
