# generated using pymatgen
data_Li9Co7O16
_symmetry_space_group_name_H-M   'P 1'
_cell_length_a   2.92423096
_cell_length_b   10.07963029
_cell_length_c   9.87076730
_cell_angle_alpha   100.46153374
_cell_angle_beta   90.00000000
_cell_angle_gamma   90.00000000
_symmetry_Int_Tables_number   1
_chemical_formula_structural   Li9Co7O16
_chemical_formula_sum   'Li9 Co7 O16'
_cell_volume   286.10618608
_cell_formula_units_Z   1
loop_
 _symmetry_equiv_pos_site_id
 _symmetry_equiv_pos_as_xyz
  1  'x, y, z'
loop_
 _atom_site_type_symbol
 _atom_site_label
 _atom_site_symmetry_multiplicity
 _atom_site_fract_x
 _atom_site_fract_y
 _atom_site_fract_z
 _atom_site_occupancy
  Li  Li0  1  0.50000000  0.12403143  0.24806431  1
  Li  Li1  1  0.50000000  0.37596857  0.75193569  1
  Li  Li2  1  0.50000000  0.62429880  0.24660155  1
  Li  Li3  1  -0.00000000  0.37584611  0.25222280  1
  Li  Li4  1  -0.00000000  0.62825022  0.75468392  1
  Li  Li5  1  -0.00000000  0.87174978  0.24531608  1
  Li  Li6  1  0.50000000  0.87570120  0.75339845  1
  Li  Li7  1  0.00000000  0.12415389  0.74777720  1
  Li  Li8  1  0.50000000  0.75000000  -0.00000000  1
  Co  Co9  1  -0.00000000  0.98883545  0.99753474  1
  Co  Co10  1  0.00000000  0.51116455  0.00246526  1
  Co  Co11  1  -0.00000000  0.25000000  0.50000000  1
  Co  Co12  1  -0.00000000  0.75000000  0.50000000  1
  Co  Co13  1  0.50000000  0.50065270  0.50193858  1
  Co  Co14  1  0.50000000  0.99934730  0.49806142  1
  Co  Co15  1  0.50000000  0.25000000  -0.00000000  1
  O  O16  1  0.50000000  0.94455915  0.11490670  1
  O  O17  1  0.50000000  0.18806456  0.61598548  1
  O  O18  1  0.50000000  0.43393847  0.11168069  1
  O  O19  1  -0.00000000  0.17952657  0.11010461  1
  O  O20  1  -0.00000000  0.43578096  0.61561463  1
  O  O21  1  -0.00000000  0.66747077  0.11335152  1
  O  O22  1  0.50000000  0.68939047  0.61819844  1
  O  O23  1  -0.00000000  0.93549906  0.61366762  1
  O  O24  1  0.50000000  0.31193544  0.38401452  1
  O  O25  1  0.50000000  0.55544085  0.88509330  1
  O  O26  1  0.50000000  0.81060953  0.38180156  1
  O  O27  1  0.00000000  0.56450094  0.38633238  1
  O  O28  1  0.00000000  0.83252923  0.88664848  1
  O  O29  1  -0.00000000  0.06421904  0.38438537  1
  O  O30  1  0.50000000  0.06606153  0.88831931  1
  O  O31  1  -0.00000000  0.32047343  0.88989539  1
