# generated using pymatgen
data_RbCu2I3
_symmetry_space_group_name_H-M   'P 1'
_cell_length_a   5.40032678
_cell_length_b   11.24407678
_cell_length_c   13.89869836
_cell_angle_alpha   90.00000000
_cell_angle_beta   90.00000000
_cell_angle_gamma   90.00000000
_symmetry_Int_Tables_number   1
_chemical_formula_structural   RbCu2I3
_chemical_formula_sum   'Rb4 Cu8 I12'
_cell_volume   843.95243865
_cell_formula_units_Z   4
loop_
 _symmetry_equiv_pos_site_id
 _symmetry_equiv_pos_as_xyz
  1  'x, y, z'
loop_
 _atom_site_type_symbol
 _atom_site_label
 _atom_site_symmetry_multiplicity
 _atom_site_fract_x
 _atom_site_fract_y
 _atom_site_fract_z
 _atom_site_occupancy
  Rb  Rb0  1  0.25000000  0.51419490  0.18616429  1
  Rb  Rb1  1  0.25000000  0.98580510  0.68616429  1
  Rb  Rb2  1  0.75000000  0.48580510  0.81383571  1
  Rb  Rb3  1  0.75000000  0.01419490  0.31383571  1
  Cu  Cu4  1  0.50095818  0.33792599  0.49184076  1
  Cu  Cu5  1  0.99904182  0.33792599  0.49184076  1
  Cu  Cu6  1  0.50095818  0.16207401  0.99184076  1
  Cu  Cu7  1  0.49904182  0.66207401  0.50815924  1
  Cu  Cu8  1  0.00095818  0.66207401  0.50815924  1
  Cu  Cu9  1  0.00095818  0.83792599  0.00815924  1
  Cu  Cu10  1  0.49904182  0.83792599  0.00815924  1
  Cu  Cu11  1  0.99904182  0.16207401  0.99184076  1
  I  I12  1  0.25000000  0.23373854  0.35393925  1
  I  I13  1  0.75000000  0.98925787  0.89140791  1
  I  I14  1  0.25000000  0.01074213  0.10859209  1
  I  I15  1  0.75000000  0.76626146  0.64606075  1
  I  I16  1  0.25000000  0.48925787  0.60859209  1
  I  I17  1  0.75000000  0.30742557  0.10210174  1
  I  I18  1  0.75000000  0.51074213  0.39140791  1
  I  I19  1  0.25000000  0.69257443  0.89789826  1
  I  I20  1  0.25000000  0.80742557  0.39789826  1
  I  I21  1  0.75000000  0.19257443  0.60210174  1
  I  I22  1  0.75000000  0.73373854  0.14606075  1
  I  I23  1  0.25000000  0.26626146  0.85393925  1
