# generated using pymatgen
data_SbCl5
_symmetry_space_group_name_H-M   'P 1'
_cell_length_a   10.13838088
_cell_length_b   12.93487222
_cell_length_c   13.44428283
_cell_angle_alpha   90.00000000
_cell_angle_beta   109.17105811
_cell_angle_gamma   90.00000000
_symmetry_Int_Tables_number   1
_chemical_formula_structural   SbCl5
_chemical_formula_sum   'Sb8 Cl40'
_cell_volume   1665.28983210
_cell_formula_units_Z   8
loop_
 _symmetry_equiv_pos_site_id
 _symmetry_equiv_pos_as_xyz
  1  'x, y, z'
loop_
 _atom_site_type_symbol
 _atom_site_label
 _atom_site_symmetry_multiplicity
 _atom_site_fract_x
 _atom_site_fract_y
 _atom_site_fract_z
 _atom_site_occupancy
  Sb  Sb0  1  0.19393643  0.12718769  0.70454406  1
  Sb  Sb1  1  0.38391442  0.86918448  0.18902805  1
  Sb  Sb2  1  0.80606357  0.62718769  0.79545594  1
  Sb  Sb3  1  0.61608558  0.36918448  0.31097195  1
  Sb  Sb4  1  0.61608558  0.13081552  0.81097195  1
  Sb  Sb5  1  0.19393643  0.37281231  0.20454406  1
  Sb  Sb6  1  0.38391442  0.63081552  0.68902805  1
  Sb  Sb7  1  0.80606357  0.87281231  0.29545594  1
  Cl  Cl8  1  0.95704005  0.99092419  0.25624057  1
  Cl  Cl9  1  0.59852764  0.47394573  0.16363380  1
  Cl  Cl10  1  0.40147236  0.52605427  0.83636620  1
  Cl  Cl11  1  0.78080376  0.52480701  0.93271245  1
  Cl  Cl12  1  0.77290402  0.48264749  0.42757547  1
  Cl  Cl13  1  0.23093910  0.75293106  0.22815737  1
  Cl  Cl14  1  0.59383661  0.26558219  0.44881493  1
  Cl  Cl15  1  0.96395094  0.76019677  0.41170153  1
  Cl  Cl16  1  0.40742436  0.47724908  0.32986858  1
  Cl  Cl17  1  0.59257564  0.97724908  0.17013142  1
  Cl  Cl18  1  0.40147236  0.97394573  0.33636620  1
  Cl  Cl19  1  0.21919624  0.47519299  0.06728755  1
  Cl  Cl20  1  0.76906090  0.24706894  0.77184263  1
  Cl  Cl21  1  0.23093910  0.74706894  0.72815737  1
  Cl  Cl22  1  0.21919624  0.02480701  0.56728755  1
  Cl  Cl23  1  0.96395094  0.73980323  0.91170153  1
  Cl  Cl24  1  0.76906090  0.25293106  0.27184263  1
  Cl  Cl25  1  0.21154419  0.23125367  0.85214372  1
  Cl  Cl26  1  0.59560148  0.76389525  0.31323197  1
  Cl  Cl27  1  0.04295995  0.00907581  0.74375943  1
  Cl  Cl28  1  0.78080376  0.97519299  0.43271245  1
  Cl  Cl29  1  0.78845581  0.73125367  0.64785628  1
  Cl  Cl30  1  0.03604906  0.26019677  0.08829847  1
  Cl  Cl31  1  0.04295995  0.49092419  0.24375943  1
  Cl  Cl32  1  0.40439852  0.26389525  0.18676803  1
  Cl  Cl33  1  0.77290402  0.01735251  0.92757547  1
  Cl  Cl34  1  0.59852764  0.02605427  0.66363380  1
  Cl  Cl35  1  0.40616339  0.76558219  0.05118507  1
  Cl  Cl36  1  0.03604906  0.23980323  0.58829847  1
  Cl  Cl37  1  0.59560148  0.73610475  0.81323197  1
  Cl  Cl38  1  0.59257564  0.52275092  0.67013142  1
  Cl  Cl39  1  0.22709598  0.51735251  0.57242453  1
  Cl  Cl40  1  0.40439852  0.23610475  0.68676803  1
  Cl  Cl41  1  0.40742436  0.02275092  0.82986858  1
  Cl  Cl42  1  0.59383661  0.23441781  0.94881493  1
  Cl  Cl43  1  0.95704005  0.50907581  0.75624057  1
  Cl  Cl44  1  0.78845581  0.76874633  0.14785628  1
  Cl  Cl45  1  0.21154419  0.26874633  0.35214372  1
  Cl  Cl46  1  0.22709598  0.98264749  0.07242453  1
  Cl  Cl47  1  0.40616339  0.73441781  0.55118507  1
