# generated using pymatgen
data_CeCo3
_symmetry_space_group_name_H-M   'P 1'
_cell_length_a   4.89172837
_cell_length_b   4.89172837
_cell_length_c   8.82770214
_cell_angle_alpha   73.91477304
_cell_angle_beta   73.91477304
_cell_angle_gamma   59.99999850
_symmetry_Int_Tables_number   1
_chemical_formula_structural   CeCo3
_chemical_formula_sum   'Ce3 Co9'
_cell_volume   173.32265260
_cell_formula_units_Z   3
loop_
 _symmetry_equiv_pos_site_id
 _symmetry_equiv_pos_as_xyz
  1  'x, y, z'
loop_
 _atom_site_type_symbol
 _atom_site_label
 _atom_site_symmetry_multiplicity
 _atom_site_fract_x
 _atom_site_fract_y
 _atom_site_fract_z
 _atom_site_occupancy
  Ce  Ce0  1  0.00000000  0.00000000  -0.00000000  1
  Ce  Ce1  1  0.13927808  0.13927808  0.58216577  1
  Ce  Ce2  1  0.86072192  0.86072192  0.41783423  1
  Co  Co3  1  0.50000000  0.50000000  0.50000000  1
  Co  Co4  1  0.33255871  0.33255871  0.00232387  1
  Co  Co5  1  0.66744129  0.66744129  0.99767613  1
  Co  Co6  1  0.08179898  0.57963508  0.75893087  1
  Co  Co7  1  0.57963508  0.57963508  0.75893087  1
  Co  Co8  1  0.57963508  0.08179898  0.75893087  1
  Co  Co9  1  0.91820102  0.42036492  0.24106913  1
  Co  Co10  1  0.42036492  0.42036492  0.24106913  1
  Co  Co11  1  0.42036492  0.91820102  0.24106913  1
