# generated using pymatgen
data_Ba14Na21CaN6
_symmetry_space_group_name_H-M   'P 1'
_cell_length_a   12.42119106
_cell_length_b   12.42119142
_cell_length_c   14.04150784
_cell_angle_alpha   101.84858274
_cell_angle_beta   104.43043050
_cell_angle_gamma   119.08963253
_symmetry_Int_Tables_number   1
_chemical_formula_structural   Ba14Na21CaN6
_chemical_formula_sum   'Ba14 Na21 Ca1 N6'
_cell_volume   1691.48686527
_cell_formula_units_Z   1
loop_
 _symmetry_equiv_pos_site_id
 _symmetry_equiv_pos_as_xyz
  1  'x, y, z'
loop_
 _atom_site_type_symbol
 _atom_site_label
 _atom_site_symmetry_multiplicity
 _atom_site_fract_x
 _atom_site_fract_y
 _atom_site_fract_z
 _atom_site_occupancy
  Ba  Ba0  1  0.49388964  0.20426949  0.27278756  1
  Ba  Ba1  1  0.93148192  0.22110207  0.72721244  1
  Ba  Ba2  1  0.50611036  0.79573051  0.72721244  1
  Ba  Ba3  1  0.80989744  0.17016169  0.40640477  1
  Ba  Ba4  1  0.19010256  0.82983831  0.59359523  1
  Ba  Ba5  1  0.86109444  0.37217436  0.23326881  1
  Ba  Ba6  1  0.23624309  0.59650733  0.40640477  1
  Ba  Ba7  1  0.06851808  0.77889793  0.27278756  1
  Ba  Ba8  1  0.19064847  0.39827476  0.58892323  1
  Ba  Ba9  1  0.80935153  0.60172524  0.41107677  1
  Ba  Ba10  1  0.92351814  0.80814981  0.73166795  1
  Ba  Ba11  1  0.13890556  0.62782564  0.76673119  1
  Ba  Ba12  1  0.07648186  0.19185019  0.26833205  1
  Ba  Ba13  1  0.76375691  0.40349267  0.59359523  1
  Na  Na14  1  0.27975171  0.20324741  0.78042033  1
  Na  Na15  1  0.34580955  0.17586606  0.52167561  1
  Na  Na16  1  0.59494583  0.19442992  0.78937575  1
  Na  Na17  1  0.60403017  0.44623122  0.05026138  1
  Na  Na18  1  0.42282708  0.49933138  0.21957967  1
  Na  Na19  1  0.18040394  0.18040394  0.00000000  1
  Na  Na20  1  0.40505417  0.80557008  0.21062425  1
  Na  Na21  1  0.12380616  0.47118050  0.05607215  1
  Na  Na22  1  0.65419045  0.82413394  0.47832439  1
  Na  Na23  1  0.41510834  0.06773401  0.94392785  1
  Na  Na24  1  0.57717292  0.50066862  0.78042033  1
  Na  Na25  1  0.16266436  0.86886903  0.03153339  1
  Na  Na26  1  0.58489166  0.93226599  0.05607215  1
  Na  Na27  1  0.87619384  0.52881950  0.94392785  1
  Na  Na28  1  0.00000000  0.00000000  0.50000000  1
  Na  Na29  1  0.83733564  0.13113097  0.96846661  1
  Na  Na30  1  0.72024829  0.79675259  0.21957967  1
  Na  Na31  1  0.81959606  0.81959606  0.00000000  1
  Na  Na32  1  0.39596983  0.55376878  0.94973862  1
  Na  Na33  1  0.50000000  0.00000000  0.50000000  1
  Na  Na34  1  0.50000000  0.50000000  0.50000000  1
  Ca  Ca35  1  0.00000000  0.50000000  0.50000000  1
  N  N36  1  0.03467648  0.34408349  0.37875997  1
  N  N37  1  0.96625934  0.36306029  0.61782359  1
  N  N38  1  0.03374066  0.63693971  0.38217641  1
  N  N39  1  0.74523670  0.34843574  0.38217641  1
  N  N40  1  0.96532352  0.65591651  0.62124003  1
  N  N41  1  0.25476330  0.65156426  0.61782359  1
