# generated using pymatgen
data_Yb3CoSn6
_symmetry_space_group_name_H-M   'P 1'
_cell_length_a   4.73210951
_cell_length_b   8.34828694
_cell_length_c   13.27333743
_cell_angle_alpha   90.00000000
_cell_angle_beta   90.00000000
_cell_angle_gamma   106.46430782
_symmetry_Int_Tables_number   1
_chemical_formula_structural   Yb3CoSn6
_chemical_formula_sum   'Yb6 Co2 Sn12'
_cell_volume   502.86255803
_cell_formula_units_Z   2
loop_
 _symmetry_equiv_pos_site_id
 _symmetry_equiv_pos_as_xyz
  1  'x, y, z'
loop_
 _atom_site_type_symbol
 _atom_site_label
 _atom_site_symmetry_multiplicity
 _atom_site_fract_x
 _atom_site_fract_y
 _atom_site_fract_z
 _atom_site_occupancy
  Yb  Yb0  1  0.09818737  0.19637474  0.09767407  1
  Yb  Yb1  1  0.90181263  0.80362526  0.59767407  1
  Yb  Yb2  1  0.09808349  0.19616698  0.75000000  1
  Yb  Yb3  1  0.90181263  0.80362526  0.90232593  1
  Yb  Yb4  1  0.90191651  0.80383302  0.25000000  1
  Yb  Yb5  1  0.09818737  0.19637474  0.40232593  1
  Co  Co6  1  0.70511290  0.41022580  0.25000000  1
  Co  Co7  1  0.29488710  0.58977420  0.75000000  1
  Sn  Sn8  1  0.24479281  0.48958561  0.57065419  1
  Sn  Sn9  1  0.57332051  0.14664102  0.57685859  1
  Sn  Sn10  1  0.42667949  0.85335898  0.42314141  1
  Sn  Sn11  1  0.26867190  0.53734380  0.25000000  1
  Sn  Sn12  1  0.73132810  0.46265620  0.75000000  1
  Sn  Sn13  1  0.75520719  0.51041439  0.07065419  1
  Sn  Sn14  1  0.75520719  0.51041439  0.42934581  1
  Sn  Sn15  1  0.42667949  0.85335898  0.07685859  1
  Sn  Sn16  1  0.54625620  0.09251240  0.25000000  1
  Sn  Sn17  1  0.45374380  0.90748760  0.75000000  1
  Sn  Sn18  1  0.24479281  0.48958561  0.92934581  1
  Sn  Sn19  1  0.57332051  0.14664102  0.92314141  1
