# generated using pymatgen
data_AgBi2Se3Cl
_symmetry_space_group_name_H-M   'P 1'
_cell_length_a   4.14931526
_cell_length_b   8.15012278
_cell_length_c   11.31062563
_cell_angle_alpha   104.19298550
_cell_angle_beta   90.00000000
_cell_angle_gamma   90.00000000
_symmetry_Int_Tables_number   1
_chemical_formula_structural   AgBi2Se3Cl
_chemical_formula_sum   'Ag2 Bi4 Se6 Cl2'
_cell_volume   370.82072155
_cell_formula_units_Z   2
loop_
 _symmetry_equiv_pos_site_id
 _symmetry_equiv_pos_as_xyz
  1  'x, y, z'
loop_
 _atom_site_type_symbol
 _atom_site_label
 _atom_site_symmetry_multiplicity
 _atom_site_fract_x
 _atom_site_fract_y
 _atom_site_fract_z
 _atom_site_occupancy
  Ag  Ag0  1  0.75000000  0.95288673  0.58705816  1
  Ag  Ag1  1  0.25000000  0.04711327  0.41294184  1
  Bi  Bi2  1  0.25000000  0.19099657  0.93425326  1
  Bi  Bi3  1  0.75000000  0.80900343  0.06574674  1
  Bi  Bi4  1  0.75000000  0.46734686  0.65627528  1
  Bi  Bi5  1  0.25000000  0.53265314  0.34372472  1
  Se  Se6  1  0.25000000  0.20408766  0.66550259  1
  Se  Se7  1  0.25000000  0.04443968  0.15013783  1
  Se  Se8  1  0.25000000  0.69023222  0.58788960  1
  Se  Se9  1  0.75000000  0.30976778  0.41211040  1
  Se  Se10  1  0.75000000  0.79591234  0.33449741  1
  Se  Se11  1  0.75000000  0.95556032  0.84986217  1
  Cl  Cl12  1  0.25000000  0.59663893  0.90206227  1
  Cl  Cl13  1  0.75000000  0.40336107  0.09793773  1
