# generated using pymatgen
data_SnPSe3
_symmetry_space_group_name_H-M   'P 1'
_cell_length_a   6.95954088
_cell_length_b   7.89508354
_cell_length_c   9.90515906
_cell_angle_alpha   90.00000000
_cell_angle_beta   91.11950411
_cell_angle_gamma   90.00000000
_symmetry_Int_Tables_number   1
_chemical_formula_structural   SnPSe3
_chemical_formula_sum   'Sn4 P4 Se12'
_cell_volume   544.14653443
_cell_formula_units_Z   4
loop_
 _symmetry_equiv_pos_site_id
 _symmetry_equiv_pos_as_xyz
  1  'x, y, z'
loop_
 _atom_site_type_symbol
 _atom_site_label
 _atom_site_symmetry_multiplicity
 _atom_site_fract_x
 _atom_site_fract_y
 _atom_site_fract_z
 _atom_site_occupancy
  P  P0  1  0.94522625  0.89710615  0.56849033  1
  P  P1  1  0.55477375  0.39710615  0.93150967  1
  P  P2  1  0.05477375  0.10289385  0.43150967  1
  P  P3  1  0.44522625  0.60289385  0.06849033  1
  Se  Se4  1  0.11002434  0.98979793  0.23202672  1
  Se  Se5  1  0.38997566  0.48979793  0.26797328  1
  Se  Se6  1  0.88997566  0.01020207  0.76797328  1
  Se  Se7  1  0.61002434  0.51020207  0.73202672  1
  Se  Se8  1  0.33833404  0.19389591  0.93779805  1
  Se  Se9  1  0.16166596  0.69389591  0.56220195  1
  Se  Se10  1  0.66166596  0.80610409  0.06220195  1
  Se  Se11  1  0.83833404  0.30610409  0.43779805  1
  Se  Se12  1  0.82518825  0.30575097  0.03424909  1
  Se  Se13  1  0.67481175  0.80575097  0.46575091  1
  Se  Se14  1  0.17481175  0.69424903  0.96575091  1
  Se  Se15  1  0.32518825  0.19424903  0.53424909  1
  Sn  Sn16  1  0.96391566  0.62693924  0.21313515  1
  Sn  Sn17  1  0.53608434  0.12693924  0.28686485  1
  Sn  Sn18  1  0.03608434  0.37306076  0.78686485  1
  Sn  Sn19  1  0.46391566  0.87306076  0.71313515  1
