# generated using pymatgen
data_ZnTe
_symmetry_space_group_name_H-M   'P 1'
_cell_length_a   4.37263364
_cell_length_b   4.37263390
_cell_length_c   10.70496168
_cell_angle_alpha   90.00000000
_cell_angle_beta   90.00000000
_cell_angle_gamma   119.99999803
_symmetry_Int_Tables_number   1
_chemical_formula_structural   ZnTe
_chemical_formula_sum   'Zn3 Te3'
_cell_volume   177.25641705
_cell_formula_units_Z   3
loop_
 _symmetry_equiv_pos_site_id
 _symmetry_equiv_pos_as_xyz
  1  'x, y, z'
loop_
 _atom_site_type_symbol
 _atom_site_label
 _atom_site_symmetry_multiplicity
 _atom_site_fract_x
 _atom_site_fract_y
 _atom_site_fract_z
 _atom_site_occupancy
  Zn  Zn0  1  0.66058799  0.63936306  0.69316526  1
  Zn  Zn1  1  0.97877507  0.33941201  0.35983126  1
  Zn  Zn2  1  0.36063694  0.02122493  0.02649826  1
  Te  Te3  1  0.64704281  0.67073336  0.44350174  1
  Te  Te4  1  0.32926664  0.97630945  0.77683474  1
  Te  Te5  1  0.02369055  0.35295719  0.11016874  1
