# generated using pymatgen
data_Li9Mn2Co5O16
_symmetry_space_group_name_H-M   'P 1'
_cell_length_a   2.97775370
_cell_length_b   8.07862992
_cell_length_c   12.09850202
_cell_angle_alpha   90.94890828
_cell_angle_beta   100.28216116
_cell_angle_gamma   89.17876187
_symmetry_Int_Tables_number   1
_chemical_formula_structural   Li9Mn2Co5O16
_chemical_formula_sum   'Li9 Mn2 Co5 O16'
_cell_volume   286.31123597
_cell_formula_units_Z   1
loop_
 _symmetry_equiv_pos_site_id
 _symmetry_equiv_pos_as_xyz
  1  'x, y, z'
loop_
 _atom_site_type_symbol
 _atom_site_label
 _atom_site_symmetry_multiplicity
 _atom_site_fract_x
 _atom_site_fract_y
 _atom_site_fract_z
 _atom_site_occupancy
  Li  Li0  1  0.75000000  0.00000000  0.75000000  1
  Li  Li1  1  0.87116578  0.25806650  0.37068582  1
  Li  Li2  1  0.01081495  0.49739432  0.00179387  1
  Li  Li3  1  0.12553298  0.74659821  0.62646099  1
  Li  Li4  1  0.25000000  0.00000000  0.25000000  1
  Li  Li5  1  0.37446702  0.25340179  0.87353901  1
  Li  Li6  1  0.48918505  0.50260568  0.49820613  1
  Li  Li7  1  0.62883422  0.74193350  0.12931418  1
  Li  Li8  1  0.25000000  0.50000000  0.25000000  1
  Mn  Mn9  1  0.00143868  0.00102193  0.99997392  1
  Mn  Mn10  1  0.49856132  0.99897807  0.50002608  1
  Co  Co11  1  0.13977144  0.25150518  0.62754338  1
  Co  Co12  1  0.36022856  0.74849482  0.87245662  1
  Co  Co13  1  0.63865659  0.26239832  0.13137642  1
  Co  Co14  1  0.75000000  0.50000000  0.75000000  1
  Co  Co15  1  0.86134341  0.73760168  0.36862358  1
  O  O16  1  0.35632889  0.98890097  0.87867463  1
  O  O17  1  0.47860682  0.24313374  0.50563092  1
  O  O18  1  0.61692736  0.47661758  0.12179883  1
  O  O19  1  0.72065587  0.73869712  0.75716913  1
  O  O20  1  0.85843183  0.98063128  0.38023164  1
  O  O21  1  0.98408870  0.24118573  0.00449766  1
  O  O22  1  0.17090498  0.48881570  0.64195379  1
  O  O23  1  0.23537172  0.74954472  0.25766270  1
  O  O24  1  0.14367211  0.01109903  0.62132537  1
  O  O25  1  0.26462928  0.25045528  0.24233830  1
  O  O26  1  0.32909602  0.51118430  0.85804621  1
  O  O27  1  0.51591230  0.75881427  0.49550334  1
  O  O28  1  0.64156817  0.01936872  0.11976836  1
  O  O29  1  0.77934513  0.26130288  0.74283187  1
  O  O30  1  0.88307364  0.52338242  0.37820217  1
  O  O31  1  0.02139418  0.75686626  0.99436908  1
