# generated using pymatgen
data_EuHo3
_symmetry_space_group_name_H-M   'P 1'
_cell_length_a   5.98682813
_cell_length_b   5.98686646
_cell_length_c   5.98643327
_cell_angle_alpha   131.97911458
_cell_angle_beta   131.97862307
_cell_angle_gamma   70.26385892
_symmetry_Int_Tables_number   1
_chemical_formula_structural   EuHo3
_chemical_formula_sum   'Eu1 Ho3'
_cell_volume   116.21798696
_cell_formula_units_Z   1
loop_
 _symmetry_equiv_pos_site_id
 _symmetry_equiv_pos_as_xyz
  1  'x, y, z'
loop_
 _atom_site_type_symbol
 _atom_site_label
 _atom_site_symmetry_multiplicity
 _atom_site_fract_x
 _atom_site_fract_y
 _atom_site_fract_z
 _atom_site_occupancy
  Eu  Eu0  1  0.99999961  0.99999934  0.99999921  1
  Ho  Ho1  1  0.74999914  0.25000046  0.49999934  1
  Ho  Ho2  1  0.25000031  0.74999908  0.49999931  1
  Ho  Ho3  1  0.49999994  0.50000012  0.00000014  1
