# generated using pymatgen
data_Cs2Sb2OF10
_symmetry_space_group_name_H-M   'P 1'
_cell_length_a   5.46517850
_cell_length_b   7.59680099
_cell_length_c   14.27334658
_cell_angle_alpha   100.59655926
_cell_angle_beta   90.00000000
_cell_angle_gamma   90.00000000
_symmetry_Int_Tables_number   1
_chemical_formula_structural   Cs2Sb2OF10
_chemical_formula_sum   'Cs4 Sb4 O2 F20'
_cell_volume   582.49304693
_cell_formula_units_Z   2
loop_
 _symmetry_equiv_pos_site_id
 _symmetry_equiv_pos_as_xyz
  1  'x, y, z'
loop_
 _atom_site_type_symbol
 _atom_site_label
 _atom_site_symmetry_multiplicity
 _atom_site_fract_x
 _atom_site_fract_y
 _atom_site_fract_z
 _atom_site_occupancy
  Cs  Cs0  1  0.40950968  0.76543238  0.59279787  1
  Cs  Cs1  1  0.59049032  0.76543238  0.09279787  1
  Cs  Cs2  1  0.59049032  0.23456762  0.40720213  1
  Cs  Cs3  1  0.40950968  0.23456762  0.90720213  1
  Sb  Sb4  1  0.01680401  0.70622895  0.33350727  1
  Sb  Sb5  1  0.98319599  0.70622895  0.83350727  1
  Sb  Sb6  1  0.01680401  0.29377105  0.16649273  1
  Sb  Sb7  1  0.98319599  0.29377105  0.66649273  1
  O  O8  1  0.12981851  0.50000000  0.75000000  1
  O  O9  1  0.87018149  0.50000000  0.25000000  1
  F  F10  1  0.73169302  0.15206745  0.18346479  1
  F  F11  1  0.69312338  0.41955453  0.63814280  1
  F  F12  1  0.16600462  0.21032497  0.27278248  1
  F  F13  1  0.84877844  0.91370413  0.91648738  1
  F  F14  1  0.30687662  0.58044547  0.36185720  1
  F  F15  1  0.15122156  0.08629587  0.08351262  1
  F  F16  1  0.16600462  0.78967503  0.22721752  1
  F  F17  1  0.26830698  0.15206745  0.68346479  1
  F  F18  1  0.83399538  0.78967503  0.72721752  1
  F  F19  1  0.69312338  0.58044547  0.86185720  1
  F  F20  1  0.15122156  0.91370413  0.41648738  1
  F  F21  1  0.13935563  0.64090463  0.94425687  1
  F  F22  1  0.26830698  0.84793255  0.81653521  1
  F  F23  1  0.86064437  0.35909537  0.05574313  1
  F  F24  1  0.83399538  0.21032497  0.77278248  1
  F  F25  1  0.73169302  0.84793255  0.31653521  1
  F  F26  1  0.84877844  0.08629587  0.58351262  1
  F  F27  1  0.86064437  0.64090463  0.44425687  1
  F  F28  1  0.30687662  0.41955453  0.13814280  1
  F  F29  1  0.13935563  0.35909537  0.55574313  1
