# generated using pymatgen
data_ZnCl2
_symmetry_space_group_name_H-M   'P 1'
_cell_length_a   6.78790820
_cell_length_b   11.78673184
_cell_length_c   12.58427499
_cell_angle_alpha   90.00000000
_cell_angle_beta   87.59962911
_cell_angle_gamma   90.00000000
_symmetry_Int_Tables_number   1
_chemical_formula_structural   ZnCl2
_chemical_formula_sum   'Zn12 Cl24'
_cell_volume   1005.94984534
_cell_formula_units_Z   12
loop_
 _symmetry_equiv_pos_site_id
 _symmetry_equiv_pos_as_xyz
  1  'x, y, z'
loop_
 _atom_site_type_symbol
 _atom_site_label
 _atom_site_symmetry_multiplicity
 _atom_site_fract_x
 _atom_site_fract_y
 _atom_site_fract_z
 _atom_site_occupancy
  Zn  Zn0  1  0.67085815  0.66070330  0.18296836  1
  Zn  Zn1  1  0.66808593  0.31567082  0.57577726  1
  Zn  Zn2  1  0.82914185  0.16070330  0.31703164  1
  Zn  Zn3  1  0.32914185  0.33929670  0.81703164  1
  Zn  Zn4  1  0.16808593  0.18432918  0.07577726  1
  Zn  Zn5  1  0.33191407  0.68432918  0.42422274  1
  Zn  Zn6  1  0.32670303  1.00460441  0.30633767  1
  Zn  Zn7  1  0.83191407  0.81567082  0.92422274  1
  Zn  Zn8  1  0.17085815  0.83929670  0.68296836  1
  Zn  Zn9  1  0.67329697  -0.00460441  0.69366233  1
  Zn  Zn10  1  0.17329697  0.50460441  0.19366233  1
  Zn  Zn11  1  0.82670303  0.49539559  0.80633767  1
  Cl  Cl12  1  0.34335583  0.32319730  0.63447117  1
  Cl  Cl13  1  0.17611595  0.51877659  0.37544397  1
  Cl  Cl14  1  0.68434037  0.32027662  0.39192300  1
  Cl  Cl15  1  0.83272650  0.15890037  0.63515510  1
  Cl  Cl16  1  0.18434037  0.17972338  0.89192300  1
  Cl  Cl17  1  0.65664417  0.67680270  0.36552883  1
  Cl  Cl18  1  0.14304883  0.49623405  0.86501748  1
  Cl  Cl19  1  0.64384909  0.34734902  0.87856403  1
  Cl  Cl20  1  0.84335583  0.17680270  0.13447117  1
  Cl  Cl21  1  0.33272650  0.34109963  0.13515510  1
  Cl  Cl22  1  0.31565963  0.67972338  0.60807700  1
  Cl  Cl23  1  0.64304883  0.00376595  0.36501748  1
  Cl  Cl24  1  0.85615091  0.84734902  0.62143597  1
  Cl  Cl25  1  0.82388405  0.48122341  0.62455603  1
  Cl  Cl26  1  0.14384909  0.15265098  0.37856403  1
  Cl  Cl27  1  0.81565963  0.82027662  0.10807700  1
  Cl  Cl28  1  0.32388405  0.01877659  0.12455603  1
  Cl  Cl29  1  0.67611595  0.98122341  0.87544397  1
  Cl  Cl30  1  0.16727350  0.84109963  0.36484490  1
  Cl  Cl31  1  0.85695117  0.50376595  0.13498252  1
  Cl  Cl32  1  0.66727350  0.65890037  0.86484490  1
  Cl  Cl33  1  0.35615091  0.65265098  0.12143597  1
  Cl  Cl34  1  0.15664417  0.82319730  0.86552883  1
  Cl  Cl35  1  0.35695117  0.99623405  0.63498252  1
