# generated using pymatgen
data_K2NbS7
_symmetry_space_group_name_H-M   'P 1'
_cell_length_a   8.02238740
_cell_length_b   12.79974403
_cell_length_c   22.16107883
_cell_angle_alpha   99.52244197
_cell_angle_beta   90.00000000
_cell_angle_gamma   90.00000000
_symmetry_Int_Tables_number   1
_chemical_formula_structural   K2NbS7
_chemical_formula_sum   'K16 Nb8 S56'
_cell_volume   2244.24365495
_cell_formula_units_Z   8
loop_
 _symmetry_equiv_pos_site_id
 _symmetry_equiv_pos_as_xyz
  1  'x, y, z'
loop_
 _atom_site_type_symbol
 _atom_site_label
 _atom_site_symmetry_multiplicity
 _atom_site_fract_x
 _atom_site_fract_y
 _atom_site_fract_z
 _atom_site_occupancy
  K  K0  1  0.44261780  0.33986344  0.55540935  1
  K  K1  1  0.94261780  0.16013656  0.44459065  1
  K  K2  1  0.07337158  0.01207117  0.16294244  1
  K  K3  1  0.92662842  0.98792883  0.83705756  1
  K  K4  1  0.47609431  0.93120262  0.30576513  1
  K  K5  1  0.64204079  0.85986237  0.97438247  1
  K  K6  1  0.14204079  0.64013763  0.02561753  1
  K  K7  1  0.55738220  0.66013656  0.44459065  1
  K  K8  1  0.42662842  0.51207117  0.16294244  1
  K  K9  1  0.05738220  0.83986344  0.55540935  1
  K  K10  1  0.35795921  0.14013763  0.02561753  1
  K  K11  1  0.97609431  0.56879738  0.69423487  1
  K  K12  1  0.85795921  0.35986237  0.97438247  1
  K  K13  1  0.57337158  0.48792883  0.83705756  1
  K  K14  1  0.52390569  0.06879738  0.69423487  1
  K  K15  1  0.02390569  0.43120262  0.30576513  1
  Nb  Nb16  1  0.54162917  0.18538637  0.21261927  1
  Nb  Nb17  1  0.45837083  0.81461363  0.78738073  1
  Nb  Nb18  1  0.02108453  0.16561143  0.63160204  1
  Nb  Nb19  1  0.97891547  0.83438857  0.36839796  1
  Nb  Nb20  1  0.95837083  0.68538637  0.21261927  1
  Nb  Nb21  1  0.52108453  0.33438857  0.36839796  1
  Nb  Nb22  1  0.47891547  0.66561143  0.63160204  1
  Nb  Nb23  1  0.04162917  0.31461363  0.78738073  1
  S  S24  1  0.38655613  0.18824371  0.41137367  1
  S  S25  1  0.72523085  0.72844788  0.80830602  1
  S  S26  1  0.27476915  0.27155212  0.19169398  1
  S  S27  1  0.13502603  0.75474990  0.90503817  1
  S  S28  1  0.71349757  0.39850453  0.43802222  1
  S  S29  1  0.87995232  0.10078659  0.03726909  1
  S  S30  1  0.61344387  0.81175629  0.58862633  1
  S  S31  1  0.73404001  0.10375223  0.96111170  1
  S  S32  1  0.11325201  0.09629009  0.72280071  1
  S  S33  1  0.36497397  0.25474990  0.90503817  1
  S  S34  1  0.88655613  0.31175629  0.58862633  1
  S  S35  1  0.31693002  0.82898964  0.68595538  1
  S  S36  1  0.24285116  0.83139549  0.42786354  1
  S  S37  1  0.28650243  0.60149547  0.56197778  1
  S  S38  1  0.78650243  0.89850453  0.43802222  1
  S  S39  1  0.78905874  0.28251353  0.72458128  1
  S  S40  1  0.21094126  0.71748647  0.27541872  1
  S  S41  1  0.23404001  0.39624777  0.03888830  1
  S  S42  1  0.12004768  0.89921341  0.96273091  1
  S  S43  1  0.16303254  0.79030498  0.75471779  1
  S  S44  1  0.74285116  0.66860451  0.57213646  1
  S  S45  1  0.68306998  0.17101036  0.31404462  1
  S  S46  1  0.97795569  0.51630653  0.17001195  1
  S  S47  1  0.37995232  0.39921341  0.96273091  1
  S  S48  1  0.76595999  0.60375223  0.96111170  1
  S  S49  1  0.71094126  0.78251353  0.72458128  1
  S  S50  1  0.62004768  0.60078659  0.03726909  1
  S  S51  1  0.38674799  0.59629009  0.72280071  1
  S  S52  1  0.83696746  0.20969502  0.24528221  1
  S  S53  1  0.81693002  0.67101036  0.31404462  1
  S  S54  1  0.02204431  0.48369347  0.82998805  1
  S  S55  1  0.86497397  0.24525010  0.09496183  1
  S  S56  1  0.61820996  0.27320035  0.12348307  1
  S  S57  1  0.61325201  0.40370991  0.27719929  1
  S  S58  1  0.47795569  0.98369347  0.82998805  1
  S  S59  1  0.92114805  0.01080913  0.67399231  1
  S  S60  1  0.25714884  0.33139549  0.42786354  1
  S  S61  1  0.52204431  0.01630653  0.17001195  1
  S  S62  1  0.18306998  0.32898964  0.68595538  1
  S  S63  1  0.07885195  0.98919087  0.32600769  1
  S  S64  1  0.66303254  0.70969502  0.24528221  1
  S  S65  1  0.33696746  0.29030498  0.75471779  1
  S  S66  1  0.88179004  0.77320035  0.12348307  1
  S  S67  1  0.11344387  0.68824371  0.41137367  1
  S  S68  1  0.75714884  0.16860451  0.57213646  1
  S  S69  1  0.42114805  0.48919087  0.32600769  1
  S  S70  1  0.38179004  0.72679965  0.87651693  1
  S  S71  1  0.63502603  0.74525010  0.09496183  1
  S  S72  1  0.22523085  0.77155212  0.19169398  1
  S  S73  1  0.57885195  0.51080913  0.67399231  1
  S  S74  1  0.11820996  0.22679965  0.87651693  1
  S  S75  1  0.77476915  0.22844788  0.80830602  1
  S  S76  1  0.88674799  0.90370991  0.27719929  1
  S  S77  1  0.28905874  0.21748647  0.27541872  1
  S  S78  1  0.21349757  0.10149547  0.56197778  1
  S  S79  1  0.26595999  0.89624777  0.03888830  1
