# generated using pymatgen
data_W8O21
_symmetry_space_group_name_H-M   'P 1'
_cell_length_a   3.85741596
_cell_length_b   18.42037693
_cell_length_c   21.94028764
_cell_angle_alpha   90.00000000
_cell_angle_beta   90.00000000
_cell_angle_gamma   90.00000000
_symmetry_Int_Tables_number   1
_chemical_formula_structural   W8O21
_chemical_formula_sum   'W32 O84'
_cell_volume   1558.96836602
_cell_formula_units_Z   4
loop_
 _symmetry_equiv_pos_site_id
 _symmetry_equiv_pos_as_xyz
  1  'x, y, z'
loop_
 _atom_site_type_symbol
 _atom_site_label
 _atom_site_symmetry_multiplicity
 _atom_site_fract_x
 _atom_site_fract_y
 _atom_site_fract_z
 _atom_site_occupancy
  W  W0  1  0.00000000  0.41105219  0.27365298  1
  W  W1  1  0.00000000  0.91105219  0.22634702  1
  W  W2  1  0.00000000  0.90997918  0.75356844  1
  W  W3  1  0.00000000  0.14516415  0.94238402  1
  W  W4  1  0.00000000  0.64516415  0.55761598  1
  W  W5  1  0.00000000  0.77736044  0.65250511  1
  W  W6  1  0.00000000  0.85483585  0.05761598  1
  W  W7  1  0.00000000  0.34140903  0.01311963  1
  W  W8  1  0.00000000  0.08894781  0.77365298  1
  W  W9  1  0.00000000  0.55719343  0.40436669  1
  W  W10  1  0.00000000  0.58894781  0.72634702  1
  W  W11  1  0.00000000  0.65859097  0.98688037  1
  W  W12  1  0.00000000  0.98725620  0.61309170  1
  W  W13  1  0.00000000  0.25188776  0.66718767  1
  W  W14  1  0.00000000  0.09002082  0.24643156  1
  W  W15  1  0.00000000  0.51274380  0.11309170  1
  W  W16  1  0.00000000  0.44280657  0.59563331  1
  W  W17  1  0.00000000  0.27736044  0.84749489  1
  W  W18  1  0.00000000  0.74811224  0.33281233  1
  W  W19  1  0.00000000  0.35483585  0.44238402  1
  W  W20  1  0.00000000  0.94280657  0.90436669  1
  W  W21  1  0.00000000  0.72263956  0.15250511  1
  W  W22  1  0.00000000  0.22263956  0.34749489  1
  W  W23  1  0.00000000  0.24811224  0.16718767  1
  W  W24  1  0.00000000  0.01274380  0.38690830  1
  W  W25  1  0.00000000  0.84140903  0.48688037  1
  W  W26  1  0.00000000  0.15859097  0.51311963  1
  W  W27  1  0.00000000  0.48725620  0.88690830  1
  W  W28  1  0.00000000  0.05719343  0.09563331  1
  W  W29  1  0.00000000  0.40997918  0.74643156  1
  W  W30  1  0.00000000  0.59002082  0.25356844  1
  W  W31  1  0.00000000  0.75188776  0.83281233  1
  O  O32  1  0.00000000  0.99080498  0.81888013  1
  O  O33  1  0.00000000  0.57468870  0.04747988  1
  O  O34  1  0.00000000  0.26016716  0.94138109  1
  O  O35  1  0.00000000  0.33562937  0.20825793  1
  O  O36  1  0.00000000  0.53548513  0.56436883  1
  O  O37  1  0.50000000  0.51213158  0.11935230  1
  O  O38  1  0.50000000  0.08985682  0.24603497  1
  O  O39  1  0.50000000  0.44100926  0.59882111  1
  O  O40  1  0.00000000  0.36228682  0.66020768  1
  O  O41  1  0.00000000  0.49080498  0.68111987  1
  O  O42  1  0.00000000  0.27160929  0.08542235  1
  O  O43  1  0.00000000  0.16437063  0.70825793  1
  O  O44  1  0.50000000  0.75676325  0.83082065  1
  O  O45  1  0.50000000  0.27719382  0.84770379  1
  O  O46  1  0.00000000  0.79833842  0.74414787  1
  O  O47  1  0.50000000  0.14618555  0.94142043  1
  O  O48  1  0.50000000  0.74323675  0.33082065  1
  O  O49  1  0.50000000  0.22280618  0.34770379  1
  O  O50  1  0.00000000  0.87606522  0.96788994  1
  O  O51  1  0.00000000  0.37606522  0.53211006  1
  O  O52  1  0.50000000  0.55899074  0.40117889  1
  O  O53  1  0.00000000  0.77160929  0.41457765  1
  O  O54  1  0.00000000  0.92128195  0.42246707  1
  O  O55  1  0.50000000  0.94100926  0.90117889  1
  O  O56  1  0.00000000  0.83562937  0.29174207  1
  O  O57  1  0.00000000  0.42128195  0.07753293  1
  O  O58  1  0.00000000  0.73983284  0.05861891  1
  O  O59  1  0.50000000  0.72280618  0.15229621  1
  O  O60  1  0.50000000  0.40944381  0.27671384  1
  O  O61  1  0.00000000  0.00956675  0.70718467  1
  O  O62  1  0.00000000  0.13771318  0.16020768  1
  O  O63  1  0.50000000  0.25676325  0.66917935  1
  O  O64  1  0.50000000  0.01213158  0.38064770  1
  O  O65  1  0.00000000  0.12393478  0.03211006  1
  O  O66  1  0.50000000  0.24323675  0.16917935  1
  O  O67  1  0.50000000  0.48786842  0.88064770  1
  O  O68  1  0.50000000  0.58985682  0.25396503  1
  O  O69  1  0.00000000  0.62393478  0.46788994  1
  O  O70  1  0.00000000  0.88823406  0.66230632  1
  O  O71  1  0.50000000  0.64618555  0.55857957  1
  O  O72  1  0.50000000  0.85381445  0.05857957  1
  O  O73  1  0.00000000  0.86228682  0.83979232  1
  O  O74  1  0.00000000  0.22839071  0.58542235  1
  O  O75  1  0.00000000  0.29833842  0.75585213  1
  O  O76  1  0.50000000  0.16104123  0.51116753  1
  O  O77  1  0.00000000  0.66433228  0.65247006  1
  O  O78  1  0.50000000  0.41014318  0.74603497  1
  O  O79  1  0.00000000  0.00919502  0.18111987  1
  O  O80  1  0.50000000  0.33895877  0.01116753  1
  O  O81  1  0.00000000  0.57871805  0.92246707  1
  O  O82  1  0.50000000  0.90944281  0.22328616  1
  O  O83  1  0.00000000  0.07871805  0.57753293  1
  O  O84  1  0.00000000  0.42531130  0.95252012  1
  O  O85  1  0.00000000  0.92531130  0.54747988  1
  O  O86  1  0.50000000  0.77719382  0.65229621  1
  O  O87  1  0.00000000  0.38823406  0.83769368  1
  O  O88  1  0.50000000  0.09055619  0.77671384  1
  O  O89  1  0.00000000  0.07468870  0.45252012  1
  O  O90  1  0.00000000  0.16433228  0.84752994  1
  O  O91  1  0.00000000  0.33566772  0.34752994  1
  O  O92  1  0.00000000  0.66437063  0.79174207  1
  O  O93  1  0.00000000  0.50919502  0.31888013  1
  O  O94  1  0.00000000  0.99043325  0.29281533  1
  O  O95  1  0.00000000  0.72839071  0.91457765  1
  O  O96  1  0.00000000  0.63771318  0.33979232  1
  O  O97  1  0.00000000  0.83566772  0.15247006  1
  O  O98  1  0.00000000  0.11176594  0.33769368  1
  O  O99  1  0.00000000  0.23983284  0.44138109  1
  O  O100  1  0.00000000  0.70166158  0.24414787  1
  O  O101  1  0.50000000  0.66104123  0.98883247  1
  O  O102  1  0.50000000  0.98786842  0.61935230  1
  O  O103  1  0.50000000  0.83895877  0.48883247  1
  O  O104  1  0.00000000  0.03548513  0.93563117  1
  O  O105  1  0.00000000  0.50956675  0.79281533  1
  O  O106  1  0.00000000  0.46451487  0.43563117  1
  O  O107  1  0.50000000  0.35381445  0.44142043  1
  O  O108  1  0.00000000  0.61176594  0.16230632  1
  O  O109  1  0.00000000  0.20166158  0.25585213  1
  O  O110  1  0.00000000  0.76016716  0.55861891  1
  O  O111  1  0.00000000  0.49043325  0.20718467  1
  O  O112  1  0.00000000  0.96451487  0.06436883  1
  O  O113  1  0.50000000  0.05899074  0.09882111  1
  O  O114  1  0.50000000  0.91014318  0.75396503  1
  O  O115  1  0.50000000  0.59055719  0.72328616  1
