# generated using pymatgen
data_Ba2Mn2Si2O9
_symmetry_space_group_name_H-M   'P 1'
_cell_length_a   8.72292085
_cell_length_b   10.92765255
_cell_length_c   18.60845986
_cell_angle_alpha   90.00000000
_cell_angle_beta   90.00000000
_cell_angle_gamma   90.00000000
_symmetry_Int_Tables_number   1
_chemical_formula_structural   Ba2Mn2Si2O9
_chemical_formula_sum   'Ba16 Mn16 Si16 O72'
_cell_volume   1773.77790054
_cell_formula_units_Z   8
loop_
 _symmetry_equiv_pos_site_id
 _symmetry_equiv_pos_as_xyz
  1  'x, y, z'
loop_
 _atom_site_type_symbol
 _atom_site_label
 _atom_site_symmetry_multiplicity
 _atom_site_fract_x
 _atom_site_fract_y
 _atom_site_fract_z
 _atom_site_occupancy
  Ba  Ba0  1  0.26242710  0.49470652  0.00593552  1
  Ba  Ba1  1  0.26242710  0.00529348  0.50593552  1
  Ba  Ba2  1  0.76242710  0.49470652  0.49406448  1
  Ba  Ba3  1  0.24422157  0.29186983  0.24092312  1
  Ba  Ba4  1  0.73757290  0.50529348  0.99406448  1
  Ba  Ba5  1  0.74422157  0.29186983  0.25907688  1
  Ba  Ba6  1  0.24422157  0.20813017  0.74092312  1
  Ba  Ba7  1  0.75577843  0.70813017  0.75907688  1
  Ba  Ba8  1  0.75577843  0.79186983  0.25907688  1
  Ba  Ba9  1  0.25577843  0.70813017  0.74092312  1
  Ba  Ba10  1  0.23757290  0.50529348  0.50593552  1
  Ba  Ba11  1  0.76242710  0.00529348  0.99406448  1
  Ba  Ba12  1  0.25577843  0.79186983  0.24092312  1
  Ba  Ba13  1  0.73757290  0.99470652  0.49406448  1
  Ba  Ba14  1  0.74422157  0.20813017  0.75907688  1
  Ba  Ba15  1  0.23757290  0.99470652  0.00593552  1
  Mn  Mn16  1  0.46807719  0.46210111  0.65513485  1
  Mn  Mn17  1  0.03192281  0.53789889  0.15513485  1
  Mn  Mn18  1  0.96807719  0.46210111  0.84486515  1
  Mn  Mn19  1  0.53192281  0.96210111  0.84486515  1
  Mn  Mn20  1  0.03192281  0.96210111  0.65513485  1
  Mn  Mn21  1  0.46040999  0.76462878  0.41771278  1
  Mn  Mn22  1  0.03959001  0.26462878  0.41771278  1
  Mn  Mn23  1  0.46040999  0.73537122  0.91771278  1
  Mn  Mn24  1  0.03959001  0.23537122  0.91771278  1
  Mn  Mn25  1  0.53959001  0.23537122  0.58228722  1
  Mn  Mn26  1  0.96040999  0.73537122  0.58228722  1
  Mn  Mn27  1  0.96807719  0.03789889  0.34486515  1
  Mn  Mn28  1  0.46807719  0.03789889  0.15513485  1
  Mn  Mn29  1  0.53959001  0.26462878  0.08228722  1
  Mn  Mn30  1  0.96040999  0.76462878  0.08228722  1
  Mn  Mn31  1  0.53192281  0.53789889  0.34486515  1
  Si  Si32  1  0.04649771  0.76261288  0.40896567  1
  Si  Si33  1  0.04723034  0.03169133  0.17081483  1
  Si  Si34  1  0.95350229  0.26261288  0.09103433  1
  Si  Si35  1  0.95276966  0.96830867  0.82918517  1
  Si  Si36  1  0.45276966  0.96830867  0.67081483  1
  Si  Si37  1  0.95350229  0.23738712  0.59103433  1
  Si  Si38  1  0.04723034  0.46830867  0.67081483  1
  Si  Si39  1  0.45276966  0.53169133  0.17081483  1
  Si  Si40  1  0.54723034  0.46830867  0.82918517  1
  Si  Si41  1  0.45350229  0.26261288  0.40896567  1
  Si  Si42  1  0.54723034  0.03169133  0.32918517  1
  Si  Si43  1  0.04649771  0.73738712  0.90896567  1
  Si  Si44  1  0.45350229  0.23738712  0.90896567  1
  Si  Si45  1  0.54649771  0.76261288  0.09103433  1
  Si  Si46  1  0.95276966  0.53169133  0.32918517  1
  Si  Si47  1  0.54649771  0.73738712  0.59103433  1
  O  O48  1  0.98302774  0.79566055  0.67883486  1
  O  O49  1  0.55484694  0.84002388  0.65938279  1
  O  O50  1  0.27919070  0.31314742  0.41558453  1
  O  O51  1  0.27242863  0.93026006  0.66734099  1
  O  O52  1  0.50250303  0.53152131  0.75177215  1
  O  O53  1  0.00250303  0.96847869  0.24822785  1
  O  O54  1  0.42459716  0.86967573  0.11650881  1
  O  O55  1  0.49749697  0.46847869  0.24822785  1
  O  O56  1  0.92459716  0.86967573  0.38349119  1
  O  O57  1  0.01697226  0.20433945  0.32116514  1
  O  O58  1  0.00820604  0.93688804  0.10522621  1
  O  O59  1  0.22757137  0.06973994  0.16734099  1
  O  O60  1  0.50250303  0.96847869  0.25177215  1
  O  O61  1  0.92459716  0.63032427  0.88349119  1
  O  O62  1  0.44515306  0.15997612  0.34061721  1
  O  O63  1  0.00858732  0.40343429  0.94009632  1
  O  O64  1  0.22757137  0.43026006  0.66734099  1
  O  O65  1  0.00250303  0.53152131  0.74822785  1
  O  O66  1  0.99749697  0.03152131  0.75177215  1
  O  O67  1  0.49179396  0.06311196  0.60522621  1
  O  O68  1  0.99141268  0.59656571  0.05990368  1
  O  O69  1  0.94515306  0.34002388  0.65938279  1
  O  O70  1  0.49141268  0.90343429  0.94009632  1
  O  O71  1  0.72757137  0.43026006  0.83265901  1
  O  O72  1  0.50858732  0.09656571  0.05990368  1
  O  O73  1  0.00858732  0.09656571  0.44009632  1
  O  O74  1  0.49749697  0.03152131  0.74822785  1
  O  O75  1  0.72757137  0.06973994  0.33265901  1
  O  O76  1  0.98302774  0.70433945  0.17883486  1
  O  O77  1  0.57540284  0.36967573  0.38349119  1
  O  O78  1  0.50820604  0.93688804  0.39477379  1
  O  O79  1  0.01697226  0.29566055  0.82116514  1
  O  O80  1  0.48727334  0.68633680  0.02007064  1
  O  O81  1  0.07540284  0.36967573  0.11650881  1
  O  O82  1  0.42459716  0.63032427  0.61650881  1
  O  O83  1  0.57540284  0.13032427  0.88349119  1
  O  O84  1  0.99141268  0.90343429  0.55990368  1
  O  O85  1  0.51272666  0.31366320  0.97992936  1
  O  O86  1  0.50820604  0.56311196  0.89477379  1
  O  O87  1  0.00820604  0.56311196  0.60522621  1
  O  O88  1  0.01272666  0.18633680  0.02007064  1
  O  O89  1  0.77919070  0.18685258  0.58441547  1
  O  O90  1  0.98727334  0.81366320  0.97992936  1
  O  O91  1  0.99179396  0.43688804  0.39477379  1
  O  O92  1  0.51697226  0.20433945  0.17883486  1
  O  O93  1  0.01272666  0.31366320  0.52007064  1
  O  O94  1  0.22080930  0.81314742  0.41558453  1
  O  O95  1  0.99749697  0.46847869  0.25177215  1
  O  O96  1  0.48302774  0.70433945  0.32116514  1
  O  O97  1  0.27242863  0.56973994  0.16734099  1
  O  O98  1  0.07540284  0.13032427  0.61650881  1
  O  O99  1  0.48302774  0.79566055  0.82116514  1
  O  O100  1  0.55484694  0.65997612  0.15938279  1
  O  O101  1  0.51697226  0.29566055  0.67883486  1
  O  O102  1  0.05484694  0.84002388  0.84061721  1
  O  O103  1  0.72080930  0.68685258  0.58441547  1
  O  O104  1  0.22080930  0.68685258  0.91558453  1
  O  O105  1  0.49179396  0.43688804  0.10522621  1
  O  O106  1  0.48727334  0.81366320  0.52007064  1
  O  O107  1  0.72080930  0.81314742  0.08441547  1
  O  O108  1  0.99179396  0.06311196  0.89477379  1
  O  O109  1  0.98727334  0.68633680  0.47992936  1
  O  O110  1  0.27919070  0.18685258  0.91558453  1
  O  O111  1  0.77242863  0.93026006  0.83265901  1
  O  O112  1  0.77242863  0.56973994  0.33265901  1
  O  O113  1  0.77919070  0.31314742  0.08441547  1
  O  O114  1  0.94515306  0.15997612  0.15938279  1
  O  O115  1  0.49141268  0.59656571  0.44009632  1
  O  O116  1  0.44515306  0.34002388  0.84061721  1
  O  O117  1  0.05484694  0.65997612  0.34061721  1
  O  O118  1  0.50858732  0.40343429  0.55990368  1
  O  O119  1  0.51272666  0.18633680  0.47992936  1
