# generated using pymatgen
data_Cu2Pb(SeO3)3
_symmetry_space_group_name_H-M   'P 1'
_cell_length_a   7.91247865
_cell_length_b   9.46063580
_cell_length_c   12.72787616
_cell_angle_alpha   82.74248760
_cell_angle_beta   73.21442682
_cell_angle_gamma   89.85582369
_symmetry_Int_Tables_number   1
_chemical_formula_structural   Cu2Pb(SeO3)3
_chemical_formula_sum   'Cu8 Pb4 Se12 O36'
_cell_volume   904.28927931
_cell_formula_units_Z   4
loop_
 _symmetry_equiv_pos_site_id
 _symmetry_equiv_pos_as_xyz
  1  'x, y, z'
loop_
 _atom_site_type_symbol
 _atom_site_label
 _atom_site_symmetry_multiplicity
 _atom_site_fract_x
 _atom_site_fract_y
 _atom_site_fract_z
 _atom_site_occupancy
  Cu  Cu0  1  0.55750066  0.55931752  0.29715782  1
  Cu  Cu1  1  0.62049354  0.16904872  0.30315421  1
  Cu  Cu2  1  0.77426473  0.16957114  0.03899594  1
  Cu  Cu3  1  0.37950646  0.83095128  0.69684579  1
  Cu  Cu4  1  0.44249934  0.44068248  0.70284218  1
  Cu  Cu5  1  0.22573527  0.83042886  0.96100406  1
  Cu  Cu6  1  0.16536699  0.24155171  0.01370727  1
  Cu  Cu7  1  0.83463301  0.75844829  0.98629273  1
  Pb  Pb8  1  0.05183748  0.14063244  0.34197013  1
  Pb  Pb9  1  0.12531951  0.66202647  0.34878225  1
  Pb  Pb10  1  0.87468049  0.33797353  0.65121775  1
  Pb  Pb11  1  0.94816252  0.85936756  0.65802987  1
  Se  Se12  1  0.67743600  0.62606694  0.50618670  1
  Se  Se13  1  0.91478768  0.44456673  0.17526223  1
  Se  Se14  1  0.12503319  0.10553898  0.80516867  1
  Se  Se15  1  0.08521232  0.55543327  0.82473777  1
  Se  Se16  1  0.43433763  0.87530804  0.12771451  1
  Se  Se17  1  0.87496681  0.89446102  0.19483133  1
  Se  Se18  1  0.55166700  0.62936780  0.87139136  1
  Se  Se19  1  0.63742130  0.09135328  0.55385865  1
  Se  Se20  1  0.36257870  0.90864672  0.44614135  1
  Se  Se21  1  0.44833300  0.37063220  0.12860864  1
  Se  Se22  1  0.32256400  0.37393306  0.49381330  1
  Se  Se23  1  0.56566237  0.12469196  0.87228549  1
  O  O24  1  0.98708389  0.83060037  0.06903265  1
  O  O25  1  0.85066111  0.13989509  0.54972594  1
  O  O26  1  0.25766558  0.38122633  0.63605598  1
  O  O27  1  0.24609378  0.28626911  0.13984485  1
  O  O28  1  0.63291101  0.44266912  0.56042890  1
  O  O29  1  0.43107218  0.77913430  0.83835577  1
  O  O30  1  0.04271615  0.64217736  0.94024809  1
  O  O31  1  0.36708899  0.55733088  0.43957110  1
  O  O32  1  0.73232587  0.53661829  0.15742508  1
  O  O33  1  0.34326159  0.10896156  0.95084070  1
  O  O34  1  0.95728385  0.35782264  0.05975191  1
  O  O35  1  0.14933889  0.86010491  0.45027406  1
  O  O36  1  0.13158637  0.92286698  0.84055432  1
  O  O37  1  0.30297140  0.95304970  0.58295688  1
  O  O38  1  0.34339391  0.74918010  0.06873044  1
  O  O39  1  0.11942933  0.34684055  0.47468800  1
  O  O40  1  0.56323338  0.22679828  0.75028281  1
  O  O41  1  0.62266261  0.92381198  0.63128877  1
  O  O42  1  0.56892782  0.22086570  0.16164423  1
  O  O43  1  0.69702860  0.04695030  0.41704312  1
  O  O44  1  0.65660609  0.25081990  0.93126956  1
  O  O45  1  0.43676662  0.77320172  0.24971719  1
  O  O46  1  0.04073104  0.89910225  0.25728708  1
  O  O47  1  0.01291611  0.16939963  0.93096735  1
  O  O48  1  0.75390622  0.71373089  0.86015515  1
  O  O49  1  0.26767413  0.46338171  0.84257492  1
  O  O50  1  0.18041766  0.69004257  0.71379881  1
  O  O51  1  0.74233442  0.61877367  0.36394402  1
  O  O52  1  0.37733739  0.07618802  0.36871123  1
  O  O53  1  0.38591766  0.43530229  0.25398795  1
  O  O54  1  0.65673841  0.89103844  0.04915930  1
  O  O55  1  0.81958234  0.30995743  0.28620119  1
  O  O56  1  0.88057067  0.65315945  0.52531200  1
  O  O57  1  0.95926896  0.10089775  0.74271292  1
  O  O58  1  0.86841363  0.07713302  0.15944568  1
  O  O59  1  0.61408234  0.56469771  0.74601205  1
