# generated using pymatgen
data_Li9Mn2Co5O16
_symmetry_space_group_name_H-M   'P 1'
_cell_length_a   2.97681318
_cell_length_b   10.28290621
_cell_length_c   10.11723029
_cell_angle_alpha   72.06776246
_cell_angle_beta   89.90165702
_cell_angle_gamma   90.11709531
_symmetry_Int_Tables_number   1
_chemical_formula_structural   Li9Mn2Co5O16
_chemical_formula_sum   'Li9 Mn2 Co5 O16'
_cell_volume   294.64545131
_cell_formula_units_Z   1
loop_
 _symmetry_equiv_pos_site_id
 _symmetry_equiv_pos_as_xyz
  1  'x, y, z'
loop_
 _atom_site_type_symbol
 _atom_site_label
 _atom_site_symmetry_multiplicity
 _atom_site_fract_x
 _atom_site_fract_y
 _atom_site_fract_z
 _atom_site_occupancy
  Li  Li0  1  0.98461455  0.24914255  0.74591427  1
  Li  Li1  1  0.49862395  0.76615926  0.49724831  1
  Li  Li2  1  0.00519121  0.23951107  0.26002706  1
  Li  Li3  1  0.50137605  0.23384074  0.50275169  1
  Li  Li4  1  0.01538545  0.75085745  0.25408573  1
  Li  Li5  1  0.50781399  0.24444166  0.00606240  1
  Li  Li6  1  0.49218601  0.75555834  0.99393760  1
  Li  Li7  1  0.99480879  0.76048893  0.73997294  1
  Li  Li8  1  -0.00000000  0.00000000  0.50000000  1
  Mn  Mn9  1  -0.00000000  0.00000000  0.00000000  1
  Mn  Mn10  1  -0.00000000  0.50000000  0.00000000  1
  Co  Co11  1  0.49032631  0.49930415  0.74568032  1
  Co  Co12  1  0.50967369  0.50069585  0.25431968  1
  Co  Co13  1  -0.00000000  0.50000000  0.50000000  1
  Co  Co14  1  0.50209714  0.00513604  0.26679544  1
  Co  Co15  1  0.49790286  0.99486396  0.73320456  1
  O  O16  1  0.49973011  0.10799916  0.89129612  1
  O  O17  1  0.99180084  0.61351814  0.62325381  1
  O  O18  1  0.50330308  0.12330522  0.36518574  1
  O  O19  1  -0.00288491  0.11731579  0.63894212  1
  O  O20  1  0.50404093  0.61500219  0.37219230  1
  O  O21  1  0.00328076  0.11018497  0.12376064  1
  O  O22  1  0.00922945  0.61210356  0.12300781  1
  O  O23  1  0.48021017  0.60974953  0.87999634  1
  O  O24  1  0.49595907  0.38499781  0.62780770  1
  O  O25  1  0.00288491  0.88268421  0.36105788  1
  O  O26  1  0.51978983  0.39025047  0.12000366  1
  O  O27  1  0.00819916  0.38648186  0.37674619  1
  O  O28  1  0.50026989  0.89200084  0.10870388  1
  O  O29  1  0.99077055  0.38789644  0.87699219  1
  O  O30  1  0.99671924  0.88981503  0.87623936  1
  O  O31  1  0.49669692  0.87669478  0.63481426  1
