# generated using pymatgen
data_Cs2Ti(PO4)2
_symmetry_space_group_name_H-M   'P 1'
_cell_length_a   7.37921477
_cell_length_b   9.64708436
_cell_length_c   13.82044753
_cell_angle_alpha   90.00000000
_cell_angle_beta   90.00000000
_cell_angle_gamma   90.00000000
_symmetry_Int_Tables_number   1
_chemical_formula_structural   Cs2Ti(PO4)2
_chemical_formula_sum   'Cs8 Ti4 P8 O32'
_cell_volume   983.84873895
_cell_formula_units_Z   4
loop_
 _symmetry_equiv_pos_site_id
 _symmetry_equiv_pos_as_xyz
  1  'x, y, z'
loop_
 _atom_site_type_symbol
 _atom_site_label
 _atom_site_symmetry_multiplicity
 _atom_site_fract_x
 _atom_site_fract_y
 _atom_site_fract_z
 _atom_site_occupancy
  Cs  Cs0  1  0.75000000  0.09154457  0.60262606  1
  Cs  Cs1  1  0.25000000  0.12728891  0.08423169  1
  Cs  Cs2  1  0.75000000  0.87271109  0.91576831  1
  Cs  Cs3  1  0.75000000  0.40845543  0.10262606  1
  Cs  Cs4  1  0.75000000  0.62728891  0.41576831  1
  Cs  Cs5  1  0.25000000  0.59154457  0.89737394  1
  Cs  Cs6  1  0.25000000  0.37271109  0.58423169  1
  Cs  Cs7  1  0.25000000  0.90845543  0.39737394  1
  Ti  Ti8  1  0.75000000  0.51695105  0.70868547  1
  Ti  Ti9  1  0.75000000  0.98304895  0.20868547  1
  Ti  Ti10  1  0.25000000  0.48304895  0.29131453  1
  Ti  Ti11  1  0.25000000  0.01695105  0.79131453  1
  P  P12  1  0.04823895  0.72552230  0.15373117  1
  P  P13  1  0.45176105  0.72552230  0.15373117  1
  P  P14  1  0.54823895  0.22552230  0.34626883  1
  P  P15  1  0.95176105  0.27447770  0.84626883  1
  P  P16  1  0.54823895  0.27447770  0.84626883  1
  P  P17  1  0.45176105  0.77447770  0.65373117  1
  P  P18  1  0.04823895  0.77447770  0.65373117  1
  P  P19  1  0.95176105  0.22552230  0.34626883  1
  O  O20  1  0.06605701  0.90533012  0.71803001  1
  O  O21  1  0.75000000  0.44825537  0.59765277  1
  O  O22  1  0.56215284  0.66476271  0.70989488  1
  O  O23  1  0.48546323  0.30513000  0.94719380  1
  O  O24  1  0.25000000  0.94825537  0.90234723  1
  O  O25  1  0.56215284  0.83523729  0.20989488  1
  O  O26  1  0.75000000  0.29695537  0.34839044  1
  O  O27  1  0.43784716  0.33523729  0.29010512  1
  O  O28  1  0.93394299  0.40533012  0.78196999  1
  O  O29  1  0.51453677  0.80513000  0.55280620  1
  O  O30  1  0.56605701  0.40533012  0.78196999  1
  O  O31  1  0.48546323  0.19487000  0.44719380  1
  O  O32  1  0.25000000  0.79695537  0.15160956  1
  O  O33  1  0.56605701  0.09466988  0.28196999  1
  O  O34  1  0.06215284  0.16476271  0.79010512  1
  O  O35  1  0.93784716  0.66476271  0.70989488  1
  O  O36  1  0.75000000  0.05174463  0.09765277  1
  O  O37  1  0.01453677  0.30513000  0.94719380  1
  O  O38  1  0.06215284  0.33523729  0.29010512  1
  O  O39  1  0.98546323  0.69487000  0.05280620  1
  O  O40  1  0.98546323  0.80513000  0.55280620  1
  O  O41  1  0.51453677  0.69487000  0.05280620  1
  O  O42  1  0.43394299  0.59466988  0.21803001  1
  O  O43  1  0.25000000  0.70304463  0.65160956  1
  O  O44  1  0.43784716  0.16476271  0.79010512  1
  O  O45  1  0.93784716  0.83523729  0.20989488  1
  O  O46  1  0.75000000  0.20304463  0.84839044  1
  O  O47  1  0.93394299  0.09466988  0.28196999  1
  O  O48  1  0.25000000  0.55174463  0.40234723  1
  O  O49  1  0.06605701  0.59466988  0.21803001  1
  O  O50  1  0.01453677  0.19487000  0.44719380  1
  O  O51  1  0.43394299  0.90533012  0.71803001  1
