# generated using pymatgen
data_VPPbO6
_symmetry_space_group_name_H-M   'P 1'
_cell_length_a   9.98105335
_cell_length_b   11.15709804
_cell_length_c   13.95974765
_cell_angle_alpha   90.00000000
_cell_angle_beta   90.00000000
_cell_angle_gamma   90.00000000
_symmetry_Int_Tables_number   1
_chemical_formula_structural   VPPbO6
_chemical_formula_sum   'V12 P12 Pb12 O72'
_cell_volume   1554.55178553
_cell_formula_units_Z   12
loop_
 _symmetry_equiv_pos_site_id
 _symmetry_equiv_pos_as_xyz
  1  'x, y, z'
loop_
 _atom_site_type_symbol
 _atom_site_label
 _atom_site_symmetry_multiplicity
 _atom_site_fract_x
 _atom_site_fract_y
 _atom_site_fract_z
 _atom_site_occupancy
  V  V0  1  0.12415418  0.31573618  0.25000000  1
  V  V1  1  0.78770051  0.09531559  0.52115748  1
  V  V2  1  0.21229949  0.90468441  0.47884252  1
  V  V3  1  0.28770051  0.40468441  0.97884252  1
  V  V4  1  0.62415418  0.18426382  0.25000000  1
  V  V5  1  0.71229949  0.59531559  0.02115748  1
  V  V6  1  0.78770051  0.09531559  0.97884252  1
  V  V7  1  0.21229949  0.90468441  0.02115748  1
  V  V8  1  0.28770051  0.40468441  0.52115748  1
  V  V9  1  0.37584582  0.81573618  0.75000000  1
  V  V10  1  0.87584582  0.68426382  0.75000000  1
  V  V11  1  0.71229949  0.59531559  0.47884252  1
  P  P12  1  0.60508642  0.32565172  0.45098329  1
  P  P13  1  0.89491358  0.82565172  0.95098329  1
  P  P14  1  0.10508642  0.17434828  0.04901671  1
  P  P15  1  0.72085388  0.21086493  0.75000000  1
  P  P16  1  0.60508642  0.32565172  0.04901671  1
  P  P17  1  0.39491358  0.67434828  0.95098329  1
  P  P18  1  0.10508642  0.17434828  0.45098329  1
  P  P19  1  0.27914612  0.78913507  0.25000000  1
  P  P20  1  0.22085388  0.28913507  0.75000000  1
  P  P21  1  0.77914612  0.71086493  0.25000000  1
  P  P22  1  0.39491358  0.67434828  0.54901671  1
  P  P23  1  0.89491358  0.82565172  0.54901671  1
  Pb  Pb24  1  0.41764460  0.11863820  0.61037430  1
  Pb  Pb25  1  0.58235540  0.88136180  0.38962570  1
  Pb  Pb26  1  0.06487562  0.99422717  0.75000000  1
  Pb  Pb27  1  0.93512438  0.00577283  0.25000000  1
  Pb  Pb28  1  0.58235540  0.88136180  0.11037430  1
  Pb  Pb29  1  0.08235540  0.61863820  0.38962570  1
  Pb  Pb30  1  0.08235540  0.61863820  0.11037430  1
  Pb  Pb31  1  0.56487562  0.50577283  0.75000000  1
  Pb  Pb32  1  0.41764460  0.11863820  0.88962570  1
  Pb  Pb33  1  0.91764460  0.38136180  0.61037430  1
  Pb  Pb34  1  0.91764460  0.38136180  0.88962570  1
  Pb  Pb35  1  0.43512438  0.49422717  0.25000000  1
  O  O36  1  0.82056767  0.04356715  0.08998464  1
  O  O37  1  0.67943233  0.54356715  0.91001536  1
  O  O38  1  0.23730941  0.23215932  0.48610437  1
  O  O39  1  0.37242762  0.95021215  0.46662707  1
  O  O40  1  0.87091483  0.95564096  0.91570249  1
  O  O41  1  0.19999816  0.83095311  0.15999455  1
  O  O42  1  0.87242762  0.54978785  0.46662707  1
  O  O43  1  0.57225819  0.04198717  0.25000000  1
  O  O44  1  0.73730941  0.26784068  0.48610437  1
  O  O45  1  0.50718834  0.68329850  0.02590202  1
  O  O46  1  0.82056767  0.04356715  0.41001536  1
  O  O47  1  0.49281166  0.31670150  0.52590202  1
  O  O48  1  0.12908517  0.04435904  0.08429751  1
  O  O49  1  0.05648565  0.24242752  0.35764844  1
  O  O50  1  0.12757238  0.45021215  0.53337293  1
  O  O51  1  0.12908517  0.04435904  0.41570149  1
  O  O52  1  0.62757238  0.04978785  0.53337293  1
  O  O53  1  0.26269059  0.73215932  0.98610437  1
  O  O54  1  0.19999816  0.83095311  0.34000545  1
  O  O55  1  0.92774181  0.54198717  0.75000000  1
  O  O56  1  0.42774181  0.95801283  0.75000000  1
  O  O57  1  0.07225819  0.45801283  0.25000000  1
  O  O58  1  0.94351435  0.75757248  0.64235156  1
  O  O59  1  0.80000184  0.16904689  0.84000545  1
  O  O60  1  0.80000184  0.16904689  0.65999455  1
  O  O61  1  0.27033887  0.64777528  0.25000000  1
  O  O62  1  0.79034859  0.18751316  0.25000000  1
  O  O63  1  0.26269059  0.73215932  0.51389563  1
  O  O64  1  0.37242762  0.95021215  0.03337293  1
  O  O65  1  0.12757238  0.45021215  0.96662707  1
  O  O66  1  0.77033887  0.85222472  0.25000000  1
  O  O67  1  0.99281166  0.18329850  0.52590202  1
  O  O68  1  0.49281166  0.31670150  0.97409798  1
  O  O69  1  0.87091483  0.95564096  0.58429751  1
  O  O70  1  0.92722474  0.67136192  0.25000000  1
  O  O71  1  0.05648565  0.24242752  0.14235156  1
  O  O72  1  0.73730941  0.26784068  0.01389663  1
  O  O73  1  0.67943233  0.54356715  0.58998464  1
  O  O74  1  0.55648565  0.25757248  0.35764844  1
  O  O75  1  0.87242762  0.54978785  0.03337293  1
  O  O76  1  0.00718834  0.81670150  0.47409798  1
  O  O77  1  0.69999816  0.66904689  0.15999455  1
  O  O78  1  0.20965141  0.81248684  0.75000000  1
  O  O79  1  0.22966113  0.14777528  0.75000000  1
  O  O80  1  0.76269059  0.76784068  0.51389563  1
  O  O81  1  0.30000184  0.33095311  0.84000545  1
  O  O82  1  0.62757238  0.04978785  0.96662707  1
  O  O83  1  0.69999816  0.66904689  0.34000545  1
  O  O84  1  0.94351435  0.75757248  0.85764844  1
  O  O85  1  0.37091483  0.54435904  0.91570249  1
  O  O86  1  0.17943233  0.95643285  0.91001536  1
  O  O87  1  0.00718834  0.81670150  0.02590202  1
  O  O88  1  0.37091483  0.54435904  0.58429751  1
  O  O89  1  0.44351435  0.74242752  0.64235156  1
  O  O90  1  0.44351435  0.74242752  0.85764844  1
  O  O91  1  0.07277526  0.32863808  0.75000000  1
  O  O92  1  0.70965141  0.68751316  0.75000000  1
  O  O93  1  0.29034859  0.31248684  0.25000000  1
  O  O94  1  0.32056767  0.45643285  0.41001536  1
  O  O95  1  0.62908517  0.45564096  0.08429751  1
  O  O96  1  0.17943233  0.95643285  0.58998464  1
  O  O97  1  0.72966113  0.35222472  0.75000000  1
  O  O98  1  0.50718834  0.68329850  0.47409798  1
  O  O99  1  0.42722474  0.82863808  0.25000000  1
  O  O100  1  0.32056767  0.45643285  0.08998464  1
  O  O101  1  0.23730941  0.23215932  0.01389663  1
  O  O102  1  0.30000184  0.33095311  0.65999455  1
  O  O103  1  0.57277526  0.17136192  0.75000000  1
  O  O104  1  0.76269059  0.76784068  0.98610437  1
  O  O105  1  0.62908517  0.45564096  0.41570149  1
  O  O106  1  0.99281166  0.18329850  0.97409798  1
  O  O107  1  0.55648565  0.25757248  0.14235156  1
