# generated using pymatgen
data_Cr3B7ClO13
_symmetry_space_group_name_H-M   'P 1'
_cell_length_a   8.68615188
_cell_length_b   8.66643243
_cell_length_c   12.27319727
_cell_angle_alpha   90.00000000
_cell_angle_beta   90.00000000
_cell_angle_gamma   90.00000000
_symmetry_Int_Tables_number   1
_chemical_formula_structural   Cr3B7ClO13
_chemical_formula_sum   'Cr12 B28 Cl4 O52'
_cell_volume   923.90111012
_cell_formula_units_Z   4
loop_
 _symmetry_equiv_pos_site_id
 _symmetry_equiv_pos_as_xyz
  1  'x, y, z'
loop_
 _atom_site_type_symbol
 _atom_site_label
 _atom_site_symmetry_multiplicity
 _atom_site_fract_x
 _atom_site_fract_y
 _atom_site_fract_z
 _atom_site_occupancy
  Cr  Cr0  1  0.99721087  0.49666467  0.99769131  1
  Cr  Cr1  1  0.00188493  0.99770816  0.49838728  1
  Cr  Cr2  1  0.24894686  0.75040692  0.25561319  1
  Cr  Cr3  1  0.99811507  0.00229184  0.99838728  1
  Cr  Cr4  1  0.00278913  0.50333533  0.49769131  1
  Cr  Cr5  1  0.49811507  0.99770816  0.99838728  1
  Cr  Cr6  1  0.50278913  0.49666467  0.49769131  1
  Cr  Cr7  1  0.50188493  0.00229184  0.49838728  1
  Cr  Cr8  1  0.75105314  0.24959308  0.75561319  1
  Cr  Cr9  1  0.25105314  0.75040692  0.75561319  1
  Cr  Cr10  1  0.49721087  0.50333533  0.99769131  1
  Cr  Cr11  1  0.74894686  0.24959308  0.25561319  1
  B  B12  1  0.49958659  0.49963642  0.24792586  1
  B  B13  1  0.74968033  0.74966728  0.49837756  1
  B  B14  1  0.25078848  0.08955922  0.66841673  1
  B  B15  1  0.00098924  0.99952923  0.74835516  1
  B  B16  1  0.74962020  0.58753750  0.16747418  1
  B  B17  1  0.24968033  0.25033272  0.49837756  1
  B  B18  1  0.49901076  0.99952923  0.24835516  1
  B  B19  1  0.99958659  0.50036358  0.24792586  1
  B  B20  1  0.75078848  0.91044078  0.66841673  1
  B  B21  1  0.75037980  0.58753750  0.66747418  1
  B  B22  1  0.25031967  0.25033272  0.99837756  1
  B  B23  1  0.59011110  0.74964601  0.32842040  1
  B  B24  1  0.00041341  0.49963642  0.74792586  1
  B  B25  1  0.99901076  0.00047077  0.24835516  1
  B  B26  1  0.75031967  0.74966728  0.99837756  1
  B  B27  1  0.40988890  0.25035399  0.82842040  1
  B  B28  1  0.09246289  0.24967277  0.82752515  1
  B  B29  1  0.59246289  0.75032723  0.82752515  1
  B  B30  1  0.74921152  0.91044078  0.16841673  1
  B  B31  1  0.09011110  0.25035399  0.32842040  1
  B  B32  1  0.90753711  0.75032723  0.32752515  1
  B  B33  1  0.24962020  0.41246250  0.16747418  1
  B  B34  1  0.50041341  0.50036358  0.74792586  1
  B  B35  1  0.24921152  0.08955922  0.16841673  1
  B  B36  1  0.25037980  0.41246250  0.66747418  1
  B  B37  1  0.40753711  0.24967277  0.32752515  1
  B  B38  1  0.90988890  0.74964601  0.82842040  1
  B  B39  1  0.50098924  0.00047077  0.74835516  1
  Cl  Cl40  1  0.75521942  0.25017268  0.99180574  1
  Cl  Cl41  1  0.24478058  0.74982732  0.49180574  1
  Cl  Cl42  1  0.25521942  0.74982732  0.99180574  1
  Cl  Cl43  1  0.74478058  0.25017268  0.49180574  1
  O  O44  1  0.09138201  0.04885469  0.65265077  1
  O  O45  1  0.52595922  0.16637006  0.76884813  1
  O  O46  1  0.90990925  0.54887970  0.65214193  1
  O  O47  1  0.82561500  0.86533523  0.56847122  1
  O  O48  1  0.63336195  0.82497400  0.42876352  1
  O  O49  1  0.05126600  0.08976960  0.84386391  1
  O  O50  1  0.09009075  0.45112030  0.15214193  1
  O  O51  1  0.90861799  0.95114531  0.15265077  1
  O  O52  1  0.40990925  0.45112030  0.65214193  1
  O  O53  1  0.33558670  0.97423782  0.72804286  1
  O  O54  1  0.33404103  0.52665925  0.22783917  1
  O  O55  1  0.55126600  0.91023040  0.84386391  1
  O  O56  1  0.55021634  0.58951535  0.34359127  1
  O  O57  1  0.13336195  0.17502600  0.42876352  1
  O  O58  1  0.36486950  0.32553526  0.42791590  1
  O  O59  1  0.52405459  0.33371416  0.26805887  1
  O  O60  1  0.97594541  0.33371416  0.76805887  1
  O  O61  1  0.25042433  0.24956124  0.74880583  1
  O  O62  1  0.47594541  0.66628584  0.76805887  1
  O  O63  1  0.59138201  0.95114531  0.65265077  1
  O  O64  1  0.13513050  0.32553526  0.92791590  1
  O  O65  1  0.75042433  0.75043876  0.74880583  1
  O  O66  1  0.97404078  0.16637006  0.26884813  1
  O  O67  1  0.66441330  0.02576218  0.22804286  1
  O  O68  1  0.86663805  0.82497400  0.92876352  1
  O  O69  1  0.74957567  0.75043876  0.24880583  1
  O  O70  1  0.02405459  0.66628584  0.26805887  1
  O  O71  1  0.16595897  0.52665925  0.72783917  1
  O  O72  1  0.40861799  0.04885469  0.15265077  1
  O  O73  1  0.44873400  0.08976960  0.34386391  1
  O  O74  1  0.16441330  0.97423782  0.22804286  1
  O  O75  1  0.83404103  0.47334075  0.22783917  1
  O  O76  1  0.86486950  0.67446474  0.42791590  1
  O  O77  1  0.67471636  0.63309257  0.56831407  1
  O  O78  1  0.02595922  0.83362994  0.76884813  1
  O  O79  1  0.32561500  0.13466477  0.56847122  1
  O  O80  1  0.67438500  0.86533523  0.06847122  1
  O  O81  1  0.66595897  0.47334075  0.72783917  1
  O  O82  1  0.05021634  0.41048465  0.34359127  1
  O  O83  1  0.17438500  0.13466477  0.06847122  1
  O  O84  1  0.82528364  0.63309257  0.06831407  1
  O  O85  1  0.36663805  0.17502600  0.92876352  1
  O  O86  1  0.17471636  0.36690743  0.56831407  1
  O  O87  1  0.63513050  0.67446474  0.92791590  1
  O  O88  1  0.94978366  0.58951535  0.84359127  1
  O  O89  1  0.32528364  0.36690743  0.06831407  1
  O  O90  1  0.59009075  0.54887970  0.15214193  1
  O  O91  1  0.83558670  0.02576218  0.72804286  1
  O  O92  1  0.94873400  0.91023040  0.34386391  1
  O  O93  1  0.24957567  0.24956124  0.24880583  1
  O  O94  1  0.44978366  0.41048465  0.84359127  1
  O  O95  1  0.47404078  0.83362994  0.26884813  1
