# generated using pymatgen
data_Li3VO4
_symmetry_space_group_name_H-M   'P 1'
_cell_length_a   5.17564217
_cell_length_b   6.40941956
_cell_length_c   11.01479357
_cell_angle_alpha   90.00000000
_cell_angle_beta   90.00000000
_cell_angle_gamma   90.00000000
_symmetry_Int_Tables_number   1
_chemical_formula_structural   Li3VO4
_chemical_formula_sum   'Li12 V4 O16'
_cell_volume   365.39222882
_cell_formula_units_Z   4
loop_
 _symmetry_equiv_pos_site_id
 _symmetry_equiv_pos_as_xyz
  1  'x, y, z'
loop_
 _atom_site_type_symbol
 _atom_site_label
 _atom_site_symmetry_multiplicity
 _atom_site_fract_x
 _atom_site_fract_y
 _atom_site_fract_z
 _atom_site_occupancy
  Li  Li0  1  0.19121588  0.99627040  0.33420462  1
  Li  Li1  1  0.80878412  0.49627040  0.66579538  1
  Li  Li2  1  0.30878412  0.99627040  0.83420462  1
  Li  Li3  1  0.80878412  0.00372960  0.66579538  1
  Li  Li4  1  0.30633020  0.75000000  0.07818276  1
  Li  Li5  1  0.19366980  0.75000000  0.57818276  1
  Li  Li6  1  0.69121588  0.00372960  0.16579538  1
  Li  Li7  1  0.80633020  0.25000000  0.42181724  1
  Li  Li8  1  0.69121588  0.49627040  0.16579538  1
  Li  Li9  1  0.19121588  0.50372960  0.33420462  1
  Li  Li10  1  0.30878412  0.50372960  0.83420462  1
  Li  Li11  1  0.69366980  0.25000000  0.92181724  1
  V  V12  1  0.18683616  0.25000000  0.08682327  1
  V  V13  1  0.81316384  0.75000000  0.91317673  1
  V  V14  1  0.68683616  0.75000000  0.41317673  1
  V  V15  1  0.31316384  0.25000000  0.58682327  1
  O  O16  1  0.70177716  0.75000000  0.06222902  1
  O  O17  1  0.34842693  0.75000000  0.41331125  1
  O  O18  1  0.20302700  0.47257098  0.66243248  1
  O  O19  1  0.20302700  0.02742902  0.66243248  1
  O  O20  1  0.20177716  0.25000000  0.43777098  1
  O  O21  1  0.70302700  0.52742902  0.83756752  1
  O  O22  1  0.79697300  0.97257098  0.33756752  1
  O  O23  1  0.70302700  0.97257098  0.83756752  1
  O  O24  1  0.29822284  0.25000000  0.93777098  1
  O  O25  1  0.79822284  0.75000000  0.56222902  1
  O  O26  1  0.29697300  0.02742902  0.16243248  1
  O  O27  1  0.79697300  0.52742902  0.33756752  1
  O  O28  1  0.65157307  0.25000000  0.58668875  1
  O  O29  1  0.15157307  0.75000000  0.91331125  1
  O  O30  1  0.84842693  0.25000000  0.08668875  1
  O  O31  1  0.29697300  0.47257098  0.16243248  1
