# generated using pymatgen
data_K3Na4Si3BF22
_symmetry_space_group_name_H-M   'P 1'
_cell_length_a   5.62691753
_cell_length_b   9.31084925
_cell_length_c   10.26425969
_cell_angle_alpha   116.97260535
_cell_angle_beta   105.91037135
_cell_angle_gamma   89.99565913
_symmetry_Int_Tables_number   1
_chemical_formula_structural   K3Na4Si3BF22
_chemical_formula_sum   'K3 Na4 Si3 B1 F22'
_cell_volume   456.03370106
_cell_formula_units_Z   1
loop_
 _symmetry_equiv_pos_site_id
 _symmetry_equiv_pos_as_xyz
  1  'x, y, z'
loop_
 _atom_site_type_symbol
 _atom_site_label
 _atom_site_symmetry_multiplicity
 _atom_site_fract_x
 _atom_site_fract_y
 _atom_site_fract_z
 _atom_site_occupancy
  K  K0  1  0.12566009  0.34324517  0.25207639  1
  K  K1  1  0.87414173  0.09114658  0.74786741  1
  K  K2  1  0.49992272  0.55515897  -0.00007437  1
  Na  Na3  1  0.17054500  0.81924250  0.34087079  1
  Na  Na4  1  0.35827003  0.75452516  0.71650244  1
  Na  Na5  1  0.64176157  0.03804591  0.28353390  1
  Na  Na6  1  0.82947530  0.47842436  0.65914725  1
  Si  Si7  1  0.71412298  0.69521697  0.42827043  1
  Si  Si8  1  0.00002687  0.79580045  1.00000762  1
  Si  Si9  1  0.28588315  0.26694308  0.57173990  1
  B  B10  1  0.49998407  0.18615392  0.00000257  1
  F  F11  1  0.56628298  0.78330297  0.56621851  1
  F  F12  1  0.28583928  0.86037144  0.14138567  1
  F  F13  1  0.13773774  0.32358481  0.71003847  1
  F  F14  1  0.86230543  0.61360627  0.28998359  1
  F  F15  1  0.71425206  0.71906948  0.85860959  1
  F  F16  1  0.72598113  0.52572255  0.45188025  1
  F  F17  1  0.42771724  0.61353061  0.28995106  1
  F  F18  1  0.57232392  0.32355563  0.71004010  1
  F  F19  1  0.99997935  0.61063192  -0.00000495  1
  F  F20  1  0.56721254  0.16843360  0.13432803  1
  F  F21  1  0.43275143  0.03408276  0.86564055  1
  F  F22  1  0.29394593  0.27486130  -0.00001024  1
  F  F23  1  0.00008253  0.97673249  1.00005029  1
  F  F24  1  -0.00009943  0.78331794  0.56621300  1
  F  F25  1  0.14438345  0.71898956  0.85860539  1
  F  F26  1  0.43371950  0.21709271  0.43378793  1
  F  F27  1  0.70606732  0.27479711  -0.00002859  1
  F  F28  1  0.29671122  0.46310815  0.59347023  1
  F  F29  1  1.00010930  0.21710227  0.43380500  1
  F  F30  1  0.70321450  0.86966409  0.40656460  1
  F  F31  1  0.27407648  0.07382688  0.54812587  1
  F  F32  1  0.85561257  0.86041238  0.14140129  1
