# generated using pymatgen
data_Ta3Bi7O18
_symmetry_space_group_name_H-M   'P 1'
_cell_length_a   6.71401785
_cell_length_b   7.68197074
_cell_length_c   16.74539175
_cell_angle_alpha   103.26124554
_cell_angle_beta   93.62761295
_cell_angle_gamma   89.99739917
_symmetry_Int_Tables_number   1
_chemical_formula_structural   Ta3Bi7O18
_chemical_formula_sum   'Ta6 Bi14 O36'
_cell_volume   838.86723684
_cell_formula_units_Z   2
loop_
 _symmetry_equiv_pos_site_id
 _symmetry_equiv_pos_as_xyz
  1  'x, y, z'
loop_
 _atom_site_type_symbol
 _atom_site_label
 _atom_site_symmetry_multiplicity
 _atom_site_fract_x
 _atom_site_fract_y
 _atom_site_fract_z
 _atom_site_occupancy
  Ta  Ta0  1  0.88276460  0.19429266  0.88796183  1
  Ta  Ta1  1  0.88273377  0.69375218  0.88796995  1
  Ta  Ta2  1  0.50000000  0.00000000  0.50000000  1
  Ta  Ta3  1  0.11723540  0.80570734  0.11203817  1
  Ta  Ta4  1  0.50000000  0.50000000  0.50000000  1
  Ta  Ta5  1  0.11726623  0.30624782  0.11203005  1
  Bi  Bi6  1  0.97383980  0.25200428  0.50397979  1
  Bi  Bi7  1  0.65189279  0.55155680  0.10293489  1
  Bi  Bi8  1  0.83633534  0.89461108  0.29051175  1
  Bi  Bi9  1  0.16366466  0.10538892  0.70948825  1
  Bi  Bi10  1  0.83632458  0.39600559  0.29047498  1
  Bi  Bi11  1  0.68255583  0.35335083  0.70660849  1
  Bi  Bi12  1  0.02616020  0.74799572  0.49602021  1
  Bi  Bi13  1  0.16367542  0.60399441  0.70952502  1
  Bi  Bi14  1  0.31744417  0.64664917  0.29339151  1
  Bi  Bi15  1  0.59254516  0.05634957  0.11256011  1
  Bi  Bi16  1  0.31133213  0.16156483  0.32318943  1
  Bi  Bi17  1  0.40745484  0.94365043  0.88743989  1
  Bi  Bi18  1  0.68866787  0.83843517  0.67681057  1
  Bi  Bi19  1  0.34810721  0.44844320  0.89706511  1
  O  O20  1  0.57708125  0.12047881  0.24088815  1
  O  O21  1  0.98232300  0.18177412  0.36359538  1
  O  O22  1  0.18557894  0.71563297  0.85702678  1
  O  O23  1  0.39383264  0.75004661  0.09981244  1
  O  O24  1  0.83071675  0.95214264  0.90422195  1
  O  O25  1  0.01767700  0.81822588  0.63640462  1
  O  O26  1  0.60616736  0.24995339  0.90018756  1
  O  O27  1  0.14531503  0.90756419  0.23719877  1
  O  O28  1  0.05997975  0.56863754  0.13732475  1
  O  O29  1  0.99381865  0.32919429  0.65844615  1
  O  O30  1  0.81436877  0.85858613  0.14297427  1
  O  O31  1  0.60613991  0.65028311  0.90018750  1
  O  O32  1  0.42825514  0.48145828  0.37914272  1
  O  O33  1  0.21358929  0.46399497  0.51871887  1
  O  O34  1  0.57174486  0.51854172  0.62085728  1
  O  O35  1  0.65533975  0.61655686  0.23314685  1
  O  O36  1  0.54097505  0.23586173  0.47173342  1
  O  O37  1  0.21357300  0.05471428  0.51870504  1
  O  O38  1  0.78642700  0.94528572  0.48129496  1
  O  O39  1  0.78641071  0.53600503  0.48128113  1
  O  O40  1  0.34466025  0.38344314  0.76685315  1
  O  O41  1  0.81442106  0.28436703  0.14297322  1
  O  O42  1  0.39386009  0.34971689  0.09981250  1
  O  O43  1  0.45902495  0.76413827  0.52826658  1
  O  O44  1  0.85468497  0.09243581  0.76280123  1
  O  O45  1  0.00002654  0.27936558  0.99999626  1
  O  O46  1  0.42828004  0.89761905  0.37914313  1
  O  O47  1  0.99997346  0.72063442  0.00000374  1
  O  O48  1  0.14533699  0.32962776  0.23720152  1
  O  O49  1  0.85466301  0.67037224  0.76279848  1
  O  O50  1  0.16928325  0.04785736  0.09577805  1
  O  O51  1  0.18563123  0.14141387  0.85702573  1
  O  O52  1  0.42291875  0.87952119  0.75911185  1
  O  O53  1  0.00618135  0.67080571  0.34155385  1
  O  O54  1  0.94002025  0.43136246  0.86267525  1
  O  O55  1  0.57171996  0.10238095  0.62085687  1
