# generated using pymatgen
data_Li9Mn2Co5O16
_symmetry_space_group_name_H-M   'P 1'
_cell_length_a   2.97046343
_cell_length_b   10.01207608
_cell_length_c   9.98771071
_cell_angle_alpha   78.00342951
_cell_angle_beta   90.58944198
_cell_angle_gamma   90.05184591
_symmetry_Int_Tables_number   1
_chemical_formula_structural   Li9Mn2Co5O16
_chemical_formula_sum   'Li9 Mn2 Co5 O16'
_cell_volume   290.53663098
_cell_formula_units_Z   1
loop_
 _symmetry_equiv_pos_site_id
 _symmetry_equiv_pos_as_xyz
  1  'x, y, z'
loop_
 _atom_site_type_symbol
 _atom_site_label
 _atom_site_symmetry_multiplicity
 _atom_site_fract_x
 _atom_site_fract_y
 _atom_site_fract_z
 _atom_site_occupancy
  Li  Li0  1  0.99843153  0.12919317  0.26811681  1
  Li  Li1  1  0.49506193  0.13348702  0.74143938  1
  Li  Li2  1  0.50376170  0.36904198  0.25557697  1
  Li  Li3  1  0.99318932  0.38159606  0.73963352  1
  Li  Li4  1  0.00282705  0.61257413  0.26155331  1
  Li  Li5  1  0.50098399  0.62617804  0.72897585  1
  Li  Li6  1  0.49748180  0.87076828  0.27632558  1
  Li  Li7  1  0.00590932  0.87741704  0.72762999  1
  Li  Li8  1  0.99665011  0.75053933  0.50295608  1
  Mn  Mn9  1  0.99006976  0.00366967  0.00144382  1
  Mn  Mn10  1  0.50858016  0.74711852  0.99974463  1
  Co  Co11  1  0.50410099  0.98700265  0.49713153  1
  Co  Co12  1  0.47249480  0.26110918  0.00105808  1
  Co  Co13  1  0.00261703  0.24581474  0.50018086  1
  Co  Co14  1  0.02792618  0.49120192  0.99753016  1
  Co  Co15  1  0.49543154  0.50749934  0.49995732  1
  O  O16  1  0.49254442  0.05121270  0.10778146  1
  O  O17  1  0.00770376  0.07600930  0.62056889  1
  O  O18  1  0.99199016  0.30676565  0.12212523  1
  O  O19  1  0.49412307  0.32732383  0.61048919  1
  O  O20  1  0.52382165  0.57134201  0.10875076  1
  O  O21  1  0.96741219  0.55913991  0.61257934  1
  O  O22  1  0.00541909  0.81021241  0.10534203  1
  O  O23  1  0.49913053  0.82671785  0.62171002  1
  O  O24  1  0.50736339  0.18306773  0.38707695  1
  O  O25  1  0.97835488  0.17903530  0.89005099  1
  O  O26  1  0.03177611  0.42924291  0.38767779  1
  O  O27  1  0.50984760  0.43879623  0.87805568  1
  O  O28  1  0.49962665  0.66419306  0.38220074  1
  O  O29  1  0.00693859  0.70248728  0.89025010  1
  O  O30  1  0.99825407  0.93975490  0.37842264  1
  O  O31  1  0.49017661  0.94048781  0.89766432  1
