# generated using pymatgen
data_Ta6Ni16Ge7
_symmetry_space_group_name_H-M   'P 1'
_cell_length_a   8.10859694
_cell_length_b   8.10859690
_cell_length_c   8.10859674
_cell_angle_alpha   59.99999674
_cell_angle_beta   59.99999687
_cell_angle_gamma   59.99999549
_symmetry_Int_Tables_number   1
_chemical_formula_structural   Ta6Ni16Ge7
_chemical_formula_sum   'Ta6 Ni16 Ge7'
_cell_volume   376.98328345
_cell_formula_units_Z   1
loop_
 _symmetry_equiv_pos_site_id
 _symmetry_equiv_pos_as_xyz
  1  'x, y, z'
loop_
 _atom_site_type_symbol
 _atom_site_label
 _atom_site_symmetry_multiplicity
 _atom_site_fract_x
 _atom_site_fract_y
 _atom_site_fract_z
 _atom_site_occupancy
  Ta  Ta0  1  0.80092584  0.80092584  0.19907416  1
  Ta  Ta1  1  0.80092584  0.19907416  0.80092584  1
  Ta  Ta2  1  0.19907416  0.19907416  0.80092584  1
  Ta  Ta3  1  0.19907416  0.80092584  0.19907416  1
  Ta  Ta4  1  0.19907416  0.80092584  0.80092584  1
  Ta  Ta5  1  0.80092584  0.19907416  0.19907416  1
  Ni  Ni6  1  0.61720227  0.14839319  0.61720227  1
  Ni  Ni7  1  0.50167264  0.16610912  0.16610912  1
  Ni  Ni8  1  0.38279773  0.38279773  0.85160681  1
  Ni  Ni9  1  0.83389088  0.83389088  0.49832736  1
  Ni  Ni10  1  0.16610912  0.16610912  0.50167264  1
  Ni  Ni11  1  0.83389088  0.49832736  0.83389088  1
  Ni  Ni12  1  0.16610912  0.50167264  0.16610912  1
  Ni  Ni13  1  0.61720227  0.61720227  0.14839319  1
  Ni  Ni14  1  0.16610912  0.16610912  0.16610912  1
  Ni  Ni15  1  0.38279773  0.85160681  0.38279773  1
  Ni  Ni16  1  0.61720227  0.61720227  0.61720227  1
  Ni  Ni17  1  0.85160681  0.38279773  0.38279773  1
  Ni  Ni18  1  0.38279773  0.38279773  0.38279773  1
  Ni  Ni19  1  0.83389088  0.83389088  0.83389088  1
  Ni  Ni20  1  0.14839319  0.61720227  0.61720227  1
  Ni  Ni21  1  0.49832736  0.83389088  0.83389088  1
  Ge  Ge22  1  -0.00000000  0.50000000  0.50000000  1
  Ge  Ge23  1  0.50000000  -0.00000000  0.50000000  1
  Ge  Ge24  1  0.50000000  0.50000000  0.50000000  1
  Ge  Ge25  1  -0.00000000  0.50000000  0.00000000  1
  Ge  Ge26  1  0.50000000  -0.00000000  0.00000000  1
  Ge  Ge27  1  0.50000000  0.50000000  0.00000000  1
  Ge  Ge28  1  -0.00000000  -0.00000000  0.50000000  1
