# generated using pymatgen
data_CuAu
_symmetry_space_group_name_H-M   'P 1'
_cell_length_a   3.66287642
_cell_length_b   4.04627014
_cell_length_c   20.43563432
_cell_angle_alpha   95.68951151
_cell_angle_beta   95.14728477
_cell_angle_gamma   89.96861221
_symmetry_Int_Tables_number   1
_chemical_formula_structural   CuAu
_chemical_formula_sum   'Cu10 Au10'
_cell_volume   300.15821386
_cell_formula_units_Z   10
loop_
 _symmetry_equiv_pos_site_id
 _symmetry_equiv_pos_as_xyz
  1  'x, y, z'
loop_
 _atom_site_type_symbol
 _atom_site_label
 _atom_site_symmetry_multiplicity
 _atom_site_fract_x
 _atom_site_fract_y
 _atom_site_fract_z
 _atom_site_occupancy
  Cu  Cu0  1  0.72638544  0.97692954  0.45335209  1
  Cu  Cu1  1  0.62471346  0.87461591  0.24915740  1
  Cu  Cu2  1  0.67407314  0.42486160  0.34926346  1
  Cu  Cu3  1  0.42483829  0.67570543  0.85052362  1
  Cu  Cu4  1  0.52493078  0.77461050  0.04968178  1
  Cu  Cu5  1  0.27361456  0.02307046  0.54664791  1
  Cu  Cu6  1  0.37528654  0.12538409  0.75084260  1
  Cu  Cu7  1  0.32592686  0.57513840  0.65073654  1
  Cu  Cu8  1  0.57516171  0.32429457  0.14947638  1
  Cu  Cu9  1  0.47506922  0.22538950  0.95031822  1
  Au  Au10  1  0.77661471  0.52628968  0.55286252  1
  Au  Au11  1  0.17394117  0.92456091  0.34862933  1
  Au  Au12  1  0.87559306  0.62562319  0.75121527  1
  Au  Au13  1  0.12440694  0.37437681  0.24878473  1
  Au  Au14  1  0.97504422  0.72528505  0.95028116  1
  Au  Au15  1  0.02495578  0.27471495  0.04971884  1
  Au  Au16  1  0.82605883  0.07543909  0.65137067  1
  Au  Au17  1  0.07492845  0.82425639  0.14908315  1
  Au  Au18  1  0.92507155  0.17574361  0.85091685  1
  Au  Au19  1  0.22338529  0.47371032  0.44713748  1
