# generated using pymatgen
data_Na10U8W5O44
_symmetry_space_group_name_H-M   'P 1'
_cell_length_a   6.83892538
_cell_length_b   17.29750271
_cell_length_c   17.29750387
_cell_angle_alpha   87.28333205
_cell_angle_beta   86.59817885
_cell_angle_gamma   86.59817987
_symmetry_Int_Tables_number   1
_chemical_formula_structural   Na10U8W5O44
_chemical_formula_sum   'Na20 U16 W10 O88'
_cell_volume   2037.04890610
_cell_formula_units_Z   2
loop_
 _symmetry_equiv_pos_site_id
 _symmetry_equiv_pos_as_xyz
  1  'x, y, z'
loop_
 _atom_site_type_symbol
 _atom_site_label
 _atom_site_symmetry_multiplicity
 _atom_site_fract_x
 _atom_site_fract_y
 _atom_site_fract_z
 _atom_site_occupancy
  Na  Na0  1  0.68302639  0.12787931  0.37253433  1
  Na  Na1  1  0.20600955  0.04229427  0.45317843  1
  Na  Na2  1  0.75000000  0.04714378  0.95285622  1
  Na  Na3  1  0.31697361  0.87212069  0.62746567  1
  Na  Na4  1  0.17266151  0.21100370  0.29510511  1
  Na  Na5  1  0.18302639  0.37253433  0.12787931  1
  Na  Na6  1  0.75000000  0.60738890  0.39261110  1
  Na  Na7  1  0.70600955  0.45317843  0.04229427  1
  Na  Na8  1  0.25000000  0.10620388  0.89379612  1
  Na  Na9  1  0.67266151  0.29510511  0.21100370  1
  Na  Na10  1  0.75000000  0.89379612  0.10620388  1
  Na  Na11  1  0.79399045  0.95770573  0.54682157  1
  Na  Na12  1  0.81697361  0.62746567  0.87212069  1
  Na  Na13  1  0.75000000  0.45258366  0.54741634  1
  Na  Na14  1  0.82733849  0.78899630  0.70489489  1
  Na  Na15  1  0.25000000  0.95285622  0.04714378  1
  Na  Na16  1  0.29399045  0.54682157  0.95770573  1
  Na  Na17  1  0.25000000  0.39261110  0.60738890  1
  Na  Na18  1  0.25000000  0.54741634  0.45258366  1
  Na  Na19  1  0.32733849  0.70489489  0.78899630  1
  U  U20  1  0.51581472  0.49786312  0.74932060  1
  U  U21  1  0.95474462  0.40748240  0.33884594  1
  U  U22  1  0.09504160  0.74931334  0.00172211  1
  U  U23  1  0.40495840  0.99827789  0.25068666  1
  U  U24  1  0.59504160  0.00172211  0.74931334  1
  U  U25  1  0.90495840  0.25068666  0.99827789  1
  U  U26  1  0.37366534  0.16140972  0.09367925  1
  U  U27  1  0.45474462  0.33884594  0.40748240  1
  U  U28  1  0.04525538  0.59251760  0.66115406  1
  U  U29  1  0.98418528  0.25067940  0.50213688  1
  U  U30  1  0.87366534  0.09367925  0.16140972  1
  U  U31  1  0.48418528  0.50213688  0.25067940  1
  U  U32  1  0.12633466  0.90632075  0.83859028  1
  U  U33  1  0.62633466  0.83859028  0.90632075  1
  U  U34  1  0.54525538  0.66115406  0.59251760  1
  U  U35  1  0.01581472  0.74932060  0.49786312  1
  W  W36  1  0.37786360  0.33758922  0.93262720  1
  W  W37  1  0.03618115  0.43045887  0.83101183  1
  W  W38  1  0.12213640  0.06737280  0.66241078  1
  W  W39  1  0.96381885  0.56954113  0.16898817  1
  W  W40  1  0.62213640  0.66241078  0.06737280  1
  W  W41  1  0.53618115  0.83101183  0.43045887  1
  W  W42  1  0.46381885  0.16898817  0.56954113  1
  W  W43  1  0.75000000  0.75361576  0.24638424  1
  W  W44  1  0.87786360  0.93262720  0.33758922  1
  W  W45  1  0.25000000  0.24638424  0.75361576  1
  O  O46  1  0.08562139  0.33242202  0.74935700  1
  O  O47  1  0.27671775  0.25736560  0.99983643  1
  O  O48  1  0.87412567  0.32911290  0.06970923  1
  O  O49  1  0.22328225  0.00016357  0.74263440  1
  O  O50  1  0.71954850  0.19425657  0.56884372  1
  O  O51  1  0.06706958  0.34535011  0.90978932  1
  O  O52  1  0.85273607  0.84096082  0.40774911  1
  O  O53  1  0.55705364  0.07187752  0.82781836  1
  O  O54  1  0.63484012  0.40647488  0.31970476  1
  O  O55  1  0.89074568  0.01831939  0.08499165  1
  O  O56  1  0.67997058  0.18579374  0.06447798  1
  O  O57  1  0.62587433  0.93029077  0.67088710  1
  O  O58  1  0.44949713  0.91374343  0.82665883  1
  O  O59  1  0.52442810  0.42998965  0.66880548  1
  O  O60  1  0.82002942  0.93552202  0.81420626  1
  O  O61  1  0.87488066  0.84352382  0.24593940  1
  O  O62  1  0.41437861  0.25064300  0.66757798  1
  O  O63  1  0.64038969  0.31010523  0.93421445  1
  O  O64  1  0.37488066  0.24593940  0.84352382  1
  O  O65  1  0.64726393  0.59225089  0.15903918  1
  O  O66  1  0.62511934  0.75406060  0.15647618  1
  O  O67  1  0.36515988  0.59352512  0.68029524  1
  O  O68  1  0.48603017  0.10228829  0.49297081  1
  O  O69  1  0.14490127  0.48813342  0.74365965  1
  O  O70  1  0.57893359  0.58121500  0.52152008  1
  O  O71  1  0.01396983  0.50702919  0.89771171  1
  O  O72  1  0.85961031  0.06578555  0.68989477  1
  O  O73  1  0.74100915  0.56145000  0.68270375  1
  O  O74  1  0.35273607  0.40774911  0.84096082  1
  O  O75  1  0.75899085  0.31729625  0.43855000  1
  O  O76  1  0.05050287  0.17334117  0.08625657  1
  O  O77  1  0.24100915  0.68270375  0.56145000  1
  O  O78  1  0.35386930  0.23992346  0.16681026  1
  O  O79  1  0.51396983  0.89771171  0.50702919  1
  O  O80  1  0.44294636  0.92812248  0.17218164  1
  O  O81  1  0.05705364  0.82781836  0.07187752  1
  O  O82  1  0.56706958  0.90978932  0.34535011  1
  O  O83  1  -0.00022077  0.16952580  0.43316607  1
  O  O84  1  0.02442810  0.66880548  0.42998965  1
  O  O85  1  0.48752463  0.25578247  0.33980294  1
  O  O86  1  0.64613070  0.76007654  0.83318974  1
  O  O87  1  0.14726393  0.15903918  0.59225089  1
  O  O88  1  0.12511934  0.15647618  0.75406060  1
  O  O89  1  0.17997058  0.06447798  0.18579374  1
  O  O90  1  0.35961031  0.68989477  0.06578555  1
  O  O91  1  0.21954850  0.56884372  0.19425657  1
  O  O92  1  0.94294636  0.17218164  0.92812248  1
  O  O93  1  0.37412567  0.06970923  0.32911290  1
  O  O94  1  0.97557190  0.33119452  0.57001035  1
  O  O95  1  0.07893359  0.52152008  0.58121500  1
  O  O96  1  0.43293042  0.09021068  0.65464989  1
  O  O97  1  0.77671775  0.99983643  0.25736560  1
  O  O98  1  0.60925432  0.91500835  0.98168061  1
  O  O99  1  0.14038969  0.93421445  0.31010523  1
  O  O100  1  0.72328225  0.74263440  0.00016357  1
  O  O101  1  0.85509873  0.51186658  0.25634035  1
  O  O102  1  0.12587433  0.67088710  0.93029077  1
  O  O103  1  0.64490127  0.74365965  0.48813342  1
  O  O104  1  0.32002942  0.81420626  0.93552202  1
  O  O105  1  0.36804417  0.41358526  0.00095077  1
  O  O106  1  0.25899085  0.43855000  0.31729625  1
  O  O107  1  0.01247537  0.66019706  0.74421753  1
  O  O108  1  0.10925432  0.98168061  0.91500835  1
  O  O109  1  0.13195583  0.99904923  0.58641474  1
  O  O110  1  0.86804417  0.00095077  0.41358526  1
  O  O111  1  0.28045150  0.80574343  0.43115628  1
  O  O112  1  0.92106641  0.47847992  0.41878500  1
  O  O113  1  0.50022077  0.56683393  0.83047420  1
  O  O114  1  0.14613070  0.83318974  0.76007654  1
  O  O115  1  0.35509873  0.25634035  0.51186658  1
  O  O116  1  0.42106641  0.41878500  0.47847992  1
  O  O117  1  1.00022077  0.83047420  0.56683393  1
  O  O118  1  0.55050287  0.08625657  0.17334117  1
  O  O119  1  0.47557190  0.57001035  0.33119452  1
  O  O120  1  0.13484012  0.31970476  0.40647488  1
  O  O121  1  0.39074568  0.08499165  0.01831939  1
  O  O122  1  0.91437861  0.66757798  0.25064300  1
  O  O123  1  0.78045150  0.43115628  0.80574343  1
  O  O124  1  0.51247537  0.74421753  0.66019706  1
  O  O125  1  0.49977923  0.43316607  0.16952580  1
  O  O126  1  0.85386930  0.16681026  0.23992346  1
  O  O127  1  0.63195583  0.58641474  0.99904923  1
  O  O128  1  0.86515988  0.68029524  0.59352512  1
  O  O129  1  0.58562139  0.74935700  0.33242202  1
  O  O130  1  0.94949713  0.82665883  0.91374343  1
  O  O131  1  0.98603017  0.49297081  0.10228829  1
  O  O132  1  0.93293042  0.65464989  0.09021068  1
  O  O133  1  0.98752463  0.33980294  0.25578247  1
