# generated using pymatgen
data_Li2Co3(P2O7)2
_symmetry_space_group_name_H-M   'P 1'
_cell_length_a   7.34172742
_cell_length_b   7.96182624
_cell_length_c   9.52788017
_cell_angle_alpha   90.00000000
_cell_angle_beta   109.91014690
_cell_angle_gamma   90.00000000
_symmetry_Int_Tables_number   1
_chemical_formula_structural   Li2Co3(P2O7)2
_chemical_formula_sum   'Li4 Co6 P8 O28'
_cell_volume   523.64907455
_cell_formula_units_Z   2
loop_
 _symmetry_equiv_pos_site_id
 _symmetry_equiv_pos_as_xyz
  1  'x, y, z'
loop_
 _atom_site_type_symbol
 _atom_site_label
 _atom_site_symmetry_multiplicity
 _atom_site_fract_x
 _atom_site_fract_y
 _atom_site_fract_z
 _atom_site_occupancy
  Li  Li0  1  0.29225250  0.58489035  0.86174046  1
  Li  Li1  1  0.29225250  0.91510965  0.36174046  1
  Li  Li2  1  0.70774750  0.41510965  0.13825954  1
  Li  Li3  1  0.70774750  0.08489035  0.63825954  1
  Co  Co4  1  0.81092909  0.37424237  0.48135653  1
  Co  Co5  1  0.81092909  0.12575763  0.98135653  1
  Co  Co6  1  0.18907091  0.62575763  0.51864347  1
  Co  Co7  1  0.00000000  0.00000000  0.50000000  1
  Co  Co8  1  0.18907091  0.87424237  0.01864347  1
  Co  Co9  1  0.00000000  0.50000000  0.00000000  1
  P  P10  1  0.11372083  0.29292515  0.30562204  1
  P  P11  1  0.40144795  0.54538038  0.28200632  1
  P  P12  1  0.40144795  0.95461962  0.78200632  1
  P  P13  1  0.11372083  0.20707485  0.80562204  1
  P  P14  1  0.59855205  0.04538038  0.21799368  1
  P  P15  1  0.59855205  0.45461962  0.71799368  1
  P  P16  1  0.88627917  0.70707485  0.69437796  1
  P  P17  1  0.88627917  0.79292515  0.19437796  1
  O  O18  1  0.71902775  0.10456607  0.37779018  1
  O  O19  1  0.38898408  0.00059850  0.19984643  1
  O  O20  1  0.61101592  0.50059850  0.30015357  1
  O  O21  1  0.28097225  0.89543393  0.62220982  1
  O  O22  1  0.68139239  0.86252281  0.19110502  1
  O  O23  1  0.14812876  0.12083015  0.37801391  1
  O  O24  1  0.61101592  0.99940150  0.80015357  1
  O  O25  1  0.68139239  0.63747719  0.69110502  1
  O  O26  1  0.85187124  0.87916985  0.62198609  1
  O  O27  1  0.96821648  0.91648317  0.10651953  1
  O  O28  1  0.31860761  0.36252281  0.30889498  1
  O  O29  1  0.71902775  0.39543393  0.87779018  1
  O  O30  1  0.31860761  0.13747719  0.80889498  1
  O  O31  1  0.98589295  0.20538988  0.63836774  1
  O  O32  1  0.37593848  0.83455620  0.89954848  1
  O  O33  1  0.85187124  0.62083015  0.12198609  1
  O  O34  1  0.96821648  0.58351683  0.60651953  1
  O  O35  1  0.01410705  0.70538988  0.86163226  1
  O  O36  1  0.01410705  0.79461012  0.36163226  1
  O  O37  1  0.03178352  0.41648317  0.39348047  1
  O  O38  1  0.37593848  0.66544380  0.39954848  1
  O  O39  1  0.98589295  0.29461012  0.13836774  1
  O  O40  1  0.03178352  0.08351683  0.89348047  1
  O  O41  1  0.62406152  0.16544380  0.10045152  1
  O  O42  1  0.62406152  0.33455620  0.60045152  1
  O  O43  1  0.38898408  0.49940150  0.69984643  1
  O  O44  1  0.28097225  0.60456607  0.12220982  1
  O  O45  1  0.14812876  0.37916985  0.87801391  1
