# generated using pymatgen
data_Li3BN2
_symmetry_space_group_name_H-M   'P 1'
_cell_length_a   6.63231176
_cell_length_b   6.63231176
_cell_length_c   6.99106034
_cell_angle_alpha   118.31653810
_cell_angle_beta   118.31653807
_cell_angle_gamma   89.99999999
_symmetry_Int_Tables_number   1
_chemical_formula_structural   Li3BN2
_chemical_formula_sum   'Li12 B4 N8'
_cell_volume   228.06243008
_cell_formula_units_Z   4
loop_
 _symmetry_equiv_pos_site_id
 _symmetry_equiv_pos_as_xyz
  1  'x, y, z'
loop_
 _atom_site_type_symbol
 _atom_site_label
 _atom_site_symmetry_multiplicity
 _atom_site_fract_x
 _atom_site_fract_y
 _atom_site_fract_z
 _atom_site_occupancy
  Li  Li0  1  0.50116641  0.75116641  0.00233282  1
  Li  Li1  1  0.75116641  0.50116641  0.50233282  1
  Li  Li2  1  0.49883359  0.24883359  0.99766718  1
  Li  Li3  1  0.24883359  0.49883359  0.49766718  1
  Li  Li4  1  0.65081378  0.90081378  0.75000000  1
  Li  Li5  1  0.34918622  0.65081378  0.25000000  1
  Li  Li6  1  0.90081378  0.09918622  0.25000000  1
  Li  Li7  1  0.09918622  0.34918622  0.75000000  1
  Li  Li8  1  0.34918622  0.09918622  0.25000000  1
  Li  Li9  1  0.65081378  0.34918622  0.75000000  1
  Li  Li10  1  0.09918622  0.90081378  0.75000000  1
  Li  Li11  1  0.90081378  0.65081378  0.25000000  1
  B  B12  1  0.72798391  0.97798391  0.45596783  1
  B  B13  1  0.97798391  0.72798391  0.95596783  1
  B  B14  1  0.27201609  0.02201609  0.54403217  1
  B  B15  1  0.02201609  0.27201609  0.04403217  1
  N  N16  1  0.72337116  0.17640567  0.44674231  1
  N  N17  1  0.77033664  0.72337116  0.94674231  1
  N  N18  1  0.17640567  0.72337116  0.94674231  1
  N  N19  1  0.27662884  0.82359433  0.55325769  1
  N  N20  1  0.27662884  0.22966336  0.55325769  1
  N  N21  1  0.22966336  0.27662884  0.05325769  1
  N  N22  1  0.82359433  0.27662884  0.05325769  1
  N  N23  1  0.72337116  0.77033664  0.44674231  1
