# generated using pymatgen
data_Al2CrCl8
_symmetry_space_group_name_H-M   'P 1'
_cell_length_a   6.19034746
_cell_length_b   13.78508286
_cell_length_c   15.71986907
_cell_angle_alpha   90.00000000
_cell_angle_beta   90.00000000
_cell_angle_gamma   90.00000000
_symmetry_Int_Tables_number   1
_chemical_formula_structural   Al2CrCl8
_chemical_formula_sum   'Al8 Cr4 Cl32'
_cell_volume   1341.44642311
_cell_formula_units_Z   4
loop_
 _symmetry_equiv_pos_site_id
 _symmetry_equiv_pos_as_xyz
  1  'x, y, z'
loop_
 _atom_site_type_symbol
 _atom_site_label
 _atom_site_symmetry_multiplicity
 _atom_site_fract_x
 _atom_site_fract_y
 _atom_site_fract_z
 _atom_site_occupancy
  Al  Al0  1  0.88454772  0.09025370  0.74256800  1
  Al  Al1  1  0.60406230  0.90979437  0.00540646  1
  Al  Al2  1  0.39593770  0.40979437  0.99459354  1
  Al  Al3  1  0.88454772  0.59025370  0.75743200  1
  Al  Al4  1  0.60406230  0.40979437  0.49459354  1
  Al  Al5  1  0.11545228  0.09025370  0.24256800  1
  Al  Al6  1  0.11545228  0.59025370  0.25743200  1
  Al  Al7  1  0.39593770  0.90979437  0.50540646  1
  Cr  Cr8  1  0.24575673  0.00000511  0.87345002  1
  Cr  Cr9  1  0.75424327  0.50000511  0.12654998  1
  Cr  Cr10  1  0.75424327  0.00000511  0.37345002  1
  Cr  Cr11  1  0.24575673  0.50000511  0.62654998  1
  Cl  Cl12  1  0.00133416  0.66587491  0.36513463  1
  Cl  Cl13  1  0.94897996  0.41118691  0.49841945  1
  Cl  Cl14  1  0.46046651  0.08919429  0.24705213  1
  Cl  Cl15  1  0.53953349  0.58919429  0.75294787  1
  Cl  Cl16  1  0.46485199  0.55785744  0.51080982  1
  Cl  Cl17  1  0.05102004  0.41118691  0.99841945  1
  Cl  Cl18  1  0.53806116  0.85470052  0.38421556  1
  Cl  Cl19  1  0.02783621  0.64478851  0.63644108  1
  Cl  Cl20  1  0.99866584  0.66587491  0.86513463  1
  Cl  Cl21  1  0.46046651  0.58919429  0.25294787  1
  Cl  Cl22  1  0.02523046  0.94210095  0.75781158  1
  Cl  Cl23  1  0.46485199  0.05785744  0.98919018  1
  Cl  Cl24  1  0.05102004  0.91118691  0.50158055  1
  Cl  Cl25  1  0.48696643  0.83503328  0.11314805  1
  Cl  Cl26  1  0.53514801  0.55785744  0.01080982  1
  Cl  Cl27  1  0.51303357  0.33503328  0.88685195  1
  Cl  Cl28  1  0.97476954  0.94210095  0.25781158  1
  Cl  Cl29  1  0.51303357  0.83503328  0.61314805  1
  Cl  Cl30  1  0.46193884  0.85470052  0.88421556  1
  Cl  Cl31  1  0.46193884  0.35470052  0.61578444  1
  Cl  Cl32  1  0.00133416  0.16587491  0.13486537  1
  Cl  Cl33  1  0.02523046  0.44210095  0.74218842  1
  Cl  Cl34  1  0.02783621  0.14478851  0.86355892  1
  Cl  Cl35  1  0.53514801  0.05785744  0.48919018  1
  Cl  Cl36  1  0.97476954  0.44210095  0.24218842  1
  Cl  Cl37  1  0.97216379  0.64478851  0.13644108  1
  Cl  Cl38  1  0.53806116  0.35470052  0.11578444  1
  Cl  Cl39  1  0.99866584  0.16587491  0.63486537  1
  Cl  Cl40  1  0.48696643  0.33503328  0.38685195  1
  Cl  Cl41  1  0.53953349  0.08919429  0.74705213  1
  Cl  Cl42  1  0.94897996  0.91118691  0.00158055  1
  Cl  Cl43  1  0.97216379  0.14478851  0.36355892  1
