# generated using pymatgen
data_NaH3O2
_symmetry_space_group_name_H-M   'P 1'
_cell_length_a   6.15271502
_cell_length_b   11.91612710
_cell_length_c   6.11191248
_cell_angle_alpha   90.00000000
_cell_angle_beta   89.75775120
_cell_angle_gamma   90.00000000
_symmetry_Int_Tables_number   1
_chemical_formula_structural   NaH3O2
_chemical_formula_sum   'Na8 H24 O16'
_cell_volume   448.10023483
_cell_formula_units_Z   8
loop_
 _symmetry_equiv_pos_site_id
 _symmetry_equiv_pos_as_xyz
  1  'x, y, z'
loop_
 _atom_site_type_symbol
 _atom_site_label
 _atom_site_symmetry_multiplicity
 _atom_site_fract_x
 _atom_site_fract_y
 _atom_site_fract_z
 _atom_site_occupancy
  Na  Na0  1  0.63150829  0.44734460  0.20600376  1
  Na  Na1  1  0.13606358  0.55318269  0.29040559  1
  Na  Na2  1  0.36393642  0.05318269  0.70959441  1
  Na  Na3  1  0.86849171  0.94734460  0.79399624  1
  Na  Na4  1  0.36849171  0.55265540  0.79399624  1
  Na  Na5  1  0.86393642  0.44681731  0.70959441  1
  Na  Na6  1  0.63606358  0.94681731  0.29040559  1
  Na  Na7  1  0.13150829  0.05265540  0.20600376  1
  H  H8  1  0.77749413  0.13405058  0.94053660  1
  H  H9  1  0.56487116  0.12984679  0.11259609  1
  H  H10  1  0.07611617  0.87066978  0.39380480  1
  H  H11  1  0.29338949  0.87083127  0.55817359  1
  H  H12  1  0.42388383  0.37066978  0.60619520  1
  H  H13  1  0.20661051  0.37083127  0.44182641  1
  H  H14  1  0.93512884  0.62984679  0.88740391  1
  H  H15  1  0.72250587  0.63405058  0.05946340  1
  H  H16  1  0.43512884  0.87015321  0.88740391  1
  H  H17  1  0.22250587  0.86594942  0.05946340  1
  H  H18  1  0.92388383  0.12933022  0.60619520  1
  H  H19  1  0.70661051  0.12916873  0.44182641  1
  H  H20  1  0.79338949  0.62916873  0.55817359  1
  H  H21  1  0.57611617  0.62933022  0.39380480  1
  H  H22  1  0.27749413  0.36594942  0.94053660  1
  H  H23  1  0.06487116  0.37015321  0.11259609  1
  H  H24  1  0.57110000  0.29618870  0.87712048  1
  H  H25  1  0.08241292  0.70245651  0.62344875  1
  H  H26  1  0.41758708  0.20245651  0.37655125  1
  H  H27  1  0.92890000  0.79618870  0.12287952  1
  H  H28  1  0.42890000  0.70381130  0.12287952  1
  H  H29  1  0.91758708  0.29754349  0.37655125  1
  H  H30  1  0.58241292  0.79754349  0.62344875  1
  H  H31  1  0.07110000  0.20381130  0.87712048  1
  O  O32  1  0.61421928  0.12380780  0.95419595  1
  O  O33  1  0.12891790  0.87969792  0.54959049  1
  O  O34  1  0.37108210  0.37969792  0.45040951  1
  O  O35  1  0.88578072  0.62380780  0.04580405  1
  O  O36  1  0.38578072  0.87619220  0.04580405  1
  O  O37  1  0.87108210  0.12030208  0.45040951  1
  O  O38  1  0.62891790  0.62030208  0.54959049  1
  O  O39  1  0.11421928  0.37619220  0.95419595  1
  O  O40  1  0.53491402  0.37551977  0.85875634  1
  O  O41  1  0.04616881  0.62304424  0.63869812  1
  O  O42  1  0.45383119  0.12304424  0.36130188  1
  O  O43  1  0.96508598  0.87551977  0.14124366  1
  O  O44  1  0.46508598  0.62448023  0.14124366  1
  O  O45  1  0.95383119  0.37695576  0.36130188  1
  O  O46  1  0.54616881  0.87695576  0.63869812  1
  O  O47  1  0.03491402  0.12448023  0.85875634  1
