# generated using pymatgen
data_Sr3Nd2(BO3)4
_symmetry_space_group_name_H-M   'P 1'
_cell_length_a   7.38948083
_cell_length_b   8.87735765
_cell_length_c   16.72462198
_cell_angle_alpha   90.00000000
_cell_angle_beta   90.00000000
_cell_angle_gamma   90.00000000
_symmetry_Int_Tables_number   1
_chemical_formula_structural   Sr3Nd2(BO3)4
_chemical_formula_sum   'Sr12 Nd8 B16 O48'
_cell_volume   1097.11955058
_cell_formula_units_Z   4
loop_
 _symmetry_equiv_pos_site_id
 _symmetry_equiv_pos_as_xyz
  1  'x, y, z'
loop_
 _atom_site_type_symbol
 _atom_site_label
 _atom_site_symmetry_multiplicity
 _atom_site_fract_x
 _atom_site_fract_y
 _atom_site_fract_z
 _atom_site_occupancy
  B  B0  1  0.98546017  0.37134431  0.03492549  1
  B  B1  1  0.01453983  0.62865569  0.53492549  1
  B  B2  1  0.51453983  0.87134431  0.53492549  1
  B  B3  1  0.48546017  0.12865569  0.03492549  1
  B  B4  1  0.27940596  0.35414216  0.53855694  1
  B  B5  1  0.72059404  0.64585784  0.03855694  1
  B  B6  1  0.22059404  0.85414216  0.03855694  1
  B  B7  1  0.77940596  0.14585784  0.53855694  1
  B  B8  1  0.33849861  0.43669247  0.24799185  1
  B  B9  1  0.66150139  0.56330753  0.74799185  1
  B  B10  1  0.16150139  0.93669247  0.74799185  1
  B  B11  1  0.83849861  0.06330753  0.24799185  1
  B  B12  1  0.32651860  0.45167667  0.83280030  1
  B  B13  1  0.67348140  0.54832333  0.33280030  1
  B  B14  1  0.17348140  0.95167667  0.33280030  1
  B  B15  1  0.82651860  0.04832333  0.83280030  1
  O  O16  1  0.38379380  0.25979214  0.03138322  1
  O  O17  1  0.61620620  0.74020786  0.53138322  1
  O  O18  1  0.11620620  0.75979214  0.53138322  1
  O  O19  1  0.88379380  0.24020786  0.03138322  1
  O  O20  1  0.04898960  0.42646183  0.10754710  1
  O  O21  1  0.95101040  0.57353817  0.60754710  1
  O  O22  1  0.45101040  0.92646183  0.60754710  1
  O  O23  1  0.54898960  0.07353817  0.10754710  1
  O  O24  1  0.03906812  0.44699603  0.96488749  1
  O  O25  1  0.96093188  0.55300397  0.46488749  1
  O  O26  1  0.46093188  0.94699603  0.46488749  1
  O  O27  1  0.53906812  0.05300397  0.96488749  1
  O  O28  1  0.23032572  0.27885596  0.60719416  1
  O  O29  1  0.76967428  0.72114404  0.10719416  1
  O  O30  1  0.26967428  0.77885596  0.10719416  1
  O  O31  1  0.73032572  0.22114404  0.60719416  1
  O  O32  1  0.25018411  0.27858165  0.46637989  1
  O  O33  1  0.74981589  0.72141835  0.96637989  1
  O  O34  1  0.24981589  0.77858165  0.96637989  1
  O  O35  1  0.75018411  0.22141835  0.46637989  1
  O  O36  1  0.63503685  0.50870444  0.03959046  1
  O  O37  1  0.36496315  0.49129556  0.53959046  1
  O  O38  1  0.86496315  0.00870444  0.53959046  1
  O  O39  1  0.13503685  0.99129556  0.03959046  1
  O  O40  1  0.20801287  0.46989046  0.30542141  1
  O  O41  1  0.79198713  0.53010954  0.80542141  1
  O  O42  1  0.29198713  0.96989046  0.80542141  1
  O  O43  1  0.70801287  0.03010954  0.30542141  1
  O  O44  1  0.41973598  0.29474885  0.24871524  1
  O  O45  1  0.58026402  0.70525115  0.74871524  1
  O  O46  1  0.08026402  0.79474885  0.74871524  1
  O  O47  1  0.91973598  0.20525115  0.24871524  1
  O  O48  1  0.61535590  0.46368730  0.68808931  1
  O  O49  1  0.38464410  0.53631270  0.18808931  1
  O  O50  1  0.88464410  0.96368730  0.18808931  1
  O  O51  1  0.11535590  0.03631270  0.68808931  1
  O  O52  1  0.81036251  0.50585878  0.28069048  1
  O  O53  1  0.18963749  0.49414122  0.78069048  1
  O  O54  1  0.68963749  0.00585878  0.78069048  1
  O  O55  1  0.31036251  0.99414122  0.28069048  1
  O  O56  1  0.39425663  0.30719955  0.83349005  1
  O  O57  1  0.60574337  0.69280045  0.33349005  1
  O  O58  1  0.10574337  0.80719955  0.33349005  1
  O  O59  1  0.89425663  0.19280045  0.83349005  1
  O  O60  1  0.61237344  0.44150280  0.38840520  1
  O  O61  1  0.38762656  0.55849720  0.88840520  1
  O  O62  1  0.88762656  0.94150280  0.88840520  1
  O  O63  1  0.11237344  0.05849720  0.38840520  1
  Sr  Sr64  1  0.67690500  0.35080857  0.91348874  1
  Sr  Sr65  1  0.32309500  0.64919143  0.41348874  1
  Sr  Sr66  1  0.82309500  0.85080857  0.41348874  1
  Sr  Sr67  1  0.17690500  0.14919143  0.91348874  1
  Sr  Sr68  1  0.96307683  0.32947597  0.70830808  1
  Sr  Sr69  1  0.03692317  0.67052403  0.20830808  1
  Sr  Sr70  1  0.53692317  0.82947597  0.20830808  1
  Sr  Sr71  1  0.46307683  0.17052403  0.70830808  1
  Sr  Sr72  1  0.69285233  0.35127767  0.16214605  1
  Sr  Sr73  1  0.30714767  0.64872233  0.66214605  1
  Sr  Sr74  1  0.80714767  0.85127767  0.66214605  1
  Sr  Sr75  1  0.19285233  0.14872233  0.16214605  1
  Nd  Nd76  1  0.97169927  0.32894918  0.37045147  1
  Nd  Nd77  1  0.02830073  0.67105082  0.87045147  1
  Nd  Nd78  1  0.52830073  0.82894918  0.87045147  1
  Nd  Nd79  1  0.47169927  0.17105082  0.37045147  1
  Nd  Nd80  1  0.68447079  0.46636150  0.54068705  1
  Nd  Nd81  1  0.31552921  0.53363850  0.04068705  1
  Nd  Nd82  1  0.81552921  0.96636150  0.04068705  1
  Nd  Nd83  1  0.18447079  0.03363850  0.54068705  1
