# generated using pymatgen
data_BaMnGaF7
_symmetry_space_group_name_H-M   'P 1'
_cell_length_a   5.37696471
_cell_length_b   7.50317773
_cell_length_c   14.91317160
_cell_angle_alpha   91.07567341
_cell_angle_beta   90.00000000
_cell_angle_gamma   110.99659691
_symmetry_Int_Tables_number   1
_chemical_formula_structural   BaMnGaF7
_chemical_formula_sum   'Ba4 Mn4 Ga4 F28'
_cell_volume   561.59890911
_cell_formula_units_Z   4
loop_
 _symmetry_equiv_pos_site_id
 _symmetry_equiv_pos_as_xyz
  1  'x, y, z'
loop_
 _atom_site_type_symbol
 _atom_site_label
 _atom_site_symmetry_multiplicity
 _atom_site_fract_x
 _atom_site_fract_y
 _atom_site_fract_z
 _atom_site_occupancy
  Ba  Ba0  1  0.14505048  0.37880692  0.62159997  1
  Ba  Ba1  1  0.23375644  0.37880692  0.12159997  1
  Ba  Ba2  1  0.76624356  0.62119308  0.87840003  1
  Ba  Ba3  1  0.85494952  0.62119308  0.37840003  1
  Mn  Mn4  1  0.45500139  0.00000000  0.75000000  1
  Mn  Mn5  1  0.50000000  0.00000000  0.50000000  1
  Mn  Mn6  1  0.54499861  0.00000000  0.25000000  1
  Mn  Mn7  1  0.50000000  0.00000000  0.00000000  1
  Ga  Ga8  1  0.87703457  0.76148310  0.12559646  1
  Ga  Ga9  1  0.88444854  0.76148310  0.62559646  1
  Ga  Ga10  1  0.11555146  0.23851690  0.37440354  1
  Ga  Ga11  1  0.12296543  0.23851690  0.87440354  1
  F  F12  1  0.16996852  0.74222906  0.54645778  1
  F  F13  1  0.52605890  0.88657644  0.87148178  1
  F  F14  1  0.37916646  0.32902813  0.77812489  1
  F  F15  1  0.88390935  0.98879914  0.34140729  1
  F  F16  1  0.94986166  0.32902813  0.27812489  1
  F  F17  1  0.47394110  0.11342356  0.12851822  1
  F  F18  1  0.83003148  0.25777094  0.45354222  1
  F  F19  1  0.19077797  0.49613571  0.91057196  1
  F  F20  1  0.36051754  0.88657644  0.37148178  1
  F  F21  1  0.15814051  0.75970128  0.20272328  1
  F  F22  1  0.05013834  0.67097187  0.72187511  1
  F  F23  1  0.69464227  0.50386429  0.58942804  1
  F  F24  1  0.89511021  0.01120086  0.15859271  1
  F  F25  1  0.42773946  0.25777094  0.95354222  1
  F  F26  1  0.63948246  0.11342356  0.62851822  1
  F  F27  1  0.80922203  0.50386429  0.08942804  1
  F  F28  1  0.91130782  0.16415972  0.98049843  1
  F  F29  1  0.25285189  0.16415972  0.48049843  1
  F  F30  1  0.08869218  0.83584028  0.01950157  1
  F  F31  1  0.84185949  0.24029872  0.79727672  1
  F  F32  1  0.10488979  0.98879914  0.84140729  1
  F  F33  1  0.11609065  0.01120086  0.65859271  1
  F  F34  1  0.62083354  0.67097187  0.22187511  1
  F  F35  1  0.39843923  0.24029872  0.29727672  1
  F  F36  1  0.74714811  0.83584028  0.51950157  1
  F  F37  1  0.60156077  0.75970128  0.70272328  1
  F  F38  1  0.57226054  0.74222906  0.04645778  1
  F  F39  1  0.30535773  0.49613571  0.41057196  1
