# generated using pymatgen
data_Pr(HO)3
_symmetry_space_group_name_H-M   'P 1'
_cell_length_a   6.65757305
_cell_length_b   6.59709253
_cell_length_c   3.77059121
_cell_angle_alpha   90.00000000
_cell_angle_beta   90.00000000
_cell_angle_gamma   120.66052434
_symmetry_Int_Tables_number   1
_chemical_formula_structural   Pr(HO)3
_chemical_formula_sum   'Pr2 H6 O6'
_cell_volume   142.45553702
_cell_formula_units_Z   2
loop_
 _symmetry_equiv_pos_site_id
 _symmetry_equiv_pos_as_xyz
  1  'x, y, z'
loop_
 _atom_site_type_symbol
 _atom_site_label
 _atom_site_symmetry_multiplicity
 _atom_site_fract_x
 _atom_site_fract_y
 _atom_site_fract_z
 _atom_site_occupancy
  Pr  Pr0  1  0.33454272  0.66984828  0.25000000  1
  Pr  Pr1  1  0.66046329  0.33640694  0.75000000  1
  H  H2  1  0.85973317  0.71863077  0.25000000  1
  H  H3  1  0.85862004  0.17040056  0.25000000  1
  H  H4  1  0.28189951  0.14189298  0.25000000  1
  H  H5  1  0.13592953  0.28220233  0.75000000  1
  H  H6  1  0.14114149  0.85560446  0.75000000  1
  H  H7  1  0.71963028  0.86208851  0.75000000  1
  O  O8  1  0.91137547  0.60437367  0.25000000  1
  O  O9  1  0.68982250  0.09742066  0.25000000  1
  O  O10  1  0.39221052  0.31052823  0.25000000  1
  O  O11  1  0.08783937  0.39923583  0.75000000  1
  O  O12  1  0.30785546  0.91379777  0.75000000  1
  O  O13  1  0.60333963  0.69492002  0.75000000  1
