# generated using pymatgen
data_La2Ge2O7
_symmetry_space_group_name_H-M   'P 1'
_cell_length_a   6.98133275
_cell_length_b   7.13880104
_cell_length_c   7.16674008
_cell_angle_alpha   64.22902778
_cell_angle_beta   87.73294057
_cell_angle_gamma   88.73565938
_symmetry_Int_Tables_number   1
_chemical_formula_structural   La2Ge2O7
_chemical_formula_sum   'La4 Ge4 O14'
_cell_volume   321.39673933
_cell_formula_units_Z   2
loop_
 _symmetry_equiv_pos_site_id
 _symmetry_equiv_pos_as_xyz
  1  'x, y, z'
loop_
 _atom_site_type_symbol
 _atom_site_label
 _atom_site_symmetry_multiplicity
 _atom_site_fract_x
 _atom_site_fract_y
 _atom_site_fract_z
 _atom_site_occupancy
  La  La0  1  0.14570701  0.74590364  0.99482732  1
  La  La1  1  0.57010466  0.31366925  0.14932931  1
  La  La2  1  0.63467103  0.82995829  0.63225928  1
  La  La3  1  0.87400890  0.30401365  0.64039587  1
  Ge  Ge4  1  0.37789807  0.31409471  0.65012465  1
  Ge  Ge5  1  0.14402413  0.74392519  0.49935323  1
  Ge  Ge6  1  0.03406160  0.18508581  0.18908960  1
  Ge  Ge7  1  0.68094559  0.79053491  0.12031896  1
  O  O8  1  0.22276716  0.36117443  0.13854590  1
  O  O9  1  0.54478903  0.42351455  0.75744147  1
  O  O10  1  0.90059400  0.11670364  0.42465840  1
  O  O11  1  0.24052110  0.52811928  0.45489689  1
  O  O12  1  0.82093468  0.92674374  0.88236385  1
  O  O13  1  0.86525470  0.27915776  0.99498568  1
  O  O14  1  0.19862652  0.14229069  0.80120849  1
  O  O15  1  0.12780736  0.92626635  0.23067600  1
  O  O16  1  0.58974039  0.92583691  0.25953968  1
  O  O17  1  0.92508893  0.65127465  0.63284607  1
  O  O18  1  0.54055983  0.20669359  0.52376863  1
  O  O19  1  0.82626177  0.56747339  0.25219637  1
  O  O20  1  0.49556137  0.69681132  0.01317841  1
  O  O21  1  0.28587218  0.81465424  0.65129594  1
