# generated using pymatgen
data_Ti2Ag2P2S11
_symmetry_space_group_name_H-M   'P 1'
_cell_length_a   6.92248951
_cell_length_b   8.65126514
_cell_length_c   24.48983640
_cell_angle_alpha   90.00003166
_cell_angle_beta   90.00024949
_cell_angle_gamma   89.99942131
_symmetry_Int_Tables_number   1
_chemical_formula_structural   Ti2Ag2P2S11
_chemical_formula_sum   'Ti8 Ag8 P8 S44'
_cell_volume   1466.65447772
_cell_formula_units_Z   4
loop_
 _symmetry_equiv_pos_site_id
 _symmetry_equiv_pos_as_xyz
  1  'x, y, z'
loop_
 _atom_site_type_symbol
 _atom_site_label
 _atom_site_symmetry_multiplicity
 _atom_site_fract_x
 _atom_site_fract_y
 _atom_site_fract_z
 _atom_site_occupancy
  Ti  Ti0  1  0.99580294  0.25621931  0.57841150  1
  Ti  Ti1  1  0.50420537  0.75621807  0.92158585  1
  Ti  Ti2  1  0.00420971  0.24378370  0.07841823  1
  Ti  Ti3  1  0.49580073  0.74377955  0.42158991  1
  Ti  Ti4  1  0.00420864  0.74378173  0.42158333  1
  Ti  Ti5  1  0.50420987  0.25621711  0.57841882  1
  Ti  Ti6  1  0.49580301  0.24378097  0.07840914  1
  Ti  Ti7  1  0.99579580  0.75621821  0.92158635  1
  Ag  Ag8  1  0.24999979  0.39896237  0.30329446  1
  Ag  Ag9  1  0.75000001  0.10103746  0.80329455  1
  Ag  Ag10  1  0.25000085  0.89416972  0.69347030  1
  Ag  Ag11  1  0.75000061  0.60583072  0.19347012  1
  Ag  Ag12  1  0.75000044  0.10583086  0.30652966  1
  Ag  Ag13  1  0.24999987  0.89896248  0.19670535  1
  Ag  Ag14  1  0.74999933  0.60103767  0.69670553  1
  Ag  Ag15  1  0.25000017  0.39416944  0.80652967  1
  P  P16  1  0.25000655  0.49701661  0.65240125  1
  P  P17  1  0.75000848  0.00298505  0.15240072  1
  P  P18  1  0.74999387  0.99892474  0.65044820  1
  P  P19  1  0.75000641  0.50298262  0.34759828  1
  P  P20  1  0.25000068  0.99701473  0.84759924  1
  P  P21  1  0.74999985  0.49892659  0.84955217  1
  P  P22  1  0.24999497  0.00107551  0.34955144  1
  P  P23  1  0.24999297  0.50107355  0.15044797  1
  S  S24  1  0.50426961  0.96482476  0.10694665  1
  S  S25  1  0.25000043  0.60486896  0.72537904  1
  S  S26  1  0.50260616  0.03799718  0.39197398  1
  S  S27  1  0.75000063  0.24010821  0.65583736  1
  S  S28  1  0.75000059  0.74010798  0.84416439  1
  S  S29  1  0.99572685  0.46481690  0.39305204  1
  S  S30  1  0.50260482  0.53799803  0.10802715  1
  S  S31  1  0.24999903  0.75600991  0.84624939  1
  S  S32  1  0.24999761  0.74005206  0.98316494  1
  S  S33  1  0.74999985  0.89513051  0.22537971  1
  S  S34  1  0.00260550  0.96199391  0.60802690  1
  S  S35  1  0.25000930  0.25989225  0.15583597  1
  S  S36  1  0.00427068  0.53518231  0.60694641  1
  S  S37  1  0.74999933  0.39074474  0.77598727  1
  S  S38  1  0.75000157  0.87844886  0.98115046  1
  S  S39  1  0.25000013  0.10486921  0.77462027  1
  S  S40  1  0.24997854  0.24005164  0.51683285  1
  S  S41  1  0.74999195  0.74399204  0.34625080  1
  S  S42  1  0.25001453  0.12155137  0.01884926  1
  S  S43  1  0.99739729  0.03800233  0.39197230  1
  S  S44  1  0.00427348  0.03518183  0.89305256  1
  S  S45  1  0.00260377  0.46199824  0.89197262  1
  S  S46  1  0.25000589  0.75989104  0.34416519  1
  S  S47  1  0.25000077  0.60925543  0.22401263  1
  S  S48  1  0.49739731  0.46199756  0.89197248  1
  S  S49  1  0.49739948  0.96199372  0.60802784  1
  S  S50  1  0.50426872  0.46482648  0.39305471  1
  S  S51  1  0.25000078  0.10925542  0.27598781  1
  S  S52  1  0.74998757  0.24399018  0.15375112  1
  S  S53  1  0.49572530  0.53518860  0.60694812  1
  S  S54  1  0.75000299  0.14369263  0.51728913  1
  S  S55  1  0.25001064  0.62155503  0.48114903  1
  S  S56  1  0.99572316  0.96480987  0.10694939  1
  S  S57  1  0.74997221  0.75994818  0.48316207  1
  S  S58  1  0.99739900  0.53800718  0.10802891  1
  S  S59  1  0.75000518  0.37844944  0.51884814  1
  S  S60  1  0.75000111  0.64369340  0.98270951  1
  S  S61  1  0.25001352  0.35630655  0.01729025  1
  S  S62  1  0.75000019  0.89074468  0.72401218  1
  S  S63  1  0.24999566  0.25600866  0.65375158  1
  S  S64  1  0.75000056  0.39513043  0.27462096  1
  S  S65  1  0.25000930  0.85630303  0.48270783  1
  S  S66  1  0.49572759  0.03518238  0.89305217  1
  S  S67  1  0.74996050  0.25994811  0.01683460  1
