# generated using pymatgen
data_TlHg(AsS2)3
_symmetry_space_group_name_H-M   'P 1'
_cell_length_a   6.20343707
_cell_length_b   12.29730410
_cell_length_c   16.29267074
_cell_angle_alpha   90.00000000
_cell_angle_beta   91.31662980
_cell_angle_gamma   90.00000000
_symmetry_Int_Tables_number   1
_chemical_formula_structural   TlHg(AsS2)3
_chemical_formula_sum   'Tl4 Hg4 As12 S24'
_cell_volume   1242.56723686
_cell_formula_units_Z   4
loop_
 _symmetry_equiv_pos_site_id
 _symmetry_equiv_pos_as_xyz
  1  'x, y, z'
loop_
 _atom_site_type_symbol
 _atom_site_label
 _atom_site_symmetry_multiplicity
 _atom_site_fract_x
 _atom_site_fract_y
 _atom_site_fract_z
 _atom_site_occupancy
  S  S0  1  0.24255373  0.86059154  0.88126136  1
  S  S1  1  0.37237997  0.05350447  0.74251110  1
  S  S2  1  0.12762003  0.55350447  0.75748890  1
  S  S3  1  0.62762003  0.94649553  0.25748890  1
  S  S4  1  0.87237997  0.44649553  0.24251110  1
  S  S5  1  0.55855586  0.35966916  0.78977194  1
  S  S6  1  0.94144414  0.85966916  0.71022806  1
  S  S7  1  0.44144414  0.64033084  0.21022806  1
  S  S8  1  0.05855586  0.14033084  0.28977194  1
  S  S9  1  0.44443075  0.18514859  0.94326166  1
  S  S10  1  0.05556925  0.68514859  0.55673834  1
  S  S11  1  0.55556925  0.81485141  0.05673834  1
  S  S12  1  0.94443075  0.31485141  0.44326166  1
  S  S13  1  0.88844082  0.36369953  0.95091863  1
  S  S14  1  0.61155918  0.86369953  0.54908137  1
  S  S15  1  0.11155918  0.63630047  0.04908137  1
  S  S16  1  0.37194093  0.34908525  0.11573279  1
  S  S17  1  0.12805907  0.84908525  0.38426721  1
  S  S18  1  0.62805907  0.65091475  0.88426721  1
  S  S19  1  0.87194093  0.15091475  0.61573279  1
  S  S20  1  0.75744627  0.13940846  0.11873864  1
  S  S21  1  0.74255373  0.63940846  0.38126136  1
  S  S22  1  0.25744627  0.36059154  0.61873864  1
  S  S23  1  0.38844082  0.13630047  0.45091863  1
  As  As24  1  0.02573824  0.13176166  0.43273642  1
  As  As25  1  0.60785254  0.82522518  0.91790342  1
  As  As26  1  0.47426176  0.63176166  0.06726358  1
  As  As27  1  0.97426176  0.86823834  0.56726358  1
  As  As28  1  0.52573824  0.36823834  0.93273642  1
  As  As29  1  0.19472251  0.37157533  0.75538907  1
  As  As30  1  0.30527749  0.87157533  0.74461093  1
  As  As31  1  0.80527749  0.62842467  0.24461093  1
  As  As32  1  0.69472251  0.12842467  0.25538907  1
  As  As33  1  0.89214746  0.32522518  0.58209658  1
  As  As34  1  0.10785254  0.67477482  0.41790342  1
  As  As35  1  0.39214746  0.17477482  0.08209658  1
  Hg  Hg36  1  0.42920684  0.09458219  0.59747419  1
  Hg  Hg37  1  0.92920684  0.40541781  0.09747419  1
  Hg  Hg38  1  0.57079316  0.90541781  0.40252581  1
  Hg  Hg39  1  0.07079316  0.59458219  0.90252581  1
  Tl  Tl40  1  0.37486364  0.38459348  0.30250429  1
  Tl  Tl41  1  0.12513636  0.88459348  0.19749571  1
  Tl  Tl42  1  0.62513636  0.61540652  0.69749571  1
  Tl  Tl43  1  0.87486364  0.11540652  0.80250429  1
