# generated using pymatgen
data_Li9Mn2Co5O16
_symmetry_space_group_name_H-M   'P 1'
_cell_length_a   2.95823665
_cell_length_b   10.10175442
_cell_length_c   9.85459000
_cell_angle_alpha   78.87521003
_cell_angle_beta   93.04714340
_cell_angle_gamma   92.86672753
_symmetry_Int_Tables_number   1
_chemical_formula_structural   Li9Mn2Co5O16
_chemical_formula_sum   'Li9 Mn2 Co5 O16'
_cell_volume   288.30864424
_cell_formula_units_Z   1
loop_
 _symmetry_equiv_pos_site_id
 _symmetry_equiv_pos_as_xyz
  1  'x, y, z'
loop_
 _atom_site_type_symbol
 _atom_site_label
 _atom_site_symmetry_multiplicity
 _atom_site_fract_x
 _atom_site_fract_y
 _atom_site_fract_z
 _atom_site_occupancy
  Li  Li0  1  0.99734988  0.12639873  0.25015419  1
  Li  Li1  1  0.49799448  0.12754667  0.74656361  1
  Li  Li2  1  0.49332508  0.37183514  0.25189545  1
  Li  Li3  1  0.00191199  0.38022493  0.74082432  1
  Li  Li4  1  0.01016676  0.61896338  0.25262468  1
  Li  Li5  1  0.51279040  0.61841305  0.74417084  1
  Li  Li6  1  0.49603493  0.87673991  0.25284324  1
  Li  Li7  1  0.99526583  0.87680568  0.75431852  1
  Li  Li8  1  0.48724175  0.49943240  0.50915296  1
  Mn  Mn9  1  0.00195467  0.00250582  0.99792631  1
  Mn  Mn10  1  0.00442146  0.74435704  0.50104529  1
  Co  Co11  1  0.51011719  0.00239113  0.49696040  1
  Co  Co12  1  0.49576091  0.24975718  0.00054923  1
  Co  Co13  1  0.99561322  0.25959644  0.49838201  1
  Co  Co14  1  0.00136021  0.49683299  0.00326753  1
  Co  Co15  1  0.50156265  0.74969443  0.99860708  1
  O  O16  1  0.46948783  0.06970724  0.11642471  1
  O  O17  1  0.97669161  0.07216921  0.60683475  1
  O  O18  1  0.96473179  0.31100892  0.11496894  1
  O  O19  1  0.46961425  0.30544372  0.61493731  1
  O  O20  1  0.48903563  0.56056046  0.11998152  1
  O  O21  1  0.99443968  0.57885981  0.61919145  1
  O  O22  1  0.98326044  0.81537756  0.11507340  1
  O  O23  1  0.52956829  0.81582248  0.60437843  1
  O  O24  1  0.52121921  0.18143817  0.38908581  1
  O  O25  1  0.02932675  0.18603025  0.88499782  1
  O  O26  1  0.00202619  0.41518910  0.38445511  1
  O  O27  1  0.50618895  0.43192882  0.88876471  1
  O  O28  1  0.47838274  0.69537779  0.39088278  1
  O  O29  1  0.01436541  0.68845553  0.88628604  1
  O  O30  1  0.03353426  0.93340738  0.38713605  1
  O  O31  1  0.53525558  0.93772862  0.87731552  1
