# generated using pymatgen
data_LiNbZnO4
_symmetry_space_group_name_H-M   'P 1'
_cell_length_a   6.17186676
_cell_length_b   6.17186676
_cell_length_c   8.50517296
_cell_angle_alpha   90.00000000
_cell_angle_beta   90.00000000
_cell_angle_gamma   90.00000000
_symmetry_Int_Tables_number   1
_chemical_formula_structural   LiNbZnO4
_chemical_formula_sum   'Li4 Nb4 Zn4 O16'
_cell_volume   323.97853216
_cell_formula_units_Z   4
loop_
 _symmetry_equiv_pos_site_id
 _symmetry_equiv_pos_as_xyz
  1  'x, y, z'
loop_
 _atom_site_type_symbol
 _atom_site_label
 _atom_site_symmetry_multiplicity
 _atom_site_fract_x
 _atom_site_fract_y
 _atom_site_fract_z
 _atom_site_occupancy
  Li  Li0  1  0.00000000  0.21904075  0.50000000  1
  Li  Li1  1  0.78095925  0.00000000  0.75000000  1
  Li  Li2  1  0.21904075  0.00000000  0.25000000  1
  Li  Li3  1  0.00000000  0.78095925  0.00000000  1
  O  O4  1  0.26331402  0.98342011  0.99677512  1
  O  O5  1  0.01657989  0.26331402  0.24677512  1
  O  O6  1  0.98342011  0.73668598  0.74677512  1
  O  O7  1  0.26331402  0.01657989  0.50322488  1
  O  O8  1  0.73668598  0.98342011  0.00322488  1
  O  O9  1  0.73668598  0.01657989  0.49677512  1
  O  O10  1  0.98342011  0.26331402  0.75322488  1
  O  O11  1  0.01657989  0.73668598  0.25322488  1
  O  O12  1  0.26588462  0.51736110  0.01647972  1
  O  O13  1  0.48263890  0.26588462  0.26647972  1
  O  O14  1  0.51736110  0.73411538  0.76647972  1
  O  O15  1  0.26588462  0.48263890  0.48352028  1
  O  O16  1  0.73411538  0.51736110  0.98352028  1
  O  O17  1  0.73411538  0.48263890  0.51647972  1
  O  O18  1  0.51736110  0.26588462  0.73352028  1
  O  O19  1  0.48263890  0.73411538  0.23352028  1
  Zn  Zn20  1  0.25916679  0.25916679  0.87500000  1
  Zn  Zn21  1  0.74083321  0.25916679  0.12500000  1
  Zn  Zn22  1  0.25916679  0.74083321  0.62500000  1
  Zn  Zn23  1  0.74083321  0.74083321  0.37500000  1
  Nb  Nb24  1  0.50000000  0.21312127  0.50000000  1
  Nb  Nb25  1  0.78687873  0.50000000  0.75000000  1
  Nb  Nb26  1  0.21312127  0.50000000  0.25000000  1
  Nb  Nb27  1  0.50000000  0.78687873  0.00000000  1
