# generated using pymatgen
data_PbI2
_symmetry_space_group_name_H-M   'P 1'
_cell_length_a   22.68250511
_cell_length_b   22.68250497
_cell_length_c   22.68250478
_cell_angle_alpha   11.78406179
_cell_angle_beta   11.78406343
_cell_angle_gamma   11.78406235
_symmetry_Int_Tables_number   1
_chemical_formula_structural   PbI2
_chemical_formula_sum   'Pb3 I6'
_cell_volume   423.00390430
_cell_formula_units_Z   3
loop_
 _symmetry_equiv_pos_site_id
 _symmetry_equiv_pos_as_xyz
  1  'x, y, z'
loop_
 _atom_site_type_symbol
 _atom_site_label
 _atom_site_symmetry_multiplicity
 _atom_site_fract_x
 _atom_site_fract_y
 _atom_site_fract_z
 _atom_site_occupancy
  Pb  Pb0  1  0.55551669  0.55551669  0.55551669  1
  Pb  Pb1  1  0.00000000  0.00000000  0.00000000  1
  Pb  Pb2  1  0.44448331  0.44448331  0.44448331  1
  I  I3  1  0.63876791  0.63876791  0.63876791  1
  I  I4  1  0.36123209  0.36123209  0.36123209  1
  I  I5  1  0.86095602  0.86095602  0.86095602  1
  I  I6  1  0.13904398  0.13904398  0.13904398  1
  I  I7  1  0.74988091  0.74988091  0.74988091  1
  I  I8  1  0.25011909  0.25011909  0.25011909  1
