# generated using pymatgen
data_PbSeO3
_symmetry_space_group_name_H-M   'P 1'
_cell_length_a   8.16873458
_cell_length_b   8.92133765
_cell_length_c   9.30402322
_cell_angle_alpha   103.00282878
_cell_angle_beta   90.00000000
_cell_angle_gamma   90.00000000
_symmetry_Int_Tables_number   1
_chemical_formula_structural   PbSeO3
_chemical_formula_sum   'Pb8 Se8 O24'
_cell_volume   660.65470097
_cell_formula_units_Z   8
loop_
 _symmetry_equiv_pos_site_id
 _symmetry_equiv_pos_as_xyz
  1  'x, y, z'
loop_
 _atom_site_type_symbol
 _atom_site_label
 _atom_site_symmetry_multiplicity
 _atom_site_fract_x
 _atom_site_fract_y
 _atom_site_fract_z
 _atom_site_occupancy
  Pb  Pb0  1  0.17573017  0.72790963  0.60414478  1
  Pb  Pb1  1  0.16523874  0.17518275  0.00592204  1
  Pb  Pb2  1  0.66523874  0.32481725  0.99407796  1
  Pb  Pb3  1  0.83476126  0.82481725  0.99407796  1
  Pb  Pb4  1  0.67573017  0.77209037  0.39585522  1
  Pb  Pb5  1  0.32426983  0.22790963  0.60414478  1
  Pb  Pb6  1  0.33476126  0.67518275  0.00592204  1
  Pb  Pb7  1  0.82426983  0.27209037  0.39585522  1
  Se  Se8  1  0.10049578  0.95040948  0.31995332  1
  Se  Se9  1  0.49444492  0.94773807  0.79592383  1
  Se  Se10  1  0.00555508  0.44773807  0.79592383  1
  Se  Se11  1  0.99444492  0.55226193  0.20407617  1
  Se  Se12  1  0.89950422  0.04959052  0.68004668  1
  Se  Se13  1  0.39950422  0.45040948  0.31995332  1
  Se  Se14  1  0.50555508  0.05226193  0.20407617  1
  Se  Se15  1  0.60049578  0.54959052  0.68004668  1
  O  O16  1  0.64864732  0.35884226  0.66102779  1
  O  O17  1  0.82261836  0.62540914  0.13208217  1
  O  O18  1  0.44958819  0.90093525  0.61179824  1
  O  O19  1  0.11109405  0.03859245  0.66379733  1
  O  O20  1  0.05041181  0.40093525  0.61179824  1
  O  O21  1  0.05131736  0.64422071  0.84377144  1
  O  O22  1  0.88890595  0.96140755  0.33620267  1
  O  O23  1  0.62089770  0.62370263  0.86986224  1
  O  O24  1  0.94958819  0.59906475  0.38820176  1
  O  O25  1  0.12089770  0.87629737  0.13013776  1
  O  O26  1  0.61109405  0.46140755  0.33620267  1
  O  O27  1  0.94868264  0.35577929  0.15622856  1
  O  O28  1  0.85135268  0.85884226  0.66102779  1
  O  O29  1  0.35135268  0.64115774  0.33897221  1
  O  O30  1  0.55131736  0.85577929  0.15622856  1
  O  O31  1  0.38890595  0.53859245  0.66379733  1
  O  O32  1  0.44868264  0.14422071  0.84377144  1
  O  O33  1  0.87910230  0.12370263  0.86986224  1
  O  O34  1  0.32261836  0.87459086  0.86791783  1
  O  O35  1  0.17738164  0.37459086  0.86791783  1
  O  O36  1  0.67738164  0.12540914  0.13208217  1
  O  O37  1  0.55041181  0.09906475  0.38820176  1
  O  O38  1  0.14864732  0.14115774  0.33897221  1
  O  O39  1  0.37910230  0.37629737  0.13013776  1
