# generated using pymatgen
data_Li9Mn2Co5O16
_symmetry_space_group_name_H-M   'P 1'
_cell_length_a   2.96406324
_cell_length_b   10.37452141
_cell_length_c   9.86912750
_cell_angle_alpha   106.91178715
_cell_angle_beta   92.27732531
_cell_angle_gamma   82.69650575
_symmetry_Int_Tables_number   1
_chemical_formula_structural   Li9Mn2Co5O16
_chemical_formula_sum   'Li9 Mn2 Co5 O16'
_cell_volume   288.00147086
_cell_formula_units_Z   1
loop_
 _symmetry_equiv_pos_site_id
 _symmetry_equiv_pos_as_xyz
  1  'x, y, z'
loop_
 _atom_site_type_symbol
 _atom_site_label
 _atom_site_symmetry_multiplicity
 _atom_site_fract_x
 _atom_site_fract_y
 _atom_site_fract_z
 _atom_site_occupancy
  Li  Li0  1  0.92783614  0.13164228  0.31258877  1
  Li  Li1  1  0.42063677  0.13194069  0.82287341  1
  Li  Li2  1  0.31802928  0.37930171  0.43566167  1
  Li  Li3  1  0.81413996  0.36778340  0.94448821  1
  Li  Li4  1  0.68994622  0.62290755  0.56166752  1
  Li  Li5  1  0.19029946  0.62319816  0.06342303  1
  Li  Li6  1  0.07199856  0.87175332  0.68100017  1
  Li  Li7  1  0.56876513  0.87208039  0.18608187  1
  Li  Li8  1  0.38730347  0.25052295  0.11621060  1
  Mn  Mn9  1  0.99168736  0.00607346  0.00312857  1
  Mn  Mn10  1  0.87306014  0.25220439  0.62317621  1
  Co  Co11  1  0.50176269  0.99892006  0.49602009  1
  Co  Co12  1  0.75646120  0.48946691  0.24471288  1
  Co  Co13  1  0.24783481  0.50368526  0.75341867  1
  Co  Co14  1  0.13054373  0.74454121  0.37714059  1
  Co  Co15  1  0.61733336  0.74921732  0.87780892  1
  O  O16  1  0.48591280  0.05404845  0.13727607  1
  O  O17  1  0.95916514  0.06428114  0.64197297  1
  O  O18  1  0.83193448  0.33418744  0.28079273  1
  O  O19  1  0.30126671  0.32015011  0.77761277  1
  O  O20  1  0.18371607  0.56488019  0.39654971  1
  O  O21  1  0.72631264  0.57068321  0.89911692  1
  O  O22  1  0.59628999  0.81244763  0.52367408  1
  O  O23  1  0.05453733  0.81617039  0.02156265  1
  O  O24  1  0.44622361  0.18628398  0.47038169  1
  O  O25  1  0.91793937  0.17064766  0.96750845  1
  O  O26  1  0.77151585  0.43711071  0.60435369  1
  O  O27  1  0.30987795  0.44451377  0.10601620  1
  O  O28  1  0.18558149  0.68607827  0.72877987  1
  O  O29  1  0.66213111  0.67665751  0.23007992  1
  O  O30  1  0.50784788  0.93485319  0.86385884  1
  O  O31  1  0.05210931  0.93176731  0.35106225  1
