# generated using pymatgen
data_DyNiGe2
_symmetry_space_group_name_H-M   'P 1'
_cell_length_a   4.18389654
_cell_length_b   8.54450971
_cell_length_c   9.26581535
_cell_angle_alpha   117.45663118
_cell_angle_beta   103.04819532
_cell_angle_gamma   89.99999732
_symmetry_Int_Tables_number   1
_chemical_formula_structural   DyNiGe2
_chemical_formula_sum   'Dy4 Ni4 Ge8'
_cell_volume   284.26219714
_cell_formula_units_Z   4
loop_
 _symmetry_equiv_pos_site_id
 _symmetry_equiv_pos_as_xyz
  1  'x, y, z'
loop_
 _atom_site_type_symbol
 _atom_site_label
 _atom_site_symmetry_multiplicity
 _atom_site_fract_x
 _atom_site_fract_y
 _atom_site_fract_z
 _atom_site_occupancy
  Dy  Dy0  1  0.79497853  0.29497853  0.58995706  1
  Dy  Dy1  1  1.00000000  0.73442983  0.00000000  1
  Dy  Dy2  1  0.00000000  0.26557017  1.00000000  1
  Dy  Dy3  1  0.20502147  0.70502147  0.41004294  1
  Ni  Ni4  1  0.35117771  0.60071280  0.70235543  1
  Ni  Ni5  1  0.64882229  0.89835737  0.29764457  1
  Ni  Ni6  1  0.64882229  0.39928720  0.29764457  1
  Ni  Ni7  1  0.35117771  0.10164263  0.70235543  1
  Ge  Ge8  1  0.80490969  0.96239981  0.60981938  1
  Ge  Ge9  1  0.41961396  0.91961396  0.83922791  1
  Ge  Ge10  1  0.19509031  0.03760019  0.39018062  1
  Ge  Ge11  1  0.19509031  0.35258043  0.39018062  1
  Ge  Ge12  1  0.80490969  0.64741957  0.60981938  1
  Ge  Ge13  1  0.57735991  0.57735991  0.15471982  1
  Ge  Ge14  1  0.58038604  0.08038604  0.16077209  1
  Ge  Ge15  1  0.42264009  0.42264009  0.84528018  1
