# generated using pymatgen
data_SiO2
_symmetry_space_group_name_H-M   'P 1'
_cell_length_a   5.07102102
_cell_length_b   9.73183136
_cell_length_c   23.54484361
_cell_angle_alpha   81.78555771
_cell_angle_beta   83.81791593
_cell_angle_gamma   74.89802255
_symmetry_Int_Tables_number   1
_chemical_formula_structural   SiO2
_chemical_formula_sum   'Si24 O48'
_cell_volume   1107.28382816
_cell_formula_units_Z   24
loop_
 _symmetry_equiv_pos_site_id
 _symmetry_equiv_pos_as_xyz
  1  'x, y, z'
loop_
 _atom_site_type_symbol
 _atom_site_label
 _atom_site_symmetry_multiplicity
 _atom_site_fract_x
 _atom_site_fract_y
 _atom_site_fract_z
 _atom_site_occupancy
  Si  Si0  1  0.02584507  0.39652704  0.95834346  1
  Si  Si1  1  0.97199274  0.09778565  0.55761315  1
  Si  Si2  1  0.88854387  0.94704349  0.85336502  1
  Si  Si3  1  0.85203073  0.91095954  0.98947407  1
  Si  Si4  1  0.46778200  0.03308866  0.63267184  1
  Si  Si5  1  0.74753567  0.41095954  0.48947407  1
  Si  Si6  1  0.52036635  0.48238850  0.88438580  1
  Si  Si7  1  0.20313117  0.25792264  0.71690044  1
  Si  Si8  1  0.50626101  0.21341977  0.19109265  1
  Si  Si9  1  0.10315705  0.06135694  0.15226556  1
  Si  Si10  1  0.25310129  0.08059349  0.01826199  1
  Si  Si11  1  0.58922657  0.71341977  0.69109265  1
  Si  Si12  1  0.61285935  0.98238850  0.38438580  1
  Si  Si13  1  0.14804324  0.58059349  0.51826199  1
  Si  Si14  1  0.32204575  0.75792264  0.21690044  1
  Si  Si15  1  0.48360802  0.78996310  0.81900046  1
  Si  Si16  1  0.78201335  0.76161563  0.29454795  1
  Si  Si17  1  0.87260846  0.59778565  0.05761315  1
  Si  Si18  1  0.11928442  0.89652704  0.45834346  1
  Si  Si19  1  0.40742842  0.28996310  0.31900046  1
  Si  Si20  1  0.81104762  0.44704349  0.35336502  1
  Si  Si21  1  0.18322045  0.56135694  0.65226556  1
  Si  Si22  1  0.36645749  0.53308866  0.13267184  1
  Si  Si23  1  0.66182307  0.26161563  0.79454795  1
  O  O24  1  0.15370742  0.61101669  0.58415843  1
  O  O25  1  0.88754060  0.26197800  0.74000747  1
  O  O26  1  0.00512481  0.47650936  0.01510329  1
  O  O27  1  0.50635947  0.86113939  0.64791500  1
  O  O28  1  0.07698601  0.35336104  0.31860594  1
  O  O29  1  0.26545698  0.09250800  0.58079930  1
  O  O30  1  0.20662205  0.38975595  0.66580884  1
  O  O31  1  0.41587195  0.45681318  0.50061622  1
  O  O32  1  0.75089232  0.11759446  0.83969319  1
  O  O33  1  0.23818959  0.15235708  0.18886206  1
  O  O34  1  0.87316795  0.52846621  0.51283422  1
  O  O35  1  0.05720804  0.56794397  0.11255461  1
  O  O36  1  0.15477637  0.22668242  0.97542668  1
  O  O37  1  0.14311453  0.72668242  0.47542668  1
  O  O38  1  0.92059127  0.65235708  0.68886206  1
  O  O39  1  0.09120448  0.77143316  0.27082754  1
  O  O40  1  0.85820380  0.25514313  0.52431178  1
  O  O41  1  0.72251368  0.41954889  0.93625030  1
  O  O42  1  0.15111746  0.11101669  0.08415843  1
  O  O43  1  0.77665718  0.09369339  0.17107490  1
  O  O44  1  0.63585152  0.40061724  0.82766547  1
  O  O45  1  0.76229339  0.06794397  0.61255461  1
  O  O46  1  0.36653482  0.27143316  0.77082754  1
  O  O47  1  0.56123572  0.59250800  0.08079930  1
  O  O48  1  0.34327047  0.10782044  0.69077536  1
  O  O49  1  0.23781316  0.88975595  0.16580884  1
  O  O50  1  0.45857453  0.59369339  0.67107490  1
  O  O51  1  0.83872169  0.39968699  0.42178288  1
  O  O52  1  0.58553161  0.02846621  0.01283422  1
  O  O53  1  0.42168712  0.91954889  0.43625030  1
  O  O54  1  0.35813374  0.60782044  0.19077536  1
  O  O55  1  0.86234129  0.75514313  0.02431178  1
  O  O56  1  0.00326255  0.97650936  0.51510329  1
  O  O57  1  0.47277243  0.74046833  0.75648194  1
  O  O58  1  0.48458614  0.36113939  0.14791500  1
  O  O59  1  0.48108350  0.15311194  0.36823241  1
  O  O60  1  0.79182003  0.61759446  0.33969319  1
  O  O61  1  0.53485065  0.41743910  0.33348986  1
  O  O62  1  0.12669865  0.95681318  0.00061622  1
  O  O63  1  0.21804535  0.45934718  0.90649993  1
  O  O64  1  0.91610753  0.95934718  0.40649993  1
  O  O65  1  0.83980845  0.89968699  0.92178288  1
  O  O66  1  0.75104701  0.85336104  0.81860594  1
  O  O67  1  0.21422039  0.91743910  0.83348986  1
  O  O68  1  0.63586577  0.90061724  0.32766547  1
  O  O69  1  0.61047393  0.76197800  0.24000747  1
  O  O70  1  0.49757216  0.65311194  0.86823241  1
  O  O71  1  0.53027730  0.24046833  0.25648194  1
