# generated using pymatgen
data_Cd2H2SO6
_symmetry_space_group_name_H-M   'P 1'
_cell_length_a   7.10979209
_cell_length_b   7.10979209
_cell_length_c   6.61962781
_cell_angle_alpha   68.06015811
_cell_angle_beta   111.93984189
_cell_angle_gamma   112.32716474
_symmetry_Int_Tables_number   1
_chemical_formula_structural   Cd2H2SO6
_chemical_formula_sum   'Cd4 H4 S2 O12'
_cell_volume   276.44766007
_cell_formula_units_Z   2
loop_
 _symmetry_equiv_pos_site_id
 _symmetry_equiv_pos_as_xyz
  1  'x, y, z'
loop_
 _atom_site_type_symbol
 _atom_site_label
 _atom_site_symmetry_multiplicity
 _atom_site_fract_x
 _atom_site_fract_y
 _atom_site_fract_z
 _atom_site_occupancy
  Cd  Cd0  1  0.84599413  0.34701701  0.81028398  1
  Cd  Cd1  1  0.34701701  0.84599413  0.68971602  1
  Cd  Cd2  1  0.15400587  0.65298299  0.18971602  1
  Cd  Cd3  1  0.65298299  0.15400587  0.31028398  1
  H  H4  1  0.76401983  0.95693498  0.79112667  1
  H  H5  1  0.95693498  0.76401983  0.70887333  1
  H  H6  1  0.23598017  0.04306502  0.20887333  1
  H  H7  1  0.04306502  0.23598017  0.29112667  1
  S  S8  1  0.31136270  0.31136270  0.75000000  1
  S  S9  1  0.68863730  0.68863730  0.25000000  1
  O  O10  1  0.31449961  0.52954021  0.59545479  1
  O  O11  1  0.52954021  0.31449961  0.90454521  1
  O  O12  1  0.68550039  0.47045979  0.40454521  1
  O  O13  1  0.47045979  0.68550039  0.09545479  1
  O  O14  1  0.16363272  0.24585732  0.89070865  1
  O  O15  1  0.24585732  0.16363272  0.60929135  1
  O  O16  1  0.83636728  0.75414268  0.10929135  1
  O  O17  1  0.75414268  0.83636728  0.39070865  1
  O  O18  1  0.67936383  0.05488842  0.69273502  1
  O  O19  1  0.05488842  0.67936383  0.80726498  1
  O  O20  1  0.32063617  0.94511158  0.30726498  1
  O  O21  1  0.94511158  0.32063617  0.19273502  1
