# generated using pymatgen
data_Ca(H8O5)2
_symmetry_space_group_name_H-M   'P 1'
_cell_length_a   6.23039638
_cell_length_b   6.23039638
_cell_length_c   10.89226369
_cell_angle_alpha   89.91215363
_cell_angle_beta   89.91215363
_cell_angle_gamma   89.66749191
_symmetry_Int_Tables_number   1
_chemical_formula_structural   Ca(H8O5)2
_chemical_formula_sum   'Ca2 H32 O20'
_cell_volume   422.80603111
_cell_formula_units_Z   2
loop_
 _symmetry_equiv_pos_site_id
 _symmetry_equiv_pos_as_xyz
  1  'x, y, z'
loop_
 _atom_site_type_symbol
 _atom_site_label
 _atom_site_symmetry_multiplicity
 _atom_site_fract_x
 _atom_site_fract_y
 _atom_site_fract_z
 _atom_site_occupancy
  Ca  Ca0  1  0.99610211  0.00426880  0.24835088  1
  Ca  Ca1  1  0.00426880  0.99610211  0.74835088  1
  H  H2  1  0.26308384  0.37842161  0.34248337  1
  H  H3  1  0.13317421  0.30269563  0.45950789  1
  H  H4  1  0.96475090  0.55833395  0.36852147  1
  H  H5  1  0.71961810  0.61842329  0.35454074  1
  H  H6  1  0.55382088  0.03430326  0.36797191  1
  H  H7  1  0.61946838  0.27706765  0.35313866  1
  H  H8  1  0.37696252  0.73320330  0.34324386  1
  H  H9  1  0.30198580  0.86614049  0.45989366  1
  H  H10  1  0.73320330  0.37696252  0.84324386  1
  H  H11  1  0.86614049  0.30198580  0.95989366  1
  H  H12  1  0.27706765  0.61946838  0.85313866  1
  H  H13  1  0.03430326  0.55382088  0.86797191  1
  H  H14  1  0.37842161  0.26308384  0.84248337  1
  H  H15  1  0.30269563  0.13317421  0.95950789  1
  H  H16  1  0.61842329  0.71961810  0.85454074  1
  H  H17  1  0.55833395  0.96475090  0.86852147  1
  H  H18  1  0.73544841  0.62456732  0.65650588  1
  H  H19  1  0.86647190  0.69727722  0.53959500  1
  H  H20  1  0.03458692  0.44091863  0.63116811  1
  H  H21  1  0.27928077  0.38201708  0.64447266  1
  H  H22  1  0.44505093  0.96782813  0.63005895  1
  H  H23  1  0.38141163  0.72389355  0.64510883  1
  H  H24  1  0.61689220  0.27699742  0.64600219  1
  H  H25  1  0.69943572  0.13157646  0.53575360  1
  H  H26  1  0.27699742  0.61689220  0.14600219  1
  H  H27  1  0.13157646  0.69943572  0.03575360  1
  H  H28  1  0.96782813  0.44505093  0.13005895  1
  H  H29  1  0.72389355  0.38141163  0.14510883  1
  H  H30  1  0.62456732  0.73544841  0.15650588  1
  H  H31  1  0.69727722  0.86647190  0.03959500  1
  H  H32  1  0.38201708  0.27928077  0.14447266  1
  H  H33  1  0.44091863  0.03458692  0.13116811  1
  O  O34  1  0.49568723  0.50058732  0.31624241  1
  O  O35  1  0.50058732  0.49568723  0.81624241  1
  O  O36  1  0.50094144  0.50354594  0.67929298  1
  O  O37  1  0.50354594  0.50094144  0.17929298  1
  O  O38  1  0.11892491  0.32146917  0.36875344  1
  O  O39  1  0.86444168  0.68312843  0.37758936  1
  O  O40  1  0.68113367  0.13021893  0.37560909  1
  O  O41  1  0.31625176  0.87740915  0.36838080  1
  O  O42  1  0.87740915  0.31625176  0.86838080  1
  O  O43  1  0.13021893  0.68113367  0.87560909  1
  O  O44  1  0.32146917  0.11892491  0.86875344  1
  O  O45  1  0.68312843  0.86444168  0.87758936  1
  O  O46  1  0.88001622  0.68121664  0.63063584  1
  O  O47  1  0.13472485  0.31656357  0.62211865  1
  O  O48  1  0.31940989  0.87047635  0.62129599  1
  O  O49  1  0.68106267  0.13095322  0.62700778  1
  O  O50  1  0.13095322  0.68106267  0.12700778  1
  O  O51  1  0.87047635  0.31940989  0.12129599  1
  O  O52  1  0.68121664  0.88001622  0.13063584  1
  O  O53  1  0.31656357  0.13472485  0.12211865  1
