# generated using pymatgen
data_La2GeI2
_symmetry_space_group_name_H-M   'P 1'
_cell_length_a   11.21547848
_cell_length_b   11.21547840
_cell_length_c   11.21547806
_cell_angle_alpha   23.13492970
_cell_angle_beta   23.13493073
_cell_angle_gamma   23.13493116
_symmetry_Int_Tables_number   1
_chemical_formula_structural   La2GeI2
_chemical_formula_sum   'La2 Ge1 I2'
_cell_volume   191.16183400
_cell_formula_units_Z   1
loop_
 _symmetry_equiv_pos_site_id
 _symmetry_equiv_pos_as_xyz
  1  'x, y, z'
loop_
 _atom_site_type_symbol
 _atom_site_label
 _atom_site_symmetry_multiplicity
 _atom_site_fract_x
 _atom_site_fract_y
 _atom_site_fract_z
 _atom_site_occupancy
  La  La0  1  0.61499187  0.61499187  0.61499187  1
  La  La1  1  0.38500813  0.38500813  0.38500813  1
  Ge  Ge2  1  0.00000000  0.00000000  0.00000000  1
  I  I3  1  0.78144227  0.78144227  0.78144227  1
  I  I4  1  0.21855773  0.21855773  0.21855773  1
