# generated using pymatgen
data_In3Ir
_symmetry_space_group_name_H-M   'P 1'
_cell_length_a   5.47108863
_cell_length_b   7.57001664
_cell_length_c   8.37780554
_cell_angle_alpha   90.00000000
_cell_angle_beta   90.00000000
_cell_angle_gamma   90.00000000
_symmetry_Int_Tables_number   1
_chemical_formula_structural   In3Ir
_chemical_formula_sum   'In12 Ir4'
_cell_volume   346.97713763
_cell_formula_units_Z   4
loop_
 _symmetry_equiv_pos_site_id
 _symmetry_equiv_pos_as_xyz
  1  'x, y, z'
loop_
 _atom_site_type_symbol
 _atom_site_label
 _atom_site_symmetry_multiplicity
 _atom_site_fract_x
 _atom_site_fract_y
 _atom_site_fract_z
 _atom_site_occupancy
  In  In0  1  0.63668367  0.32940239  0.55594252  1
  In  In1  1  0.09522660  0.47972761  0.75000000  1
  In  In2  1  0.86331633  0.82940239  0.94405748  1
  In  In3  1  0.90477340  0.52027239  0.25000000  1
  In  In4  1  0.13668367  0.17059761  0.05594252  1
  In  In5  1  0.40477340  0.97972761  0.75000000  1
  In  In6  1  0.36331633  0.67059761  0.44405748  1
  In  In7  1  0.59522660  0.02027239  0.25000000  1
  In  In8  1  0.86331633  0.82940239  0.55594252  1
  In  In9  1  0.63668367  0.32940239  0.94405748  1
  In  In10  1  0.13668367  0.17059761  0.44405748  1
  In  In11  1  0.36331633  0.67059761  0.05594252  1
  Ir  Ir12  1  0.44038727  0.37326084  0.25000000  1
  Ir  Ir13  1  0.55961273  0.62673916  0.75000000  1
  Ir  Ir14  1  0.94038727  0.12673916  0.75000000  1
  Ir  Ir15  1  0.05961273  0.87326084  0.25000000  1
