# generated using pymatgen
data_Mn5V2Pb3O16
_symmetry_space_group_name_H-M   'P 1'
_cell_length_a   5.84865957
_cell_length_b   5.84865942
_cell_length_c   11.44968488
_cell_angle_alpha   90.00000000
_cell_angle_beta   90.00000000
_cell_angle_gamma   120.00000090
_symmetry_Int_Tables_number   1
_chemical_formula_structural   Mn5V2Pb3O16
_chemical_formula_sum   'Mn5 V2 Pb3 O16'
_cell_volume   339.18515581
_cell_formula_units_Z   1
loop_
 _symmetry_equiv_pos_site_id
 _symmetry_equiv_pos_as_xyz
  1  'x, y, z'
loop_
 _atom_site_type_symbol
 _atom_site_label
 _atom_site_symmetry_multiplicity
 _atom_site_fract_x
 _atom_site_fract_y
 _atom_site_fract_z
 _atom_site_occupancy
  Mn  Mn0  1  0.00000000  0.50000000  0.50000000  1
  Mn  Mn1  1  0.00000000  0.00000000  0.31021517  1
  Mn  Mn2  1  0.00000000  0.00000000  0.68978483  1
  Mn  Mn3  1  0.50000000  0.50000000  0.50000000  1
  Mn  Mn4  1  0.50000000  0.00000000  0.50000000  1
  V  V5  1  0.33333300  0.66666700  0.85938806  1
  V  V6  1  0.66666700  0.33333300  0.14061194  1
  Pb  Pb7  1  0.33333300  0.66666700  0.23525565  1
  Pb  Pb8  1  0.66666700  0.33333300  0.76474435  1
  Pb  Pb9  1  0.00000000  0.00000000  0.00000000  1
  O  O10  1  0.17790336  0.35580673  0.40574949  1
  O  O11  1  0.66666700  0.33333300  0.99305508  1
  O  O12  1  0.16549726  0.83450274  0.81516391  1
  O  O13  1  0.35580673  0.17790336  0.59425051  1
  O  O14  1  0.33333300  0.66666700  0.58482848  1
  O  O15  1  0.16549726  0.33099452  0.81516391  1
  O  O16  1  0.82209664  0.64419327  0.59425051  1
  O  O17  1  0.64419327  0.82209664  0.40574949  1
  O  O18  1  0.82209664  0.17790336  0.59425051  1
  O  O19  1  0.33333300  0.66666700  0.00694492  1
  O  O20  1  0.33099452  0.16549726  0.18483609  1
  O  O21  1  0.17790336  0.82209664  0.40574949  1
  O  O22  1  0.83450274  0.16549726  0.18483609  1
  O  O23  1  0.83450274  0.66900548  0.18483609  1
  O  O24  1  0.66900548  0.83450274  0.81516391  1
  O  O25  1  0.66666700  0.33333300  0.41517152  1
