# generated using pymatgen
data_Cu(NO3)2
_symmetry_space_group_name_H-M   'P 1'
_cell_length_a   5.13316500
_cell_length_b   8.35759157
_cell_length_c   11.29452347
_cell_angle_alpha   89.99791780
_cell_angle_beta   89.99934952
_cell_angle_gamma   89.99018451
_symmetry_Int_Tables_number   1
_chemical_formula_structural   Cu(NO3)2
_chemical_formula_sum   'Cu4 N8 O24'
_cell_volume   484.54517540
_cell_formula_units_Z   4
loop_
 _symmetry_equiv_pos_site_id
 _symmetry_equiv_pos_as_xyz
  1  'x, y, z'
loop_
 _atom_site_type_symbol
 _atom_site_label
 _atom_site_symmetry_multiplicity
 _atom_site_fract_x
 _atom_site_fract_y
 _atom_site_fract_z
 _atom_site_occupancy
  Cu  Cu0  1  0.76724476  0.24626487  0.74872461  1
  Cu  Cu1  1  0.76702840  0.24631424  0.25128178  1
  Cu  Cu2  1  0.23281525  0.74625187  0.75128452  1
  Cu  Cu3  1  0.23291378  0.74629106  0.24869422  1
  N  N4  1  0.77888012  0.29068458  0.50001215  1
  N  N5  1  0.22106250  0.79065911  0.99998469  1
  N  N6  1  0.22495984  0.41299692  0.78607607  1
  N  N7  1  0.23226384  0.71697941  0.49999584  1
  N  N8  1  0.22495100  0.41298284  0.21392287  1
  N  N9  1  0.77499789  0.91299186  0.71392359  1
  N  N10  1  0.76778968  0.21695566  0.00001002  1
  N  N11  1  0.77501221  0.91301124  0.28607524  1
  O  O12  1  0.16099180  0.64481358  0.40443542  1
  O  O13  1  0.98000903  0.44459494  0.21733746  1
  O  O14  1  0.98000120  0.44458325  0.78266353  1
  O  O15  1  0.67012827  0.34246357  0.59536383  1
  O  O16  1  0.64593569  0.34335553  0.99998938  1
  O  O17  1  0.01998563  0.94460702  0.28266308  1
  O  O18  1  0.67006012  0.34250799  0.40468663  1
  O  O19  1  0.38293064  0.52940998  0.79931847  1
  O  O20  1  0.61697313  0.02945600  0.29932567  1
  O  O21  1  0.61700792  0.02947368  0.70068675  1
  O  O22  1  0.38293606  0.52939445  0.20067116  1
  O  O23  1  0.83907320  0.14479075  0.90447584  1
  O  O24  1  0.01998316  0.94457994  0.71733347  1
  O  O25  1  0.35402070  0.84328759  0.50000089  1
  O  O26  1  0.16096276  0.64479797  0.59555168  1
  O  O27  1  0.96812696  0.20050034  0.49999670  1
  O  O28  1  0.32987825  0.84246183  0.90461817  1
  O  O29  1  0.83903295  0.14482575  0.09556917  1
  O  O30  1  0.30545982  0.27352483  0.22346777  1
  O  O31  1  0.03199928  0.70055806  0.00000080  1
  O  O32  1  0.30547683  0.27353739  0.77653347  1
  O  O33  1  0.32991064  0.84249463  0.09533279  1
  O  O34  1  0.69460231  0.77360311  0.27653318  1
  O  O35  1  0.69459440  0.77359417  0.72345907  1
