# generated using pymatgen
data_U4Ga12Fe
_symmetry_space_group_name_H-M   'P 1'
_cell_length_a   7.41387850
_cell_length_b   7.41144053
_cell_length_c   7.41416611
_cell_angle_alpha   109.46985132
_cell_angle_beta   109.48108749
_cell_angle_gamma   109.46964523
_symmetry_Int_Tables_number   1
_chemical_formula_structural   U4Ga12Fe
_chemical_formula_sum   'U4 Ga12 Fe1'
_cell_volume   313.58219989
_cell_formula_units_Z   1
loop_
 _symmetry_equiv_pos_site_id
 _symmetry_equiv_pos_as_xyz
  1  'x, y, z'
loop_
 _atom_site_type_symbol
 _atom_site_label
 _atom_site_symmetry_multiplicity
 _atom_site_fract_x
 _atom_site_fract_y
 _atom_site_fract_z
 _atom_site_occupancy
  U  U0  1  0.99999115  0.00000179  0.50001325  1
  U  U1  1  0.99996275  0.50003115  0.99993895  1
  U  U2  1  0.50001214  0.49999411  0.49996947  1
  U  U3  1  0.49999165  0.00002085  0.00003089  1
  Ga  Ga4  1  0.74997743  0.24982492  0.49987240  1
  Ga  Ga5  1  -0.00009043  0.28401530  0.28405755  1
  Ga  Ga6  1  0.00011540  0.71596552  0.71588365  1
  Ga  Ga7  1  0.71599075  0.00010316  0.71596216  1
  Ga  Ga8  1  0.25007345  0.50007057  0.74999160  1
  Ga  Ga9  1  0.28407647  0.99991952  0.28411583  1
  Ga  Ga10  1  0.50008240  0.75014872  0.25004436  1
  Ga  Ga11  1  0.24999837  0.75015803  0.50006014  1
  Ga  Ga12  1  0.49988436  0.24987295  0.74999127  1
  Ga  Ga13  1  0.28404255  0.28400371  -0.00008420  1
  Ga  Ga14  1  0.75003196  0.49995889  0.25000873  1
  Ga  Ga15  1  0.71587058  0.71597163  0.00011862  1
  Fe  Fe16  1  0.99998901  0.99993916  0.00002532  1
