# generated using pymatgen
data_Dy2(GePt3)3
_symmetry_space_group_name_H-M   'P 1'
_cell_length_a   7.81243393
_cell_length_b   7.81243464
_cell_length_c   10.10124824
_cell_angle_alpha   90.34627309
_cell_angle_beta   112.50049241
_cell_angle_gamma   119.82661904
_symmetry_Int_Tables_number   1
_chemical_formula_structural   Dy2(GePt3)3
_chemical_formula_sum   'Dy4 Ge6 Pt18'
_cell_volume   479.07527788
_cell_formula_units_Z   2
loop_
 _symmetry_equiv_pos_site_id
 _symmetry_equiv_pos_as_xyz
  1  'x, y, z'
loop_
 _atom_site_type_symbol
 _atom_site_label
 _atom_site_symmetry_multiplicity
 _atom_site_fract_x
 _atom_site_fract_y
 _atom_site_fract_z
 _atom_site_occupancy
  Dy  Dy0  1  0.49571018  0.58423215  0.25075600  1
  Dy  Dy1  1  0.83347615  0.24495418  0.24924400  1
  Dy  Dy2  1  0.50428982  0.41576785  0.74924400  1
  Dy  Dy3  1  0.16652385  0.75504582  0.75075600  1
  Ge  Ge4  1  0.32130099  0.64068447  0.50227830  1
  Ge  Ge5  1  0.63840617  0.81902269  0.99772170  1
  Ge  Ge6  1  0.36159383  0.18097731  0.00227830  1
  Ge  Ge7  1  0.67869901  0.35931553  0.49772170  1
  Ge  Ge8  1  0.00000000  0.50000000  0.00000000  1
  Ge  Ge9  1  0.00000000  0.00000000  0.50000000  1
  Pt  Pt10  1  0.62667213  0.97901058  0.42952903  1
  Pt  Pt11  1  0.38513822  0.85953940  0.07865709  1
  Pt  Pt12  1  0.71773736  0.52230934  0.07770797  1
  Pt  Pt13  1  0.94460137  0.64002940  0.42229203  1
  Pt  Pt14  1  0.28088231  0.30648113  0.42134291  1
  Pt  Pt15  1  0.17231642  0.70425514  0.25688650  1
  Pt  Pt16  1  0.94736864  0.91542992  0.24311350  1
  Pt  Pt17  1  0.37332787  0.02098942  0.57047097  1
  Pt  Pt18  1  0.05539863  0.35997060  0.57770797  1
  Pt  Pt19  1  0.61683473  0.86683473  0.75000000  1
  Pt  Pt20  1  0.04948155  0.19714310  0.07047097  1
  Pt  Pt21  1  0.05263136  0.08457008  0.75688650  1
  Pt  Pt22  1  0.28226264  0.47769066  0.92229203  1
  Pt  Pt23  1  0.38316527  0.13316527  0.25000000  1
  Pt  Pt24  1  0.61486178  0.14046060  0.92134291  1
  Pt  Pt25  1  0.82768358  0.29574486  0.74311350  1
  Pt  Pt26  1  0.95051845  0.80285690  0.92952903  1
  Pt  Pt27  1  0.71911769  0.69351887  0.57865709  1
