# generated using pymatgen
data_U2Tl2Mo3O16
_symmetry_space_group_name_H-M   'P 1'
_cell_length_a   8.41481583
_cell_length_b   9.87165636
_cell_length_c   20.40551528
_cell_angle_alpha   90.00010966
_cell_angle_beta   89.99994383
_cell_angle_gamma   90.00011005
_symmetry_Int_Tables_number   1
_chemical_formula_structural   U2Tl2Mo3O16
_chemical_formula_sum   'U8 Tl8 Mo12 O64'
_cell_volume   1695.04881643
_cell_formula_units_Z   4
loop_
 _symmetry_equiv_pos_site_id
 _symmetry_equiv_pos_as_xyz
  1  'x, y, z'
loop_
 _atom_site_type_symbol
 _atom_site_label
 _atom_site_symmetry_multiplicity
 _atom_site_fract_x
 _atom_site_fract_y
 _atom_site_fract_z
 _atom_site_occupancy
  U  U0  1  0.32588436  0.67513915  0.02371742  1
  U  U1  1  0.82588160  0.17514087  0.47628135  1
  U  U2  1  0.71117094  0.59451930  0.28307693  1
  U  U3  1  0.78883551  0.59451834  0.78307910  1
  U  U4  1  0.67411596  0.17513873  0.97628180  1
  U  U5  1  0.28883340  0.09452395  0.71692336  1
  U  U6  1  0.17411794  0.67513882  0.52371860  1
  U  U7  1  0.21116839  0.09451991  0.21692050  1
  Tl  Tl8  1  0.01875294  0.89201953  0.89402754  1
  Tl  Tl9  1  0.18909403  0.44005623  0.35316524  1
  Tl  Tl10  1  0.68909504  0.94005598  0.14683451  1
  Tl  Tl11  1  0.48124757  0.89202021  0.39402727  1
  Tl  Tl12  1  0.81090526  0.94005684  0.64683499  1
  Tl  Tl13  1  0.51875350  0.39201980  0.60597256  1
  Tl  Tl14  1  0.98124698  0.39202003  0.10597258  1
  Tl  Tl15  1  0.31090472  0.44005738  0.85316481  1
  Mo  Mo16  1  0.26087795  0.06187788  0.53032570  1
  Mo  Mo17  1  0.51159885  0.37475484  0.13447215  1
  Mo  Mo18  1  0.76087896  0.56187772  0.96967499  1
  Mo  Mo19  1  0.42934667  0.73319137  0.69012214  1
  Mo  Mo20  1  0.01159874  0.87475403  0.36552794  1
  Mo  Mo21  1  0.98840054  0.37475433  0.63447205  1
  Mo  Mo22  1  0.23912081  0.06187763  0.03032517  1
  Mo  Mo23  1  0.92934832  0.23319164  0.80987806  1
  Mo  Mo24  1  0.48839955  0.87475424  0.86552749  1
  Mo  Mo25  1  0.57065312  0.23319167  0.30987756  1
  Mo  Mo26  1  0.73912075  0.56187746  0.46967450  1
  Mo  Mo27  1  0.07065362  0.73319208  0.19012208  1
  O  O28  1  0.54687619  0.57702664  0.96664937  1
  O  O29  1  0.37038100  0.98162886  0.81445560  1
  O  O30  1  0.67178638  0.16888834  0.38220481  1
  O  O31  1  0.02107306  0.76899390  0.56702128  1
  O  O32  1  0.62260800  0.77777187  0.81575153  1
  O  O33  1  0.32069755  0.68546351  0.75939870  1
  O  O34  1  0.82973779  0.65012155  0.03785618  1
  O  O35  1  0.62961922  0.48162834  0.18554410  1
  O  O36  1  0.37739160  0.27777267  0.18424829  1
  O  O37  1  0.34473462  0.13509263  0.60542289  1
  O  O38  1  0.37688085  0.15363374  0.30680141  1
  O  O39  1  0.64343885  0.27121155  0.08631281  1
  O  O40  1  0.36864930  0.97405281  0.19605955  1
  O  O41  1  0.87688161  0.65363378  0.19319792  1
  O  O42  1  0.03820922  0.91613279  0.18703379  1
  O  O43  1  0.39249995  0.47387703  0.07955851  1
  O  O44  1  0.86865003  0.47405240  0.30394010  1
  O  O45  1  0.95312356  0.57702642  0.46664921  1
  O  O46  1  0.82453410  0.07474642  0.01890874  1
  O  O47  1  0.68339785  0.38434924  0.48130310  1
  O  O48  1  0.47892748  0.76899402  0.06702135  1
  O  O49  1  0.06294033  0.22299017  0.23516954  1
  O  O50  1  0.45312293  0.07702651  0.03335019  1
  O  O51  1  0.82821279  0.16888769  0.88220544  1
  O  O52  1  0.18339710  0.88434927  0.01869675  1
  O  O53  1  0.67546849  0.07474820  0.51890804  1
  O  O54  1  0.17546806  0.57474794  0.98109224  1
  O  O55  1  0.82069874  0.18546405  0.74060162  1
  O  O56  1  0.13135018  0.97405242  0.69605963  1
  O  O57  1  0.31660278  0.88434871  0.51869703  1
  O  O58  1  0.97892506  0.26899274  0.43297882  1
  O  O59  1  0.32973763  0.15012100  0.46214437  1
  O  O60  1  0.67930235  0.18546343  0.24060081  1
  O  O61  1  0.35656134  0.77121113  0.91368738  1
  O  O62  1  0.17026228  0.15012224  0.96214358  1
  O  O63  1  0.17178709  0.66888799  0.11779512  1
  O  O64  1  0.32821299  0.66888826  0.61779470  1
  O  O65  1  0.62311826  0.65363413  0.69319821  1
  O  O66  1  0.12260824  0.27777258  0.68424846  1
  O  O67  1  0.15526358  0.13509304  0.10542191  1
  O  O68  1  0.89249973  0.97387657  0.42044163  1
  O  O69  1  0.96179100  0.41613318  0.81296634  1
  O  O70  1  0.43705846  0.22298926  0.73516985  1
  O  O71  1  0.93705751  0.72298861  0.76483031  1
  O  O72  1  0.32452976  0.57474930  0.48109243  1
  O  O73  1  0.04687705  0.07702603  0.53335082  1
  O  O74  1  0.52107556  0.26899209  0.93297955  1
  O  O75  1  0.46178885  0.91613346  0.68703389  1
  O  O76  1  0.84473547  0.63509248  0.89457734  1
  O  O77  1  0.12311900  0.15363451  0.80680196  1
  O  O78  1  0.12961907  0.98162846  0.31445596  1
  O  O79  1  0.81660161  0.38434880  0.98130321  1
  O  O80  1  0.60749998  0.97387633  0.92044137  1
  O  O81  1  0.87739205  0.77777189  0.31575173  1
  O  O82  1  0.65526514  0.63509189  0.39457768  1
  O  O83  1  0.85656105  0.27121096  0.58631256  1
  O  O84  1  0.14343921  0.77121156  0.41368746  1
  O  O85  1  0.56294183  0.72298933  0.26482976  1
  O  O86  1  0.87038103  0.48162862  0.68554435  1
  O  O87  1  0.17930159  0.68546402  0.25939835  1
  O  O88  1  0.63134893  0.47405170  0.80394083  1
  O  O89  1  0.67026198  0.65012265  0.53785656  1
  O  O90  1  0.10750022  0.47387655  0.57955850  1
  O  O91  1  0.53820949  0.41613179  0.31296612  1
