# generated using pymatgen
data_Li9Mn2Co5O16
_symmetry_space_group_name_H-M   'P 1'
_cell_length_a   2.97999793
_cell_length_b   10.72831987
_cell_length_c   10.02132145
_cell_angle_alpha   114.74386646
_cell_angle_beta   88.62335517
_cell_angle_gamma   83.80032680
_symmetry_Int_Tables_number   1
_chemical_formula_structural   Li9Mn2Co5O16
_chemical_formula_sum   'Li9 Mn2 Co5 O16'
_cell_volume   288.41688924
_cell_formula_units_Z   1
loop_
 _symmetry_equiv_pos_site_id
 _symmetry_equiv_pos_as_xyz
  1  'x, y, z'
loop_
 _atom_site_type_symbol
 _atom_site_label
 _atom_site_symmetry_multiplicity
 _atom_site_fract_x
 _atom_site_fract_y
 _atom_site_fract_z
 _atom_site_occupancy
  Li  Li0  1  0.86584778  0.26107345  0.94674715  1
  Li  Li1  1  0.13412952  0.74659679  0.05880824  1
  Li  Li2  1  0.35665974  0.25788416  0.18369143  1
  Li  Li3  1  0.37558112  0.25287871  0.68982670  1
  Li  Li4  1  0.62994044  0.74697417  0.81095357  1
  Li  Li5  1  0.88611118  0.24551935  0.43768351  1
  Li  Li6  1  0.12888152  0.74968090  0.56513058  1
  Li  Li7  1  0.61710497  0.74568174  0.30603389  1
  Li  Li8  1  0.26795150  0.49040230  0.12230977  1
  Mn  Mn9  1  0.99822858  0.00114427  0.00008426  1
  Mn  Mn10  1  0.74172974  0.49991537  0.36990975  1
  Co  Co11  1  0.50293396  0.99868327  0.25117284  1
  Co  Co12  1  0.00150502  0.99909208  0.50015850  1
  Co  Co13  1  0.23756310  0.50302449  0.62792440  1
  Co  Co14  1  0.49709535  0.00102802  0.74830651  1
  Co  Co15  1  0.75816500  0.50069578  0.88425326  1
  O  O16  1  0.39765361  0.11829941  0.95907227  1
  O  O17  1  0.69434120  0.61497563  0.06951393  1
  O  O18  1  0.95545325  0.11291561  0.21403169  1
  O  O19  1  0.95006696  0.11461261  0.70893458  1
  O  O20  1  0.17058678  0.61050595  0.83428327  1
  O  O21  1  0.45130715  0.11655546  0.46233532  1
  O  O22  1  0.65231542  0.61296859  0.58855443  1
  O  O23  1  0.20176202  0.60920452  0.34854621  1
  O  O24  1  0.35064107  0.38536165  0.90049631  1
  O  O25  1  0.59968310  0.88311115  0.03959671  1
  O  O26  1  0.81072854  0.38177900  0.17391431  1
  O  O27  1  0.83337249  0.39249931  0.66879175  1
  O  O28  1  0.04373420  0.88575064  0.78750897  1
  O  O29  1  0.27961607  0.39556083  0.41479060  1
  O  O30  1  0.55126557  0.88379595  0.53732823  1
  O  O31  1  0.05804405  0.88182882  0.28930711  1
