# generated using pymatgen
data_LiDy(PO3)4
_symmetry_space_group_name_H-M   'P 1'
_cell_length_a   7.13198666
_cell_length_b   8.97875992
_cell_length_c   8.96468117
_cell_angle_alpha   65.50639907
_cell_angle_beta   66.56037493
_cell_angle_gamma   66.59932021
_symmetry_Int_Tables_number   1
_chemical_formula_structural   LiDy(PO3)4
_chemical_formula_sum   'Li2 Dy2 P8 O24'
_cell_volume   460.37952690
_cell_formula_units_Z   2
loop_
 _symmetry_equiv_pos_site_id
 _symmetry_equiv_pos_as_xyz
  1  'x, y, z'
loop_
 _atom_site_type_symbol
 _atom_site_label
 _atom_site_symmetry_multiplicity
 _atom_site_fract_x
 _atom_site_fract_y
 _atom_site_fract_z
 _atom_site_occupancy
  Li  Li0  1  0.20681522  0.75000000  0.25000000  1
  Li  Li1  1  0.79318478  0.25000000  0.75000000  1
  O  O2  1  0.25873855  0.52315614  0.72614115  1
  O  O3  1  0.50803584  0.97684386  0.77385885  1
  O  O4  1  0.74126145  0.47684386  0.27385885  1
  O  O5  1  0.49196416  0.02315614  0.22614115  1
  O  O6  1  0.34576490  0.72701571  0.41688606  1
  O  O7  1  0.48966667  0.77298429  0.08311394  1
  O  O8  1  0.65423510  0.27298429  0.58311394  1
  O  O9  1  0.51033333  0.22701571  0.91688606  1
  O  O10  1  0.10023738  0.18427590  0.03854820  1
  O  O11  1  0.32306148  0.31572410  0.46145180  1
  O  O12  1  0.89976262  0.81572410  0.96145180  1
  O  O13  1  0.67693852  0.68427590  0.53854820  1
  O  O14  1  0.93779445  0.92894994  0.20441915  1
  O  O15  1  0.07116353  0.57105006  0.29558085  1
  O  O16  1  0.06220555  0.07105006  0.79558085  1
  O  O17  1  0.92883647  0.42894994  0.70441915  1
  O  O18  1  0.83376157  0.15311627  0.33758530  1
  O  O19  1  0.32446314  0.34688373  0.16241470  1
  O  O20  1  0.16623843  0.84688373  0.66241470  1
  O  O21  1  0.67553686  0.65311627  0.83758530  1
  O  O22  1  0.71736658  0.23238833  0.07834234  1
  O  O23  1  0.02809725  0.26761167  0.42165766  1
  O  O24  1  0.28263342  0.76761167  0.92165766  1
  O  O25  1  0.97190275  0.73238833  0.57834234  1
  P  P26  1  0.20484696  0.69339373  0.59716374  1
  P  P27  1  0.49540443  0.80660627  0.90283626  1
  P  P28  1  0.79515304  0.30660627  0.40283626  1
  P  P29  1  0.50459557  0.19339373  0.09716374  1
  P  P30  1  0.81186316  0.61633829  0.65766181  1
  P  P31  1  0.08586326  0.88366171  0.84233819  1
  P  P32  1  0.18813684  0.38366171  0.34233819  1
  P  P33  1  0.91413674  0.11633829  0.15766181  1
  Dy  Dy34  1  0.70394212  0.75000000  0.25000000  1
  Dy  Dy35  1  0.29605788  0.25000000  0.75000000  1
