# generated using pymatgen
data_ZrP2(HO3)2
_symmetry_space_group_name_H-M   'P 1'
_cell_length_a   5.51704959
_cell_length_b   5.51714069
_cell_length_c   5.62376643
_cell_angle_alpha   89.99989374
_cell_angle_beta   90.00222994
_cell_angle_gamma   120.00100093
_symmetry_Int_Tables_number   1
_chemical_formula_structural   ZrP2(HO3)2
_chemical_formula_sum   'Zr1 P2 H2 O6'
_cell_volume   148.24309456
_cell_formula_units_Z   1
loop_
 _symmetry_equiv_pos_site_id
 _symmetry_equiv_pos_as_xyz
  1  'x, y, z'
loop_
 _atom_site_type_symbol
 _atom_site_label
 _atom_site_symmetry_multiplicity
 _atom_site_fract_x
 _atom_site_fract_y
 _atom_site_fract_z
 _atom_site_occupancy
  Zr  Zr0  1  0.00000000  0.00000000  0.00000000  1
  P  P1  1  0.66662558  0.33331276  0.70827698  1
  P  P2  1  0.33337442  0.66668724  0.29172302  1
  H  H3  1  0.66660755  0.33330376  0.45858584  1
  H  H4  1  0.33339245  0.66669624  0.54141416  1
  O  O5  1  0.35988109  0.16314599  0.78677517  1
  O  O6  1  0.80325651  0.64012151  0.78676855  1
  O  O7  1  0.83684714  0.19672454  0.78676856  1
  O  O8  1  0.64011891  0.83685401  0.21322483  1
  O  O9  1  0.19674349  0.35987849  0.21323145  1
  O  O10  1  0.16315286  0.80327546  0.21323144  1
