# generated using pymatgen
data_Dy3BWO9
_symmetry_space_group_name_H-M   'P 1'
_cell_length_a   8.57578102
_cell_length_b   8.57578138
_cell_length_c   5.39747926
_cell_angle_alpha   90.00000000
_cell_angle_beta   90.00000000
_cell_angle_gamma   119.99999862
_symmetry_Int_Tables_number   1
_chemical_formula_structural   Dy3BWO9
_chemical_formula_sum   'Dy6 B2 W2 O18'
_cell_volume   343.77081517
_cell_formula_units_Z   2
loop_
 _symmetry_equiv_pos_site_id
 _symmetry_equiv_pos_as_xyz
  1  'x, y, z'
loop_
 _atom_site_type_symbol
 _atom_site_label
 _atom_site_symmetry_multiplicity
 _atom_site_fract_x
 _atom_site_fract_y
 _atom_site_fract_z
 _atom_site_occupancy
  Dy  Dy0  1  0.27751099  0.35590535  0.69900950  1
  Dy  Dy1  1  0.72248901  0.64409465  0.19900950  1
  Dy  Dy2  1  0.35590535  0.07839435  0.19900950  1
  Dy  Dy3  1  0.64409465  0.92160565  0.69900950  1
  Dy  Dy4  1  0.92160565  0.27751099  0.19900950  1
  Dy  Dy5  1  0.07839435  0.72248901  0.69900950  1
  B  B6  1  0.00000000  0.00000000  0.87336902  1
  B  B7  1  0.00000000  0.00000000  0.37336902  1
  W  W8  1  0.66666700  0.33333300  0.74170872  1
  W  W9  1  0.33333300  0.66666700  0.24170872  1
  O  O10  1  0.53875325  0.74102499  0.03256329  1
  O  O11  1  0.46124675  0.25897501  0.53256329  1
  O  O12  1  0.25897501  0.79772826  0.03256329  1
  O  O13  1  0.05948337  0.87751271  0.36447573  1
  O  O14  1  0.94051663  0.12248729  0.86447573  1
  O  O15  1  0.20227174  0.46124675  0.03256329  1
  O  O16  1  0.51797968  0.38807128  0.97279222  1
  O  O17  1  0.79772826  0.53875325  0.53256329  1
  O  O18  1  0.81802935  0.94051663  0.36447573  1
  O  O19  1  0.74102499  0.20227174  0.53256329  1
  O  O20  1  0.12248729  0.18197065  0.36447573  1
  O  O21  1  0.87009160  0.48202032  0.97279222  1
  O  O22  1  0.61192872  0.12990840  0.97279222  1
  O  O23  1  0.48202032  0.61192872  0.47279222  1
  O  O24  1  0.12990840  0.51797968  0.47279222  1
  O  O25  1  0.18197065  0.05948337  0.86447573  1
  O  O26  1  0.87751271  0.81802935  0.86447573  1
  O  O27  1  0.38807128  0.87009160  0.47279222  1
