# generated using pymatgen
data_Sb8Pb5S17
_symmetry_space_group_name_H-M   'P 1'
_cell_length_a   9.10064484
_cell_length_b   9.10064511
_cell_length_c   20.48912006
_cell_angle_alpha   78.00217359
_cell_angle_beta   78.00217314
_cell_angle_gamma   82.23997057
_symmetry_Int_Tables_number   1
_chemical_formula_structural   Sb8Pb5S17
_chemical_formula_sum   'Sb16 Pb10 S34'
_cell_volume   1616.12391036
_cell_formula_units_Z   2
loop_
 _symmetry_equiv_pos_site_id
 _symmetry_equiv_pos_as_xyz
  1  'x, y, z'
loop_
 _atom_site_type_symbol
 _atom_site_label
 _atom_site_symmetry_multiplicity
 _atom_site_fract_x
 _atom_site_fract_y
 _atom_site_fract_z
 _atom_site_occupancy
  Sb  Sb0  1  0.81675236  0.20723330  0.97012518  1
  Sb  Sb1  1  0.91711393  0.53820399  0.58667768  1
  Sb  Sb2  1  0.79276670  0.18324764  0.52987482  1
  Sb  Sb3  1  0.07707987  0.82829366  0.66792928  1
  Sb  Sb4  1  0.48701684  0.52244348  0.59977243  1
  Sb  Sb5  1  0.47755652  0.51298316  0.90022757  1
  Sb  Sb6  1  0.18324764  0.79276670  0.02987482  1
  Sb  Sb7  1  0.08288607  0.46179601  0.41332232  1
  Sb  Sb8  1  0.52244348  0.48701684  0.09977243  1
  Sb  Sb9  1  0.51298316  0.47755652  0.40022757  1
  Sb  Sb10  1  0.46179601  0.08288607  0.91332232  1
  Sb  Sb11  1  0.53820399  0.91711393  0.08667768  1
  Sb  Sb12  1  0.92292013  0.17170634  0.33207072  1
  Sb  Sb13  1  0.20723330  0.81675236  0.47012518  1
  Sb  Sb14  1  0.17170634  0.92292013  0.83207072  1
  Sb  Sb15  1  0.82829366  0.07707987  0.16792928  1
  Pb  Pb16  1  0.17631612  0.82368388  0.25000000  1
  Pb  Pb17  1  0.84804609  0.67439915  0.95109854  1
  Pb  Pb18  1  0.82368388  0.17631612  0.75000000  1
  Pb  Pb19  1  0.67439915  0.84804609  0.45109854  1
  Pb  Pb20  1  0.39419181  0.13856684  0.32400237  1
  Pb  Pb21  1  0.86143316  0.60580819  0.17599763  1
  Pb  Pb22  1  0.15195391  0.32560085  0.04890146  1
  Pb  Pb23  1  0.13856684  0.39419181  0.82400237  1
  Pb  Pb24  1  0.32560085  0.15195391  0.54890146  1
  Pb  Pb25  1  0.60580819  0.86143316  0.67599763  1
  S  S26  1  0.89693860  0.84295753  0.05939598  1
  S  S27  1  0.68716006  0.53452596  0.67592924  1
  S  S28  1  0.86131873  0.84840137  0.25430302  1
  S  S29  1  0.02967975  0.74723156  0.39749428  1
  S  S30  1  0.44046961  0.81680104  0.56394082  1
  S  S31  1  0.44801708  0.91438862  0.83073614  1
  S  S32  1  0.46547404  0.31283994  0.82407076  1
  S  S33  1  0.18319896  0.55953039  0.93605918  1
  S  S34  1  0.84295753  0.89693860  0.55939598  1
  S  S35  1  0.84840137  0.86131873  0.75430302  1
  S  S36  1  0.15159863  0.13868127  0.24569698  1
  S  S37  1  0.55198292  0.08561138  0.16926386  1
  S  S38  1  0.57120885  0.19326863  0.62293546  1
  S  S39  1  0.30865961  0.47858891  0.50182343  1
  S  S40  1  0.69134039  0.52141109  0.49817657  1
  S  S41  1  0.08561138  0.55198292  0.66926386  1
  S  S42  1  0.80673137  0.42879115  0.87706454  1
  S  S43  1  0.52141109  0.69134039  0.99817657  1
  S  S44  1  0.25774884  0.74225116  0.75000000  1
  S  S45  1  0.47858891  0.30865961  0.00182343  1
  S  S46  1  0.53452596  0.68716006  0.17592924  1
  S  S47  1  0.55953039  0.18319896  0.43605918  1
  S  S48  1  0.10306140  0.15704247  0.94060402  1
  S  S49  1  0.15704247  0.10306140  0.44060402  1
  S  S50  1  0.19326863  0.57120885  0.12293546  1
  S  S51  1  0.31283994  0.46547404  0.32407076  1
  S  S52  1  0.74723156  0.02967975  0.89749428  1
  S  S53  1  0.97032025  0.25276844  0.60250572  1
  S  S54  1  0.25276844  0.97032025  0.10250572  1
  S  S55  1  0.81680104  0.44046961  0.06394082  1
  S  S56  1  0.42879115  0.80673137  0.37706454  1
  S  S57  1  0.74225116  0.25774884  0.25000000  1
  S  S58  1  0.13868127  0.15159863  0.74569698  1
  S  S59  1  0.91438862  0.44801708  0.33073614  1
