# generated using pymatgen
data_ReO2F3
_symmetry_space_group_name_H-M   'P 1'
_cell_length_a   9.44710882
_cell_length_b   10.19722583
_cell_length_c   15.78043478
_cell_angle_alpha   90.00000000
_cell_angle_beta   95.24413572
_cell_angle_gamma   90.00000000
_symmetry_Int_Tables_number   1
_chemical_formula_structural   ReO2F3
_chemical_formula_sum   'Re16 O32 F48'
_cell_volume   1513.83406306
_cell_formula_units_Z   16
loop_
 _symmetry_equiv_pos_site_id
 _symmetry_equiv_pos_as_xyz
  1  'x, y, z'
loop_
 _atom_site_type_symbol
 _atom_site_label
 _atom_site_symmetry_multiplicity
 _atom_site_fract_x
 _atom_site_fract_y
 _atom_site_fract_z
 _atom_site_occupancy
  Re  Re0  1  0.24690784  0.16401595  0.04547073  1
  Re  Re1  1  0.44890498  0.82280550  0.74324315  1
  Re  Re2  1  0.05109502  0.32280550  0.25675685  1
  Re  Re3  1  0.95568804  0.18214576  0.75184895  1
  Re  Re4  1  0.19825512  0.16295096  0.54256393  1
  Re  Re5  1  0.55109502  0.17719450  0.25675685  1
  Re  Re6  1  0.45568804  0.31785424  0.75184895  1
  Re  Re7  1  0.69825512  0.33704904  0.54256393  1
  Re  Re8  1  0.25309216  0.66401595  0.95452927  1
  Re  Re9  1  0.04431196  0.81785424  0.24815105  1
  Re  Re10  1  0.74690784  0.33598405  0.04547073  1
  Re  Re11  1  0.94890498  0.67719450  0.74324315  1
  Re  Re12  1  0.54431196  0.68214576  0.24815105  1
  Re  Re13  1  0.75309216  0.83598405  0.95452927  1
  Re  Re14  1  0.80174488  0.83704904  0.45743607  1
  Re  Re15  1  0.30174488  0.66295096  0.45743607  1
  O  O16  1  0.88753671  0.78700035  0.02736414  1
  O  O17  1  0.03976535  0.59780005  0.67009212  1
  O  O18  1  0.57270297  0.37870427  0.46249542  1
  O  O19  1  0.64415217  0.73333099  0.16957895  1
  O  O20  1  0.58484721  0.40901553  0.80610662  1
  O  O21  1  0.80584970  0.73900855  0.68275114  1
  O  O22  1  0.08484721  0.09098447  0.80610662  1
  O  O23  1  0.53976535  0.90219995  0.67009212  1
  O  O24  1  0.34706445  0.18357086  0.48999046  1
  O  O25  1  0.91515279  0.90901553  0.19389338  1
  O  O26  1  0.38753671  0.71299965  0.02736414  1
  O  O27  1  0.15293555  0.68357086  0.51000954  1
  O  O28  1  0.14415217  0.76666901  0.16957895  1
  O  O29  1  0.11246329  0.21299965  0.97263586  1
  O  O30  1  0.63673851  0.90913730  0.01628011  1
  O  O31  1  0.19415030  0.26099145  0.31724886  1
  O  O32  1  0.85584783  0.23333099  0.83042105  1
  O  O33  1  0.92729703  0.87870427  0.53750458  1
  O  O34  1  0.35584783  0.26666901  0.83042105  1
  O  O35  1  0.86326149  0.40913730  0.98371989  1
  O  O36  1  0.69415030  0.23900855  0.31724886  1
  O  O37  1  0.65293555  0.81642914  0.51000954  1
  O  O38  1  0.13673851  0.59086270  0.01628011  1
  O  O39  1  0.36326149  0.09086270  0.98371989  1
  O  O40  1  0.46023465  0.09780005  0.32990788  1
  O  O41  1  0.41515279  0.59098447  0.19389338  1
  O  O42  1  0.30584970  0.76099145  0.68275114  1
  O  O43  1  0.07270297  0.12129573  0.46249542  1
  O  O44  1  0.61246329  0.28700035  0.97263586  1
  O  O45  1  0.42729703  0.62129573  0.53750458  1
  O  O46  1  0.84706445  0.31642914  0.48999046  1
  O  O47  1  0.96023465  0.40219995  0.32990788  1
  F  F48  1  0.33967696  0.45500458  0.70779427  1
  F  F49  1  0.76220074  0.00563123  0.41409742  1
  F  F50  1  0.86962977  0.76025984  0.85526536  1
  F  F51  1  0.66491831  0.48963717  0.08435499  1
  F  F52  1  0.83967696  0.04499542  0.70779427  1
  F  F53  1  0.18460600  0.70784870  0.33821456  1
  F  F54  1  0.11166664  0.62462832  0.84268626  1
  F  F55  1  0.94436833  0.16774335  0.24774102  1
  F  F56  1  0.81539400  0.29215130  0.66178544  1
  F  F57  1  0.13037023  0.23974016  0.14473464  1
  F  F58  1  0.34976296  0.84022281  0.44765556  1
  F  F59  1  0.13716428  0.46878969  0.21123710  1
  F  F60  1  0.16491831  0.01036283  0.08435499  1
  F  F61  1  0.95920212  0.85352887  0.36794413  1
  F  F62  1  0.23779926  0.99436877  0.58590258  1
  F  F63  1  0.54079788  0.35352887  0.63205587  1
  F  F64  1  0.55563167  0.66774335  0.75225898  1
  F  F65  1  0.36962977  0.73974016  0.85526536  1
  F  F66  1  0.16397664  0.82757124  0.93926580  1
  F  F67  1  0.05563167  0.83225665  0.75225898  1
  F  F68  1  0.06347091  0.33470735  0.74149794  1
  F  F69  1  0.56347091  0.16529265  0.74149794  1
  F  F70  1  0.16032304  0.95500458  0.29220573  1
  F  F71  1  0.83508169  0.98963717  0.91564501  1
  F  F72  1  0.88833336  0.37537168  0.15731374  1
  F  F73  1  0.73779926  0.50563123  0.58590258  1
  F  F74  1  0.61166664  0.87537168  0.84268626  1
  F  F75  1  0.15023704  0.34022281  0.55234444  1
  F  F76  1  0.38833336  0.12462832  0.15731374  1
  F  F77  1  0.36283572  0.96878969  0.78876290  1
  F  F78  1  0.26220074  0.49436877  0.41409742  1
  F  F79  1  0.66397664  0.67242876  0.93926580  1
  F  F80  1  0.33508169  0.51036283  0.91564501  1
  F  F81  1  0.68460600  0.79215130  0.33821456  1
  F  F82  1  0.65023704  0.15977719  0.55234444  1
  F  F83  1  0.84976296  0.65977719  0.44765556  1
  F  F84  1  0.66032304  0.54499542  0.29220573  1
  F  F85  1  0.43652909  0.83470735  0.25850206  1
  F  F86  1  0.45920212  0.64647113  0.36794413  1
  F  F87  1  0.63037023  0.26025984  0.14473464  1
  F  F88  1  0.04079788  0.14647113  0.63205587  1
  F  F89  1  0.93652909  0.66529265  0.25850206  1
  F  F90  1  0.44436833  0.33225665  0.24774102  1
  F  F91  1  0.86283572  0.53121031  0.78876290  1
  F  F92  1  0.63716428  0.03121031  0.21123710  1
  F  F93  1  0.83602336  0.17242876  0.06073420  1
  F  F94  1  0.33602336  0.32757124  0.06073420  1
  F  F95  1  0.31539400  0.20784870  0.66178544  1
