# generated using pymatgen
data_TbGa2Co3
_symmetry_space_group_name_H-M   'P 1'
_cell_length_a   8.98726923
_cell_length_b   8.98726933
_cell_length_c   3.82799515
_cell_angle_alpha   90.00000000
_cell_angle_beta   90.00000000
_cell_angle_gamma   119.93190694
_symmetry_Int_Tables_number   1
_chemical_formula_structural   TbGa2Co3
_chemical_formula_sum   'Tb3 Ga6 Co9'
_cell_volume   267.95082718
_cell_formula_units_Z   3
loop_
 _symmetry_equiv_pos_site_id
 _symmetry_equiv_pos_as_xyz
  1  'x, y, z'
loop_
 _atom_site_type_symbol
 _atom_site_label
 _atom_site_symmetry_multiplicity
 _atom_site_fract_x
 _atom_site_fract_y
 _atom_site_fract_z
 _atom_site_occupancy
  Tb  Tb0  1  0.66667107  0.33332860  0.50000000  1
  Tb  Tb1  1  0.33332860  0.66667107  0.50000000  1
  Tb  Tb2  1  0.00001448  0.00001448  0.00000000  1
  Ga  Ga3  1  0.68410130  0.68410130  0.50000000  1
  Ga  Ga4  1  0.31596017  -0.00000088  0.50000000  1
  Ga  Ga5  1  -0.00000088  0.31596017  0.50000000  1
  Ga  Ga6  1  0.31590540  0.31590540  0.50000000  1
  Ga  Ga7  1  0.68405169  0.00002156  0.50000000  1
  Ga  Ga8  1  0.00002156  0.68405169  0.50000000  1
  Co  Co9  1  0.81675404  0.18326165  0.00000000  1
  Co  Co10  1  0.81685108  0.63352490  0.00000000  1
  Co  Co11  1  0.36647959  0.18315902  0.00000000  1
  Co  Co12  1  0.18326165  0.81675404  0.00000000  1
  Co  Co13  1  0.63352490  0.81685108  0.00000000  1
  Co  Co14  1  0.18315902  0.36647959  0.00000000  1
  Co  Co15  1  0.50000190  0.50000190  0.00000000  1
  Co  Co16  1  0.50000528  0.00000913  0.00000000  1
  Co  Co17  1  0.00000913  0.50000528  0.00000000  1
