# generated using pymatgen
data_Li9Mn2Co5O16
_symmetry_space_group_name_H-M   'P 1'
_cell_length_a   2.94733651
_cell_length_b   10.23911194
_cell_length_c   10.18708788
_cell_angle_alpha   71.27519755
_cell_angle_beta   87.39581293
_cell_angle_gamma   91.37156856
_symmetry_Int_Tables_number   1
_chemical_formula_structural   Li9Mn2Co5O16
_chemical_formula_sum   'Li9 Mn2 Co5 O16'
_cell_volume   290.61346932
_cell_formula_units_Z   1
loop_
 _symmetry_equiv_pos_site_id
 _symmetry_equiv_pos_as_xyz
  1  'x, y, z'
loop_
 _atom_site_type_symbol
 _atom_site_label
 _atom_site_symmetry_multiplicity
 _atom_site_fract_x
 _atom_site_fract_y
 _atom_site_fract_z
 _atom_site_occupancy
  Li  Li0  1  0.00777934  0.25264544  0.75419932  1
  Li  Li1  1  0.51301238  0.74356631  0.50945694  1
  Li  Li2  1  0.99761689  0.25170922  0.24922208  1
  Li  Li3  1  0.49504299  0.25154223  0.49735705  1
  Li  Li4  1  0.99615110  0.75376252  0.24623378  1
  Li  Li5  1  0.48970262  0.25445964  0.00079119  1
  Li  Li6  1  0.50108381  0.74558940  0.00018960  1
  Li  Li7  1  0.00209473  0.73984092  0.74857078  1
  Li  Li8  1  0.48652076  0.50938852  0.74549860  1
  Mn  Mn9  1  0.99925678  0.00100510  -0.00051210  1
  Mn  Mn10  1  0.00668448  0.50088144  0.50487930  1
  Co  Co11  1  0.00044385  0.99926394  0.50023370  1
  Co  Co12  1  0.50996678  0.49693476  0.24915700  1
  Co  Co13  1  0.50185506  0.99688928  0.25179572  1
  Co  Co14  1  0.99477775  0.49811799  0.99213733  1
  Co  Co15  1  0.49858924  0.00301798  0.74854112  1
  O  O16  1  0.46127334  0.12279915  0.87694385  1
  O  O17  1  0.99574099  0.61690742  0.61026896  1
  O  O18  1  0.49035658  0.11461598  0.38169019  1
  O  O19  1  0.98530240  0.11585912  0.63123325  1
  O  O20  1  0.52926109  0.60449991  0.38106343  1
  O  O21  1  0.98865371  0.11230418  0.13041934  1
  O  O22  1  0.97209751  0.60602049  0.12447529  1
  O  O23  1  0.46442126  0.61595241  0.88743359  1
  O  O24  1  0.48386510  0.39068862  0.60865021  1
  O  O25  1  0.01166902  0.88554092  0.36723377  1
  O  O26  1  0.51814997  0.38834501  0.12453930  1
  O  O27  1  0.04084574  0.38825280  0.37288697  1
  O  O28  1  0.53663009  0.87852962  0.12277312  1
  O  O29  1  0.00041223  0.38676546  0.89414724  1
  O  O30  1  0.01031913  0.88890053  0.86986714  1
  O  O31  1  0.51042327  0.88540368  0.61862293  1
