# generated using pymatgen
data_ReNCl4O3
_symmetry_space_group_name_H-M   'P 1'
_cell_length_a   10.03835176
_cell_length_b   10.88547553
_cell_length_c   15.75966322
_cell_angle_alpha   90.00000000
_cell_angle_beta   94.73916091
_cell_angle_gamma   90.00000000
_symmetry_Int_Tables_number   1
_chemical_formula_structural   ReNCl4O3
_chemical_formula_sum   'Re8 N8 Cl32 O24'
_cell_volume   1716.20600260
_cell_formula_units_Z   8
loop_
 _symmetry_equiv_pos_site_id
 _symmetry_equiv_pos_as_xyz
  1  'x, y, z'
loop_
 _atom_site_type_symbol
 _atom_site_label
 _atom_site_symmetry_multiplicity
 _atom_site_fract_x
 _atom_site_fract_y
 _atom_site_fract_z
 _atom_site_occupancy
  Re  Re0  1  0.41507996  0.78029314  0.78396793  1
  Re  Re1  1  0.21061613  0.23355288  0.96962500  1
  Re  Re2  1  0.78938387  0.73355288  0.53037500  1
  Re  Re3  1  0.58492004  0.21970686  0.21603207  1
  Re  Re4  1  0.78938387  0.76644712  0.03037500  1
  Re  Re5  1  0.41507996  0.71970686  0.28396793  1
  Re  Re6  1  0.58492004  0.28029314  0.71603207  1
  Re  Re7  1  0.21061613  0.26644712  0.46962500  1
  N  N8  1  0.85088240  0.14661487  0.52679298  1
  N  N9  1  0.81901464  0.49909137  0.25977594  1
  N  N10  1  0.14911760  0.64661487  0.97320702  1
  N  N11  1  0.14911760  0.85338513  0.47320702  1
  N  N12  1  0.18098536  0.50090863  0.74022406  1
  N  N13  1  0.85088240  0.35338513  0.02679298  1
  N  N14  1  0.81901464  0.00090863  0.75977594  1
  N  N15  1  0.18098536  0.99909137  0.24022406  1
  Cl  Cl16  1  0.92422795  0.90548747  0.60303778  1
  Cl  Cl17  1  0.85514790  0.30954322  0.19571084  1
  Cl  Cl18  1  0.14485210  0.80954322  0.30428916  1
  Cl  Cl19  1  0.07577205  0.09451253  0.39696222  1
  Cl  Cl20  1  0.46246549  0.59993565  0.86556436  1
  Cl  Cl21  1  0.38999963  0.85915768  0.17141661  1
  Cl  Cl22  1  0.61000037  0.35915768  0.32858339  1
  Cl  Cl23  1  0.61614783  0.12736963  0.08861158  1
  Cl  Cl24  1  0.61000037  0.14084232  0.82858339  1
  Cl  Cl25  1  0.17749385  0.34161798  0.09132953  1
  Cl  Cl26  1  0.82107318  0.64209206  0.66244692  1
  Cl  Cl27  1  0.92422795  0.59451253  0.10303778  1
  Cl  Cl28  1  0.03450163  0.66248814  0.51519472  1
  Cl  Cl29  1  0.82250615  0.65838202  0.90867047  1
  Cl  Cl30  1  0.61614783  0.37263037  0.58861158  1
  Cl  Cl31  1  0.46246549  0.90006435  0.36556436  1
  Cl  Cl32  1  0.03450163  0.83751186  0.01519472  1
  Cl  Cl33  1  0.14485210  0.69045678  0.80428916  1
  Cl  Cl34  1  0.38385217  0.62736963  0.41138842  1
  Cl  Cl35  1  0.38999963  0.64084232  0.67141661  1
  Cl  Cl36  1  0.07577205  0.40548747  0.89696222  1
  Cl  Cl37  1  0.53753451  0.09993565  0.63443564  1
  Cl  Cl38  1  0.96549837  0.16248814  0.98480528  1
  Cl  Cl39  1  0.17892682  0.35790794  0.33755308  1
  Cl  Cl40  1  0.85514790  0.19045678  0.69571084  1
  Cl  Cl41  1  0.38385217  0.87263037  0.91138842  1
  Cl  Cl42  1  0.96549837  0.33751186  0.48480528  1
  Cl  Cl43  1  0.17749385  0.15838202  0.59132953  1
  Cl  Cl44  1  0.17892682  0.14209206  0.83755308  1
  Cl  Cl45  1  0.82250615  0.84161798  0.40867047  1
  Cl  Cl46  1  0.53753451  0.40006435  0.13443564  1
  Cl  Cl47  1  0.82107318  0.85790794  0.16244692  1
  O  O48  1  0.68278732  0.11387239  0.27400887  1
  O  O49  1  0.88815030  0.98098573  0.81846244  1
  O  O50  1  0.31721268  0.61387239  0.22599113  1
  O  O51  1  0.35728357  0.30611251  0.95123811  1
  O  O52  1  0.74499179  0.14209965  0.49670185  1
  O  O53  1  0.57545874  0.67368242  0.27250688  1
  O  O54  1  0.11184970  0.01901427  0.18153756  1
  O  O55  1  0.73938620  0.59963170  0.47874348  1
  O  O56  1  0.64271643  0.69388749  0.04876189  1
  O  O57  1  0.42454126  0.32631758  0.72749312  1
  O  O58  1  0.26061380  0.40036830  0.52125652  1
  O  O59  1  0.25500821  0.64209965  0.00329815  1
  O  O60  1  0.73938620  0.90036830  0.97874348  1
  O  O61  1  0.88815030  0.51901427  0.31846244  1
  O  O62  1  0.26061380  0.09963170  0.02125652  1
  O  O63  1  0.31721268  0.88612761  0.72599113  1
  O  O64  1  0.74499179  0.35790035  0.99670185  1
  O  O65  1  0.35728357  0.19388749  0.45123811  1
  O  O66  1  0.42454126  0.17368242  0.22749312  1
  O  O67  1  0.57545874  0.82631758  0.77250688  1
  O  O68  1  0.68278732  0.38612761  0.77400887  1
  O  O69  1  0.25500821  0.85790035  0.50329815  1
  O  O70  1  0.64271643  0.80611251  0.54876189  1
  O  O71  1  0.11184970  0.48098573  0.68153756  1
