# generated using pymatgen
data_Cs3Bi7Se12
_symmetry_space_group_name_H-M   'P 1'
_cell_length_a   4.28419640
_cell_length_b   13.41749694
_cell_length_c   14.05665557
_cell_angle_alpha   106.90991818
_cell_angle_beta   98.76659690
_cell_angle_gamma   89.97561824
_symmetry_Int_Tables_number   1
_chemical_formula_structural   Cs3Bi7Se12
_chemical_formula_sum   'Cs3 Bi7 Se12'
_cell_volume   763.22949655
_cell_formula_units_Z   1
loop_
 _symmetry_equiv_pos_site_id
 _symmetry_equiv_pos_as_xyz
  1  'x, y, z'
loop_
 _atom_site_type_symbol
 _atom_site_label
 _atom_site_symmetry_multiplicity
 _atom_site_fract_x
 _atom_site_fract_y
 _atom_site_fract_z
 _atom_site_occupancy
  Cs  Cs0  1  0.36214050  0.12062998  0.72421278  1
  Cs  Cs1  1  0.63456065  0.86782807  0.26902401  1
  Cs  Cs2  1  0.97313229  0.42710089  0.94617427  1
  Bi  Bi3  1  0.68085047  0.52089546  0.36156126  1
  Bi  Bi4  1  0.27684320  0.78487790  0.55435863  1
  Bi  Bi5  1  0.91347814  0.74106090  0.82706858  1
  Bi  Bi6  1  0.72221064  0.21333227  0.44351287  1
  Bi  Bi7  1  0.08809218  0.25815127  0.17607786  1
  Bi  Bi8  1  0.31929798  0.47904805  0.63855899  1
  Bi  Bi9  1  0.49973482  0.99863011  0.99942656  1
  Se  Se10  1  0.42380562  0.59133446  0.84676034  1
  Se  Se11  1  0.20101916  0.37901023  0.40271819  1
  Se  Se12  1  0.76921815  0.91682734  0.53996875  1
  Se  Se13  1  0.23033277  0.08267969  0.45930032  1
  Se  Se14  1  0.17164833  0.66691521  0.34436865  1
  Se  Se15  1  0.82995882  0.33347630  0.65984283  1
  Se  Se16  1  0.39335568  0.87555597  0.78774977  1
  Se  Se17  1  0.01740993  0.85798244  0.03503341  1
  Se  Se18  1  0.60855031  0.12390909  0.21582568  1
  Se  Se19  1  0.98253049  0.14210505  0.96374969  1
  Se  Se20  1  0.57596360  0.40718074  0.15277813  1
  Se  Se21  1  0.79846628  0.62046861  0.59712844  1
