# generated using pymatgen
data_UTe5
_symmetry_space_group_name_H-M   'P 1'
_cell_length_a   4.28396760
_cell_length_b   10.31211391
_cell_length_c   18.38289160
_cell_angle_alpha   90.00000000
_cell_angle_beta   90.00000000
_cell_angle_gamma   90.00000000
_symmetry_Int_Tables_number   1
_chemical_formula_structural   UTe5
_chemical_formula_sum   'U4 Te20'
_cell_volume   812.09662484
_cell_formula_units_Z   4
loop_
 _symmetry_equiv_pos_site_id
 _symmetry_equiv_pos_as_xyz
  1  'x, y, z'
loop_
 _atom_site_type_symbol
 _atom_site_label
 _atom_site_symmetry_multiplicity
 _atom_site_fract_x
 _atom_site_fract_y
 _atom_site_fract_z
 _atom_site_occupancy
  U  U0  1  0.38557643  0.24739801  0.59044620  1
  U  U1  1  0.61442357  0.74739801  0.40955380  1
  U  U2  1  0.88557643  0.74739801  0.90955380  1
  U  U3  1  0.11442357  0.24739801  0.09044620  1
  Te  Te4  1  0.61304382  0.43636075  0.15856972  1
  Te  Te5  1  0.37499301  0.74737639  0.03622051  1
  Te  Te6  1  0.12500699  0.74737639  0.53622051  1
  Te  Te7  1  0.11304382  0.93636075  0.34143028  1
  Te  Te8  1  0.02243627  0.99175321  0.00398333  1
  Te  Te9  1  0.66084325  0.75772347  0.74301571  1
  Te  Te10  1  0.62500699  0.24737639  0.96377949  1
  Te  Te11  1  0.16084325  0.25772347  0.75698429  1
  Te  Te12  1  0.52243627  0.49175321  0.49601667  1
  Te  Te13  1  0.47756373  0.99175321  0.50398333  1
  Te  Te14  1  0.38563466  0.56808817  0.83458442  1
  Te  Te15  1  0.97756373  0.49175321  0.99601667  1
  Te  Te16  1  0.11436534  0.56808817  0.33458442  1
  Te  Te17  1  0.38695618  0.93636075  0.84143028  1
  Te  Te18  1  0.88563466  0.06808817  0.66541558  1
  Te  Te19  1  0.83915675  0.75772347  0.24301571  1
  Te  Te20  1  0.61436534  0.06808817  0.16541558  1
  Te  Te21  1  0.88695618  0.43636075  0.65856972  1
  Te  Te22  1  0.87499301  0.24737639  0.46377949  1
  Te  Te23  1  0.33915675  0.25772347  0.25698429  1
