# generated using pymatgen
data_NaZnAsO4
_symmetry_space_group_name_H-M   'P 1'
_cell_length_a   9.15454150
_cell_length_b   9.15454150
_cell_length_c   8.44359368
_cell_angle_alpha   90.00000000
_cell_angle_beta   90.00000000
_cell_angle_gamma   120.00000003
_symmetry_Int_Tables_number   1
_chemical_formula_structural   NaZnAsO4
_chemical_formula_sum   'Na6 Zn6 As6 O24'
_cell_volume   612.81749213
_cell_formula_units_Z   6
loop_
 _symmetry_equiv_pos_site_id
 _symmetry_equiv_pos_as_xyz
  1  'x, y, z'
loop_
 _atom_site_type_symbol
 _atom_site_label
 _atom_site_symmetry_multiplicity
 _atom_site_fract_x
 _atom_site_fract_y
 _atom_site_fract_z
 _atom_site_occupancy
  O  O0  1  0.60374687  0.87132927  0.18312104  1
  O  O1  1  0.90047592  0.46818300  0.97886265  1
  O  O2  1  0.56770709  0.09952408  0.97886265  1
  O  O3  1  0.43229291  0.90047592  0.47886265  1
  O  O4  1  0.09952408  0.53181700  0.47886265  1
  O  O5  1  0.53181700  0.43229291  0.97886265  1
  O  O6  1  0.77473552  0.87270128  0.49601662  1
  O  O7  1  0.90203424  0.77473552  0.99601662  1
  O  O8  1  0.87270128  0.09796576  0.99601662  1
  O  O9  1  0.12729872  0.90203424  0.49601662  1
  O  O10  1  0.09796576  0.22526448  0.49601662  1
  O  O11  1  0.22526448  0.12729872  0.99601662  1
  O  O12  1  0.22894960  0.41369274  0.86153114  1
  O  O13  1  0.81525686  0.22894960  0.36153114  1
  O  O14  1  0.73241759  0.60374687  0.68312104  1
  O  O15  1  0.58630726  0.81525686  0.86153114  1
  O  O16  1  0.18474314  0.77105040  0.86153114  1
  O  O17  1  0.77105040  0.58630726  0.36153114  1
  O  O18  1  0.26758241  0.39625313  0.18312104  1
  O  O19  1  0.87132927  0.26758241  0.68312104  1
  O  O20  1  0.39625313  0.12867073  0.68312104  1
  O  O21  1  0.41369274  0.18474314  0.36153114  1
  O  O22  1  0.12867073  0.73241759  0.18312104  1
  O  O23  1  0.46818300  0.56770709  0.47886265  1
  Na  Na24  1  0.33333333  0.66666667  0.69098298  1
  Na  Na25  1  0.66666667  0.33333333  0.19098298  1
  Na  Na26  1  0.00000000  0.00000000  0.18566819  1
  Na  Na27  1  0.00000000  0.00000000  0.68566819  1
  Na  Na28  1  0.33333333  0.66666667  0.27149985  1
  Na  Na29  1  0.66666667  0.33333333  0.77149985  1
  Zn  Zn30  1  0.66282792  0.98517492  0.39386752  1
  Zn  Zn31  1  0.67765300  0.66282792  0.89386752  1
  Zn  Zn32  1  0.98517492  0.32234700  0.89386752  1
  Zn  Zn33  1  0.33717208  0.01482508  0.89386752  1
  Zn  Zn34  1  0.32234700  0.33717208  0.39386752  1
  Zn  Zn35  1  0.01482508  0.67765300  0.39386752  1
  As  As36  1  0.68342945  0.65602883  0.50308403  1
  As  As37  1  0.02740062  0.68342945  0.00308403  1
  As  As38  1  0.65602883  0.97259938  0.00308403  1
  As  As39  1  0.34397117  0.02740062  0.50308403  1
  As  As40  1  0.97259938  0.31657055  0.50308403  1
  As  As41  1  0.31657055  0.34397117  0.00308403  1
