# generated using pymatgen
data_P(W3O10)2
_symmetry_space_group_name_H-M   'P 1'
_cell_length_a   5.39198448
_cell_length_b   6.67225496
_cell_length_c   42.98333947
_cell_angle_alpha   90.00000000
_cell_angle_beta   90.00000000
_cell_angle_gamma   90.00000000
_symmetry_Int_Tables_number   1
_chemical_formula_structural   P(W3O10)2
_chemical_formula_sum   'P4 W24 O80'
_cell_volume   1546.39850240
_cell_formula_units_Z   4
loop_
 _symmetry_equiv_pos_site_id
 _symmetry_equiv_pos_as_xyz
  1  'x, y, z'
loop_
 _atom_site_type_symbol
 _atom_site_label
 _atom_site_symmetry_multiplicity
 _atom_site_fract_x
 _atom_site_fract_y
 _atom_site_fract_z
 _atom_site_occupancy
  P  P0  1  0.73696193  0.88366145  0.22391262  1
  P  P1  1  0.26303807  0.38366145  0.27608738  1
  P  P2  1  0.76303807  0.11633855  0.72391262  1
  P  P3  1  0.23696193  0.61633855  0.77608738  1
  W  W4  1  0.24601705  0.90689345  0.12646804  1
  W  W5  1  0.25763079  0.73853734  0.33631502  1
  W  W6  1  0.75703986  0.08533899  0.51805284  1
  W  W7  1  0.74601705  0.59310655  0.87353196  1
  W  W8  1  0.75451654  0.07681868  0.30014340  1
  W  W9  1  0.24296014  0.58533899  0.98194716  1
  W  W10  1  0.74548346  0.92318132  0.80014340  1
  W  W11  1  0.75564894  0.74529850  0.44593836  1
  W  W12  1  0.74236921  0.23853734  0.16368498  1
  W  W13  1  0.74435106  0.25470150  0.94593836  1
  W  W14  1  0.25837233  0.07505176  0.40964464  1
  W  W15  1  0.74162767  0.57505176  0.09035536  1
  W  W16  1  0.75837233  0.42494824  0.59035536  1
  W  W17  1  0.24435106  0.24529850  0.05406164  1
  W  W18  1  0.75763079  0.76146266  0.66368498  1
  W  W19  1  0.25564894  0.75470150  0.55406164  1
  W  W20  1  0.24548346  0.57681868  0.19985660  1
  W  W21  1  0.25703986  0.41466101  0.48194716  1
  W  W22  1  0.25398295  0.09310655  0.62646804  1
  W  W23  1  0.74296014  0.91466101  0.01805284  1
  W  W24  1  0.25451654  0.42318132  0.69985660  1
  W  W25  1  0.24236921  0.26146266  0.83631502  1
  W  W26  1  0.75398295  0.40689345  0.37353196  1
  W  W27  1  0.24162767  0.92494824  0.90964464  1
  O  O28  1  0.75490464  0.91599172  0.48147558  1
  O  O29  1  0.24608997  0.57424826  0.29615440  1
  O  O30  1  0.97988016  0.57285207  0.68748986  1
  O  O31  1  0.54301862  0.93285119  0.42331930  1
  O  O32  1  0.47988016  0.92714793  0.31251014  1
  O  O33  1  0.04864192  0.23947462  0.28355640  1
  O  O34  1  0.74608997  0.92575174  0.70384560  1
  O  O35  1  0.54864192  0.26052538  0.71644360  1
  O  O36  1  0.98274022  0.71806074  0.78037874  1
  O  O37  1  0.45135808  0.76052538  0.78355640  1
  O  O38  1  0.74019223  0.74357369  0.05510639  1
  O  O39  1  0.73980346  0.05509618  0.75842376  1
  O  O40  1  0.95698138  0.06714881  0.92331930  1
  O  O41  1  0.52227850  0.10813883  0.81672925  1
  O  O42  1  0.25736759  0.91002658  0.37024888  1
  O  O43  1  0.48274022  0.78193926  0.21962126  1
  O  O44  1  0.95819259  0.72552440  0.99775872  1
  O  O45  1  0.52624054  0.77800876  0.89219001  1
  O  O46  1  0.74587044  0.42370723  0.90808865  1
  O  O47  1  0.52815347  0.44287029  0.96567982  1
  O  O48  1  0.75391003  0.07424826  0.20384560  1
  O  O49  1  0.01725978  0.21806074  0.71962126  1
  O  O50  1  0.02624054  0.72199124  0.10780999  1
  O  O51  1  0.45819259  0.77447560  0.00224128  1
  O  O52  1  0.02963420  0.73485997  0.88687550  1
  O  O53  1  0.25412956  0.92370723  0.59191135  1
  O  O54  1  0.97184653  0.55712971  0.46567982  1
  O  O55  1  0.52963420  0.76514003  0.11312450  1
  O  O56  1  0.46333188  0.09428787  0.15036027  1
  O  O57  1  0.02227850  0.39186117  0.18327075  1
  O  O58  1  0.74158940  0.76095210  0.83497627  1
  O  O59  1  0.24587044  0.07629277  0.09191135  1
  O  O60  1  0.25980777  0.24357369  0.44489361  1
  O  O61  1  0.45847791  0.11331248  0.92851386  1
  O  O62  1  0.47086954  0.60362874  0.46069148  1
  O  O63  1  0.53436857  0.94234981  0.64531424  1
  O  O64  1  0.97036580  0.23485997  0.61312450  1
  O  O65  1  0.52011984  0.42714793  0.18748986  1
  O  O66  1  0.97772150  0.89186117  0.31672925  1
  O  O67  1  0.45698138  0.43285119  0.07668070  1
  O  O68  1  0.75736759  0.58997342  0.62975112  1
  O  O69  1  0.02011984  0.07285207  0.81251014  1
  O  O70  1  0.04180741  0.22552440  0.50224128  1
  O  O71  1  0.97086954  0.89637126  0.53930852  1
  O  O72  1  0.25391003  0.42575174  0.79615440  1
  O  O73  1  0.23980346  0.44490382  0.24157624  1
  O  O74  1  0.24263241  0.08997342  0.87024888  1
  O  O75  1  0.47036580  0.26514003  0.38687550  1
  O  O76  1  0.03436857  0.55765019  0.35468576  1
  O  O77  1  0.04152209  0.88668752  0.42851386  1
  O  O78  1  0.75980777  0.25642631  0.55510639  1
  O  O79  1  0.26019654  0.55509618  0.74157624  1
  O  O80  1  0.51725978  0.28193926  0.28037874  1
  O  O81  1  0.47772150  0.60813883  0.68327075  1
  O  O82  1  0.97375946  0.22199124  0.39219001  1
  O  O83  1  0.75841060  0.23904790  0.33497627  1
  O  O84  1  0.02815347  0.05712971  0.03432018  1
  O  O85  1  0.54180741  0.27447560  0.49775872  1
  O  O86  1  0.25841060  0.26095210  0.66502373  1
  O  O87  1  0.96563143  0.05765019  0.14531424  1
  O  O88  1  0.24158940  0.73904790  0.16502373  1
  O  O89  1  0.46563143  0.44234981  0.85468576  1
  O  O90  1  0.03666812  0.90571213  0.65036027  1
  O  O91  1  0.52913046  0.10362874  0.03930852  1
  O  O92  1  0.25490464  0.58400828  0.51852442  1
  O  O93  1  0.76019654  0.94490382  0.25842376  1
  O  O94  1  0.95847791  0.38668752  0.07148614  1
  O  O95  1  0.53666812  0.59428787  0.34963973  1
  O  O96  1  0.24509536  0.41599172  0.01852442  1
  O  O97  1  0.04301862  0.56714881  0.57668070  1
  O  O98  1  0.47375946  0.27800876  0.60780999  1
  O  O99  1  0.47184653  0.94287029  0.53432018  1
  O  O100  1  0.95135808  0.73947462  0.21644360  1
  O  O101  1  0.74263241  0.41002658  0.12975112  1
  O  O102  1  0.02913046  0.39637126  0.96069148  1
  O  O103  1  0.96333188  0.40571213  0.84963973  1
  O  O104  1  0.54152209  0.61331248  0.57148614  1
  O  O105  1  0.74509536  0.08400828  0.98147558  1
  O  O106  1  0.24019223  0.75642631  0.94489361  1
  O  O107  1  0.75412956  0.57629277  0.40808865  1
