# generated using pymatgen
data_K2Rb2Re6S13
_symmetry_space_group_name_H-M   'P 1'
_cell_length_a   9.71825162
_cell_length_b   9.71825181
_cell_length_c   13.80329187
_cell_angle_alpha   95.37278728
_cell_angle_beta   95.37278745
_cell_angle_gamma   118.10878147
_symmetry_Int_Tables_number   1
_chemical_formula_structural   K2Rb2Re6S13
_chemical_formula_sum   'K4 Rb4 Re12 S26'
_cell_volume   1130.66104373
_cell_formula_units_Z   2
loop_
 _symmetry_equiv_pos_site_id
 _symmetry_equiv_pos_as_xyz
  1  'x, y, z'
loop_
 _atom_site_type_symbol
 _atom_site_label
 _atom_site_symmetry_multiplicity
 _atom_site_fract_x
 _atom_site_fract_y
 _atom_site_fract_z
 _atom_site_occupancy
  K  K0  1  0.27052724  0.31458123  0.20878866  1
  K  K1  1  0.31458123  0.27052724  0.70878866  1
  K  K2  1  0.68541877  0.72947276  0.29121134  1
  K  K3  1  0.72947276  0.68541877  0.79121134  1
  Rb  Rb4  1  0.11906966  0.35467692  0.91122595  1
  Rb  Rb5  1  0.64532308  0.88093034  0.58877405  1
  Rb  Rb6  1  0.35467692  0.11906966  0.41122595  1
  Rb  Rb7  1  0.88093034  0.64532308  0.08877405  1
  Re  Re8  1  0.84455345  0.41802976  0.57934798  1
  Re  Re9  1  0.58197024  0.15544655  0.92065202  1
  Re  Re10  1  0.69635321  0.00748207  0.02381952  1
  Re  Re11  1  0.99251793  0.30364679  0.47618048  1
  Re  Re12  1  0.43980770  0.84301014  0.89001404  1
  Re  Re13  1  0.15698986  0.56019230  0.60998596  1
  Re  Re14  1  0.30364679  0.99251793  0.97618048  1
  Re  Re15  1  0.00748207  0.69635321  0.52381952  1
  Re  Re16  1  0.41802976  0.84455345  0.07934798  1
  Re  Re17  1  0.84301014  0.43980770  0.39001404  1
  Re  Re18  1  0.15544655  0.58197024  0.42065202  1
  Re  Re19  1  0.56019230  0.15698986  0.10998596  1
  S  S20  1  0.00764610  0.70027528  0.34809545  1
  S  S21  1  0.44903928  0.28053680  0.00475954  1
  S  S22  1  0.29972472  0.99235390  0.15190455  1
  S  S23  1  0.62885556  0.37114444  0.25000000  1
  S  S24  1  0.99228254  0.34090166  0.30508317  1
  S  S25  1  0.65909834  0.00771746  0.19491683  1
  S  S26  1  0.28399447  0.63197899  0.17398497  1
  S  S27  1  0.71946320  0.55096072  0.49524046  1
  S  S28  1  0.36802101  0.71600553  0.32601503  1
  S  S29  1  0.63197899  0.28399447  0.67398497  1
  S  S30  1  0.81042700  0.29054385  0.05039616  1
  S  S31  1  0.99235390  0.29972472  0.65190455  1
  S  S32  1  0.00771746  0.65909834  0.69491683  1
  S  S33  1  0.70027528  0.00764610  0.84809545  1
  S  S34  1  0.18957300  0.70945615  0.94960384  1
  S  S35  1  0.03699783  0.96879483  0.93506451  1
  S  S36  1  0.71600553  0.36802101  0.82601503  1
  S  S37  1  0.70945615  0.18957300  0.44960384  1
  S  S38  1  0.55096072  0.71946320  0.99524046  1
  S  S39  1  0.96300217  0.03120517  0.06493549  1
  S  S40  1  0.37114444  0.62885556  0.75000000  1
  S  S41  1  0.03120517  0.96300217  0.56493549  1
  S  S42  1  0.34090166  0.99228254  0.80508317  1
  S  S43  1  0.96879483  0.03699783  0.43506451  1
  S  S44  1  0.28053680  0.44903928  0.50475954  1
  S  S45  1  0.29054385  0.81042700  0.55039616  1
