# generated using pymatgen
data_TeI4
_symmetry_space_group_name_H-M   'P 1'
_cell_length_a   11.61982754
_cell_length_b   14.43140861
_cell_length_c   22.94260287
_cell_angle_alpha   90.00000000
_cell_angle_beta   97.97793957
_cell_angle_gamma   90.00000000
_symmetry_Int_Tables_number   1
_chemical_formula_structural   TeI4
_chemical_formula_sum   'Te16 I64'
_cell_volume   3810.02071243
_cell_formula_units_Z   16
loop_
 _symmetry_equiv_pos_site_id
 _symmetry_equiv_pos_as_xyz
  1  'x, y, z'
loop_
 _atom_site_type_symbol
 _atom_site_label
 _atom_site_symmetry_multiplicity
 _atom_site_fract_x
 _atom_site_fract_y
 _atom_site_fract_z
 _atom_site_occupancy
  Te  Te0  1  0.76537329  0.63011523  0.83061227  1
  Te  Te1  1  0.23462671  0.13011523  0.66938773  1
  Te  Te2  1  0.95549604  0.13831044  0.81084043  1
  Te  Te3  1  0.17274666  0.64592987  0.89349855  1
  Te  Te4  1  0.82725334  0.35407013  0.10650145  1
  Te  Te5  1  0.36046944  0.37125909  0.37419912  1
  Te  Te6  1  0.17274666  0.85407013  0.39349855  1
  Te  Te7  1  0.76537329  0.86988477  0.33061227  1
  Te  Te8  1  0.63953056  0.87125909  0.12580088  1
  Te  Te9  1  0.36046944  0.12874091  0.87419912  1
  Te  Te10  1  0.82725334  0.14592987  0.60650145  1
  Te  Te11  1  0.63953056  0.62874091  0.62580088  1
  Te  Te12  1  0.95549604  0.36168956  0.31084043  1
  Te  Te13  1  0.04450396  0.86168956  0.18915957  1
  Te  Te14  1  0.04450396  0.63831044  0.68915957  1
  Te  Te15  1  0.23462671  0.36988477  0.16938773  1
  I  I16  1  0.98353980  0.75659141  0.80127914  1
  I  I17  1  0.38997994  0.25176125  0.25696366  1
  I  I18  1  0.94196983  0.51718915  0.90616518  1
  I  I19  1  0.53736332  0.49318519  0.35024484  1
  I  I20  1  0.49574094  0.76059825  0.56080930  1
  I  I21  1  0.77748640  0.26231782  0.82526066  1
  I  I22  1  0.46263668  0.99318519  0.14975516  1
  I  I23  1  0.92264596  0.47671763  0.40664287  1
  I  I24  1  0.01646020  0.25659141  0.69872086  1
  I  I25  1  0.19336256  0.98208389  0.27495409  1
  I  I26  1  0.01646020  0.24340859  0.19872086  1
  I  I27  1  0.68702528  0.01645840  0.53772270  1
  I  I28  1  0.59033518  0.99835102  0.34583137  1
  I  I29  1  0.13464622  0.25824516  0.88397112  1
  I  I30  1  0.94196983  0.98281085  0.40616518  1
  I  I31  1  0.69198376  0.52832521  0.52765282  1
  I  I32  1  0.88147971  0.25799412  0.51457184  1
  I  I33  1  0.11852029  0.75799412  0.98542816  1
  I  I34  1  0.69198376  0.97167479  0.02765282  1
  I  I35  1  0.46263668  0.50681481  0.64975516  1
  I  I36  1  0.59033518  0.50164898  0.84583137  1
  I  I37  1  0.05803017  0.01718915  0.59383482  1
  I  I38  1  0.82385052  0.98802015  0.21578394  1
  I  I39  1  0.27278037  0.25190503  0.57878214  1
  I  I40  1  0.22251360  0.76231782  0.67473934  1
  I  I41  1  0.72721963  0.74809497  0.42121786  1
  I  I42  1  0.53736332  0.00681481  0.85024484  1
  I  I43  1  0.88147971  0.24200588  0.01457184  1
  I  I44  1  0.72721963  0.75190503  0.92121786  1
  I  I45  1  0.64732355  0.25953293  0.63281740  1
  I  I46  1  0.13464622  0.24175484  0.38397112  1
  I  I47  1  0.30801624  0.02832521  0.97234718  1
  I  I48  1  0.17614948  0.48802015  0.28421606  1
  I  I49  1  0.05803017  0.48281085  0.09383482  1
  I  I50  1  0.68702528  0.48354160  0.03772270  1
  I  I51  1  0.86535378  0.74175484  0.11602888  1
  I  I52  1  0.19336256  0.51791611  0.77495409  1
  I  I53  1  0.64732355  0.24046707  0.13281740  1
  I  I54  1  0.49574094  0.73940175  0.06080930  1
  I  I55  1  0.31297472  0.51645840  0.96227730  1
  I  I56  1  0.11852029  0.74200588  0.48542816  1
  I  I57  1  0.50425906  0.26059825  0.93919070  1
  I  I58  1  0.35267645  0.75953293  0.86718260  1
  I  I59  1  0.61002006  0.75176125  0.24303634  1
  I  I60  1  0.40966482  0.49835102  0.15416863  1
  I  I61  1  0.80663744  0.48208389  0.22504591  1
  I  I62  1  0.07735404  0.97671763  0.09335713  1
  I  I63  1  0.92264596  0.02328237  0.90664287  1
  I  I64  1  0.80663744  0.01791611  0.72504591  1
  I  I65  1  0.07735404  0.52328237  0.59335713  1
  I  I66  1  0.38997994  0.24823875  0.75696366  1
  I  I67  1  0.40966482  0.00164898  0.65416863  1
  I  I68  1  0.82385052  0.51197985  0.71578394  1
  I  I69  1  0.50425906  0.23940175  0.43919070  1
  I  I70  1  0.22251360  0.73768218  0.17473934  1
  I  I71  1  0.31297472  0.98354160  0.46227730  1
  I  I72  1  0.98353980  0.74340859  0.30127914  1
  I  I73  1  0.86535378  0.75824516  0.61602888  1
  I  I74  1  0.77748640  0.23768218  0.32526066  1
  I  I75  1  0.17614948  0.01197985  0.78421606  1
  I  I76  1  0.61002006  0.74823875  0.74303634  1
  I  I77  1  0.27278037  0.24809497  0.07878214  1
  I  I78  1  0.30801624  0.47167479  0.47234718  1
  I  I79  1  0.35267645  0.74046707  0.36718260  1
