# generated using pymatgen
data_Hf2InNi2
_symmetry_space_group_name_H-M   'P 1'
_cell_length_a   6.54674367
_cell_length_b   7.14300900
_cell_length_c   7.13709887
_cell_angle_alpha   90.01571025
_cell_angle_beta   90.04654025
_cell_angle_gamma   90.01281361
_symmetry_Int_Tables_number   1
_chemical_formula_structural   Hf2InNi2
_chemical_formula_sum   'Hf8 In4 Ni8'
_cell_volume   333.75522758
_cell_formula_units_Z   4
loop_
 _symmetry_equiv_pos_site_id
 _symmetry_equiv_pos_as_xyz
  1  'x, y, z'
loop_
 _atom_site_type_symbol
 _atom_site_label
 _atom_site_symmetry_multiplicity
 _atom_site_fract_x
 _atom_site_fract_y
 _atom_site_fract_z
 _atom_site_occupancy
  Hf  Hf0  1  0.50011799  0.32573966  0.67415567  1
  Hf  Hf1  1  0.99976209  0.17483599  0.17474919  1
  Hf  Hf2  1  0.50033088  0.84069932  0.84059989  1
  Hf  Hf3  1  0.49981243  0.67439687  0.32523889  1
  Hf  Hf4  1  0.99987879  0.34078976  0.65931271  1
  Hf  Hf5  1  0.49998197  0.15938813  0.15950065  1
  Hf  Hf6  1  0.00014831  0.82498461  0.82551069  1
  Hf  Hf7  1  0.00009604  0.65922229  0.34086386  1
  In  In8  1  0.24988857  0.00011767  0.50001159  1
  In  In9  1  0.75013224  0.49997355  0.00006178  1
  In  In10  1  0.24989280  0.49987190  0.99992050  1
  In  In11  1  0.75007648  0.99991635  0.49995801  1
  Ni  Ni12  1  0.73246128  0.37394053  0.37362943  1
  Ni  Ni13  1  0.26750736  0.62623137  0.62618513  1
  Ni  Ni14  1  0.73243870  0.62592590  0.62631118  1
  Ni  Ni15  1  0.26766984  0.37387645  0.37371303  1
  Ni  Ni16  1  0.76764934  0.12615934  0.87376810  1
  Ni  Ni17  1  0.23214125  0.87395113  0.12625541  1
  Ni  Ni18  1  0.23243104  0.12615069  0.87396349  1
  Ni  Ni19  1  0.76758263  0.87382849  0.12629079  1
