# generated using pymatgen
data_KBa2As5
_symmetry_space_group_name_H-M   'P 1'
_cell_length_a   19.94771113
_cell_length_b   13.02236799
_cell_length_c   11.67998630
_cell_angle_alpha   89.86380036
_cell_angle_beta   89.72753894
_cell_angle_gamma   29.24165739
_symmetry_Int_Tables_number   1
_chemical_formula_structural   KBa2As5
_chemical_formula_sum   'K6 Ba12 As30'
_cell_volume   1482.09829174
_cell_formula_units_Z   6
loop_
 _symmetry_equiv_pos_site_id
 _symmetry_equiv_pos_as_xyz
  1  'x, y, z'
loop_
 _atom_site_type_symbol
 _atom_site_label
 _atom_site_symmetry_multiplicity
 _atom_site_fract_x
 _atom_site_fract_y
 _atom_site_fract_z
 _atom_site_occupancy
  K  K0  1  0.18106503  0.15222353  0.14877798  1
  K  K1  1  0.50826133  0.15252299  0.14811687  1
  K  K2  1  0.15751913  0.84343849  0.64795771  1
  K  K3  1  0.83573937  0.17025092  0.14813558  1
  K  K4  1  0.56596671  0.76733627  0.27056407  1
  K  K5  1  0.82494728  0.84069743  0.64791765  1
  Ba  Ba6  1  0.09447818  0.23890361  0.77612200  1
  Ba  Ba7  1  0.06067104  0.60865579  0.95296323  1
  Ba  Ba8  1  0.27059598  0.39468796  0.45099465  1
  Ba  Ba9  1  0.43121991  0.24044966  0.77246564  1
  Ba  Ba10  1  0.23363861  0.76650240  0.26497865  1
  Ba  Ba11  1  0.39664383  0.60069149  0.95294032  1
  Ba  Ba12  1  0.60256988  0.39876945  0.45096602  1
  Ba  Ba13  1  0.76956690  0.22544726  0.77245353  1
  Ba  Ba14  1  0.49668862  0.83663549  0.64396158  1
  Ba  Ba15  1  0.72608881  0.60729311  0.96510800  1
  Ba  Ba16  1  0.93333050  0.39996692  0.45437877  1
  Ba  Ba17  1  0.90043248  0.76613424  0.26501470  1
  As  As18  1  0.06917898  0.09587035  0.01153631  1
  As  As19  1  0.28717442  0.04625500  0.42458596  1
  As  As20  1  0.10334822  0.39319521  0.51557685  1
  As  As21  1  0.25413940  0.30649394  0.18748608  1
  As  As22  1  0.18846953  0.36668639  0.69529388  1
  As  As23  1  0.39297299  0.10940198  0.00223792  1
  As  As24  1  0.14324563  0.63284188  0.19141272  1
  As  As25  1  0.08113715  0.69191603  0.69168875  1
  As  As26  1  0.22745161  0.61050262  0.01258815  1
  As  As27  1  0.04629849  0.95599328  0.92213468  1
  As  As28  1  0.61984761  0.05058027  0.42225652  1
  As  As29  1  0.43641675  0.39609458  0.51339511  1
  As  As30  1  0.58591675  0.30475619  0.19131187  1
  As  As31  1  0.52080156  0.37280848  0.69168728  1
  As  As32  1  0.26659247  0.90361132  0.51564269  1
  As  As33  1  0.73206821  0.09658352  0.01263645  1
  As  As34  1  0.48138780  0.62471963  0.18747605  1
  As  As35  1  0.41035975  0.70120586  0.69533687  1
  As  As36  1  0.56200852  0.60233792  0.00213052  1
  As  As37  1  0.37824362  0.95506080  0.91929881  1
  As  As38  1  0.95703043  0.03902288  0.42227117  1
  As  As39  1  0.77717381  0.38150502  0.51724398  1
  As  As40  1  0.92815053  0.29659710  0.19213567  1
  As  As41  1  0.84837687  0.37573165  0.70067862  1
  As  As42  1  0.60248213  0.90546180  0.51721224  1
  As  As43  1  0.81947081  0.62235958  0.19220184  1
  As  As44  1  0.73914291  0.70334727  0.70071068  1
  As  As45  1  0.90079636  0.60102530  0.01197169  1
  As  As46  1  0.71529174  0.94907437  0.92220906  1
  As  As47  1  0.93560134  0.89835281  0.51341465  1
