# generated using pymatgen
data_Li9Mn2Co5O16
_symmetry_space_group_name_H-M   'P 1'
_cell_length_a   2.99090746
_cell_length_b   10.29789072
_cell_length_c   9.89361269
_cell_angle_alpha   106.53314135
_cell_angle_beta   91.71805876
_cell_angle_gamma   82.31835934
_symmetry_Int_Tables_number   1
_chemical_formula_structural   Li9Mn2Co5O16
_chemical_formula_sum   'Li9 Mn2 Co5 O16'
_cell_volume   289.49302311
_cell_formula_units_Z   1
loop_
 _symmetry_equiv_pos_site_id
 _symmetry_equiv_pos_as_xyz
  1  'x, y, z'
loop_
 _atom_site_type_symbol
 _atom_site_label
 _atom_site_symmetry_multiplicity
 _atom_site_fract_x
 _atom_site_fract_y
 _atom_site_fract_z
 _atom_site_occupancy
  Li  Li0  1  0.94009392  0.12363083  0.31186130  1
  Li  Li1  1  0.44607774  0.12502772  0.80414861  1
  Li  Li2  1  0.29978138  0.38138849  0.43845772  1
  Li  Li3  1  0.79860886  0.38131258  0.94658690  1
  Li  Li4  1  0.69085841  0.62772831  0.56069832  1
  Li  Li5  1  0.18715506  0.61945236  0.06842956  1
  Li  Li6  1  0.06809574  0.87290045  0.68690489  1
  Li  Li7  1  0.56635346  0.87283102  0.19094944  1
  Li  Li8  1  0.76180630  0.50174583  0.24165715  1
  Mn  Mn9  1  0.99205842  0.99766782  0.00098682  1
  Mn  Mn10  1  0.36438795  0.25847020  0.12958453  1
  Co  Co11  1  0.50451384  0.99700716  0.49960789  1
  Co  Co12  1  0.87391051  0.25073602  0.62245848  1
  Co  Co13  1  0.25040608  0.50081531  0.75159523  1
  Co  Co14  1  0.13337459  0.74083438  0.37004956  1
  Co  Co15  1  0.63067653  0.74789818  0.87551841  1
  O  O16  1  0.42164694  0.06676965  0.14902287  1
  O  O17  1  0.96935422  0.06892085  0.65165384  1
  O  O18  1  0.85540395  0.30657130  0.26203024  1
  O  O19  1  0.34857457  0.31803895  0.77172652  1
  O  O20  1  0.20680493  0.58455023  0.40852018  1
  O  O21  1  0.72815723  0.56813549  0.89730344  1
  O  O22  1  0.55876878  0.81853586  0.52350692  1
  O  O23  1  0.06195652  0.81225735  0.01981127  1
  O  O24  1  0.40475273  0.17869116  0.47304256  1
  O  O25  1  0.88278682  0.18905052  0.98947503  1
  O  O26  1  0.78156242  0.43126301  0.59566063  1
  O  O27  1  0.29171977  0.42475274  0.09350639  1
  O  O28  1  0.20193870  0.68251271  0.72822048  1
  O  O29  1  0.68235535  0.69474761  0.23367701  1
  O  O30  1  0.56517455  0.93028594  0.85029199  1
  O  O31  1  0.03088373  0.92546997  0.35305582  1
