# generated using pymatgen
data_NbTeCl9
_symmetry_space_group_name_H-M   'P 1'
_cell_length_a   6.66918927
_cell_length_b   11.81085406
_cell_length_c   20.07569955
_cell_angle_alpha   106.45929865
_cell_angle_beta   90.00000000
_cell_angle_gamma   106.39949886
_symmetry_Int_Tables_number   1
_chemical_formula_structural   NbTeCl9
_chemical_formula_sum   'Nb4 Te4 Cl36'
_cell_volume   1449.32975708
_cell_formula_units_Z   4
loop_
 _symmetry_equiv_pos_site_id
 _symmetry_equiv_pos_as_xyz
  1  'x, y, z'
loop_
 _atom_site_type_symbol
 _atom_site_label
 _atom_site_symmetry_multiplicity
 _atom_site_fract_x
 _atom_site_fract_y
 _atom_site_fract_z
 _atom_site_occupancy
  Nb  Nb0  1  0.85036773  0.29134289  0.37510810  1
  Nb  Nb1  1  0.14963227  0.70865711  0.62489190  1
  Nb  Nb2  1  0.55902483  0.70865711  0.12489190  1
  Nb  Nb3  1  0.44097517  0.29134289  0.87510810  1
  Te  Te4  1  0.88628568  0.16403076  0.16122147  1
  Te  Te5  1  0.11371432  0.83596924  0.83877853  1
  Te  Te6  1  0.72225491  0.83596924  0.33877853  1
  Te  Te7  1  0.27774509  0.16403076  0.66122147  1
  Cl  Cl8  1  0.05641411  0.17284672  0.29400787  1
  Cl  Cl9  1  0.40185744  0.90920244  0.64023542  1
  Cl  Cl10  1  0.37643490  0.60822198  0.56562504  1
  Cl  Cl11  1  0.13679669  0.35534727  0.17501657  1
  Cl  Cl12  1  0.88356739  0.82715328  0.20599213  1
  Cl  Cl13  1  0.69834981  0.17718896  0.06456927  1
  Cl  Cl14  1  0.98403101  0.72426623  0.52866093  1
  Cl  Cl15  1  0.59814256  0.09079756  0.35976458  1
  Cl  Cl16  1  0.94358589  0.82715328  0.70599213  1
  Cl  Cl17  1  0.74023522  0.72426623  0.02866093  1
  Cl  Cl18  1  0.10411532  0.05276294  0.09678329  1
  Cl  Cl19  1  0.30165019  0.82281104  0.93543073  1
  Cl  Cl20  1  0.52116085  0.82281104  0.43543073  1
  Cl  Cl21  1  0.11643261  0.17284672  0.79400787  1
  Cl  Cl22  1  0.50734500  0.90920244  0.14023542  1
  Cl  Cl23  1  0.32840674  0.70811171  0.73622589  1
  Cl  Cl24  1  0.21855058  0.35534727  0.67501657  1
  Cl  Cl25  1  0.37970497  0.70811171  0.23622589  1
  Cl  Cl26  1  0.86320331  0.64465273  0.82498343  1
  Cl  Cl27  1  0.67159326  0.29188829  0.26377411  1
  Cl  Cl28  1  0.01596899  0.27573377  0.47133907  1
  Cl  Cl29  1  0.23178708  0.60822198  0.06562504  1
  Cl  Cl30  1  0.05135238  0.94723706  0.40321671  1
  Cl  Cl31  1  0.49265500  0.09079756  0.85976458  1
  Cl  Cl32  1  0.62029503  0.29188829  0.76377411  1
  Cl  Cl33  1  0.25976478  0.27573377  0.97133907  1
  Cl  Cl34  1  0.94864762  0.05276294  0.59678329  1
  Cl  Cl35  1  0.89237578  0.53053470  0.62769890  1
  Cl  Cl36  1  0.63815892  0.53053470  0.12769890  1
  Cl  Cl37  1  0.89588468  0.94723706  0.90321671  1
  Cl  Cl38  1  0.76821292  0.39177802  0.93437496  1
  Cl  Cl39  1  0.47883915  0.17718896  0.56456927  1
  Cl  Cl40  1  0.10762422  0.46946530  0.37230110  1
  Cl  Cl41  1  0.78144942  0.64465273  0.32498343  1
  Cl  Cl42  1  0.62356510  0.39177802  0.43437496  1
  Cl  Cl43  1  0.36184108  0.46946530  0.87230110  1
