# generated using pymatgen
data_K3Sc(MoO4)3
_symmetry_space_group_name_H-M   'P 1'
_cell_length_a   9.52771077
_cell_length_b   11.10174536
_cell_length_c   13.92999468
_cell_angle_alpha   90.00000000
_cell_angle_beta   90.00000000
_cell_angle_gamma   90.00000000
_symmetry_Int_Tables_number   1
_chemical_formula_structural   K3Sc(MoO4)3
_chemical_formula_sum   'K12 Sc4 Mo12 O48'
_cell_volume   1473.43430561
_cell_formula_units_Z   4
loop_
 _symmetry_equiv_pos_site_id
 _symmetry_equiv_pos_as_xyz
  1  'x, y, z'
loop_
 _atom_site_type_symbol
 _atom_site_label
 _atom_site_symmetry_multiplicity
 _atom_site_fract_x
 _atom_site_fract_y
 _atom_site_fract_z
 _atom_site_occupancy
  K  K0  1  0.81549218  0.23052887  0.74600892  1
  K  K1  1  0.54318189  0.76069474  0.52475036  1
  K  K2  1  0.18450782  0.76947113  0.24600892  1
  K  K3  1  0.53254657  0.98270564  0.25179601  1
  K  K4  1  0.53254657  0.51729436  0.75179601  1
  K  K5  1  0.46745343  0.01729436  0.75179601  1
  K  K6  1  0.45681811  0.23930526  0.02475036  1
  K  K7  1  0.81549218  0.26947113  0.24600892  1
  K  K8  1  0.54318189  0.73930526  0.02475036  1
  K  K9  1  0.46745343  0.48270564  0.25179601  1
  K  K10  1  0.18450782  0.73052887  0.74600892  1
  K  K11  1  0.45681811  0.26069474  0.52475036  1
  Sc  Sc12  1  0.06729563  0.24811868  0.49338221  1
  Sc  Sc13  1  0.06729563  0.25188132  0.99338221  1
  Sc  Sc14  1  0.93270437  0.74811868  0.49338221  1
  Sc  Sc15  1  0.93270437  0.75188132  0.99338221  1
  Mo  Mo16  1  0.74891145  0.04958509  0.99855483  1
  Mo  Mo17  1  0.25012292  0.95232311  0.99246046  1
  Mo  Mo18  1  0.81924250  0.83603758  0.74564284  1
  Mo  Mo19  1  0.74987708  0.45232311  0.99246046  1
  Mo  Mo20  1  0.25012292  0.54767689  0.49246046  1
  Mo  Mo21  1  0.25108855  0.95041491  0.49855483  1
  Mo  Mo22  1  0.18075750  0.16396242  0.24564284  1
  Mo  Mo23  1  0.18075750  0.33603758  0.74564284  1
  Mo  Mo24  1  0.74987708  0.04767689  0.49246046  1
  Mo  Mo25  1  0.25108855  0.54958509  0.99855483  1
  Mo  Mo26  1  0.81924250  0.66396242  0.24564284  1
  Mo  Mo27  1  0.74891145  0.45041491  0.49855483  1
  O  O28  1  0.61397639  0.43034154  0.07871152  1
  O  O29  1  0.91570508  0.78629250  0.64011074  1
  O  O30  1  0.31230759  0.61400216  0.10840285  1
  O  O31  1  0.07055111  0.20460075  0.34792077  1
  O  O32  1  0.09283924  0.87449308  0.03029813  1
  O  O33  1  0.90716076  0.12550692  0.53029813  1
  O  O34  1  0.38602361  0.56965846  0.57871152  1
  O  O35  1  0.20167417  0.49346597  0.74320413  1
  O  O36  1  0.77345845  0.88710944  0.01255657  1
  O  O37  1  0.90807737  0.37507593  0.46215657  1
  O  O38  1  0.90716076  0.37449308  0.03029813  1
  O  O39  1  0.08429492  0.28629250  0.64011074  1
  O  O40  1  0.69093620  0.11207167  0.38301374  1
  O  O41  1  0.64904704  0.76961181  0.74944317  1
  O  O42  1  0.38588269  0.92143729  0.41316946  1
  O  O43  1  0.30906380  0.88792833  0.88301374  1
  O  O44  1  0.22193185  0.11413832  0.97561671  1
  O  O45  1  0.30906380  0.61207167  0.38301374  1
  O  O46  1  0.64904704  0.73038819  0.24944317  1
  O  O47  1  0.91570508  0.71370750  0.14011074  1
  O  O48  1  0.77806815  0.88586168  0.47561671  1
  O  O49  1  0.79832583  0.50653403  0.24320413  1
  O  O50  1  0.92944889  0.70460075  0.34792077  1
  O  O51  1  0.61411731  0.42143729  0.41316946  1
  O  O52  1  0.38588269  0.57856271  0.91316946  1
  O  O53  1  0.07055111  0.29539925  0.84792077  1
  O  O54  1  0.22654155  0.38710944  0.01255657  1
  O  O55  1  0.68769241  0.38599784  0.60840285  1
  O  O56  1  0.08429492  0.21370750  0.14011074  1
  O  O57  1  0.09192263  0.62492407  0.96215657  1
  O  O58  1  0.61411731  0.07856271  0.91316946  1
  O  O59  1  0.38602361  0.93034154  0.07871152  1
  O  O60  1  0.77345845  0.61289056  0.51255657  1
  O  O61  1  0.35095296  0.23038819  0.24944317  1
  O  O62  1  0.92944889  0.79539925  0.84792077  1
  O  O63  1  0.68769241  0.11400216  0.10840285  1
  O  O64  1  0.69093620  0.38792833  0.88301374  1
  O  O65  1  0.79832583  0.99346597  0.74320413  1
  O  O66  1  0.22193185  0.38586168  0.47561671  1
  O  O67  1  0.09283924  0.62550692  0.53029813  1
  O  O68  1  0.20167417  0.00653403  0.24320413  1
  O  O69  1  0.35095296  0.26961181  0.74944317  1
  O  O70  1  0.61397639  0.06965846  0.57871152  1
  O  O71  1  0.90807737  0.12492407  0.96215657  1
  O  O72  1  0.77806815  0.61413832  0.97561671  1
  O  O73  1  0.09192263  0.87507593  0.46215657  1
  O  O74  1  0.31230759  0.88599784  0.60840285  1
  O  O75  1  0.22654155  0.11289056  0.51255657  1
