# generated using pymatgen
data_Cu3BiSe2IO8
_symmetry_space_group_name_H-M   'P 1'
_cell_length_a   6.46661474
_cell_length_b   7.44800850
_cell_length_c   9.82356831
_cell_angle_alpha   90.00000000
_cell_angle_beta   90.00000000
_cell_angle_gamma   90.00000000
_symmetry_Int_Tables_number   1
_chemical_formula_structural   Cu3BiSe2IO8
_chemical_formula_sum   'Cu6 Bi2 Se4 I2 O16'
_cell_volume   473.13646517
_cell_formula_units_Z   2
loop_
 _symmetry_equiv_pos_site_id
 _symmetry_equiv_pos_as_xyz
  1  'x, y, z'
loop_
 _atom_site_type_symbol
 _atom_site_label
 _atom_site_symmetry_multiplicity
 _atom_site_fract_x
 _atom_site_fract_y
 _atom_site_fract_z
 _atom_site_occupancy
  Cu  Cu0  1  0.25000000  0.79522134  0.25000000  1
  Cu  Cu1  1  0.75000000  0.20477866  0.75000000  1
  Cu  Cu2  1  0.50000000  0.00000000  0.50000000  1
  Cu  Cu3  1  0.00000000  0.00000000  0.00000000  1
  Cu  Cu4  1  0.00000000  0.00000000  0.50000000  1
  Cu  Cu5  1  0.50000000  0.00000000  0.00000000  1
  Bi  Bi6  1  0.25000000  0.24126504  0.25000000  1
  Bi  Bi7  1  0.75000000  0.75873496  0.75000000  1
  Se  Se8  1  0.75000000  0.38463377  0.44328049  1
  Se  Se9  1  0.25000000  0.61536623  0.55671951  1
  Se  Se10  1  0.75000000  0.38463377  0.05671951  1
  Se  Se11  1  0.25000000  0.61536623  0.94328049  1
  I  I12  1  0.25000000  0.17082780  0.75000000  1
  I  I13  1  0.75000000  0.82917220  0.25000000  1
  O  O14  1  0.03942246  0.75908177  0.91488728  1
  O  O15  1  0.96057754  0.24091823  0.41488728  1
  O  O16  1  0.25000000  0.99181303  0.38573008  1
  O  O17  1  0.75000000  0.00818697  0.88573008  1
  O  O18  1  0.75000000  0.40692672  0.88266866  1
  O  O19  1  0.53942246  0.24091823  0.08511272  1
  O  O20  1  0.46057754  0.75908177  0.91488728  1
  O  O21  1  0.25000000  0.59307328  0.38266866  1
  O  O22  1  0.53942246  0.24091823  0.41488728  1
  O  O23  1  0.46057754  0.75908177  0.58511272  1
  O  O24  1  0.75000000  0.40692672  0.61733134  1
  O  O25  1  0.75000000  0.00818697  0.61426992  1
  O  O26  1  0.96057754  0.24091823  0.08511272  1
  O  O27  1  0.25000000  0.99181303  0.11426992  1
  O  O28  1  0.03942246  0.75908177  0.58511272  1
  O  O29  1  0.25000000  0.59307328  0.11733134  1
