# generated using pymatgen
data_Hf2N2O
_symmetry_space_group_name_H-M   'P 1'
_cell_length_a   8.71159174
_cell_length_b   8.74483129
_cell_length_c   8.73444168
_cell_angle_alpha   109.41747602
_cell_angle_beta   109.43012704
_cell_angle_gamma   109.54286930
_symmetry_Int_Tables_number   1
_chemical_formula_structural   Hf2N2O
_chemical_formula_sum   'Hf16 N16 O8'
_cell_volume   512.37267870
_cell_formula_units_Z   8
loop_
 _symmetry_equiv_pos_site_id
 _symmetry_equiv_pos_as_xyz
  1  'x, y, z'
loop_
 _atom_site_type_symbol
 _atom_site_label
 _atom_site_symmetry_multiplicity
 _atom_site_fract_x
 _atom_site_fract_y
 _atom_site_fract_z
 _atom_site_occupancy
  Hf  Hf0  1  0.21770607  0.75936814  0.97017567  1
  Hf  Hf1  1  0.98845892  0.49005843  0.48150114  1
  Hf  Hf2  1  0.03105584  0.77866171  0.25183704  1
  Hf  Hf3  1  0.46492484  0.71499009  0.75654064  1
  Hf  Hf4  1  0.25205977  0.53315299  0.29252056  1
  Hf  Hf5  1  0.24383467  0.04039129  0.78105888  1
  Hf  Hf6  1  0.99739565  0.98720233  0.99000269  1
  Hf  Hf7  1  0.28307868  0.24877442  0.53515187  1
  Hf  Hf8  1  0.71727538  0.74866893  0.45938342  1
  Hf  Hf9  1  0.50797709  0.01846817  0.51018391  1
  Hf  Hf10  1  0.49632467  0.50591983  0.01029499  1
  Hf  Hf11  1  0.74272751  0.96155611  0.21079175  1
  Hf  Hf12  1  0.75562359  0.46811429  0.71610945  1
  Hf  Hf13  1  0.53618588  0.28695035  0.25845327  1
  Hf  Hf14  1  0.95898303  0.20380510  0.73988613  1
  Hf  Hf15  1  0.78534589  0.24632580  0.03330801  1
  N  N16  1  0.25794623  0.98114885  0.53214820  1
  N  N17  1  0.22998489  0.27595470  0.76324329  1
  N  N18  1  0.23173781  0.45648539  0.49087529  1
  N  N19  1  0.72700474  0.96317348  0.94898592  1
  N  N20  1  0.46188199  0.73432114  0.00694795  1
  N  N21  1  0.45151853  0.48791046  0.22531863  1
  N  N22  1  0.27513708  0.03204377  0.04318556  1
  N  N23  1  0.48715556  0.22894623  0.45731507  1
  N  N24  1  0.95528656  0.72725576  0.96859172  1
  N  N25  1  0.73050062  0.24137695  0.77534047  1
  N  N26  1  0.96601910  0.95765968  0.73034253  1
  N  N27  1  0.77910230  0.54984913  0.51658740  1
  N  N28  1  0.77340487  0.72780415  0.23721735  1
  N  N29  1  0.73718485  0.01148229  0.46585398  1
  N  N30  1  0.76065821  0.22770159  0.27204199  1
  N  N31  1  0.99140355  0.53189928  0.25837096  1
  O  O32  1  0.01425594  0.46830811  0.73967746  1
  O  O33  1  0.24025953  0.77137803  0.72979789  1
  O  O34  1  0.03569324  0.05001872  0.27401475  1
  O  O35  1  0.27729085  0.76056847  0.22591741  1
  O  O36  1  0.04723806  0.27334986  0.03860936  1
  O  O37  1  0.50549072  0.77187068  0.54197307  1
  O  O38  1  0.54817407  0.51357648  0.77281156  1
  O  O39  1  0.53671322  0.26350882  0.98763279  1
