# generated using pymatgen
data_Fe3N
_symmetry_space_group_name_H-M   'P 1'
_cell_length_a   4.65689264
_cell_length_b   4.65689284
_cell_length_c   17.23102357
_cell_angle_alpha   90.00000000
_cell_angle_beta   90.00000000
_cell_angle_gamma   119.99999858
_symmetry_Int_Tables_number   1
_chemical_formula_structural   Fe3N
_chemical_formula_sum   'Fe24 N8'
_cell_volume   323.61912903
_cell_formula_units_Z   8
loop_
 _symmetry_equiv_pos_site_id
 _symmetry_equiv_pos_as_xyz
  1  'x, y, z'
loop_
 _atom_site_type_symbol
 _atom_site_label
 _atom_site_symmetry_multiplicity
 _atom_site_fract_x
 _atom_site_fract_y
 _atom_site_fract_z
 _atom_site_occupancy
  Fe  Fe0  1  0.00595360  0.33966158  0.00021631  1
  Fe  Fe1  1  0.99956131  0.32771157  0.24983362  1
  Fe  Fe2  1  0.00006131  0.32592796  0.75014814  1
  Fe  Fe3  1  0.33370798  0.33966158  0.12478369  1
  Fe  Fe4  1  0.32670502  0.32684267  0.62508915  1
  Fe  Fe5  1  0.32586666  0.32592796  0.37485186  1
  Fe  Fe6  1  0.32815027  0.32771157  0.87516638  1
  Fe  Fe7  1  0.66033842  0.66629202  0.00021631  1
  Fe  Fe8  1  0.67228843  0.67184973  0.24983362  1
  Fe  Fe9  1  0.67407204  0.67413334  0.75014814  1
  Fe  Fe10  1  0.67315733  0.67329498  0.49991085  1
  Fe  Fe11  1  0.33370798  0.99404640  0.00021631  1
  Fe  Fe12  1  0.32815027  0.00043869  0.24983362  1
  Fe  Fe13  1  0.32670502  -0.00013764  0.49991085  1
  Fe  Fe14  1  0.32586666  0.99993869  0.75014814  1
  Fe  Fe15  1  0.66033842  0.99404640  0.12478369  1
  Fe  Fe16  1  0.67407204  0.99993869  0.37485186  1
  Fe  Fe17  1  0.67315733  -0.00013764  0.62508915  1
  Fe  Fe18  1  0.67228843  0.00043869  0.87516638  1
  Fe  Fe19  1  0.00595360  0.66629202  0.12478369  1
  Fe  Fe20  1  0.00006131  0.67413334  0.37485186  1
  Fe  Fe21  1  0.00013764  0.67329498  0.62508915  1
  Fe  Fe22  1  0.99956131  0.67184973  0.87516638  1
  Fe  Fe23  1  0.00013764  0.32684267  0.49991085  1
  N  N24  1  0.33333300  0.66666700  0.31196092  1
  N  N25  1  0.33333300  0.66666700  0.56250000  1
  N  N26  1  0.33333300  0.66666700  0.81303908  1
  N  N27  1  0.00000000  0.00000000  0.06250000  1
  N  N28  1  0.66666700  0.33333300  0.18714926  1
  N  N29  1  0.66666700  0.33333300  0.43749790  1
  N  N30  1  0.66666700  0.33333300  0.68750210  1
  N  N31  1  0.66666700  0.33333300  0.93785074  1
