# generated using pymatgen
data_CsLiSO4
_symmetry_space_group_name_H-M   'P 1'
_cell_length_a   5.52169735
_cell_length_b   8.91124895
_cell_length_c   9.72474327
_cell_angle_alpha   90.00000000
_cell_angle_beta   90.00000000
_cell_angle_gamma   90.00000000
_symmetry_Int_Tables_number   1
_chemical_formula_structural   CsLiSO4
_chemical_formula_sum   'Cs4 Li4 S4 O16'
_cell_volume   478.50812925
_cell_formula_units_Z   4
loop_
 _symmetry_equiv_pos_site_id
 _symmetry_equiv_pos_as_xyz
  1  'x, y, z'
loop_
 _atom_site_type_symbol
 _atom_site_label
 _atom_site_symmetry_multiplicity
 _atom_site_fract_x
 _atom_site_fract_y
 _atom_site_fract_z
 _atom_site_occupancy
  Li  Li0  1  0.25000000  0.17501027  0.08161927  1
  Li  Li1  1  0.75000000  0.82498973  0.91838073  1
  Li  Li2  1  0.25000000  0.67501027  0.41838073  1
  Li  Li3  1  0.75000000  0.32498973  0.58161927  1
  O  O4  1  0.25000000  0.23293073  0.27385037  1
  O  O5  1  0.75000000  0.76706927  0.72614963  1
  O  O6  1  0.25000000  0.73293073  0.22614963  1
  O  O7  1  0.75000000  0.26706927  0.77385037  1
  O  O8  1  0.75000000  0.04220377  0.91521528  1
  O  O9  1  0.25000000  0.95779623  0.08478472  1
  O  O10  1  0.75000000  0.54220377  0.58478472  1
  O  O11  1  0.25000000  0.45779623  0.41521528  1
  O  O12  1  0.96996310  0.26531147  0.99020345  1
  O  O13  1  0.46996310  0.73468853  0.00979655  1
  O  O14  1  0.53003690  0.76531147  0.50979655  1
  O  O15  1  0.03003690  0.23468853  0.49020345  1
  O  O16  1  0.03003690  0.73468853  0.00979655  1
  O  O17  1  0.53003690  0.26531147  0.99020345  1
  O  O18  1  0.46996310  0.23468853  0.49020345  1
  O  O19  1  0.96996310  0.76531147  0.50979655  1
  S  S20  1  0.25000000  0.29147604  0.41706293  1
  S  S21  1  0.75000000  0.70852396  0.58293707  1
  S  S22  1  0.25000000  0.79147604  0.08293707  1
  S  S23  1  0.75000000  0.20852396  0.91706293  1
  Cs  Cs24  1  0.75000000  0.50269502  0.21003102  1
  Cs  Cs25  1  0.25000000  0.49730498  0.78996898  1
  Cs  Cs26  1  0.75000000  0.00269502  0.28996898  1
  Cs  Cs27  1  0.25000000  0.99730498  0.71003102  1
