# generated using pymatgen
data_Sr(Ni5P3)2
_symmetry_space_group_name_H-M   'P 1'
_cell_length_a   6.45135163
_cell_length_b   8.70320006
_cell_length_c   15.96422305
_cell_angle_alpha   90.00000000
_cell_angle_beta   90.00000000
_cell_angle_gamma   90.00000000
_symmetry_Int_Tables_number   1
_chemical_formula_structural   Sr(Ni5P3)2
_chemical_formula_sum   'Sr4 Ni40 P24'
_cell_volume   896.34967943
_cell_formula_units_Z   4
loop_
 _symmetry_equiv_pos_site_id
 _symmetry_equiv_pos_as_xyz
  1  'x, y, z'
loop_
 _atom_site_type_symbol
 _atom_site_label
 _atom_site_symmetry_multiplicity
 _atom_site_fract_x
 _atom_site_fract_y
 _atom_site_fract_z
 _atom_site_occupancy
  Sr  Sr0  1  0.25000000  0.48374306  0.75073689  1
  Sr  Sr1  1  0.25000000  0.01625694  0.25073689  1
  Sr  Sr2  1  0.75000000  0.51625694  0.24926311  1
  Sr  Sr3  1  0.75000000  0.98374306  0.74926311  1
  Ni  Ni4  1  0.25000000  0.39374878  0.29426591  1
  Ni  Ni5  1  0.94775071  0.04672159  0.42440285  1
  Ni  Ni6  1  0.25000000  0.86684472  0.70732041  1
  Ni  Ni7  1  0.75000000  0.19251951  0.96051332  1
  Ni  Ni8  1  0.05224929  0.54672159  0.07559715  1
  Ni  Ni9  1  0.99888402  0.73400704  0.91601088  1
  Ni  Ni10  1  0.45016568  0.48519133  0.42339941  1
  Ni  Ni11  1  0.54983432  0.98519133  0.07660059  1
  Ni  Ni12  1  0.75000000  0.36684472  0.79267959  1
  Ni  Ni13  1  0.95016568  0.98519133  0.07660059  1
  Ni  Ni14  1  0.25000000  0.27798519  0.94837278  1
  Ni  Ni15  1  0.25000000  0.63315528  0.20732041  1
  Ni  Ni16  1  0.75000000  0.13315528  0.29267959  1
  Ni  Ni17  1  0.75000000  0.30748049  0.46051332  1
  Ni  Ni18  1  0.25000000  0.22201481  0.44837278  1
  Ni  Ni19  1  0.00111598  0.26599296  0.08398912  1
  Ni  Ni20  1  0.94775071  0.45327841  0.92440285  1
  Ni  Ni21  1  0.99888402  0.76599296  0.41601088  1
  Ni  Ni22  1  0.25000000  0.69251951  0.53948668  1
  Ni  Ni23  1  0.00111598  0.23400704  0.58398912  1
  Ni  Ni24  1  0.55224929  0.04672159  0.42440285  1
  Ni  Ni25  1  0.25000000  0.10625122  0.79426591  1
  Ni  Ni26  1  0.05224929  0.95327841  0.57559715  1
  Ni  Ni27  1  0.50111598  0.76599296  0.41601088  1
  Ni  Ni28  1  0.44775071  0.95327841  0.57559715  1
  Ni  Ni29  1  0.50111598  0.73400704  0.91601088  1
  Ni  Ni30  1  0.44775071  0.54672159  0.07559715  1
  Ni  Ni31  1  0.75000000  0.89374878  0.20573409  1
  Ni  Ni32  1  0.49888402  0.26599296  0.08398912  1
  Ni  Ni33  1  0.55224929  0.45327841  0.92440285  1
  Ni  Ni34  1  0.75000000  0.72201481  0.05162722  1
  Ni  Ni35  1  0.04983432  0.48519133  0.42339941  1
  Ni  Ni36  1  0.75000000  0.77798519  0.55162722  1
  Ni  Ni37  1  0.45016568  0.01480867  0.92339941  1
  Ni  Ni38  1  0.54983432  0.51480867  0.57660059  1
  Ni  Ni39  1  0.95016568  0.51480867  0.57660059  1
  Ni  Ni40  1  0.04983432  0.01480867  0.92339941  1
  Ni  Ni41  1  0.75000000  0.60625122  0.70573409  1
  Ni  Ni42  1  0.49888402  0.23400704  0.58398912  1
  Ni  Ni43  1  0.25000000  0.80748049  0.03948668  1
  P  P44  1  0.25000000  0.94110238  0.45732291  1
  P  P45  1  0.25000000  0.11415736  0.65853472  1
  P  P46  1  0.75000000  0.05889762  0.54267709  1
  P  P47  1  0.75000000  0.58077655  0.45894514  1
  P  P48  1  0.50758938  0.23387258  0.85477807  1
  P  P49  1  0.25000000  0.64517858  0.34361692  1
  P  P50  1  0.99241062  0.23387258  0.85477807  1
  P  P51  1  0.00758938  0.73387258  0.64522193  1
  P  P52  1  0.49241062  0.76612742  0.14522193  1
  P  P53  1  0.25000000  0.55889762  0.95732291  1
  P  P54  1  0.75000000  0.91922345  0.95894514  1
  P  P55  1  0.75000000  0.35482142  0.65638308  1
  P  P56  1  0.25000000  0.41922345  0.54105486  1
  P  P57  1  0.49241062  0.73387258  0.64522193  1
  P  P58  1  0.75000000  0.14517858  0.15638308  1
  P  P59  1  0.25000000  0.38584264  0.15853472  1
  P  P60  1  0.99241062  0.26612742  0.35477807  1
  P  P61  1  0.75000000  0.88584264  0.34146528  1
  P  P62  1  0.50758938  0.26612742  0.35477807  1
  P  P63  1  0.75000000  0.61415736  0.84146528  1
  P  P64  1  0.25000000  0.08077655  0.04105486  1
  P  P65  1  0.00758938  0.76612742  0.14522193  1
  P  P66  1  0.75000000  0.44110238  0.04267709  1
  P  P67  1  0.25000000  0.85482142  0.84361692  1
