# generated using pymatgen
data_NaAl11O17
_symmetry_space_group_name_H-M   'P 1'
_cell_length_a   23.61792581
_cell_length_b   22.93213222
_cell_length_c   22.93877631
_cell_angle_alpha   14.14864774
_cell_angle_beta   13.83909116
_cell_angle_gamma   13.84108917
_symmetry_Int_Tables_number   1
_chemical_formula_structural   NaAl11O17
_chemical_formula_sum   'Na2 Al22 O34'
_cell_volume   627.55918929
_cell_formula_units_Z   2
loop_
 _symmetry_equiv_pos_site_id
 _symmetry_equiv_pos_as_xyz
  1  'x, y, z'
loop_
 _atom_site_type_symbol
 _atom_site_label
 _atom_site_symmetry_multiplicity
 _atom_site_fract_x
 _atom_site_fract_y
 _atom_site_fract_z
 _atom_site_occupancy
  Na  Na0  1  0.08620797  0.82761976  0.82758406  1
  Na  Na1  1  0.63994101  0.88221192  0.72011799  1
  Al  Al2  1  0.00046866  0.00022788  0.99906268  1
  Al  Al3  1  0.20003318  0.09624612  0.09560774  1
  Al  Al4  1  0.49981408  0.99959674  0.00037183  1
  Al  Al5  1  0.20410593  0.09648433  0.59178813  1
  Al  Al6  1  0.20399068  0.59199434  0.09642447  1
  Al  Al7  1  0.69958485  0.09640017  0.09642447  1
  Al  Al8  1  0.32507307  0.34976303  0.34985385  1
  Al  Al9  1  0.27616010  0.45166995  0.44767980  1
  Al  Al10  1  0.22564306  0.55051131  0.54871388  1
  Al  Al11  1  0.70396881  0.09727595  0.59206237  1
  Al  Al12  1  0.70435908  0.59192023  0.09560774  1
  Al  Al13  1  0.17539415  0.64951706  0.64921170  1
  Al  Al14  1  0.82509726  0.34971464  0.34980549  1
  Al  Al15  1  0.29699843  0.40599461  0.90387934  1
  Al  Al16  1  0.29693057  0.90382091  0.40613886  1
  Al  Al17  1  0.77480405  0.45056099  0.45039189  1
  Al  Al18  1  0.72494863  0.54990159  0.55010274  1
  Al  Al19  1  0.67543720  0.64946869  0.64912560  1
  Al  Al20  1  0.29927859  0.90481479  0.90336925  1
  Al  Al21  1  0.79735215  0.40674123  0.90336925  1
  Al  Al22  1  0.79770738  0.90322101  0.40458524  1
  Al  Al23  1  0.79912223  0.90387081  0.90387934  1
  O  O24  1  0.16833727  0.19084995  0.19106327  1
  O  O25  1  0.45285144  0.09452361  0.09429712  1
  O  O26  1  0.05091682  0.40195916  0.40223524  1
  O  O27  1  0.35177098  0.29641823  0.29645804  1
  O  O28  1  0.14067785  0.19132680  0.71864430  1
  O  O29  1  0.14009559  0.71887835  0.19108169  1
  O  O30  1  0.66882271  0.19015123  0.19108169  1
  O  O31  1  0.45755691  0.09005081  0.59949406  1
  O  O32  1  0.45496861  0.60106722  0.09006279  1
  O  O33  1  0.95218759  0.09399804  0.09562482  1
  O  O34  1  0.24545461  0.49570409  0.50909077  1
  O  O35  1  0.04765531  0.40295543  0.90468939  1
  O  O36  1  0.04559877  0.90679259  0.40244151  1
  O  O37  1  0.55195972  0.40043163  0.40244151  1
  O  O38  1  0.36091484  0.27883140  0.81019735  1
  O  O39  1  0.36066136  0.81019048  0.27867728  1
  O  O40  1  0.85177411  0.29633556  0.29645179  1
  O  O41  1  0.14826166  0.70351715  0.70347668  1
  O  O42  1  0.64070927  0.19102218  0.71858146  1
  O  O43  1  0.64059946  0.71858776  0.19106327  1
  O  O44  1  0.44262088  0.60234030  0.60207595  1
  O  O45  1  0.95519677  0.60221425  0.08960646  1
  O  O46  1  0.95530317  0.08965801  0.60207595  1
  O  O47  1  0.74987979  0.50026170  0.50024041  1
  O  O48  1  0.04814822  0.90354799  0.90370355  1
  O  O49  1  0.54695931  0.40210945  0.90608138  1
  O  O50  1  0.54684794  0.90602805  0.40223524  1
  O  O51  1  0.32885652  0.81066878  0.81028895  1
  O  O52  1  0.86085453  0.27867078  0.81028895  1
  O  O53  1  0.86078322  0.81049502  0.27843356  1
  O  O54  1  0.64864619  0.70380115  0.70270762  1
  O  O55  1  0.94294903  0.60465869  0.59949406  1
  O  O56  1  0.54915559  0.90469767  0.90168883  1
  O  O57  1  0.82888781  0.81085842  0.81019735  1
