# generated using pymatgen
data_Ga6SnTe10
_symmetry_space_group_name_H-M   'P 1'
_cell_length_a   10.47087863
_cell_length_b   10.45662362
_cell_length_c   10.45662368
_cell_angle_alpha   89.43900177
_cell_angle_beta   89.86306632
_cell_angle_gamma   89.86306657
_symmetry_Int_Tables_number   1
_chemical_formula_structural   Ga6SnTe10
_chemical_formula_sum   'Ga12 Sn2 Te20'
_cell_volume   1144.83475606
_cell_formula_units_Z   2
loop_
 _symmetry_equiv_pos_site_id
 _symmetry_equiv_pos_as_xyz
  1  'x, y, z'
loop_
 _atom_site_type_symbol
 _atom_site_label
 _atom_site_symmetry_multiplicity
 _atom_site_fract_x
 _atom_site_fract_y
 _atom_site_fract_z
 _atom_site_occupancy
  Ga  Ga0  1  0.12215146  0.42620576  0.15907925  1
  Ga  Ga1  1  0.16044427  0.12640554  0.42810530  1
  Ga  Ga2  1  0.17092634  0.74390958  0.34442541  1
  Ga  Ga3  1  0.25541357  0.83023230  0.65832338  1
  Ga  Ga4  1  0.33777562  0.17258840  0.74201889  1
  Ga  Ga5  1  0.42453432  0.16119456  0.12281219  1
  Ga  Ga6  1  0.57546568  0.87718781  0.83880544  1
  Ga  Ga7  1  0.66222438  0.25798111  0.82741160  1
  Ga  Ga8  1  0.74458643  0.34167662  0.16976770  1
  Ga  Ga9  1  0.82907366  0.65557459  0.25609042  1
  Ga  Ga10  1  0.83955573  0.57189470  0.87359446  1
  Ga  Ga11  1  0.87784854  0.84092075  0.57379424  1
  Sn  Sn12  1  0.25443331  0.73844337  0.99610616  1
  Sn  Sn13  1  0.74556669  0.00389384  0.26155663  1
  Te  Te14  1  1.00000000  0.82595095  0.17404905  1
  Te  Te15  1  0.07088031  0.66918952  0.57170862  1
  Te  Te16  1  0.08324912  0.49800806  0.91680502  1
  Te  Te17  1  0.16867938  0.16884727  0.16966114  1
  Te  Te18  1  0.17030981  0.99907955  0.82392344  1
  Te  Te19  1  0.24955118  0.31886582  0.55922217  1
  Te  Te20  1  0.31983138  0.56244868  0.24522318  1
  Te  Te21  1  0.32885406  0.92874351  0.42865990  1
  Te  Te22  1  0.42994497  0.32814972  0.92852819  1
  Te  Te23  1  0.43695929  0.67902240  0.75674132  1
  Te  Te24  1  0.50000000  0.91755857  0.08244143  1
  Te  Te25  1  0.56304071  0.24325868  0.32097760  1
  Te  Te26  1  0.57005503  0.07147181  0.67185028  1
  Te  Te27  1  0.67114594  0.57134010  0.07125649  1
  Te  Te28  1  0.68016862  0.75477682  0.43755132  1
  Te  Te29  1  0.75044882  0.44077783  0.68113418  1
  Te  Te30  1  0.82969019  0.17607656  0.00092045  1
  Te  Te31  1  0.83132062  0.83033886  0.83115273  1
  Te  Te32  1  0.91675088  0.08319498  0.50199194  1
  Te  Te33  1  0.92911969  0.42829138  0.33081048  1
