# generated using pymatgen
data_Mo2RuSe4
_symmetry_space_group_name_H-M   'P 1'
_cell_length_a   6.72898971
_cell_length_b   13.52435045
_cell_length_c   9.30826837
_cell_angle_alpha   46.55616597
_cell_angle_beta   94.93143658
_cell_angle_gamma   93.82943539
_symmetry_Int_Tables_number   1
_chemical_formula_structural   Mo2RuSe4
_chemical_formula_sum   'Mo8 Ru4 Se16'
_cell_volume   612.72546322
_cell_formula_units_Z   4
loop_
 _symmetry_equiv_pos_site_id
 _symmetry_equiv_pos_as_xyz
  1  'x, y, z'
loop_
 _atom_site_type_symbol
 _atom_site_label
 _atom_site_symmetry_multiplicity
 _atom_site_fract_x
 _atom_site_fract_y
 _atom_site_fract_z
 _atom_site_occupancy
  Mo  Mo0  1  0.23374228  0.93320774  0.54800135  1
  Mo  Mo1  1  0.23348233  0.43405333  0.54623348  1
  Mo  Mo2  1  0.41707293  0.65436439  0.23800853  1
  Mo  Mo3  1  0.45648593  0.08868004  0.58487378  1
  Mo  Mo4  1  0.54351407  0.91131996  0.41512622  1
  Mo  Mo5  1  0.58292707  0.34563561  0.76199147  1
  Mo  Mo6  1  0.76651767  0.56594667  0.45376652  1
  Mo  Mo7  1  0.76625772  0.06679226  0.45199865  1
  Ru  Ru8  1  0.45146238  0.59155498  0.58965599  1
  Ru  Ru9  1  0.41207496  0.16223352  0.22764217  1
  Ru  Ru10  1  0.58792504  0.83776648  0.77235783  1
  Ru  Ru11  1  0.54853762  0.40844502  0.41034401  1
  Se  Se12  1  0.13308391  0.68019696  0.37495720  1
  Se  Se13  1  0.13097831  0.18096447  0.36795911  1
  Se  Se14  1  0.28005379  0.87158793  0.87684136  1
  Se  Se15  1  0.26487564  0.38270668  0.86979414  1
  Se  Se16  1  0.22089908  0.49552946  0.22005207  1
  Se  Se17  1  0.21569923  0.00706450  0.21056192  1
  Se  Se18  1  0.37036662  0.69649719  0.73731635  1
  Se  Se19  1  0.37473645  0.20178080  0.71942828  1
  Se  Se20  1  0.62526355  0.79821920  0.28057172  1
  Se  Se21  1  0.62963338  0.30350281  0.26268365  1
  Se  Se22  1  0.77910092  0.50447054  0.77994793  1
  Se  Se23  1  0.73512436  0.61729332  0.13020586  1
  Se  Se24  1  0.78430077  0.99293550  0.78943808  1
  Se  Se25  1  0.71994621  0.12841207  0.12315864  1
  Se  Se26  1  0.86902169  0.81903553  0.63204089  1
  Se  Se27  1  0.86691609  0.31980304  0.62504280  1
