# generated using pymatgen
data_NdNi4B
_symmetry_space_group_name_H-M   'P 1'
_cell_length_a   5.07684274
_cell_length_b   7.00429199
_cell_length_c   13.88659048
_cell_angle_alpha   104.60751160
_cell_angle_beta   100.53269515
_cell_angle_gamma   89.99999849
_symmetry_Int_Tables_number   1
_chemical_formula_structural   NdNi4B
_chemical_formula_sum   'Nd6 Ni24 B6'
_cell_volume   469.23807331
_cell_formula_units_Z   6
loop_
 _symmetry_equiv_pos_site_id
 _symmetry_equiv_pos_as_xyz
  1  'x, y, z'
loop_
 _atom_site_type_symbol
 _atom_site_label
 _atom_site_symmetry_multiplicity
 _atom_site_fract_x
 _atom_site_fract_y
 _atom_site_fract_z
 _atom_site_occupancy
  Nd  Nd0  1  0.83067912  0.08067912  0.66135823  1
  Nd  Nd1  1  0.49099185  0.24099185  0.98198369  1
  Nd  Nd2  1  0.16503957  0.41503957  0.33007914  1
  Nd  Nd3  1  0.50900815  0.75900815  0.01801631  1
  Nd  Nd4  1  0.16932088  0.91932088  0.33864177  1
  Nd  Nd5  1  0.83496043  0.58496043  0.66992086  1
  Ni  Ni6  1  0.33124106  0.13255809  0.16267398  1
  Ni  Ni7  1  0.33371877  0.78765311  0.66743754  1
  Ni  Ni8  1  0.06433234  0.81433234  0.12866468  1
  Ni  Ni9  1  0.00000000  0.70549183  0.50000000  1
  Ni  Ni10  1  0.33371877  0.37978443  0.66743754  1
  Ni  Ni11  1  0.50000000  0.29450817  0.50000000  1
  Ni  Ni12  1  0.16856708  0.46988411  0.83732602  1
  Ni  Ni13  1  0.61385863  0.86385863  0.22771725  1
  Ni  Ni14  1  0.27837286  0.02837286  0.55674572  1
  Ni  Ni15  1  0.66628123  0.62021557  0.33256246  1
  Ni  Ni16  1  0.83143292  0.53011589  0.16267398  1
  Ni  Ni17  1  0.38614137  0.13614137  0.77228275  1
  Ni  Ni18  1  0.00000000  -0.00000000  0.00000000  1
  Ni  Ni19  1  0.66628123  0.21234689  0.33256246  1
  Ni  Ni20  1  0.66875894  0.46988411  0.83732602  1
  Ni  Ni21  1  0.66875894  0.86744191  0.83732602  1
  Ni  Ni22  1  0.33124106  0.53011589  0.16267398  1
  Ni  Ni23  1  0.83143292  0.13255809  0.16267398  1
  Ni  Ni24  1  0.16856708  0.86744191  0.83732602  1
  Ni  Ni25  1  0.93566766  0.18566766  0.87133532  1
  Ni  Ni26  1  0.50000000  0.70549183  0.50000000  1
  Ni  Ni27  1  1.00000000  0.29450817  0.50000000  1
  Ni  Ni28  1  0.00000000  0.50000000  0.00000000  1
  Ni  Ni29  1  0.72162714  0.97162714  0.44325428  1
  B  B30  1  0.04699306  0.29699306  0.09398612  1
  B  B31  1  0.60962609  0.35962609  0.21925218  1
  B  B32  1  0.39037391  0.64037391  0.78074782  1
  B  B33  1  0.95300694  0.70300694  0.90601388  1
  B  B34  1  0.72235747  0.47235747  0.44471493  1
  B  B35  1  0.27764253  0.52764253  0.55528507  1
