# generated using pymatgen
data_NaYF4
_symmetry_space_group_name_H-M   'P 1'
_cell_length_a   6.05094325
_cell_length_b   12.08105728
_cell_length_c   7.18817385
_cell_angle_alpha   90.00000000
_cell_angle_beta   90.00000000
_cell_angle_gamma   120.08160795
_symmetry_Int_Tables_number   1
_chemical_formula_structural   NaYF4
_chemical_formula_sum   'Na6 Y6 F24'
_cell_volume   454.69429286
_cell_formula_units_Z   6
loop_
 _symmetry_equiv_pos_site_id
 _symmetry_equiv_pos_as_xyz
  1  'x, y, z'
loop_
 _atom_site_type_symbol
 _atom_site_label
 _atom_site_symmetry_multiplicity
 _atom_site_fract_x
 _atom_site_fract_y
 _atom_site_fract_z
 _atom_site_occupancy
  Na  Na0  1  0.33733485  0.84320955  0.33730084  1
  Na  Na1  1  0.33289751  0.82474369  0.83743830  1
  Na  Na2  1  0.33289751  0.32474369  0.16256170  1
  Na  Na3  1  0.66783289  0.66834178  0.74647315  1
  Na  Na4  1  0.33733485  0.34320955  0.66269916  1
  Na  Na5  1  0.66783289  0.16834178  0.25352685  1
  Y  Y6  1  0.99983742  0.49906155  0.99772130  1
  Y  Y7  1  0.66539097  0.66537425  0.24782390  1
  Y  Y8  1  0.99983742  0.99906155  0.00227870  1
  Y  Y9  1  -0.00002465  0.00089778  0.49961812  1
  Y  Y10  1  -0.00002465  0.50089778  0.50038188  1
  Y  Y11  1  0.66539097  0.16537425  0.75217610  1
  F  F12  1  0.24109328  0.99483941  0.25236648  1
  F  F13  1  0.24574176  0.98487007  0.75057586  1
  F  F14  1  0.02244582  0.63524436  0.25021449  1
  F  F15  1  0.01741237  0.62920992  0.75060147  1
  F  F16  1  0.40478876  0.67844317  0.01901680  1
  F  F17  1  0.40501050  0.67951914  0.47489844  1
  F  F18  1  0.24574176  0.48487007  0.24942414  1
  F  F19  1  0.24109328  0.49483941  0.74763352  1
  F  F20  1  0.72474563  0.87745962  0.24826178  1
  F  F21  1  0.74942855  0.87974352  0.75095293  1
  F  F22  1  0.01741237  0.12920992  0.24939853  1
  F  F23  1  0.02244582  0.13524436  0.74978551  1
  F  F24  1  0.64003349  0.52164144  0.02160806  1
  F  F25  1  0.64022444  0.52236842  0.48113712  1
  F  F26  1  0.95584946  0.79751156  0.02197240  1
  F  F27  1  0.94995894  0.79752075  0.47541340  1
  F  F28  1  0.40501050  0.17951914  0.52510156  1
  F  F29  1  0.40478876  0.17844317  0.98098320  1
  F  F30  1  0.74942855  0.37974352  0.24904707  1
  F  F31  1  0.72474563  0.37745962  0.75173822  1
  F  F32  1  0.64003349  0.02164144  0.97839194  1
  F  F33  1  0.64022444  0.02236842  0.51886288  1
  F  F34  1  0.95584946  0.29751156  0.97802760  1
  F  F35  1  0.94995894  0.29752075  0.52458660  1
