# generated using pymatgen
data_Ba3LiTa3Ti5O21
_symmetry_space_group_name_H-M   'P 1'
_cell_length_a   9.17745372
_cell_length_b   9.21835660
_cell_length_c   11.73045794
_cell_angle_alpha   90.00000000
_cell_angle_beta   90.00000000
_cell_angle_gamma   119.85332976
_symmetry_Int_Tables_number   1
_chemical_formula_structural   Ba3LiTa3Ti5O21
_chemical_formula_sum   'Ba6 Li2 Ta6 Ti10 O42'
_cell_volume   860.71877055
_cell_formula_units_Z   2
loop_
 _symmetry_equiv_pos_site_id
 _symmetry_equiv_pos_as_xyz
  1  'x, y, z'
loop_
 _atom_site_type_symbol
 _atom_site_label
 _atom_site_symmetry_multiplicity
 _atom_site_fract_x
 _atom_site_fract_y
 _atom_site_fract_z
 _atom_site_occupancy
  Ba  Ba0  1  0.00504992  0.40732458  0.74972431  1
  Ba  Ba1  1  0.40100037  0.00000000  0.75040969  1
  Ba  Ba2  1  0.59899963  0.00000000  0.25040969  1
  Ba  Ba3  1  0.40227466  0.40732458  0.24972431  1
  Ba  Ba4  1  0.59772534  0.59267542  0.74972431  1
  Ba  Ba5  1  0.99495008  0.59267542  0.24972431  1
  Li  Li6  1  0.99178028  0.00000000  0.24449430  1
  Li  Li7  1  0.00821972  0.00000000  0.74449430  1
  Ta  Ta8  1  0.24217188  0.00000000  0.41132619  1
  Ta  Ta9  1  0.33213530  0.66691305  0.50131753  1
  Ta  Ta10  1  0.33477675  0.66691305  0.00131753  1
  Ta  Ta11  1  0.66786470  0.33308695  0.00131753  1
  Ta  Ta12  1  0.66522325  0.33308695  0.50131753  1
  Ta  Ta13  1  0.75782812  0.00000000  0.91132619  1
  Ti  Ti14  1  0.25130265  0.00000000  0.08631516  1
  Ti  Ti15  1  0.24712228  0.25590741  0.59312674  1
  Ti  Ti16  1  0.25608559  0.25431249  0.91100667  1
  Ti  Ti17  1  0.74869735  0.00000000  0.58631516  1
  Ti  Ti18  1  0.75287772  0.74409259  0.09312674  1
  Ti  Ti19  1  0.74391441  0.74568751  0.41100667  1
  Ti  Ti20  1  0.00177310  0.74568751  0.91100667  1
  Ti  Ti21  1  0.99121487  0.74409259  0.59312674  1
  Ti  Ti22  1  0.00878513  0.25590741  0.09312674  1
  Ti  Ti23  1  0.99822690  0.25431249  0.41100667  1
  O  O24  1  0.99715291  0.79222372  0.75023038  1
  O  O25  1  0.19886391  0.00000000  0.57765254  1
  O  O26  1  0.19667495  0.00000000  0.24850987  1
  O  O27  1  0.16796522  0.68577430  0.89845003  1
  O  O28  1  0.16651643  0.68588696  0.59754175  1
  O  O29  1  0.99660880  0.20206728  0.92546807  1
  O  O30  1  0.00327965  0.20765349  0.57315782  1
  O  O31  1  0.31829119  0.83438273  0.39909149  1
  O  O32  1  0.31334591  0.83312274  0.09954286  1
  O  O33  1  0.16966046  0.48258113  0.40086591  1
  O  O34  1  0.16855603  0.48573223  0.10279792  1
  O  O35  1  0.31292068  0.48258113  0.90086591  1
  O  O36  1  0.31717620  0.48573223  0.60279792  1
  O  O37  1  0.51977683  0.83312274  0.59954286  1
  O  O38  1  0.51609154  0.83438273  0.89909149  1
  O  O39  1  0.20437384  0.20765349  0.07315782  1
  O  O40  1  0.20545848  0.20206728  0.42546807  1
  O  O41  1  0.20492920  0.20777628  0.75023038  1
  O  O42  1  0.51780908  0.68577430  0.39845003  1
  O  O43  1  0.51937053  0.68588696  0.09754175  1
  O  O44  1  0.20224313  0.00000000  0.92664926  1
  O  O45  1  0.80332505  0.00000000  0.74850987  1
  O  O46  1  0.80113609  0.00000000  0.07765254  1
  O  O47  1  0.79775687  0.00000000  0.42664926  1
  O  O48  1  0.48219092  0.31422570  0.89845003  1
  O  O49  1  0.48062947  0.31411304  0.59754175  1
  O  O50  1  0.79507080  0.79222372  0.25023038  1
  O  O51  1  0.79454152  0.79793272  0.92546807  1
  O  O52  1  0.79562616  0.79234651  0.57315782  1
  O  O53  1  0.48390846  0.16561727  0.39909149  1
  O  O54  1  0.48022317  0.16687726  0.09954286  1
  O  O55  1  0.68707932  0.51741887  0.40086591  1
  O  O56  1  0.68282380  0.51426777  0.10279792  1
  O  O57  1  0.83144397  0.51426777  0.60279792  1
  O  O58  1  0.83033954  0.51741887  0.90086591  1
  O  O59  1  0.68170881  0.16561727  0.89909149  1
  O  O60  1  0.68665409  0.16687726  0.59954286  1
  O  O61  1  0.99672035  0.79234651  0.07315782  1
  O  O62  1  0.00339120  0.79793272  0.42546807  1
  O  O63  1  0.83348357  0.31411304  0.09754175  1
  O  O64  1  0.83203478  0.31422570  0.39845003  1
  O  O65  1  0.00284709  0.20777628  0.25023038  1
