# generated using pymatgen
data_Li9Mn2Co5O16
_symmetry_space_group_name_H-M   'P 1'
_cell_length_a   2.94750735
_cell_length_b   10.15034370
_cell_length_c   9.75592089
_cell_angle_alpha   94.39701105
_cell_angle_beta   83.27293516
_cell_angle_gamma   92.46503345
_symmetry_Int_Tables_number   1
_chemical_formula_structural   Li9Mn2Co5O16
_chemical_formula_sum   'Li9 Mn2 Co5 O16'
_cell_volume   288.84637122
_cell_formula_units_Z   1
loop_
 _symmetry_equiv_pos_site_id
 _symmetry_equiv_pos_as_xyz
  1  'x, y, z'
loop_
 _atom_site_type_symbol
 _atom_site_label
 _atom_site_symmetry_multiplicity
 _atom_site_fract_x
 _atom_site_fract_y
 _atom_site_fract_z
 _atom_site_occupancy
  Li  Li0  1  0.87708891  0.18687531  0.24981401  1
  Li  Li1  1  0.11186544  0.31918202  0.75526270  1
  Li  Li2  1  0.36670179  0.44360369  0.24892150  1
  Li  Li3  1  0.61804530  0.55913647  0.75779012  1
  Li  Li4  1  0.88150208  0.68908879  0.24875019  1
  Li  Li5  1  0.12919148  0.80928296  0.75100698  1
  Li  Li6  1  0.37569544  0.93560270  0.25210394  1
  Li  Li7  1  0.63680520  0.06061572  0.74273370  1
  Li  Li8  1  0.01617356  0.49851025  0.99087569  1
  Mn  Mn9  1  0.99380063  0.99731549  0.00250057  1
  Mn  Mn10  1  0.49523913  0.25829486  0.99883969  1
  Co  Co11  1  0.24953485  0.12530842  0.50041479  1
  Co  Co12  1  0.75145278  0.37691013  0.49690785  1
  Co  Co13  1  0.24886980  0.62488789  0.49834122  1
  Co  Co14  1  0.50740240  0.73813208  0.00156357  1
  Co  Co15  1  0.74918649  0.87296195  0.50433386  1
  O  O16  1  0.40598763  0.09813927  0.11536141  1
  O  O17  1  0.68168108  0.21461505  0.61385007  1
  O  O18  1  0.96132027  0.33421932  0.10944161  1
  O  O19  1  0.18587357  0.47121422  0.61018679  1
  O  O20  1  0.43983952  0.61184591  0.11484006  1
  O  O21  1  0.65618734  0.71537518  0.61348063  1
  O  O22  1  0.91691239  0.84347907  0.11573088  1
  O  O23  1  0.18787880  0.96623528  0.61943516  1
  O  O24  1  0.32216702  0.28598465  0.38310959  1
  O  O25  1  0.56424278  0.39271251  0.88104562  1
  O  O26  1  0.84162304  0.53501983  0.38092549  1
  O  O27  1  0.09003777  0.66461958  0.88471275  1
  O  O28  1  0.30590454  0.77970939  0.38994623  1
  O  O29  1  0.58122527  0.89855295  0.88895143  1
  O  O30  1  0.82359684  0.03193266  0.38553326  1
  O  O31  1  0.02696684  0.16063639  0.89328864  1
