# generated using pymatgen
data_K2ThF6
_symmetry_space_group_name_H-M   'P 1'
_cell_length_a   8.67024808
_cell_length_b   12.84764169
_cell_length_c   7.42698339
_cell_angle_alpha   29.87407872
_cell_angle_beta   53.11780393
_cell_angle_gamma   58.63942404
_symmetry_Int_Tables_number   1
_chemical_formula_structural   K2ThF6
_chemical_formula_sum   'K4 Th2 F12'
_cell_volume   329.60975929
_cell_formula_units_Z   2
loop_
 _symmetry_equiv_pos_site_id
 _symmetry_equiv_pos_as_xyz
  1  'x, y, z'
loop_
 _atom_site_type_symbol
 _atom_site_label
 _atom_site_symmetry_multiplicity
 _atom_site_fract_x
 _atom_site_fract_y
 _atom_site_fract_z
 _atom_site_occupancy
  K  K0  1  0.00000000  0.99567142  0.00649287  1
  K  K1  1  0.00000000  0.65205070  0.02192444  1
  K  K2  1  0.50000000  0.33766158  0.99350713  1
  K  K3  1  0.50000000  0.68128330  0.97807556  1
  Th  Th4  1  0.00000000  0.33523615  0.99714527  1
  Th  Th5  1  0.50000000  0.99809685  0.00285473  1
  F  F6  1  0.11452224  0.31933491  0.22727733  1
  F  F7  1  0.12268581  0.62034761  0.34200233  1
  F  F8  1  0.38547776  0.01399809  0.77272267  1
  F  F9  1  0.64222394  0.30767972  0.30107035  1
  F  F10  1  0.35777606  0.30767972  0.77588948  1
  F  F11  1  0.14222394  0.02565328  0.22411052  1
  F  F12  1  0.62268581  0.71298639  0.20304417  1
  F  F13  1  0.85777606  0.02565328  0.69892965  1
  F  F14  1  0.37731419  0.71298639  0.65799767  1
  F  F15  1  0.61452224  0.01399809  0.18528305  1
  F  F16  1  0.88547776  0.31933491  0.81471695  1
  F  F17  1  0.87731419  0.62034761  0.79695583  1
