# generated using pymatgen
data_Co19Te34
_symmetry_space_group_name_H-M   'P 1'
_cell_length_a   64.79652436
_cell_length_b   13.72351917
_cell_length_c   9.38179116
_cell_angle_alpha   37.70092245
_cell_angle_beta   35.39980236
_cell_angle_gamma   13.95021312
_symmetry_Int_Tables_number   1
_chemical_formula_structural   Co19Te34
_chemical_formula_sum   'Co19 Te34'
_cell_volume   1165.06158726
_cell_formula_units_Z   1
loop_
 _symmetry_equiv_pos_site_id
 _symmetry_equiv_pos_as_xyz
  1  'x, y, z'
loop_
 _atom_site_type_symbol
 _atom_site_label
 _atom_site_symmetry_multiplicity
 _atom_site_fract_x
 _atom_site_fract_y
 _atom_site_fract_z
 _atom_site_occupancy
  Co  Co0  1  0.00190057  0.99169951  0.99995010  1
  Co  Co1  1  0.05906136  0.99765162  0.99910424  1
  Co  Co2  1  0.11738173  0.99926514  -0.00001827  1
  Co  Co3  1  0.17647466  0.00182709  0.00030300  1
  Co  Co4  1  0.23494715  0.00284153  0.00075614  1
  Co  Co5  1  0.29217453  0.00855673  -0.00001368  1
  Co  Co6  1  0.35209251  0.00049092  0.00757032  1
  Co  Co7  1  0.41135289  0.00160422  0.99984486  1
  Co  Co8  1  0.47149208  0.99906435  0.99318430  1
  Co  Co9  1  0.53131978  0.99198042  0.99973234  1
  Co  Co10  1  0.58936366  0.99301617  0.99759608  1
  Co  Co11  1  0.64718820  0.99945578  0.99991183  1
  Co  Co12  1  0.41125993  0.00184165  0.50049460  1
  Co  Co13  1  0.70499640  0.00598383  0.00225965  1
  Co  Co14  1  0.76281838  0.00790791  0.00032652  1
  Co  Co15  1  0.82245552  0.00074874  0.00859734  1
  Co  Co16  1  0.88276821  0.99832723  0.00011437  1
  Co  Co17  1  0.94223588  0.99947161  0.99072493  1
  Co  Co18  1  0.88282587  0.99830448  0.49959303  1
  Te  Te19  1  0.05087156  0.33378135  0.23400358  1
  Te  Te20  1  0.10894088  0.33521459  0.23852607  1
  Te  Te21  1  0.00967817  0.66187140  0.75572092  1
  Te  Te22  1  0.16781124  0.33463709  0.23870180  1
  Te  Te23  1  0.06892747  0.66227462  0.75710954  1
  Te  Te24  1  0.22520910  0.33815947  0.24224979  1
  Te  Te25  1  0.12626334  0.66567162  0.76108435  1
  Te  Te26  1  0.28438246  0.33842097  0.24380997  1
  Te  Te27  1  0.18502119  0.66544114  0.76166352  1
  Te  Te28  1  0.34433501  0.33607945  0.23411133  1
  Te  Te29  1  0.24288523  0.66804070  0.76584484  1
  Te  Te30  1  0.40349468  0.33529613  0.23468116  1
  Te  Te31  1  0.30264299  0.66604394  0.76122864  1
  Te  Te32  1  0.46278559  0.32833952  0.24252527  1
  Te  Te33  1  0.36076295  0.67199087  0.75748025  1
  Te  Te34  1  0.52091989  0.33399429  0.23841512  1
  Te  Te35  1  0.42009601  0.66461190  0.76502010  1
  Te  Te36  1  0.58071608  0.33207375  0.23356666  1
  Te  Te37  1  0.47920641  0.66371325  0.76519009  1
  Te  Te38  1  0.63809035  0.33502633  0.24107967  1
  Te  Te39  1  0.53850767  0.66359683  0.75815417  1
  Te  Te40  1  0.69585562  0.33741774  0.24291582  1
  Te  Te41  1  0.59819231  0.66238520  0.75780647  1
  Te  Te42  1  0.75564662  0.33604509  0.24249448  1
  Te  Te43  1  0.65608319  0.66467482  0.75892006  1
  Te  Te44  1  0.81530822  0.33502190  0.23409612  1
  Te  Te45  1  0.71375021  0.66605193  0.76685104  1
  Te  Te46  1  0.87417963  0.33478012  0.23427915  1
  Te  Te47  1  0.77338350  0.66521667  0.76153086  1
  Te  Te48  1  0.93339275  0.32746359  0.24301472  1
  Te  Te49  1  0.83137542  0.67198590  0.75684852  1
  Te  Te50  1  0.99139013  0.33435831  0.23851476  1
  Te  Te51  1  0.89043266  0.66548759  0.76601807  1
  Te  Te52  1  0.94947016  0.66479301  0.76651144  1
