# generated using pymatgen
data_PbF2
_symmetry_space_group_name_H-M   'P 1'
_cell_length_a   4.25158674
_cell_length_b   8.50434522
_cell_length_c   7.37309487
_cell_angle_alpha   30.00297003
_cell_angle_beta   54.78880353
_cell_angle_gamma   60.10860051
_symmetry_Int_Tables_number   1
_chemical_formula_structural   PbF2
_chemical_formula_sum   'Pb2 F4'
_cell_volume   108.91525419
_cell_formula_units_Z   2
loop_
 _symmetry_equiv_pos_site_id
 _symmetry_equiv_pos_as_xyz
  1  'x, y, z'
loop_
 _atom_site_type_symbol
 _atom_site_label
 _atom_site_symmetry_multiplicity
 _atom_site_fract_x
 _atom_site_fract_y
 _atom_site_fract_z
 _atom_site_occupancy
  Pb  Pb0  1  0.02237042  0.97747897  0.02254905  1
  Pb  Pb1  1  0.02245490  0.47756031  0.02235231  1
  F  F2  1  0.27640979  0.97360789  0.29119351  1
  F  F3  1  0.29124209  0.45881939  0.27637991  1
  F  F4  1  0.80586426  0.47365891  0.76156347  1
  F  F5  1  0.76165855  0.95887454  0.80596174  1
