# generated using pymatgen
data_SiO2
_symmetry_space_group_name_H-M   'P 1'
_cell_length_a   5.08261751
_cell_length_b   5.08261751
_cell_length_c   7.09520676
_cell_angle_alpha   90.00000000
_cell_angle_beta   90.00000000
_cell_angle_gamma   90.00000000
_symmetry_Int_Tables_number   1
_chemical_formula_structural   SiO2
_chemical_formula_sum   'Si4 O8'
_cell_volume   183.29048157
_cell_formula_units_Z   4
loop_
 _symmetry_equiv_pos_site_id
 _symmetry_equiv_pos_as_xyz
  1  'x, y, z'
loop_
 _atom_site_type_symbol
 _atom_site_label
 _atom_site_symmetry_multiplicity
 _atom_site_fract_x
 _atom_site_fract_y
 _atom_site_fract_z
 _atom_site_occupancy
  O  O0  1  0.90586098  0.75897950  0.32563136  1
  O  O1  1  0.09413902  0.24102050  0.82563136  1
  O  O2  1  0.75897950  0.90586098  0.67436864  1
  O  O3  1  0.25897950  0.59413902  0.07563136  1
  O  O4  1  0.24102050  0.09413902  0.17436864  1
  O  O5  1  0.40586098  0.74102050  0.42436864  1
  O  O6  1  0.59413902  0.25897950  0.92436864  1
  O  O7  1  0.74102050  0.40586098  0.57563136  1
  Si  Si8  1  0.70554438  0.70554438  0.50000000  1
  Si  Si9  1  0.79445562  0.20554438  0.75000000  1
  Si  Si10  1  0.20554438  0.79445562  0.25000000  1
  Si  Si11  1  0.29445562  0.29445562  0.00000000  1
