# generated using pymatgen
data_Na2Nb18Tl7(PO8)9
_symmetry_space_group_name_H-M   'P 1'
_cell_length_a   8.61654599
_cell_length_b   8.62459322
_cell_length_c   25.86896283
_cell_angle_alpha   104.72435147
_cell_angle_beta   104.39779287
_cell_angle_gamma   104.79625540
_symmetry_Int_Tables_number   1
_chemical_formula_structural   Na2Nb18Tl7(PO8)9
_chemical_formula_sum   'Na2 Nb18 Tl7 P9 O72'
_cell_volume   1693.56221614
_cell_formula_units_Z   1
loop_
 _symmetry_equiv_pos_site_id
 _symmetry_equiv_pos_as_xyz
  1  'x, y, z'
loop_
 _atom_site_type_symbol
 _atom_site_label
 _atom_site_symmetry_multiplicity
 _atom_site_fract_x
 _atom_site_fract_y
 _atom_site_fract_z
 _atom_site_occupancy
  Na  Na0  1  0.00540366  0.00099394  0.33164727  1
  Na  Na1  1  0.00469310  0.00120306  0.00011015  1
  Nb  Nb2  1  0.13721166  0.34731815  0.82228338  1
  Nb  Nb3  1  0.52951725  0.65296564  0.95037555  1
  Nb  Nb4  1  0.33423346  0.47290831  0.71896940  1
  Nb  Nb5  1  0.14970960  0.34685363  0.48698013  1
  Nb  Nb6  1  0.64500646  0.86280454  0.84769171  1
  Nb  Nb7  1  0.45415441  0.15442465  0.77796034  1
  Nb  Nb8  1  0.54099853  0.65000746  0.62084043  1
  Nb  Nb9  1  0.34676543  0.45518039  0.37992341  1
  Nb  Nb10  1  0.14572236  0.34441558  0.15396326  1
  Nb  Nb11  1  0.84259789  0.53872284  0.88584320  1
  Nb  Nb12  1  0.66128851  0.83848681  0.50943672  1
  Nb  Nb13  1  0.47040291  0.13995692  0.44989554  1
  Nb  Nb14  1  0.53553787  0.64980583  0.28260706  1
  Nb  Nb15  1  0.34455038  0.46328105  0.04962949  1
  Nb  Nb16  1  0.85662474  0.53580498  0.55265023  1
  Nb  Nb17  1  0.65528674  0.85287930  0.17823982  1
  Nb  Nb18  1  0.46464253  0.14676656  0.11588262  1
  Nb  Nb19  1  0.85402363  0.53705563  0.21762915  1
  Tl  Tl20  1  0.58274538  0.17747605  0.97233098  1
  Tl  Tl21  1  0.35265647  0.18318916  0.58523377  1
  Tl  Tl22  1  0.68759025  0.12733541  0.64607228  1
  Tl  Tl23  1  0.12084398  0.89551936  0.83382237  1
  Tl  Tl24  1  0.48839035  0.09696378  0.29318209  1
  Tl  Tl25  1  0.93337731  0.61071471  0.41072748  1
  Tl  Tl26  1  0.95277387  0.63328306  0.08265329  1
  P  P27  1  0.99599546  0.23377677  0.92579087  1
  P  P28  1  0.99364869  0.22517202  0.58823299  1
  P  P29  1  0.23564363  0.77306628  0.66415564  1
  P  P30  1  0.99745698  0.23116634  0.25564520  1
  P  P31  1  0.23033297  0.76815208  0.33343159  1
  P  P32  1  0.22813528  0.77238655  0.00064940  1
  P  P33  1  0.77342370  0.99400826  0.74776631  1
  P  P34  1  0.77605460  0.99946930  0.40799535  1
  P  P35  1  0.77159591  0.99976802  0.07560482  1
  O  O36  1  0.05667492  0.73869834  0.95514158  1
  O  O37  1  0.00322853  0.47678677  0.84467734  1
  O  O38  1  0.13526896  0.26693655  0.98270564  1
  O  O39  1  0.07786010  0.21344458  0.87849851  1
  O  O40  1  0.06369681  0.72533277  0.61712714  1
  O  O41  1  0.37064579  0.78728006  0.97398490  1
  O  O42  1  0.27404646  0.94280104  0.71156645  1
  O  O43  1  0.00092613  0.46939319  0.50611128  1
  O  O44  1  0.17952263  0.42710472  0.76335585  1
  O  O45  1  0.22256617  0.63206944  0.69154679  1
  O  O46  1  0.34725609  0.49839288  0.88366205  1
  O  O47  1  0.14142035  0.27229664  0.64418492  1
  O  O48  1  0.06788417  0.20567014  0.53898035  1
  O  O49  1  0.29014291  0.18467680  0.81088106  1
  O  O50  1  0.05865882  0.73332855  0.28700945  1
  O  O51  1  0.56706523  0.82097997  0.90638927  1
  O  O52  1  0.37881214  0.78982645  0.63762592  1
  O  O53  1  0.26617521  0.94307286  0.37828114  1
  O  O54  1  0.49194587  0.65477358  0.78451124  1
  O  O55  1  0.99814860  0.47644110  0.17262442  1
  O  O56  1  0.19654082  0.43496600  0.43135645  1
  O  O57  1  0.21386858  0.62795288  0.36050947  1
  O  O58  1  0.34774276  0.48564355  0.55403613  1
  O  O59  1  0.42156714  0.29300877  0.72914068  1
  O  O60  1  0.13556389  0.26314931  0.31291318  1
  O  O61  1  0.47855261  0.52496837  0.66826241  1
  O  O62  1  0.70688593  0.57209743  0.93899342  1
  O  O63  1  0.07867781  0.21845682  0.20864533  1
  O  O64  1  0.29569594  0.18554750  0.47654543  1
  O  O65  1  0.52586671  0.00624610  0.82821563  1
  O  O66  1  0.57603978  0.80038673  0.56656803  1
  O  O67  1  0.65081868  0.35085532  0.83241309  1
  O  O68  1  0.37332241  0.78485503  0.30665853  1
  O  O69  1  0.79076112  0.91041716  0.79379877  1
  O  O70  1  0.80914957  0.71342304  0.86028091  1
  O  O71  1  0.26512879  0.94687038  0.04644221  1
  O  O72  1  0.50745670  0.64671448  0.44492809  1
  O  O73  1  0.73082622  0.85903271  0.68847326  1
  O  O74  1  0.18389443  0.43213989  0.09650470  1
  O  O75  1  0.21242287  0.63351781  0.02868367  1
  O  O76  1  0.63407538  0.07657143  0.74387467  1
  O  O77  1  0.34718390  0.50177452  0.21597136  1
  O  O78  1  0.42728108  0.28393580  0.39321291  1
  O  O79  1  0.47325142  0.51798600  0.33012795  1
  O  O80  1  0.71050296  0.56939427  0.60211535  1
  O  O81  1  0.91587667  0.37398311  0.93073726  1
  O  O82  1  0.29344810  0.19318220  0.14215671  1
  O  O83  1  0.53034092  0.99469459  0.49015545  1
  O  O84  1  0.85780930  0.06102856  0.91503647  1
  O  O85  1  0.57136211  0.81518366  0.23608964  1
  O  O86  1  0.65558634  0.34396664  0.49857538  1
  O  O87  1  0.78959868  0.91450199  0.45369894  1
  O  O88  1  0.81661181  0.70018289  0.51959251  1
  O  O89  1  0.50055616  0.65286163  0.11578716  1
  O  O90  1  0.73960956  0.86314858  0.34958471  1
  O  O91  1  0.63356589  0.08005281  0.40266621  1
  O  O92  1  0.43113371  0.29215457  0.06132875  1
  O  O93  1  0.94538535  0.13318394  0.76035579  1
  O  O94  1  0.46993171  0.52461659  0.99949564  1
  O  O95  1  0.71026265  0.57215398  0.26976895  1
  O  O96  1  0.90803796  0.36154962  0.59292885  1
  O  O97  1  0.52678840  0.00119626  0.15767537  1
  O  O98  1  0.85905049  0.05056932  0.57635386  1
  O  O99  1  0.65468829  0.34770818  0.16583588  1
  O  O100  1  0.78443611  0.91860399  0.12241680  1
  O  O101  1  0.81141910  0.70864314  0.18971455  1
  O  O102  1  0.73791877  0.86179252  0.01832284  1
  O  O103  1  0.63153802  0.08300510  0.06976414  1
  O  O104  1  0.94844443  0.13837488  0.41935796  1
  O  O105  1  0.91860822  0.37298832  0.26146895  1
  O  O106  1  0.86001628  0.05812674  0.24401312  1
  O  O107  1  0.94471567  0.13774600  0.08722786  1
