# generated using pymatgen
data_NaCa3SmP3O12F
_symmetry_space_group_name_H-M   'P 1'
_cell_length_a   9.48285376
_cell_length_b   9.48543547
_cell_length_c   13.94623714
_cell_angle_alpha   90.03367235
_cell_angle_beta   89.98394883
_cell_angle_gamma   120.11242527
_symmetry_Int_Tables_number   1
_chemical_formula_structural   NaCa3SmP3O12F
_chemical_formula_sum   'Na4 Ca12 Sm4 P12 O48 F4'
_cell_volume   1085.15259612
_cell_formula_units_Z   4
loop_
 _symmetry_equiv_pos_site_id
 _symmetry_equiv_pos_as_xyz
  1  'x, y, z'
loop_
 _atom_site_type_symbol
 _atom_site_label
 _atom_site_symmetry_multiplicity
 _atom_site_fract_x
 _atom_site_fract_y
 _atom_site_fract_z
 _atom_site_occupancy
  Na  Na0  1  0.33746120  0.66451183  0.00080360  1
  Na  Na1  1  0.33655206  0.66557646  0.49505506  1
  Na  Na2  1  0.66901855  0.33264655  0.24879086  1
  Na  Na3  1  0.66548317  0.33033656  0.74668546  1
  Ca  Ca4  1  0.33950440  0.66374448  0.25015813  1
  Ca  Ca5  1  0.24636381  0.25898776  0.37693483  1
  Ca  Ca6  1  0.24567862  0.25660727  0.87507526  1
  Ca  Ca7  1  0.25557308  0.01421988  0.62381999  1
  Ca  Ca8  1  0.74513505  0.99395113  0.37537710  1
  Ca  Ca9  1  0.74713630  0.99581371  0.87642959  1
  Ca  Ca10  1  0.75007143  0.74665011  0.12621237  1
  Ca  Ca11  1  0.75640309  0.75007767  0.62344962  1
  Ca  Ca12  1  0.66568721  0.32943590  0.50051969  1
  Ca  Ca13  1  0.67005242  0.33235339  0.00060291  1
  Ca  Ca14  1  0.99039564  0.24653492  0.12639541  1
  Ca  Ca15  1  0.98977702  0.24160783  0.62350693  1
  Sm  Sm16  1  0.00969816  0.75676828  0.37713611  1
  Sm  Sm17  1  0.00906466  0.75823763  0.87446060  1
  Sm  Sm18  1  0.33855040  0.66521839  0.74598011  1
  Sm  Sm19  1  0.25632954  0.01503866  0.12618393  1
  P  P20  1  0.02559700  0.63376234  0.12422817  1
  P  P21  1  0.02583376  0.63133469  0.62491757  1
  P  P22  1  0.60707853  0.97327204  0.12399804  1
  P  P23  1  0.60406388  0.97083760  0.62495192  1
  P  P24  1  0.36368437  0.39049422  0.12397533  1
  P  P25  1  0.36623267  0.39411252  0.62469628  1
  P  P26  1  0.63612125  0.60737519  0.37452679  1
  P  P27  1  0.63578824  0.60595663  0.87388083  1
  P  P28  1  0.39127129  0.02595309  0.37443508  1
  P  P29  1  0.39241692  0.02676110  0.87373259  1
  P  P30  1  0.97410952  0.36585572  0.37420218  1
  P  P31  1  0.97351652  0.36661948  0.87348604  1
  O  O32  1  0.08639528  0.75565383  0.03699166  1
  O  O33  1  0.08335101  0.75080609  0.53828803  1
  O  O34  1  0.08435587  0.75260379  0.21303584  1
  O  O35  1  0.08909208  0.74271248  0.71676335  1
  O  O36  1  0.11444694  0.53563118  0.12735576  1
  O  O37  1  0.11663181  0.53295344  0.62731907  1
  O  O38  1  0.30895285  0.83695830  0.37126625  1
  O  O39  1  0.31378918  0.83697795  0.87027937  1
  O  O40  1  0.16152497  0.47740540  0.37177216  1
  O  O41  1  0.16175303  0.48217160  0.86957824  1
  O  O42  1  0.41596756  0.88781991  0.12668121  1
  O  O43  1  0.41299887  0.88246951  0.62712826  1
  O  O44  1  0.24692460  0.32864042  0.03645234  1
  O  O45  1  0.25178348  0.33369885  0.21409601  1
  O  O46  1  0.25853044  0.35321936  0.71724264  1
  O  O47  1  0.24777239  0.33314612  0.53868850  1
  O  O48  1  0.46761280  0.57868263  0.12639858  1
  O  O49  1  0.47031090  0.58482751  0.62620656  1
  O  O50  1  0.52867737  0.68640321  0.37180321  1
  O  O51  1  0.52426493  0.68183260  0.86951093  1
  O  O52  1  0.66386025  0.91403819  0.03628261  1
  O  O53  1  0.65860514  0.91338573  0.21414578  1
  O  O54  1  0.66569415  0.91447295  0.53854372  1
  O  O55  1  0.64682532  0.90478141  0.71731003  1
  O  O56  1  0.32985086  0.08047045  0.28552211  1
  O  O57  1  0.33161183  0.08181755  0.46256688  1
  O  O58  1  0.32557757  0.08050312  0.78880128  1
  O  O59  1  0.33218084  0.07609720  0.96550363  1
  O  O60  1  0.47212993  0.30973747  0.12148825  1
  O  O61  1  0.47406897  0.31538771  0.62384099  1
  O  O62  1  0.53399762  0.41932370  0.37744235  1
  O  O63  1  0.53407726  0.41840967  0.87790371  1
  O  O64  1  0.75799204  0.66855719  0.28812360  1
  O  O65  1  0.75340755  0.66442941  0.46370199  1
  O  O66  1  0.75232281  0.66694608  0.96283366  1
  O  O67  1  0.75699025  0.66839568  0.78737175  1
  O  O68  1  0.57849925  0.11185295  0.37655905  1
  O  O69  1  0.57935924  0.11332980  0.87739966  1
  O  O70  1  0.83953663  0.52727263  0.12096636  1
  O  O71  1  0.84014049  0.52370247  0.62331312  1
  O  O72  1  0.68279191  0.16024057  0.12149310  1
  O  O73  1  0.68134615  0.15721186  0.62406256  1
  O  O74  1  0.88942444  0.47180905  0.37660979  1
  O  O75  1  0.88893515  0.47225654  0.87701486  1
  O  O76  1  0.91468788  0.24960946  0.28687802  1
  O  O77  1  0.91564191  0.25005173  0.78659475  1
  O  O78  1  0.91379946  0.25522236  0.46466324  1
  O  O79  1  0.91807509  0.25775113  0.96432099  1
  F  F80  1  0.00122258  0.99875852  0.62824257  1
  F  F81  1  0.00385518  0.99700961  0.12602108  1
  F  F82  1  0.99956029  0.99564411  0.37579297  1
  F  F83  1  0.99914683  0.99625348  0.87721519  1
