# generated using pymatgen
data_Sr8La3(RuO7)3
_symmetry_space_group_name_H-M   'P 1'
_cell_length_a   6.96635738
_cell_length_b   6.95639393
_cell_length_c   21.08354411
_cell_angle_alpha   49.20441401
_cell_angle_beta   49.06543373
_cell_angle_gamma   48.98647534
_symmetry_Int_Tables_number   1
_chemical_formula_structural   Sr8La3(RuO7)3
_chemical_formula_sum   'Sr8 La3 Ru3 O21'
_cell_volume   535.82853640
_cell_formula_units_Z   1
loop_
 _symmetry_equiv_pos_site_id
 _symmetry_equiv_pos_as_xyz
  1  'x, y, z'
loop_
 _atom_site_type_symbol
 _atom_site_label
 _atom_site_symmetry_multiplicity
 _atom_site_fract_x
 _atom_site_fract_y
 _atom_site_fract_z
 _atom_site_occupancy
  Sr  Sr0  1  0.13610817  0.18546097  0.06734951  1
  Sr  Sr1  1  0.37802406  0.37757061  0.12799725  1
  Sr  Sr2  1  0.60989629  0.61578189  0.20818042  1
  Sr  Sr3  1  0.14401266  0.19797215  0.72883697  1
  Sr  Sr4  1  0.61300333  0.61541340  0.54505103  1
  Sr  Sr5  1  0.38927375  0.38984348  0.78709296  1
  Sr  Sr6  1  0.85239410  0.88050903  0.58208281  1
  Sr  Sr7  1  0.80392371  0.83092266  0.94773716  1
  La  La8  1  0.36101443  0.37176037  0.45503604  1
  La  La9  1  0.77262354  0.76644025  0.31713395  1
  La  La10  1  0.61732035  0.63003845  0.87322073  1
  Ru  Ru11  1  0.00686637  0.00153060  0.99758094  1
  Ru  Ru12  1  0.01426407  0.00783883  0.32947334  1
  Ru  Ru13  1  0.01128323  0.00963753  0.66207565  1
  O  O14  1  0.10545549  0.07400052  0.20858347  1
  O  O15  1  0.13771381  0.62398073  0.01830093  1
  O  O16  1  0.62675493  0.11221943  0.02601551  1
  O  O17  1  0.64294505  0.51288212  0.11376914  1
  O  O18  1  0.11172964  0.10483421  0.53681152  1
  O  O19  1  0.10810756  0.62058827  0.36181533  1
  O  O20  1  0.62894321  0.10430918  0.36186204  1
  O  O21  1  0.39429155  0.89992863  0.29731988  1
  O  O22  1  0.91778320  0.38915879  0.29161180  1
  O  O23  1  0.90989791  0.89784319  0.12247893  1
  O  O24  1  0.55354192  0.51805683  0.46630165  1
  O  O25  1  0.12220899  0.08032638  0.86999016  1
  O  O26  1  0.11919036  0.63212409  0.68714728  1
  O  O27  1  0.62993454  0.10767697  0.69158665  1
  O  O28  1  0.39040089  0.92765874  0.62845408  1
  O  O29  1  0.92281550  0.39494599  0.62620453  1
  O  O30  1  0.90616330  0.89299787  0.45466941  1
  O  O31  1  0.60303235  0.45691697  0.82135008  1
  O  O32  1  0.38243969  0.91847961  0.96385556  1
  O  O33  1  0.92353612  0.38490260  0.95583879  1
  O  O34  1  0.91422591  0.89656863  0.79089153  1
