# generated using pymatgen
data_Li2NiO3
_symmetry_space_group_name_H-M   'P 1'
_cell_length_a   4.92695699
_cell_length_b   4.92697896
_cell_length_c   9.56880802
_cell_angle_alpha   85.04762466
_cell_angle_beta   80.05811053
_cell_angle_gamma   59.99940038
_symmetry_Int_Tables_number   1
_chemical_formula_structural   Li2NiO3
_chemical_formula_sum   'Li8 Ni4 O12'
_cell_volume   198.14094172
_cell_formula_units_Z   4
loop_
 _symmetry_equiv_pos_site_id
 _symmetry_equiv_pos_as_xyz
  1  'x, y, z'
loop_
 _atom_site_type_symbol
 _atom_site_label
 _atom_site_symmetry_multiplicity
 _atom_site_fract_x
 _atom_site_fract_y
 _atom_site_fract_z
 _atom_site_occupancy
  Li  Li0  1  0.68017908  0.16148463  0.50026889  1
  Li  Li1  1  0.84172887  0.83848744  0.00031798  1
  Li  Li2  1  0.99990476  0.49997952  0.50003765  1
  Li  Li3  1  0.91590009  0.16821753  0.74999513  1
  Li  Li4  1  0.08411771  0.83175133  0.24999653  1
  Li  Li5  1  0.15832869  0.16147741  0.99971204  1
  Li  Li6  1  0.50011740  0.49997096  0.99995871  1
  Li  Li7  1  0.31980338  0.83846142  0.49969051  1
  Ni  Ni8  1  0.24995645  0.50008294  0.75001099  1
  Ni  Ni9  1  0.58307139  0.83389002  0.75000789  1
  Ni  Ni10  1  0.41692043  0.16613351  0.24998755  1
  Ni  Ni11  1  0.75003555  0.49993724  0.24998480  1
  O  O12  1  0.04670794  0.19085710  0.36284126  1
  O  O13  1  0.12050674  0.47337277  0.13862566  1
  O  O14  1  0.31303366  0.16762992  0.63864693  1
  O  O15  1  0.40602374  0.47343344  0.36142679  1
  O  O16  1  0.51934283  0.16762806  0.86130614  1
  O  O17  1  0.23762228  0.80913088  0.86279338  1
  O  O18  1  0.76235841  0.19089569  0.13721498  1
  O  O19  1  0.48066269  0.83240069  0.13870099  1
  O  O20  1  0.59394738  0.52659509  0.63857487  1
  O  O21  1  0.68695171  0.83239563  0.36135663  1
  O  O22  1  0.87949814  0.52663251  0.86138313  1
  O  O23  1  0.95328068  0.80915427  0.63716056  1
