# generated using pymatgen
data_Li9Mn2Co5O16
_symmetry_space_group_name_H-M   'P 1'
_cell_length_a   2.94546142
_cell_length_b   10.19080545
_cell_length_c   9.80054427
_cell_angle_alpha   101.12330018
_cell_angle_beta   86.58065689
_cell_angle_gamma   91.39016107
_symmetry_Int_Tables_number   1
_chemical_formula_structural   Li9Mn2Co5O16
_chemical_formula_sum   'Li9 Mn2 Co5 O16'
_cell_volume   288.11458596
_cell_formula_units_Z   1
loop_
 _symmetry_equiv_pos_site_id
 _symmetry_equiv_pos_as_xyz
  1  'x, y, z'
loop_
 _atom_site_type_symbol
 _atom_site_label
 _atom_site_symmetry_multiplicity
 _atom_site_fract_x
 _atom_site_fract_y
 _atom_site_fract_z
 _atom_site_occupancy
  Li  Li0  1  0.99720524  0.12378425  0.75002493  1
  Li  Li1  1  0.49189146  0.50359264  0.49559127  1
  Li  Li2  1  0.99733197  0.87380472  0.24922555  1
  Li  Li3  1  0.50826162  0.25657565  0.00452383  1
  Li  Li4  1  0.49962419  0.99962612  0.49844810  1
  Li  Li5  1  0.99183461  0.37787014  0.25055477  1
  Li  Li6  1  0.50143234  0.73622730  0.99786811  1
  Li  Li7  1  0.01155231  0.62362763  0.75776938  1
  Li  Li8  1  0.98758506  0.50682047  0.99680866  1
  Mn  Mn9  1  0.99591954  0.00295769  0.00153151  1
  Mn  Mn10  1  0.50249301  0.38245227  0.75801445  1
  Co  Co11  1  -0.00077437  0.74552875  0.49737952  1
  Co  Co12  1  0.50521664  0.12488392  0.25129849  1
  Co  Co13  1  0.49826417  0.87583329  0.74834259  1
  Co  Co14  1  0.01212657  0.24604379  0.50040525  1
  Co  Co15  1  0.49786191  0.61707297  0.23968343  1
  O  O16  1  0.45873702  0.05774011  0.87556445  1
  O  O17  1  0.02684607  0.42717019  0.63805964  1
  O  O18  1  0.49127764  0.79296956  0.37204900  1
  O  O19  1  0.96321975  0.18244070  0.12799094  1
  O  O20  1  0.98806479  0.92855132  0.62637465  1
  O  O21  1  0.49520008  0.29943858  0.37900364  1
  O  O22  1  0.97040376  0.68387387  0.13648021  1
  O  O23  1  0.49530146  0.55017636  0.86467788  1
  O  O24  1  0.51987184  0.19936054  0.62214598  1
  O  O25  1  0.02754473  0.56874237  0.37072138  1
  O  O26  1  0.52884972  0.95097788  0.12843062  1
  O  O27  1  0.97947722  0.32080265  0.85964619  1
  O  O28  1  0.03672327  0.06812083  0.36985802  1
  O  O29  1  0.50194482  0.45528624  0.14119847  1
  O  O30  1  0.00933770  0.82269181  0.87229532  1
  O  O31  1  0.50937385  0.69495038  0.61803379  1
