# generated using pymatgen
data_Li9Mn2Co5O16
_symmetry_space_group_name_H-M   'P 1'
_cell_length_a   2.99549114
_cell_length_b   10.28854886
_cell_length_c   9.91270068
_cell_angle_alpha   106.58691768
_cell_angle_beta   91.89659607
_cell_angle_gamma   82.34747632
_symmetry_Int_Tables_number   1
_chemical_formula_structural   Li9Mn2Co5O16
_chemical_formula_sum   'Li9 Mn2 Co5 O16'
_cell_volume   290.17794231
_cell_formula_units_Z   1
loop_
 _symmetry_equiv_pos_site_id
 _symmetry_equiv_pos_as_xyz
  1  'x, y, z'
loop_
 _atom_site_type_symbol
 _atom_site_label
 _atom_site_symmetry_multiplicity
 _atom_site_fract_x
 _atom_site_fract_y
 _atom_site_fract_z
 _atom_site_occupancy
  Li  Li0  1  0.92657133  0.13225657  0.31150779  1
  Li  Li1  1  0.42716580  0.13240401  0.82073392  1
  Li  Li2  1  0.31360411  0.37821827  0.43595256  1
  Li  Li3  1  0.81400436  0.36829484  0.94508337  1
  Li  Li4  1  0.68829404  0.62433217  0.56182226  1
  Li  Li5  1  0.19241731  0.62361784  0.06283164  1
  Li  Li6  1  0.06992841  0.87110376  0.68254166  1
  Li  Li7  1  0.57089733  0.87186159  0.18600182  1
  Li  Li8  1  0.38547365  0.24984965  0.11539502  1
  Mn  Mn9  1  0.98961446  0.00594977  0.00319502  1
  Mn  Mn10  1  0.49862647  0.99997879  0.49794061  1
  Co  Co11  1  0.86580432  0.25377739  0.62584941  1
  Co  Co12  1  0.75662103  0.48903280  0.24387536  1
  Co  Co13  1  0.25245384  0.50263515  0.75266332  1
  Co  Co14  1  0.13261862  0.74458686  0.37390181  1
  Co  Co15  1  0.62543909  0.74933085  0.87837081  1
  O  O16  1  0.47911128  0.05425544  0.13605724  1
  O  O17  1  0.91958626  0.07007936  0.64935510  1
  O  O18  1  0.83215783  0.33254150  0.28092410  1
  O  O19  1  0.34164022  0.32069300  0.77539498  1
  O  O20  1  0.17856424  0.56632090  0.39774234  1
  O  O21  1  0.73303125  0.56966498  0.89862792  1
  O  O22  1  0.60179465  0.81631976  0.52427867  1
  O  O23  1  0.04549055  0.81530575  0.02310596  1
  O  O24  1  0.39399504  0.18437399  0.47375166  1
  O  O25  1  0.91689911  0.17218261  0.96722121  1
  O  O26  1  0.78014548  0.43484759  0.60241348  1
  O  O27  1  0.30962922  0.44375673  0.10670546  1
  O  O28  1  0.21014195  0.68558340  0.72824637  1
  O  O29  1  0.65821089  0.67469508  0.22876984  1
  O  O30  1  0.51150419  0.93472670  0.86422337  1
  O  O31  1  0.07856365  0.92742291  0.34551589  1
