# generated using pymatgen
data_K2LiNb6(PO8)3
_symmetry_space_group_name_H-M   'P 1'
_cell_length_a   8.54512260
_cell_length_b   8.53132219
_cell_length_c   8.54204002
_cell_angle_alpha   104.17415351
_cell_angle_beta   104.07953490
_cell_angle_gamma   104.19523372
_symmetry_Int_Tables_number   1
_chemical_formula_structural   K2LiNb6(PO8)3
_chemical_formula_sum   'K2 Li1 Nb6 P3 O24'
_cell_volume   554.01767785
_cell_formula_units_Z   1
loop_
 _symmetry_equiv_pos_site_id
 _symmetry_equiv_pos_as_xyz
  1  'x, y, z'
loop_
 _atom_site_type_symbol
 _atom_site_label
 _atom_site_symmetry_multiplicity
 _atom_site_fract_x
 _atom_site_fract_y
 _atom_site_fract_z
 _atom_site_occupancy
  K  K0  1  0.40582139  0.69499056  0.08917001  1
  K  K1  1  0.91129208  0.30464344  0.59418201  1
  Li  Li2  1  0.57704647  0.57913929  0.57899582  1
  Nb  Nb3  1  0.03823532  0.35385880  0.15985019  1
  Nb  Nb4  1  0.16380851  0.04058602  0.35762309  1
  Nb  Nb5  1  0.65255395  0.97136170  0.84626969  1
  Nb  Nb6  1  0.35696121  0.16057958  0.03876105  1
  Nb  Nb7  1  0.84966585  0.65552030  0.97334314  1
  Nb  Nb8  1  0.97300964  0.84869905  0.65291686  1
  P  P9  1  0.27539262  0.72377709  0.49984200  1
  P  P10  1  0.49966439  0.27590508  0.72448138  1
  P  P11  1  0.72377205  0.49967644  0.27618052  1
  O  O12  1  0.02805042  0.97505820  0.49979760  1
  O  O13  1  0.15338284  0.00151068  0.84739274  1
  O  O14  1  0.00244532  0.84725331  0.15356116  1
  O  O15  1  0.13303436  0.70990507  0.58237180  1
  O  O16  1  0.06491607  0.20612109  0.31410754  1
  O  O17  1  0.28879222  0.86636492  0.41756440  1
  O  O18  1  0.23652820  0.55280193  0.35708856  1
  O  O19  1  0.44906460  0.75386789  0.63336680  1
  O  O20  1  0.20649088  0.31441234  0.06570904  1
  O  O21  1  0.41956384  0.29112286  0.86802540  1
  O  O22  1  0.35841234  0.23442397  0.55231598  1
  O  O23  1  0.30960568  0.06297148  0.20278597  1
  O  O24  1  0.49634503  0.02413945  0.97117171  1
  O  O25  1  0.68329261  0.79023639  0.92777284  1
  O  O26  1  0.63434450  0.44834378  0.75105210  1
  O  O27  1  0.58433995  0.13500939  0.71209794  1
  O  O28  1  0.79346251  0.92941224  0.68786268  1
  O  O29  1  0.55061762  0.35940165  0.23483229  1
  O  O30  1  0.75305333  0.63209838  0.45065332  1
  O  O31  1  0.70895171  0.58308703  0.13406457  1
  O  O32  1  0.92686735  0.68292648  0.78989426  1
  O  O33  1  0.86708455  0.41895325  0.29213803  1
  O  O34  1  0.84723585  0.15368849  0.00050587  1
  O  O35  1  0.97289469  0.49815238  0.02625165  1
