# generated using pymatgen
data_Al2NiO4
_symmetry_space_group_name_H-M   'P 1'
_cell_length_a   5.75117976
_cell_length_b   5.77549800
_cell_length_c   28.67355544
_cell_angle_alpha   59.76522898
_cell_angle_beta   59.49445389
_cell_angle_gamma   59.85818655
_symmetry_Int_Tables_number   1
_chemical_formula_structural   Al2NiO4
_chemical_formula_sum   'Al20 Ni10 O40'
_cell_volume   668.94908239
_cell_formula_units_Z   10
loop_
 _symmetry_equiv_pos_site_id
 _symmetry_equiv_pos_as_xyz
  1  'x, y, z'
loop_
 _atom_site_type_symbol
 _atom_site_label
 _atom_site_symmetry_multiplicity
 _atom_site_fract_x
 _atom_site_fract_y
 _atom_site_fract_z
 _atom_site_occupancy
  Al  Al0  1  0.12980222  0.11600587  0.22764346  1
  Al  Al1  1  0.49380208  0.49947885  0.10058290  1
  Al  Al2  1  0.49386913  0.00379105  0.10058226  1
  Al  Al3  1  0.13297134  0.11697435  0.42661956  1
  Al  Al4  1  0.49960019  0.49987378  0.30005031  1
  Al  Al5  1  0.86479351  0.88478475  0.17313179  1
  Al  Al6  1  0.49961573  0.00027075  0.30004891  1
  Al  Al7  1  0.13391403  0.11728948  0.62630012  1
  Al  Al8  1  0.50042295  0.50010260  0.49986021  1
  Al  Al9  1  0.86715450  0.88299235  0.37338185  1
  Al  Al10  1  0.50042082  0.00013409  0.49985946  1
  Al  Al11  1  0.14014091  0.11749545  0.82495963  1
  Al  Al12  1  0.50159610  0.50037124  0.69954586  1
  Al  Al13  1  0.86786778  0.88335238  0.57308464  1
  Al  Al14  1  0.50158762  0.00026418  0.69954469  1
  Al  Al15  1  0.50394775  0.49779033  0.89918856  1
  Al  Al16  1  0.86862436  0.88262345  0.77321630  1
  Al  Al17  1  0.49493786  0.49690096  0.00227947  1
  Al  Al18  1  0.50392870  0.00229677  0.89919423  1
  Al  Al19  1  0.86136074  0.87982138  0.97580291  1
  Ni  Ni20  1  0.12578416  0.12342086  0.02549618  1
  Ni  Ni21  1  0.49889921  0.50123056  0.19973493  1
  Ni  Ni22  1  0.99781104  0.49978050  0.10052016  1
  Ni  Ni23  1  0.49986313  0.50000156  0.40002225  1
  Ni  Ni24  1  0.99945601  0.49993264  0.30014845  1
  Ni  Ni25  1  0.50019534  0.50019313  0.59987554  1
  Ni  Ni26  1  0.00012566  0.50003267  0.49995283  1
  Ni  Ni27  1  0.50218051  0.49893487  0.79997921  1
  Ni  Ni28  1  0.00068950  0.50038843  0.69970898  1
  Ni  Ni29  1  0.00578066  0.49862097  0.89938995  1
  O  O30  1  0.28196569  0.25204394  0.05089628  1
  O  O31  1  0.28189566  0.71159258  0.05090116  1
  O  O32  1  0.26115128  0.24435494  0.15002707  1
  O  O33  1  0.70268964  0.26476146  0.05355270  1
  O  O34  1  0.26526160  0.23217935  0.25355860  1
  O  O35  1  0.25731883  0.75823871  0.14524303  1
  O  O36  1  0.72619478  0.75384462  0.05322171  1
  O  O37  1  0.26525213  0.73478635  0.25356239  1
  O  O38  1  0.73198411  0.26490043  0.14638115  1
  O  O39  1  0.26869831  0.24553792  0.34806072  1
  O  O40  1  0.73629240  0.24613571  0.25428991  1
  O  O41  1  0.73202123  0.77117066  0.14638353  1
  O  O42  1  0.26564822  0.23164846  0.45336914  1
  O  O43  1  0.26040272  0.75382063  0.34639968  1
  O  O44  1  0.72996652  0.75441983  0.25223806  1
  O  O45  1  0.26563476  0.73585062  0.45337422  1
  O  O46  1  0.73347607  0.26377223  0.34699266  1
  O  O47  1  0.26995570  0.24586261  0.54766854  1
  O  O48  1  0.73916489  0.24557139  0.45393827  1
  O  O49  1  0.73347302  0.76782452  0.34699498  1
  O  O50  1  0.26616177  0.23173810  0.65314608  1
  O  O51  1  0.26079783  0.75380829  0.54631619  1
  O  O52  1  0.26616613  0.73634844  0.65314908  1
  O  O53  1  0.73018244  0.75396596  0.45237232  1
  O  O54  1  0.73384405  0.26398415  0.54687974  1
  O  O55  1  0.27296384  0.24692252  0.74663740  1
  O  O56  1  0.74061937  0.24569906  0.65358917  1
  O  O57  1  0.73383894  0.76779234  0.54687882  1
  O  O58  1  0.26168045  0.75327377  0.74635054  1
  O  O59  1  0.26845779  0.22911807  0.85270469  1
  O  O60  1  0.73064234  0.75417361  0.65219045  1
  O  O61  1  0.73458556  0.26358187  0.74684327  1
  O  O62  1  0.26845919  0.73885538  0.85270432  1
  O  O63  1  0.29240055  0.25264523  0.94045892  1
  O  O64  1  0.75163873  0.24180940  0.85294604  1
  O  O65  1  0.73455560  0.76759919  0.74684858  1
  O  O66  1  0.26743011  0.74207704  0.94968251  1
  O  O67  1  0.73131826  0.75269426  0.85265225  1
  O  O68  1  0.72732248  0.27021567  0.95044429  1
  O  O69  1  0.72734345  0.75023049  0.95044597  1
