# generated using pymatgen
data_Na2CdH4(SO5)2
_symmetry_space_group_name_H-M   'P 1'
_cell_length_a   5.97151926
_cell_length_b   13.20658613
_cell_length_c   5.64887086
_cell_angle_alpha   90.00000000
_cell_angle_beta   106.00276468
_cell_angle_gamma   90.00000000
_symmetry_Int_Tables_number   1
_chemical_formula_structural   Na2CdH4(SO5)2
_chemical_formula_sum   'Na4 Cd2 H8 S4 O20'
_cell_volume   428.22565208
_cell_formula_units_Z   2
loop_
 _symmetry_equiv_pos_site_id
 _symmetry_equiv_pos_as_xyz
  1  'x, y, z'
loop_
 _atom_site_type_symbol
 _atom_site_label
 _atom_site_symmetry_multiplicity
 _atom_site_fract_x
 _atom_site_fract_y
 _atom_site_fract_z
 _atom_site_occupancy
  Na  Na0  1  0.57900574  0.38252894  0.76378373  1
  Na  Na1  1  0.42099426  0.88252894  0.73621627  1
  Na  Na2  1  0.42099426  0.61747106  0.23621627  1
  Na  Na3  1  0.57900574  0.11747106  0.26378373  1
  Cd  Cd4  1  0.00000000  0.50000000  0.50000000  1
  Cd  Cd5  1  0.00000000  0.00000000  0.00000000  1
  H  H6  1  0.90528826  0.29011501  0.51765876  1
  H  H7  1  0.09471174  0.79011501  0.98234124  1
  H  H8  1  0.09471174  0.70988499  0.48234124  1
  H  H9  1  0.90528826  0.20988499  0.01765876  1
  H  H10  1  0.68587422  0.34041314  0.32454172  1
  H  H11  1  0.31412578  0.84041314  0.17545828  1
  H  H12  1  0.31412578  0.65958686  0.67545828  1
  H  H13  1  0.68587422  0.15958686  0.82454172  1
  S  S14  1  0.23812973  0.38160965  0.08125116  1
  S  S15  1  0.76187027  0.88160965  0.41874884  1
  S  S16  1  0.76187027  0.61839035  0.91874884  1
  S  S17  1  0.23812973  0.11839035  0.58125116  1
  O  O18  1  0.00645907  0.33279037  0.02544889  1
  O  O19  1  0.99354093  0.83279037  0.47455111  1
  O  O20  1  0.99354093  0.66720963  0.97455111  1
  O  O21  1  0.00645907  0.16720963  0.52544889  1
  O  O22  1  0.28731013  0.43868572  0.32184357  1
  O  O23  1  0.71268987  0.93868572  0.17815643  1
  O  O24  1  0.71268987  0.56131428  0.67815643  1
  O  O25  1  0.28731013  0.06131428  0.82184357  1
  O  O26  1  0.24644555  0.45734898  0.88345866  1
  O  O27  1  0.75355445  0.95734898  0.61654134  1
  O  O28  1  0.75355445  0.54265102  0.11654134  1
  O  O29  1  0.24644555  0.04265102  0.38345866  1
  O  O30  1  0.42864112  0.30734328  0.09594557  1
  O  O31  1  0.57135888  0.80734328  0.40405443  1
  O  O32  1  0.57135888  0.69265672  0.90405443  1
  O  O33  1  0.42864112  0.19265672  0.59594557  1
  O  O34  1  0.80281491  0.35133036  0.48614754  1
  O  O35  1  0.19718509  0.85133036  0.01385246  1
  O  O36  1  0.19718509  0.64866964  0.51385246  1
  O  O37  1  0.80281491  0.14866964  0.98614754  1
