# generated using pymatgen
data_PH12C2N6O3F
_symmetry_space_group_name_H-M   'P 1'
_cell_length_a   7.62017014
_cell_length_b   7.62017014
_cell_length_c   11.86778710
_cell_angle_alpha   64.20401723
_cell_angle_beta   115.79598277
_cell_angle_gamma   122.28904368
_symmetry_Int_Tables_number   1
_chemical_formula_structural   PH12C2N6O3F
_chemical_formula_sum   'P2 H24 C4 N12 O6 F2'
_cell_volume   505.56666578
_cell_formula_units_Z   2
loop_
 _symmetry_equiv_pos_site_id
 _symmetry_equiv_pos_as_xyz
  1  'x, y, z'
loop_
 _atom_site_type_symbol
 _atom_site_label
 _atom_site_symmetry_multiplicity
 _atom_site_fract_x
 _atom_site_fract_y
 _atom_site_fract_z
 _atom_site_occupancy
  P  P0  1  0.19843419  0.80156581  0.12705330  1
  P  P1  1  0.72533925  0.27466075  0.69534356  1
  H  H2  1  0.69769994  0.86115124  0.86929235  1
  H  H3  1  0.13884876  0.30230006  0.86929235  1
  H  H4  1  0.70410376  0.62930391  0.99070352  1
  H  H5  1  0.37069609  0.29589624  0.99070352  1
  H  H6  1  0.13807086  0.62265666  0.71276358  1
  H  H7  1  0.37734334  0.86192914  0.71276358  1
  H  H8  1  0.86074099  0.37807302  0.15376625  1
  H  H9  1  0.62192698  0.13925901  0.15376625  1
  H  H10  1  0.16566985  0.15246948  0.14722169  1
  H  H11  1  0.84753052  0.83433015  0.14722169  1
  H  H12  1  0.17160751  0.38735591  0.14714734  1
  H  H13  1  0.61264409  0.82839249  0.14714734  1
  H  H14  1  0.97635280  0.53381318  0.34524846  1
  H  H15  1  0.46618682  0.02364720  0.34524846  1
  H  H16  1  0.94715174  0.48553075  0.49860696  1
  H  H17  1  0.51446925  0.05284826  0.49860696  1
  H  H18  1  0.22508263  0.44201634  0.34053311  1
  H  H19  1  0.55798366  0.77491737  0.34053311  1
  H  H20  1  0.32344176  0.27442863  0.48501227  1
  H  H21  1  0.72557137  0.67655824  0.48501227  1
  H  H22  1  0.08309351  0.24918376  0.68224376  1
  H  H23  1  0.75081624  0.91690649  0.68224376  1
  H  H24  1  0.27365539  0.20033263  0.66927235  1
  H  H25  1  0.79966737  0.72634461  0.66927235  1
  C  C26  1  0.40495149  0.59504851  0.85936002  1
  C  C27  1  0.88049900  0.11950100  0.15046348  1
  C  C28  1  0.13091631  0.36208704  0.50079673  1
  C  C29  1  0.63791296  0.86908369  0.50079673  1
  N  N30  1  0.61577777  0.70109337  0.91129427  1
  N  N31  1  0.29890663  0.38422223  0.91129427  1
  N  N32  1  0.29909538  0.70090462  0.75542479  1
  N  N33  1  0.78109074  0.21890926  0.15282040  1
  N  N34  1  0.08828774  0.22660937  0.15016370  1
  N  N35  1  0.77339063  0.91171226  0.15016370  1
  N  N36  1  0.00255510  0.46351627  0.44310969  1
  N  N37  1  0.53648373  0.99744490  0.44310969  1
  N  N38  1  0.21494896  0.34164035  0.43142079  1
  N  N39  1  0.65835965  0.78505104  0.43142079  1
  N  N40  1  0.17677405  0.27758582  0.62998534  1
  N  N41  1  0.72241418  0.82322595  0.62998534  1
  O  O42  1  0.32951117  0.67048883  0.18332382  1
  O  O43  1  0.32857236  0.02244722  0.15534099  1
  O  O44  1  0.97755278  0.67142764  0.15534099  1
  O  O45  1  0.85747472  0.14252528  0.77182452  1
  O  O46  1  0.84942373  0.50118570  0.61873011  1
  O  O47  1  0.49881430  0.15057627  0.61873011  1
  F  F48  1  0.14333412  0.85666588  0.97073698  1
  F  F49  1  0.68601385  0.31398615  0.80434259  1
