# generated using pymatgen
data_Rb7U8V2ClO32
_symmetry_space_group_name_H-M   'P 1'
_cell_length_a   11.91407000
_cell_length_b   14.44647822
_cell_length_c   21.60299251
_cell_angle_alpha   90.00000000
_cell_angle_beta   90.00000000
_cell_angle_gamma   90.00000000
_symmetry_Int_Tables_number   1
_chemical_formula_structural   Rb7U8V2ClO32
_chemical_formula_sum   'Rb28 U32 V8 Cl4 O128'
_cell_volume   3718.22827966
_cell_formula_units_Z   4
loop_
 _symmetry_equiv_pos_site_id
 _symmetry_equiv_pos_as_xyz
  1  'x, y, z'
loop_
 _atom_site_type_symbol
 _atom_site_label
 _atom_site_symmetry_multiplicity
 _atom_site_fract_x
 _atom_site_fract_y
 _atom_site_fract_z
 _atom_site_occupancy
  Rb  Rb0  1  0.92167362  0.52333654  0.35339864  1
  Rb  Rb1  1  0.75590549  0.98046310  0.97606495  1
  Rb  Rb2  1  0.57832638  0.02333654  0.35339864  1
  Rb  Rb3  1  0.04543155  0.97188438  0.84653980  1
  Rb  Rb4  1  0.04543155  0.97188438  0.65346020  1
  Rb  Rb5  1  0.24409451  0.01953690  0.47606495  1
  Rb  Rb6  1  0.75590549  0.98046310  0.52393505  1
  Rb  Rb7  1  0.95456845  0.02811562  0.34653980  1
  Rb  Rb8  1  0.74409451  0.48046310  0.52393505  1
  Rb  Rb9  1  0.95456845  0.02811562  0.15346020  1
  Rb  Rb10  1  0.57832638  0.02333654  0.14660136  1
  Rb  Rb11  1  0.45456845  0.47188438  0.84653980  1
  Rb  Rb12  1  0.25590549  0.51953690  0.47606495  1
  Rb  Rb13  1  0.42167362  0.97666346  0.85339864  1
  Rb  Rb14  1  0.07832638  0.47666346  0.64660136  1
  Rb  Rb15  1  0.76447471  0.36880276  0.75000000  1
  Rb  Rb16  1  0.54543155  0.52811562  0.34653980  1
  Rb  Rb17  1  0.23552529  0.63119724  0.25000000  1
  Rb  Rb18  1  0.92167362  0.52333654  0.14660136  1
  Rb  Rb19  1  0.73552529  0.86880276  0.75000000  1
  Rb  Rb20  1  0.24409451  0.01953690  0.02393505  1
  Rb  Rb21  1  0.07832638  0.47666346  0.85339864  1
  Rb  Rb22  1  0.42167362  0.97666346  0.64660136  1
  Rb  Rb23  1  0.26447471  0.13119724  0.25000000  1
  Rb  Rb24  1  0.45456845  0.47188438  0.65346020  1
  Rb  Rb25  1  0.25590549  0.51953690  0.02393505  1
  Rb  Rb26  1  0.54543155  0.52811562  0.15346020  1
  Rb  Rb27  1  0.74409451  0.48046310  0.97606495  1
  U  U28  1  0.48110687  0.22242851  0.75000000  1
  U  U29  1  0.54257381  0.72862045  0.57579930  1
  U  U30  1  0.45166010  0.73031900  0.75000000  1
  U  U31  1  0.93019706  0.72113317  0.57647098  1
  U  U32  1  0.45742619  0.27137955  0.42420070  1
  U  U33  1  0.54833990  0.26968100  0.25000000  1
  U  U34  1  0.04257381  0.77137955  0.42420070  1
  U  U35  1  0.95742619  0.22862045  0.92420070  1
  U  U36  1  0.95742619  0.22862045  0.57579930  1
  U  U37  1  0.01889313  0.72242851  0.75000000  1
  U  U38  1  0.73604377  0.74892457  0.40587419  1
  U  U39  1  0.93019706  0.72113317  0.92352902  1
  U  U40  1  0.73604377  0.74892457  0.09412581  1
  U  U41  1  0.76395623  0.24892457  0.09412581  1
  U  U42  1  0.76395623  0.24892457  0.40587419  1
  U  U43  1  0.98110687  0.27757149  0.25000000  1
  U  U44  1  0.54257381  0.72862045  0.92420070  1
  U  U45  1  0.51889313  0.77757149  0.25000000  1
  U  U46  1  0.43019706  0.77886683  0.42352902  1
  U  U47  1  0.04257381  0.77137955  0.07579930  1
  U  U48  1  0.26395623  0.25107543  0.59412581  1
  U  U49  1  0.95166010  0.76968100  0.25000000  1
  U  U50  1  0.56980294  0.22113317  0.57647098  1
  U  U51  1  0.23604377  0.75107543  0.90587419  1
  U  U52  1  0.04833990  0.23031900  0.75000000  1
  U  U53  1  0.06980294  0.27886683  0.07647098  1
  U  U54  1  0.43019706  0.77886683  0.07647098  1
  U  U55  1  0.23604377  0.75107543  0.59412581  1
  U  U56  1  0.56980294  0.22113317  0.92352902  1
  U  U57  1  0.06980294  0.27886683  0.42352902  1
  U  U58  1  0.26395623  0.25107543  0.90587419  1
  U  U59  1  0.45742619  0.27137955  0.07579930  1
  V  V60  1  0.76683170  0.13306960  0.66205932  1
  V  V61  1  0.23316830  0.86693040  0.33794068  1
  V  V62  1  0.76683170  0.13306960  0.83794068  1
  V  V63  1  0.23316830  0.86693040  0.16205932  1
  V  V64  1  0.73316830  0.63306960  0.83794068  1
  V  V65  1  0.26683170  0.36693040  0.33794068  1
  V  V66  1  0.73316830  0.63306960  0.66205932  1
  V  V67  1  0.26683170  0.36693040  0.16205932  1
  Cl  Cl68  1  0.73383169  0.68025992  0.25000000  1
  Cl  Cl69  1  0.23383169  0.81974008  0.75000000  1
  Cl  Cl70  1  0.76616831  0.18025992  0.25000000  1
  Cl  Cl71  1  0.26616831  0.31974008  0.75000000  1
  O  O72  1  0.39136736  0.30999447  0.18555136  1
  O  O73  1  0.41392557  0.15043575  0.08972895  1
  O  O74  1  0.76057728  0.37705196  0.40847283  1
  O  O75  1  0.76476652  0.16715259  0.91660421  1
  O  O76  1  0.26057728  0.12294804  0.90847283  1
  O  O77  1  0.22514130  0.98140985  0.33089016  1
  O  O78  1  0.10863264  0.80999447  0.31444864  1
  O  O79  1  0.38058827  0.76218665  0.52498316  1
  O  O80  1  0.22514130  0.98140985  0.16910984  1
  O  O81  1  0.60898065  0.34307451  0.59031690  1
  O  O82  1  0.86238796  0.68233888  0.68576115  1
  O  O83  1  0.26476652  0.33284741  0.41660421  1
  O  O84  1  0.11941173  0.26218665  0.97501684  1
  O  O85  1  0.09164119  0.75483064  0.52530463  1
  O  O86  1  0.92833392  0.26259572  0.14992542  1
  O  O87  1  0.10898065  0.15692549  0.40968310  1
  O  O88  1  0.09164119  0.75483064  0.97469537  1
  O  O89  1  0.77485870  0.01859015  0.66910984  1
  O  O90  1  0.00025073  0.64782230  0.25000000  1
  O  O91  1  0.46897141  0.65608769  0.25000000  1
  O  O92  1  0.51115465  0.60451832  0.93530763  1
  O  O93  1  0.54137328  0.09640253  0.93385766  1
  O  O94  1  0.36238796  0.81766112  0.18576115  1
  O  O95  1  0.39101935  0.65692549  0.40968310  1
  O  O96  1  0.57166608  0.76259572  0.14992542  1
  O  O97  1  0.92769750  0.39738342  0.25000000  1
  O  O98  1  0.07166608  0.73740428  0.85007458  1
  O  O99  1  0.90835881  0.24516936  0.47469537  1
  O  O100  1  0.91392557  0.34956425  0.91027105  1
  O  O101  1  0.01115465  0.89548168  0.06469237  1
  O  O102  1  0.58607443  0.84956425  0.91027105  1
  O  O103  1  0.40083180  0.74603476  0.85042966  1
  O  O104  1  0.27485870  0.48140985  0.33089016  1
  O  O105  1  0.48884535  0.39548168  0.06469237  1
  O  O106  1  0.88058827  0.73781335  0.02498316  1
  O  O107  1  0.27485870  0.48140985  0.16910984  1
  O  O108  1  0.91392557  0.34956425  0.58972895  1
  O  O109  1  0.07166608  0.73740428  0.64992542  1
  O  O110  1  0.36238796  0.81766112  0.31423885  1
  O  O111  1  0.49974927  0.14782230  0.25000000  1
  O  O112  1  0.54137328  0.09640253  0.56614234  1
  O  O113  1  0.39101935  0.65692549  0.09031690  1
  O  O114  1  0.48884535  0.39548168  0.43530763  1
  O  O115  1  0.76857759  0.12004699  0.40332396  1
  O  O116  1  0.51115465  0.60451832  0.56469237  1
  O  O117  1  0.08607443  0.65043575  0.08972895  1
  O  O118  1  0.77485870  0.01859015  0.83089016  1
  O  O119  1  0.95862672  0.59640253  0.93385766  1
  O  O120  1  0.23142241  0.87995301  0.59667604  1
  O  O121  1  0.04137328  0.40359747  0.06614234  1
  O  O122  1  0.92833392  0.26259572  0.35007458  1
  O  O123  1  0.11941173  0.26218665  0.52498316  1
  O  O124  1  0.01115465  0.89548168  0.43530763  1
  O  O125  1  0.90835881  0.24516936  0.02530463  1
  O  O126  1  0.86238796  0.68233888  0.81423885  1
  O  O127  1  0.26476652  0.33284741  0.08339579  1
  O  O128  1  0.09764826  0.10920481  0.75000000  1
  O  O129  1  0.60898065  0.34307451  0.90968310  1
  O  O130  1  0.73142241  0.62004699  0.40332396  1
  O  O131  1  0.73142241  0.62004699  0.09667604  1
  O  O132  1  0.96897141  0.84391231  0.75000000  1
  O  O133  1  0.26057728  0.12294804  0.59152717  1
  O  O134  1  0.40235174  0.60920481  0.75000000  1
  O  O135  1  0.76476652  0.16715259  0.58339579  1
  O  O136  1  0.90235174  0.89079519  0.25000000  1
  O  O137  1  0.10898065  0.15692549  0.09031690  1
  O  O138  1  0.89101935  0.84307451  0.90968310  1
  O  O139  1  0.61941173  0.23781335  0.47501684  1
  O  O140  1  0.76057728  0.37705196  0.09152717  1
  O  O141  1  0.73942272  0.87705196  0.09152717  1
  O  O142  1  0.57166608  0.76259572  0.35007458  1
  O  O143  1  0.98884535  0.10451832  0.56469237  1
  O  O144  1  0.23942272  0.62294804  0.59152717  1
  O  O145  1  0.63761204  0.18233888  0.68576115  1
  O  O146  1  0.26857759  0.37995301  0.90332396  1
  O  O147  1  0.60863264  0.69000553  0.81444864  1
  O  O148  1  0.98884535  0.10451832  0.93530763  1
  O  O149  1  0.58607443  0.84956425  0.58972895  1
  O  O150  1  0.23523348  0.83284741  0.41660421  1
  O  O151  1  0.23142241  0.87995301  0.90332396  1
  O  O152  1  0.45862672  0.90359747  0.43385766  1
  O  O153  1  0.45862672  0.90359747  0.06614234  1
  O  O154  1  0.07230250  0.60261658  0.75000000  1
  O  O155  1  0.08607443  0.65043575  0.41027105  1
  O  O156  1  0.42833392  0.23740428  0.85007458  1
  O  O157  1  0.60863264  0.69000553  0.68555136  1
  O  O158  1  0.61941173  0.23781335  0.02498316  1
  O  O159  1  0.59916820  0.25396524  0.14957034  1
  O  O160  1  0.42769750  0.10261658  0.75000000  1
  O  O161  1  0.89136736  0.19000553  0.68555136  1
  O  O162  1  0.13761204  0.31766112  0.18576115  1
  O  O163  1  0.88058827  0.73781335  0.47501684  1
  O  O164  1  0.41392557  0.15043575  0.41027105  1
  O  O165  1  0.09916820  0.24603476  0.64957034  1
  O  O166  1  0.59164119  0.74516936  0.47469537  1
  O  O167  1  0.39136736  0.30999447  0.31444864  1
  O  O168  1  0.23523348  0.83284741  0.08339579  1
  O  O169  1  0.76857759  0.12004699  0.09667604  1
  O  O170  1  0.72514130  0.51859015  0.66910984  1
  O  O171  1  0.72514130  0.51859015  0.83089016  1
  O  O172  1  0.59164119  0.74516936  0.02530463  1
  O  O173  1  0.40083180  0.74603476  0.64957034  1
  O  O174  1  0.59764826  0.39079519  0.25000000  1
  O  O175  1  0.09916820  0.24603476  0.85042966  1
  O  O176  1  0.13761204  0.31766112  0.31423885  1
  O  O177  1  0.40835881  0.25483064  0.52530463  1
  O  O178  1  0.03102859  0.15608769  0.25000000  1
  O  O179  1  0.50025073  0.85217770  0.75000000  1
  O  O180  1  0.89136736  0.19000553  0.81444864  1
  O  O181  1  0.10863264  0.80999447  0.18555136  1
  O  O182  1  0.42833392  0.23740428  0.64992542  1
  O  O183  1  0.90083180  0.75396524  0.35042966  1
  O  O184  1  0.59916820  0.25396524  0.35042966  1
  O  O185  1  0.04137328  0.40359747  0.43385766  1
  O  O186  1  0.90083180  0.75396524  0.14957034  1
  O  O187  1  0.40835881  0.25483064  0.97469537  1
  O  O188  1  0.73942272  0.87705196  0.40847283  1
  O  O189  1  0.57230250  0.89738342  0.25000000  1
  O  O190  1  0.53102859  0.34391231  0.75000000  1
  O  O191  1  0.63761204  0.18233888  0.81423885  1
  O  O192  1  0.95862672  0.59640253  0.56614234  1
  O  O193  1  0.23942272  0.62294804  0.90847283  1
  O  O194  1  0.26857759  0.37995301  0.59667604  1
  O  O195  1  0.99974927  0.35217770  0.75000000  1
  O  O196  1  0.73523348  0.66715259  0.91660421  1
  O  O197  1  0.38058827  0.76218665  0.97501684  1
  O  O198  1  0.89101935  0.84307451  0.59031690  1
  O  O199  1  0.73523348  0.66715259  0.58339579  1
