# generated using pymatgen
data_LiCr3O8
_symmetry_space_group_name_H-M   'P 1'
_cell_length_a   10.06366286
_cell_length_b   5.55628381
_cell_length_c   6.20453358
_cell_angle_alpha   90.00000000
_cell_angle_beta   90.00000000
_cell_angle_gamma   56.48787094
_symmetry_Int_Tables_number   1
_chemical_formula_structural   LiCr3O8
_chemical_formula_sum   'Li2 Cr6 O16'
_cell_volume   289.26465027
_cell_formula_units_Z   2
loop_
 _symmetry_equiv_pos_site_id
 _symmetry_equiv_pos_as_xyz
  1  'x, y, z'
loop_
 _atom_site_type_symbol
 _atom_site_label
 _atom_site_symmetry_multiplicity
 _atom_site_fract_x
 _atom_site_fract_y
 _atom_site_fract_z
 _atom_site_occupancy
  Li  Li0  1  0.50000000  0.00000000  0.00000000  1
  Li  Li1  1  0.00000000  0.00000000  0.50000000  1
  Cr  Cr2  1  0.00000000  0.00000000  0.00000000  1
  Cr  Cr3  1  0.14381006  0.35618994  0.76323632  1
  Cr  Cr4  1  0.50000000  0.00000000  0.50000000  1
  Cr  Cr5  1  0.35618994  0.64381006  0.26323632  1
  Cr  Cr6  1  0.64381006  0.35618994  0.73676368  1
  Cr  Cr7  1  0.85618994  0.64381006  0.23676368  1
  O  O8  1  0.02734255  0.22015889  0.76464756  1
  O  O9  1  0.02734255  0.72515602  0.76464756  1
  O  O10  1  0.26336665  0.23663335  0.54777387  1
  O  O11  1  0.25062139  0.24937861  0.97726242  1
  O  O12  1  0.23663335  0.76336665  0.04777387  1
  O  O13  1  0.24937861  0.75062139  0.47726242  1
  O  O14  1  0.47265745  0.27484398  0.26464756  1
  O  O15  1  0.52734255  0.22015889  0.73535244  1
  O  O16  1  0.47265745  0.77984111  0.26464756  1
  O  O17  1  0.52734255  0.72515602  0.73535244  1
  O  O18  1  0.75062139  0.24937861  0.52273758  1
  O  O19  1  0.76336665  0.23663335  0.95222613  1
  O  O20  1  0.74937861  0.75062139  0.02273758  1
  O  O21  1  0.73663335  0.76336665  0.45222613  1
  O  O22  1  0.97265745  0.27484398  0.23535244  1
  O  O23  1  0.97265745  0.77984111  0.23535244  1
