# generated using pymatgen
data_SrAl12O19
_symmetry_space_group_name_H-M   'P 1'
_cell_length_a   5.62655671
_cell_length_b   5.62655671
_cell_length_c   22.15984005
_cell_angle_alpha   90.00000000
_cell_angle_beta   90.00000000
_cell_angle_gamma   119.99999994
_symmetry_Int_Tables_number   1
_chemical_formula_structural   SrAl12O19
_chemical_formula_sum   'Sr2 Al24 O38'
_cell_volume   607.55088003
_cell_formula_units_Z   2
loop_
 _symmetry_equiv_pos_site_id
 _symmetry_equiv_pos_as_xyz
  1  'x, y, z'
loop_
 _atom_site_type_symbol
 _atom_site_label
 _atom_site_symmetry_multiplicity
 _atom_site_fract_x
 _atom_site_fract_y
 _atom_site_fract_z
 _atom_site_occupancy
  O  O0  1  0.50246556  0.49753444  0.35175592  1
  O  O1  1  0.50246556  0.00493112  0.35175592  1
  O  O2  1  0.99506888  0.49753444  0.35175592  1
  O  O3  1  0.00493112  0.50246556  0.85175592  1
  O  O4  1  0.49753444  0.99506888  0.64824408  1
  O  O5  1  0.49753444  0.50246556  0.85175592  1
  O  O6  1  0.49753444  0.99506888  0.85175592  1
  O  O7  1  0.50246556  0.49753444  0.14824408  1
  O  O8  1  0.99506888  0.49753444  0.14824408  1
  O  O9  1  0.00493112  0.50246556  0.64824408  1
  O  O10  1  0.49753444  0.50246556  0.64824408  1
  O  O11  1  0.50246556  0.00493112  0.14824408  1
  O  O12  1  0.15493278  0.84506722  0.44808199  1
  O  O13  1  0.15493278  0.30986557  0.44808199  1
  O  O14  1  0.69013443  0.84506722  0.44808199  1
  O  O15  1  0.63680582  0.81840291  0.25000000  1
  O  O16  1  0.30986557  0.15493278  0.94808199  1
  O  O17  1  0.84506722  0.15493278  0.94808199  1
  O  O18  1  0.84506722  0.69013443  0.94808199  1
  O  O19  1  0.15493278  0.84506722  0.05191801  1
  O  O20  1  0.69013443  0.84506722  0.05191801  1
  O  O21  1  0.30986557  0.15493278  0.55191801  1
  O  O22  1  0.84506722  0.15493278  0.55191801  1
  O  O23  1  0.15493278  0.30986557  0.05191801  1
  O  O24  1  0.81840291  0.63680582  0.75000000  1
  O  O25  1  0.18159709  0.81840291  0.25000000  1
  O  O26  1  0.00000000  0.00000000  0.14928813  1
  O  O27  1  0.00000000  0.00000000  0.64928813  1
  O  O28  1  0.00000000  0.00000000  0.85071187  1
  O  O29  1  0.00000000  0.00000000  0.35071187  1
  O  O30  1  0.33333333  0.66666667  0.94566455  1
  O  O31  1  0.66666667  0.33333333  0.44566455  1
  O  O32  1  0.66666667  0.33333333  0.05433545  1
  O  O33  1  0.33333333  0.66666667  0.55433545  1
  O  O34  1  0.18159709  0.36319418  0.25000000  1
  O  O35  1  0.81840291  0.18159709  0.75000000  1
  O  O36  1  0.36319418  0.18159709  0.75000000  1
  O  O37  1  0.84506722  0.69013443  0.55191801  1
  Al  Al38  1  0.33333333  0.66666667  0.30956769  1
  Al  Al39  1  0.66666667  0.33333333  0.80956769  1
  Al  Al40  1  0.66666667  0.33333333  0.69043231  1
  Al  Al41  1  0.33333333  0.66666667  0.19043231  1
  Al  Al42  1  0.16825564  0.83174436  0.60878596  1
  Al  Al43  1  0.16825564  0.33651127  0.60878596  1
  Al  Al44  1  0.66348873  0.83174436  0.60878596  1
  Al  Al45  1  0.33651127  0.16825564  0.10878596  1
  Al  Al46  1  0.83174436  0.66348873  0.39121404  1
  Al  Al47  1  0.83174436  0.16825564  0.10878596  1
  Al  Al48  1  0.83174436  0.66348873  0.10878596  1
  Al  Al49  1  0.16825564  0.83174436  0.89121404  1
  Al  Al50  1  0.66348873  0.83174436  0.89121404  1
  Al  Al51  1  0.33651127  0.16825564  0.39121404  1
  Al  Al52  1  0.83174436  0.16825564  0.39121404  1
  Al  Al53  1  0.16825564  0.33651127  0.89121404  1
  Al  Al54  1  0.33333333  0.66666667  0.47179190  1
  Al  Al55  1  0.66666667  0.33333333  0.97179190  1
  Al  Al56  1  0.66666667  0.33333333  0.52820810  1
  Al  Al57  1  0.33333333  0.66666667  0.02820810  1
  Al  Al58  1  0.00000000  0.00000000  0.75000000  1
  Al  Al59  1  0.00000000  0.00000000  0.25000000  1
  Al  Al60  1  0.00000000  0.00000000  0.50000000  1
  Al  Al61  1  0.00000000  0.00000000  0.00000000  1
  Sr  Sr62  1  0.33333333  0.66666667  0.75000000  1
  Sr  Sr63  1  0.66666667  0.33333333  0.25000000  1
