# generated using pymatgen
data_DyMnGa
_symmetry_space_group_name_H-M   'P 1'
_cell_length_a   4.12367172
_cell_length_b   7.12670269
_cell_length_c   7.10921089
_cell_angle_alpha   120.08143268
_cell_angle_beta   90.00000000
_cell_angle_gamma   90.00000000
_symmetry_Int_Tables_number   1
_chemical_formula_structural   DyMnGa
_chemical_formula_sum   'Dy3 Mn3 Ga3'
_cell_volume   180.78725105
_cell_formula_units_Z   3
loop_
 _symmetry_equiv_pos_site_id
 _symmetry_equiv_pos_as_xyz
  1  'x, y, z'
loop_
 _atom_site_type_symbol
 _atom_site_label
 _atom_site_symmetry_multiplicity
 _atom_site_fract_x
 _atom_site_fract_y
 _atom_site_fract_z
 _atom_site_occupancy
  Dy  Dy0  1  0.50000000  0.58690778  0.00000000  1
  Dy  Dy1  1  0.50000000  0.41347298  0.41315781  1
  Dy  Dy2  1  0.50000000  0.00031517  0.58684219  1
  Mn  Mn3  1  0.00000000  0.23861703  1.00000000  1
  Mn  Mn4  1  -0.00000000  0.76110265  0.76161092  1
  Mn  Mn5  1  -0.00000000  0.99949173  0.23838908  1
  Ga  Ga6  1  -0.00000000  0.33335402  0.66614666  1
  Ga  Ga7  1  -0.00000000  0.66720737  0.33385334  1
  Ga  Ga8  1  0.50000000  0.99943127  1.00000000  1
