# generated using pymatgen
data_Li9Mn2Co5O16
_symmetry_space_group_name_H-M   'P 1'
_cell_length_a   2.98926286
_cell_length_b   10.12695139
_cell_length_c   9.78421457
_cell_angle_alpha   102.62373294
_cell_angle_beta   87.91748981
_cell_angle_gamma   90.96869278
_symmetry_Int_Tables_number   1
_chemical_formula_structural   Li9Mn2Co5O16
_chemical_formula_sum   'Li9 Mn2 Co5 O16'
_cell_volume   288.82583989
_cell_formula_units_Z   1
loop_
 _symmetry_equiv_pos_site_id
 _symmetry_equiv_pos_as_xyz
  1  'x, y, z'
loop_
 _atom_site_type_symbol
 _atom_site_label
 _atom_site_symmetry_multiplicity
 _atom_site_fract_x
 _atom_site_fract_y
 _atom_site_fract_z
 _atom_site_occupancy
  Li  Li0  1  0.00127781  0.12651833  0.75153271  1
  Li  Li1  1  0.49813265  0.51143743  0.50185909  1
  Li  Li2  1  0.00690198  0.87156896  0.24913094  1
  Li  Li3  1  0.49760460  0.25272744  0.00004700  1
  Li  Li4  1  0.49141752  0.99533076  0.49641420  1
  Li  Li5  1  0.00239302  0.37638904  0.25108210  1
  Li  Li6  1  0.50930884  0.74395973  0.00461684  1
  Li  Li7  1  0.98988551  0.62602142  0.74019838  1
  Li  Li8  1  0.01261807  0.74167677  0.50329878  1
  Mn  Mn9  1  0.99089229  0.00337297  0.00110450  1
  Mn  Mn10  1  0.49077639  0.87015832  0.74076802  1
  Co  Co11  1  0.49947232  0.37544472  0.75021619  1
  Co  Co12  1  0.50893483  0.12560518  0.25230089  1
  Co  Co13  1  0.00101695  0.50132813  0.00131522  1
  Co  Co14  1  0.00599855  0.25077946  0.49973313  1
  Co  Co15  1  0.50404773  0.62894255  0.25941833  1
  O  O16  1  0.45182299  0.05320851  0.87519096  1
  O  O17  1  0.01103560  0.42718460  0.62348283  1
  O  O18  1  0.50110602  0.79413322  0.35811873  1
  O  O19  1  0.96758931  0.18059231  0.13129047  1
  O  O20  1  0.00227872  0.92846525  0.63853474  1
  O  O21  1  0.51632491  0.29873103  0.37566720  1
  O  O22  1  0.96780461  0.67703054  0.12302793  1
  O  O23  1  0.50554016  0.55201570  0.87480042  1
  O  O24  1  0.49576151  0.19769444  0.62761682  1
  O  O25  1  0.03252349  0.56635239  0.36229322  1
  O  O26  1  0.53189798  0.94837958  0.12569349  1
  O  O27  1  0.98715856  0.32338841  0.87933190  1
  O  O28  1  0.04574882  0.07102946  0.37559477  1
  O  O29  1  0.49175045  0.45543395  0.12900860  1
  O  O30  1  0.97849583  0.82636482  0.86317213  1
  O  O31  1  0.50248197  0.69872956  0.63413948  1
