# generated using pymatgen
data_K4Ti3Co(PO4)6
_symmetry_space_group_name_H-M   'P 1'
_cell_length_a   10.01531252
_cell_length_b   10.01074244
_cell_length_c   10.00266340
_cell_angle_alpha   90.00000000
_cell_angle_beta   90.00000000
_cell_angle_gamma   90.09974883
_symmetry_Int_Tables_number   1
_chemical_formula_structural   K4Ti3Co(PO4)6
_chemical_formula_sum   'K8 Ti6 Co2 P12 O48'
_cell_volume   1002.87265523
_cell_formula_units_Z   2
loop_
 _symmetry_equiv_pos_site_id
 _symmetry_equiv_pos_as_xyz
  1  'x, y, z'
loop_
 _atom_site_type_symbol
 _atom_site_label
 _atom_site_symmetry_multiplicity
 _atom_site_fract_x
 _atom_site_fract_y
 _atom_site_fract_z
 _atom_site_occupancy
  K  K0  1  0.03843753  0.54991577  0.95526481  1
  K  K1  1  0.18017333  0.82069332  0.31848494  1
  K  K2  1  0.31982667  0.17930668  0.81848494  1
  K  K3  1  0.46156247  0.45008423  0.45526481  1
  K  K4  1  0.55282162  0.95979220  0.04509777  1
  K  K5  1  0.68744944  0.68853614  0.68600546  1
  K  K6  1  0.81255056  0.31146386  0.18600546  1
  K  K7  1  0.94717838  0.04020780  0.54509777  1
  Ti  Ti8  1  0.10652865  0.39011897  0.60981499  1
  Ti  Ti9  1  0.16236625  0.16018730  0.16310191  1
  Ti  Ti10  1  0.33763375  0.83981270  0.66310191  1
  Ti  Ti11  1  0.39347135  0.60988103  0.10981499  1
  Ti  Ti12  1  0.66352845  0.33282216  0.83512061  1
  Ti  Ti13  1  0.83647155  0.66717784  0.33512061  1
  Co  Co14  1  0.60562514  0.10511007  0.39468602  1
  Co  Co15  1  0.89437486  0.89488993  0.89468602  1
  P  P16  1  0.02466745  0.70799505  0.62198278  1
  P  P17  1  0.12317181  0.47611276  0.29264345  1
  P  P18  1  0.20689571  0.87287668  0.97869605  1
  P  P19  1  0.29310429  0.12712332  0.47869605  1
  P  P20  1  0.37682819  0.52388724  0.79264345  1
  P  P21  1  0.47533255  0.29200495  0.12198278  1
  P  P22  1  0.52113499  0.79386339  0.37431395  1
  P  P23  1  0.62580349  0.02069438  0.70662599  1
  P  P24  1  0.70802724  0.62055817  0.02355259  1
  P  P25  1  0.79197276  0.37944183  0.52355259  1
  P  P26  1  0.87419651  0.97930562  0.20662599  1
  P  P27  1  0.97886501  0.20613661  0.87431395  1
  O  O28  1  0.01610164  0.04862019  0.22185893  1
  O  O29  1  0.02229458  0.55764553  0.66440769  1
  O  O30  1  0.04837100  0.30534661  0.77401318  1
  O  O31  1  0.05383614  0.22860680  0.00945248  1
  O  O32  1  0.06592201  0.81993653  0.99073880  1
  O  O33  1  0.10307881  0.32945676  0.24814344  1
  O  O34  1  0.17285908  0.75099773  0.60150030  1
  O  O35  1  0.16987838  0.48109477  0.44040579  1
  O  O36  1  0.19521229  0.22769729  0.54869691  1
  O  O37  1  0.23019672  0.00887527  0.05230602  1
  O  O38  1  0.22856239  0.54811291  0.20438900  1
  O  O39  1  0.24682914  0.10579646  0.33143514  1
  O  O40  1  0.25317086  0.89420354  0.83143514  1
  O  O41  1  0.27143761  0.45188709  0.70438900  1
  O  O42  1  0.26980328  0.99112473  0.55230602  1
  O  O43  1  0.30478771  0.77230271  0.04869691  1
  O  O44  1  0.33012162  0.51890523  0.94040579  1
  O  O45  1  0.32714092  0.24900227  0.10150030  1
  O  O46  1  0.39692119  0.67054324  0.74814344  1
  O  O47  1  0.43407799  0.18006347  0.49073880  1
  O  O48  1  0.44616386  0.77139320  0.50945248  1
  O  O49  1  0.45162900  0.69465339  0.27401318  1
  O  O50  1  0.47770542  0.44235447  0.16440769  1
  O  O51  1  0.48389836  0.95137981  0.72185893  1
  O  O52  1  0.50933406  0.44761021  0.77059890  1
  O  O53  1  0.50839992  0.93436247  0.32018327  1
  O  O54  1  0.54872378  0.20775303  0.22247663  1
  O  O55  1  0.54744329  0.27550087  0.98448553  1
  O  O56  1  0.55768832  0.66460236  0.02131797  1
  O  O57  1  0.60339938  0.17072226  0.75127860  1
  O  O58  1  0.66813787  0.74738097  0.39512662  1
  O  O59  1  0.67410359  0.01155218  0.56296637  1
  O  O60  1  0.70627146  0.27960978  0.45101701  1
  O  O61  1  0.72231840  0.48362209  0.95106809  1
  O  O62  1  0.71676632  0.94986989  0.80423069  1
  O  O63  1  0.74998579  0.39966263  0.67251135  1
  O  O64  1  0.75001421  0.60033737  0.17251135  1
  O  O65  1  0.78323368  0.05013011  0.30423069  1
  O  O66  1  0.77768160  0.51637791  0.45106809  1
  O  O67  1  0.79372854  0.72039022  0.95101701  1
  O  O68  1  0.82589641  0.98844782  0.06296637  1
  O  O69  1  0.83186213  0.25261903  0.89512662  1
  O  O70  1  0.89660062  0.82927774  0.25127860  1
  O  O71  1  0.94231168  0.33539764  0.52131797  1
  O  O72  1  0.95255671  0.72449913  0.48448553  1
  O  O73  1  0.95127622  0.79224697  0.72247663  1
  O  O74  1  0.99160008  0.06563753  0.82018327  1
  O  O75  1  0.99066594  0.55238979  0.27059890  1
