# generated using pymatgen
data_Mg3P4H28(NO12)2
_symmetry_space_group_name_H-M   'P 1'
_cell_length_a   10.76038024
_cell_length_b   7.74361057
_cell_length_c   6.76113558
_cell_angle_alpha   97.91687981
_cell_angle_beta   96.93187896
_cell_angle_gamma   104.65069046
_symmetry_Int_Tables_number   1
_chemical_formula_structural   Mg3P4H28(NO12)2
_chemical_formula_sum   'Mg3 P4 H28 N2 O24'
_cell_volume   532.69620345
_cell_formula_units_Z   1
loop_
 _symmetry_equiv_pos_site_id
 _symmetry_equiv_pos_as_xyz
  1  'x, y, z'
loop_
 _atom_site_type_symbol
 _atom_site_label
 _atom_site_symmetry_multiplicity
 _atom_site_fract_x
 _atom_site_fract_y
 _atom_site_fract_z
 _atom_site_occupancy
  Mg  Mg0  1  0.00000000  0.00000000  0.00000000  1
  Mg  Mg1  1  0.59694889  0.75909996  0.34014599  1
  Mg  Mg2  1  0.40305111  0.24090004  0.65985401  1
  P  P3  1  0.87197904  0.66570853  0.24908636  1
  P  P4  1  0.12802096  0.33429147  0.75091364  1
  P  P5  1  0.47274718  0.30479400  0.20444529  1
  P  P6  1  0.52725282  0.69520600  0.79555471  1
  H  H7  1  0.73452604  0.38736109  0.15592319  1
  H  H8  1  0.26547396  0.61263891  0.84407681  1
  H  H9  1  0.28288745  0.22410782  0.98677217  1
  H  H10  1  0.71711255  0.77589218  0.01322783  1
  H  H11  1  0.97387280  0.21893605  0.37316618  1
  H  H12  1  0.02612720  0.78106395  0.62683382  1
  H  H13  1  0.90665045  0.27211675  0.17830855  1
  H  H14  1  0.09334955  0.72788325  0.82169145  1
  H  H15  1  0.76831010  0.94539972  0.73068520  1
  H  H16  1  0.23168990  0.05460028  0.26931480  1
  H  H17  1  0.88483420  0.11534740  0.70709487  1
  H  H18  1  0.11516580  0.88465260  0.29290513  1
  H  H19  1  0.78348176  0.05665740  0.32082596  1
  H  H20  1  0.21651824  0.94334260  0.67917404  1
  H  H21  1  0.65527855  0.11500381  0.30185358  1
  H  H22  1  0.34472145  0.88499619  0.69814642  1
  H  H23  1  0.40989967  0.81295811  0.10164409  1
  H  H24  1  0.59010033  0.18704189  0.89835591  1
  H  H25  1  0.41573408  0.95849325  0.29573145  1
  H  H26  1  0.58426592  0.04150675  0.70426855  1
  H  H27  1  0.86850809  0.41712150  0.65691394  1
  H  H28  1  0.13149191  0.58287850  0.34308606  1
  H  H29  1  0.77220716  0.54760496  0.57090365  1
  H  H30  1  0.22779284  0.45239504  0.42909635  1
  H  H31  1  0.81867822  0.56179095  0.82170205  1
  H  H32  1  0.18132178  0.43820905  0.17829795  1
  H  H33  1  0.71045655  0.37152700  0.69272928  1
  H  H34  1  0.28954345  0.62847300  0.30727072  1
  N  N35  1  0.79225586  0.47384226  0.68393709  1
  N  N36  1  0.20774414  0.52615774  0.31606291  1
  O  O37  1  0.00924434  0.70935131  0.37171059  1
  O  O38  1  0.99075566  0.29064869  0.62828941  1
  O  O39  1  0.87095709  0.77023486  0.06853679  1
  O  O40  1  0.12904291  0.22976514  0.93146321  1
  O  O41  1  0.77055112  0.69461734  0.38212772  1
  O  O42  1  0.22944888  0.30538266  0.61787228  1
  O  O43  1  0.83024357  0.45308089  0.14987760  1
  O  O44  1  0.16975643  0.54691911  0.85012240  1
  O  O45  1  0.37775845  0.22886426  0.98668670  1
  O  O46  1  0.62224155  0.77113574  0.01331330  1
  O  O47  1  0.40818535  0.18726258  0.35212154  1
  O  O48  1  0.59181465  0.81273742  0.64787846  1
  O  O49  1  0.48328524  0.50364673  0.26482037  1
  O  O50  1  0.51671476  0.49635327  0.73517963  1
  O  O51  1  0.60068449  0.26158806  0.16229639  1
  O  O52  1  0.39931551  0.73841194  0.83770361  1
  O  O53  1  0.93851030  0.17321836  0.22560839  1
  O  O54  1  0.06148970  0.82678164  0.77439161  1
  O  O55  1  0.85278983  0.02902831  0.79761057  1
  O  O56  1  0.14721017  0.97097169  0.20238943  1
  O  O57  1  0.69973423  0.03603708  0.37162315  1
  O  O58  1  0.30026577  0.96396292  0.62837685  1
  O  O59  1  0.42292867  0.83319774  0.25226387  1
  O  O60  1  0.57707133  0.16680226  0.74773613  1
