# generated using pymatgen
data_Hg2Mo2O7
_symmetry_space_group_name_H-M   'P 1'
_cell_length_a   7.31633264
_cell_length_b   7.31633178
_cell_length_c   14.93575666
_cell_angle_alpha   76.56903171
_cell_angle_beta   76.56903333
_cell_angle_gamma   65.27129889
_symmetry_Int_Tables_number   1
_chemical_formula_structural   Hg2Mo2O7
_chemical_formula_sum   'Hg8 Mo8 O28'
_cell_volume   698.00832061
_cell_formula_units_Z   4
loop_
 _symmetry_equiv_pos_site_id
 _symmetry_equiv_pos_as_xyz
  1  'x, y, z'
loop_
 _atom_site_type_symbol
 _atom_site_label
 _atom_site_symmetry_multiplicity
 _atom_site_fract_x
 _atom_site_fract_y
 _atom_site_fract_z
 _atom_site_occupancy
  Hg  Hg0  1  0.23904696  0.92646389  0.43401351  1
  Hg  Hg1  1  0.76095304  0.07353611  0.56598649  1
  Hg  Hg2  1  0.07353611  0.76095304  0.06598649  1
  Hg  Hg3  1  0.92646389  0.23904696  0.93401351  1
  Hg  Hg4  1  0.74228649  0.38614419  0.43749794  1
  Hg  Hg5  1  0.25771351  0.61385581  0.56250206  1
  Hg  Hg6  1  0.38614419  0.74228649  0.93749794  1
  Hg  Hg7  1  0.61385581  0.25771351  0.06250206  1
  Mo  Mo8  1  0.85709455  0.82601135  0.81582460  1
  Mo  Mo9  1  0.67423600  0.63023410  0.69026504  1
  Mo  Mo10  1  0.63023410  0.67423600  0.19026504  1
  Mo  Mo11  1  0.14290545  0.17398865  0.18417540  1
  Mo  Mo12  1  0.82601135  0.85709455  0.31582460  1
  Mo  Mo13  1  0.17398865  0.14290545  0.68417540  1
  Mo  Mo14  1  0.36976590  0.32576400  0.80973496  1
  Mo  Mo15  1  0.32576400  0.36976590  0.30973496  1
  O  O16  1  0.10585670  0.19241641  0.57423653  1
  O  O17  1  0.02302356  0.97697644  0.75000000  1
  O  O18  1  0.72323946  0.64181592  0.32936572  1
  O  O19  1  0.83344069  0.80111241  0.66995785  1
  O  O20  1  0.80758359  0.89414330  0.92576347  1
  O  O21  1  0.80111241  0.83344069  0.16995785  1
  O  O22  1  0.89414330  0.80758359  0.42576347  1
  O  O23  1  0.12584248  0.60617829  0.27680788  1
  O  O24  1  0.32602775  0.38053783  0.42483351  1
  O  O25  1  0.06282387  0.58197421  0.82694083  1
  O  O26  1  0.39382171  0.87415752  0.22319212  1
  O  O27  1  0.87415752  0.39382171  0.72319212  1
  O  O28  1  0.58197421  0.06282387  0.32694083  1
  O  O29  1  0.27676054  0.35818408  0.67063428  1
  O  O30  1  0.19241641  0.10585670  0.07423653  1
  O  O31  1  0.16655931  0.19888759  0.33004215  1
  O  O32  1  0.41802579  0.93717613  0.67305917  1
  O  O33  1  0.97697644  0.02302356  0.25000000  1
  O  O34  1  0.44699572  0.55300428  0.75000000  1
  O  O35  1  0.64181592  0.72323946  0.82936572  1
  O  O36  1  0.61946217  0.67397225  0.07516649  1
  O  O37  1  0.35818408  0.27676054  0.17063428  1
  O  O38  1  0.38053783  0.32602775  0.92483351  1
  O  O39  1  0.55300428  0.44699572  0.25000000  1
  O  O40  1  0.60617829  0.12584248  0.77680788  1
  O  O41  1  0.67397225  0.61946217  0.57516649  1
  O  O42  1  0.19888759  0.16655931  0.83004215  1
  O  O43  1  0.93717613  0.41802579  0.17305917  1
