# generated using pymatgen
data_CrBi8O15
_symmetry_space_group_name_H-M   'P 1'
_cell_length_a   9.80200519
_cell_length_b   12.07080125
_cell_length_c   14.06205461
_cell_angle_alpha   90.00000000
_cell_angle_beta   103.92424724
_cell_angle_gamma   90.00000000
_symmetry_Int_Tables_number   1
_chemical_formula_structural   CrBi8O15
_chemical_formula_sum   'Cr4 Bi32 O60'
_cell_volume   1614.90390966
_cell_formula_units_Z   4
loop_
 _symmetry_equiv_pos_site_id
 _symmetry_equiv_pos_as_xyz
  1  'x, y, z'
loop_
 _atom_site_type_symbol
 _atom_site_label
 _atom_site_symmetry_multiplicity
 _atom_site_fract_x
 _atom_site_fract_y
 _atom_site_fract_z
 _atom_site_occupancy
  Cr  Cr0  1  0.64473074  0.75000000  0.48177731  1
  Cr  Cr1  1  0.26850921  0.75000000  0.75519050  1
  Cr  Cr2  1  0.35526926  0.25000000  0.51822269  1
  Cr  Cr3  1  0.73149079  0.25000000  0.24480950  1
  Bi  Bi4  1  0.65579012  0.25000000  0.73608399  1
  Bi  Bi5  1  0.33689294  0.58872525  0.51806825  1
  Bi  Bi6  1  0.34077324  0.42674156  0.24478178  1
  Bi  Bi7  1  0.33530756  0.25000000  0.02341757  1
  Bi  Bi8  1  0.66310706  0.41127475  0.48193175  1
  Bi  Bi9  1  0.32814862  0.92876262  0.01142993  1
  Bi  Bi10  1  0.04858727  0.44032635  0.38924238  1
  Bi  Bi11  1  0.98089932  0.42085000  0.87658295  1
  Bi  Bi12  1  0.66310706  0.08872525  0.48193175  1
  Bi  Bi13  1  0.95141273  0.94032635  0.61075762  1
  Bi  Bi14  1  0.68770212  0.60023644  0.23908091  1
  Bi  Bi15  1  0.03785601  0.25000000  0.12627196  1
  Bi  Bi16  1  0.34420988  0.75000000  0.26391601  1
  Bi  Bi17  1  0.32814862  0.57123738  0.01142993  1
  Bi  Bi18  1  0.31229788  0.39976356  0.76091909  1
  Bi  Bi19  1  0.31229788  0.10023644  0.76091909  1
  Bi  Bi20  1  0.98089932  0.07915000  0.87658295  1
  Bi  Bi21  1  0.67185138  0.42876262  0.98857007  1
  Bi  Bi22  1  0.34077324  0.07325844  0.24478178  1
  Bi  Bi23  1  0.67185138  0.07123738  0.98857007  1
  Bi  Bi24  1  0.65922676  0.57325844  0.75521822  1
  Bi  Bi25  1  0.66469244  0.75000000  0.97658243  1
  Bi  Bi26  1  0.00927206  0.75000000  0.35329244  1
  Bi  Bi27  1  0.04858727  0.05967365  0.38924238  1
  Bi  Bi28  1  0.01910068  0.57915000  0.12341705  1
  Bi  Bi29  1  0.95141273  0.55967365  0.61075762  1
  Bi  Bi30  1  0.96214399  0.75000000  0.87372804  1
  Bi  Bi31  1  0.33689294  0.91127475  0.51806825  1
  Bi  Bi32  1  0.01910068  0.92085000  0.12341705  1
  Bi  Bi33  1  0.68770212  0.89976356  0.23908091  1
  Bi  Bi34  1  0.65922676  0.92674156  0.75521822  1
  Bi  Bi35  1  0.99072794  0.25000000  0.64670756  1
  O  O36  1  0.25624605  0.52305874  0.37537042  1
  O  O37  1  0.11509819  0.41868158  0.19762982  1
  O  O38  1  0.69756564  0.25000000  0.12235743  1
  O  O39  1  0.53121040  0.75000000  0.19063028  1
  O  O40  1  0.90661899  0.25000000  0.28735091  1
  O  O41  1  0.18825713  0.25000000  0.52666548  1
  O  O42  1  0.66399872  0.13678211  0.28459087  1
  O  O43  1  0.39045033  0.42353579  0.09765385  1
  O  O44  1  0.19355305  0.25000000  0.75874940  1
  O  O45  1  0.66399872  0.36321789  0.28459087  1
  O  O46  1  0.80644695  0.75000000  0.24125060  1
  O  O47  1  0.71853406  0.39673934  0.83104131  1
  O  O48  1  0.89792238  0.25000000  0.76994453  1
  O  O49  1  0.30243436  0.75000000  0.87764257  1
  O  O50  1  0.89676224  0.07233459  0.01664658  1
  O  O51  1  0.56151686  0.86289633  0.42566533  1
  O  O52  1  0.36288143  0.25000000  0.40158449  1
  O  O53  1  0.88490181  0.58131842  0.80237018  1
  O  O54  1  0.87567695  0.45275113  0.47907698  1
  O  O55  1  0.43848314  0.36289633  0.57433467  1
  O  O56  1  0.10323776  0.92766541  0.98335342  1
  O  O57  1  0.33600128  0.63678211  0.71540913  1
  O  O58  1  0.71853406  0.10326066  0.83104131  1
  O  O59  1  0.56151686  0.63710367  0.42566533  1
  O  O60  1  0.60954967  0.92353579  0.90234615  1
  O  O61  1  0.06582189  0.06874300  0.70042181  1
  O  O62  1  0.11509819  0.08131842  0.19762982  1
  O  O63  1  0.60954967  0.57646421  0.90234615  1
  O  O64  1  0.28516573  0.43201194  0.90197946  1
  O  O65  1  0.87567695  0.04724887  0.47907698  1
  O  O66  1  0.71483427  0.56798806  0.09802054  1
  O  O67  1  0.71483427  0.93201194  0.09802054  1
  O  O68  1  0.71498265  0.75000000  0.82232796  1
  O  O69  1  0.28501735  0.25000000  0.17767204  1
  O  O70  1  0.28516573  0.06798806  0.90197946  1
  O  O71  1  0.10738150  0.25000000  0.98843087  1
  O  O72  1  0.88490181  0.91868158  0.80237018  1
  O  O73  1  0.33600128  0.86321789  0.71540913  1
  O  O74  1  0.74375395  0.02305874  0.62462958  1
  O  O75  1  0.12432305  0.95275113  0.52092302  1
  O  O76  1  0.10323776  0.57233459  0.98335342  1
  O  O77  1  0.25624605  0.97694126  0.37537042  1
  O  O78  1  0.39045033  0.07646421  0.09765385  1
  O  O79  1  0.81174287  0.75000000  0.47333452  1
  O  O80  1  0.12432305  0.54724887  0.52092302  1
  O  O81  1  0.73032089  0.25000000  0.53541785  1
  O  O82  1  0.26967911  0.75000000  0.46458215  1
  O  O83  1  0.28146594  0.89673934  0.16895869  1
  O  O84  1  0.93417811  0.93125700  0.29957819  1
  O  O85  1  0.89676224  0.42766541  0.01664658  1
  O  O86  1  0.43848314  0.13710367  0.57433467  1
  O  O87  1  0.93417811  0.56874300  0.29957819  1
  O  O88  1  0.74375395  0.47694126  0.62462958  1
  O  O89  1  0.63711857  0.75000000  0.59841551  1
  O  O90  1  0.10207762  0.75000000  0.23005547  1
  O  O91  1  0.09338101  0.75000000  0.71264909  1
  O  O92  1  0.89261850  0.75000000  0.01156913  1
  O  O93  1  0.46878960  0.25000000  0.80936972  1
  O  O94  1  0.06582189  0.43125700  0.70042181  1
  O  O95  1  0.28146594  0.60326066  0.16895869  1
