# generated using pymatgen
data_Al2Si3H8(NO5)2
_symmetry_space_group_name_H-M   'P 1'
_cell_length_a   12.97118525
_cell_length_b   13.00599186
_cell_length_c   6.61069152
_cell_angle_alpha   90.00000000
_cell_angle_beta   90.00000000
_cell_angle_gamma   88.60289570
_symmetry_Int_Tables_number   1
_chemical_formula_structural   Al2Si3H8(NO5)2
_chemical_formula_sum   'Al8 Si12 H32 N8 O40'
_cell_volume   1114.91281371
_cell_formula_units_Z   4
loop_
 _symmetry_equiv_pos_site_id
 _symmetry_equiv_pos_as_xyz
  1  'x, y, z'
loop_
 _atom_site_type_symbol
 _atom_site_label
 _atom_site_symmetry_multiplicity
 _atom_site_fract_x
 _atom_site_fract_y
 _atom_site_fract_z
 _atom_site_occupancy
  Al  Al0  1  0.38305459  0.31291941  0.11558519  1
  Al  Al1  1  0.61694541  0.68708059  0.61558519  1
  Al  Al2  1  0.12219953  0.19269646  0.11400859  1
  Al  Al3  1  0.87780047  0.80730354  0.61400859  1
  Al  Al4  1  0.31032490  0.88268878  0.86584780  1
  Al  Al5  1  0.68967510  0.11731122  0.36584780  1
  Al  Al6  1  0.19032194  0.62224098  0.86880439  1
  Al  Al7  1  0.80967806  0.37775902  0.36880439  1
  Si  Si8  1  0.25796028  0.25662974  0.50078997  1
  Si  Si9  1  0.74203972  0.74337026  0.00078997  1
  Si  Si10  1  0.24254328  0.75750563  0.25195599  1
  Si  Si11  1  0.75745672  0.24249437  0.75195599  1
  Si  Si12  1  0.61846826  0.30966619  0.12609690  1
  Si  Si13  1  0.38153174  0.69033381  0.62609690  1
  Si  Si14  1  0.88622778  0.18412217  0.12451549  1
  Si  Si15  1  0.11377222  0.81587783  0.62451549  1
  Si  Si16  1  0.31443388  0.11975339  0.87460010  1
  Si  Si17  1  0.68556612  0.88024661  0.37460010  1
  Si  Si18  1  0.18578036  0.38549017  0.87376407  1
  Si  Si19  1  0.81421964  0.61450983  0.37376407  1
  H  H20  1  0.53980542  0.38802705  0.73535838  1
  H  H21  1  0.46019458  0.61197295  0.23535838  1
  H  H22  1  0.45555885  0.36601309  0.53969454  1
  H  H23  1  0.54444115  0.63398691  0.03969454  1
  H  H24  1  0.49363502  0.48831850  0.59623846  1
  H  H25  1  0.50636498  0.51168150  0.09623846  1
  H  H26  1  0.57809816  0.40316135  0.49151228  1
  H  H27  1  0.42190184  0.59683865  0.99151228  1
  H  H28  1  0.90629980  0.91960629  0.24555809  1
  H  H29  1  0.09370020  0.08039371  0.74555809  1
  H  H30  1  0.94921055  0.85959854  0.03690910  1
  H  H31  1  0.05078945  0.14040146  0.53690910  1
  H  H32  1  0.03237742  0.88606985  0.23055157  1
  H  H33  1  0.96762258  0.11393015  0.73055157  1
  H  H34  1  0.98373972  0.98457362  0.08808765  1
  H  H35  1  0.01626028  0.01542638  0.58808765  1
  H  H36  1  0.11114660  0.57753678  0.28107768  1
  H  H37  1  0.88885340  0.42246322  0.78107768  1
  H  H38  1  0.10314414  0.55386212  0.52921066  1
  H  H39  1  0.89685586  0.44613788  0.02921066  1
  H  H40  1  0.00429804  0.51691755  0.38142314  1
  H  H41  1  0.99570196  0.48308245  0.88142314  1
  H  H42  1  0.12179325  0.45486788  0.37150336  1
  H  H43  1  0.87820675  0.54513212  0.87150336  1
  H  H44  1  0.39106873  0.94548968  0.25673826  1
  H  H45  1  0.60893127  0.05451032  0.75673826  1
  H  H46  1  0.40072391  0.07228527  0.30943043  1
  H  H47  1  0.59927609  0.92771473  0.80943043  1
  H  H48  1  0.36723520  0.98880910  0.49150364  1
  H  H49  1  0.63276480  0.01119090  0.99150364  1
  H  H50  1  0.49134057  0.98993439  0.39952119  1
  H  H51  1  0.50865943  0.01006561  0.89952119  1
  N  N52  1  0.51595756  0.41059932  0.59232633  1
  N  N53  1  0.48404244  0.58940068  0.09232633  1
  N  N54  1  0.96880942  0.91220355  0.14721123  1
  N  N55  1  0.03119058  0.08779645  0.64721123  1
  N  N56  1  0.08497885  0.52519317  0.38830169  1
  N  N57  1  0.91502115  0.47480683  0.88830169  1
  N  N58  1  0.41238254  0.99893784  0.36536614  1
  N  N59  1  0.58761746  0.00106216  0.86536614  1
  O  O60  1  0.17499746  0.19822911  0.35885141  1
  O  O61  1  0.82500254  0.80177089  0.85885141  1
  O  O62  1  0.34796006  0.31512921  0.37524054  1
  O  O63  1  0.65203994  0.68487079  0.87524054  1
  O  O64  1  0.30502329  0.84173543  0.12049860  1
  O  O65  1  0.69497671  0.15826457  0.62049860  1
  O  O66  1  0.18669697  0.66921742  0.11816945  1
  O  O67  1  0.81330303  0.33078258  0.61816945  1
  O  O68  1  0.50617593  0.36729408  0.08635848  1
  O  O69  1  0.49382407  0.63270592  0.58635848  1
  O  O70  1  0.00224372  0.13165281  0.12624566  1
  O  O71  1  0.99775628  0.86834719  0.62624566  1
  O  O72  1  0.36826281  0.00456793  0.85803352  1
  O  O73  1  0.63173719  0.99543207  0.35803352  1
  O  O74  1  0.13159838  0.50107957  0.85864959  1
  O  O75  1  0.86840162  0.49892043  0.35864959  1
  O  O76  1  0.38287363  0.18431762  0.03345814  1
  O  O77  1  0.61712637  0.81568238  0.53345814  1
  O  O78  1  0.10943943  0.31578903  0.00773770  1
  O  O79  1  0.89056057  0.68421097  0.50773770  1
  O  O80  1  0.81190212  0.11146263  0.25555447  1
  O  O81  1  0.18809788  0.88853737  0.75555447  1
  O  O82  1  0.68119644  0.38314218  0.28186898  1
  O  O83  1  0.31880356  0.61685782  0.78186898  1
  O  O84  1  0.60643582  0.19567846  0.22041898  1
  O  O85  1  0.39356418  0.80432154  0.72041898  1
  O  O86  1  0.88475683  0.30256653  0.20236636  1
  O  O87  1  0.11524317  0.69743347  0.70236636  1
  O  O88  1  0.19421427  0.11324300  0.94604941  1
  O  O89  1  0.80578573  0.88675700  0.44604941  1
  O  O90  1  0.30041089  0.39052938  0.96996821  1
  O  O91  1  0.69958911  0.60947062  0.46996821  1
  O  O92  1  0.67558534  0.30328511  0.90309166  1
  O  O93  1  0.32441466  0.69671489  0.40309166  1
  O  O94  1  0.84924756  0.18155421  0.88223086  1
  O  O95  1  0.15075244  0.81844579  0.38223086  1
  O  O96  1  0.19255761  0.34167128  0.63744344  1
  O  O97  1  0.80744239  0.65832872  0.13744344  1
  O  O98  1  0.31758923  0.17033862  0.64467222  1
  O  O99  1  0.68241077  0.82966138  0.14467222  1
