# generated using pymatgen
data_La12Mn11O36
_symmetry_space_group_name_H-M   'P 1'
_cell_length_a   11.28397012
_cell_length_b   7.96556948
_cell_length_c   23.59096318
_cell_angle_alpha   90.00000000
_cell_angle_beta   90.00000000
_cell_angle_gamma   44.43303839
_symmetry_Int_Tables_number   1
_chemical_formula_structural   La12Mn11O36
_chemical_formula_sum   'La24 Mn22 O72'
_cell_volume   1484.46215324
_cell_formula_units_Z   2
loop_
 _symmetry_equiv_pos_site_id
 _symmetry_equiv_pos_as_xyz
  1  'x, y, z'
loop_
 _atom_site_type_symbol
 _atom_site_label
 _atom_site_symmetry_multiplicity
 _atom_site_fract_x
 _atom_site_fract_y
 _atom_site_fract_z
 _atom_site_occupancy
  La  La0  1  0.01083671  0.50729010  0.08491288  1
  La  La1  1  0.01038422  0.50946676  0.41570047  1
  La  La2  1  0.03118099  0.51174044  0.74402734  1
  La  La3  1  0.48525445  0.98979242  0.24772258  1
  La  La4  1  0.46613948  0.02440077  0.58737734  1
  La  La5  1  0.48132212  0.00770729  0.91809983  1
  La  La6  1  0.01867788  0.99229271  0.41523417  1
  La  La7  1  0.01474555  0.01020758  0.08561042  1
  La  La8  1  0.03386052  0.97559923  0.74595566  1
  La  La9  1  0.48916329  0.49270990  0.24842012  1
  La  La10  1  0.46881901  0.48825956  0.58930566  1
  La  La11  1  0.48961578  0.49053324  0.91763353  1
  La  La12  1  0.53118099  0.51174044  0.08930566  1
  La  La13  1  0.51038422  0.50946676  0.41763353  1
  La  La14  1  0.51083671  0.50729010  0.74842012  1
  La  La15  1  0.96613948  0.02440077  0.24595566  1
  La  La16  1  0.98525445  0.98979242  0.58561042  1
  La  La17  1  0.98132212  0.00770729  0.91523417  1
  La  La18  1  0.51867788  0.99229271  0.41809983  1
  La  La19  1  0.53386052  0.97559923  0.08737734  1
  La  La20  1  0.51474555  0.01020758  0.74772258  1
  La  La21  1  0.96881901  0.48825956  0.24402734  1
  La  La22  1  0.98916329  0.49270990  0.58491288  1
  La  La23  1  0.98961578  0.49053324  0.91570047  1
  Mn  Mn24  1  0.25000000  0.00000000  0.16666700  1
  Mn  Mn25  1  0.24641420  0.00031904  0.50039251  1
  Mn  Mn26  1  0.25358580  0.99968096  0.83294049  1
  Mn  Mn27  1  0.25363920  0.99631177  0.00022118  1
  Mn  Mn28  1  0.24636080  0.00368823  0.33311182  1
  Mn  Mn29  1  0.25000000  0.00000000  0.66666700  1
  Mn  Mn30  1  0.24691784  0.50042639  0.33090073  1
  Mn  Mn31  1  0.25000000  0.50000000  0.16666700  1
  Mn  Mn32  1  0.25308216  0.49957361  0.00243227  1
  Mn  Mn33  1  0.24604133  0.50108034  0.49805864  1
  Mn  Mn34  1  0.25395867  0.49891966  0.83527436  1
  Mn  Mn35  1  0.75363920  0.99631177  0.83311182  1
  Mn  Mn36  1  0.75000000  0.00000000  0.16666700  1
  Mn  Mn37  1  0.74636080  0.00368823  0.50022118  1
  Mn  Mn38  1  0.75000000  0.00000000  0.66666700  1
  Mn  Mn39  1  0.75358580  0.99968096  0.00039251  1
  Mn  Mn40  1  0.74641420  0.00031904  0.33294049  1
  Mn  Mn41  1  0.74691784  0.50042639  0.50243227  1
  Mn  Mn42  1  0.75308216  0.49957361  0.83090073  1
  Mn  Mn43  1  0.75395867  0.49891966  0.99805864  1
  Mn  Mn44  1  0.74604133  0.50108034  0.33527436  1
  Mn  Mn45  1  0.75000000  0.50000000  0.66666700  1
  O  O46  1  0.19934383  0.07914417  0.08426273  1
  O  O47  1  0.20143147  0.07743788  0.41719710  1
  O  O48  1  0.20786239  0.07931680  0.74957108  1
  O  O49  1  0.21109159  0.28009911  0.31827592  1
  O  O50  1  0.20449333  0.28833429  0.17972752  1
  O  O51  1  0.21539018  0.28010693  0.51211034  1
  O  O52  1  0.21050498  0.27028285  0.65319358  1
  O  O53  1  0.22492937  0.27720034  0.84874870  1
  O  O54  1  0.21989184  0.27482715  0.98553730  1
  O  O55  1  0.00182901  0.77680263  0.34709879  1
  O  O56  1  0.98159900  0.81272509  0.67991725  1
  O  O57  1  0.00731366  0.77789567  0.01469748  1
  O  O58  1  -0.00081010  0.79528446  0.15418498  1
  O  O59  1  0.00376100  0.78326157  0.82039599  1
  O  O60  1  0.99725313  0.78206299  0.48382655  1
  O  O61  1  0.27891552  0.42091633  0.41669713  1
  O  O62  1  0.27934894  0.41587849  0.08512074  1
  O  O63  1  0.28416055  0.43164600  0.75760245  1
  O  O64  1  0.22065106  0.58412151  0.24821226  1
  O  O65  1  0.21583945  0.56835400  0.57573055  1
  O  O66  1  0.22108448  0.57908367  0.91663687  1
  O  O67  1  0.49268634  0.22210433  0.31863552  1
  O  O68  1  0.50081010  0.20471554  0.17914802  1
  O  O69  1  0.50274687  0.21793701  0.84950745  1
  O  O70  1  0.49623900  0.21673843  0.51293701  1
  O  O71  1  0.51840100  0.18727491  0.65341575  1
  O  O72  1  0.49817099  0.22319737  0.98623521  1
  O  O73  1  0.28010816  0.72517285  0.34779670  1
  O  O74  1  0.28890841  0.71990089  0.01505708  1
  O  O75  1  0.29550667  0.71166571  0.15360548  1
  O  O76  1  0.27507063  0.72279966  0.48458530  1
  O  O77  1  0.28949502  0.72971715  0.68013942  1
  O  O78  1  0.28460982  0.71989307  0.82122266  1
  O  O79  1  0.69934383  0.07914417  0.74907027  1
  O  O80  1  0.70786239  0.07931680  0.08376192  1
  O  O81  1  0.70143147  0.07743788  0.41613690  1
  O  O82  1  0.30065617  0.92085583  0.24907027  1
  O  O83  1  0.29213761  0.92068320  0.58376192  1
  O  O84  1  0.29856853  0.92256212  0.91613690  1
  O  O85  1  0.71539018  0.28010693  0.32122266  1
  O  O86  1  0.71050498  0.27028285  0.18013942  1
  O  O87  1  0.71109159  0.28009911  0.51505708  1
  O  O88  1  0.70449333  0.28833429  0.65360548  1
  O  O89  1  0.71989184  0.27482715  0.84779670  1
  O  O90  1  0.72492937  0.27720034  0.98458530  1
  O  O91  1  0.50376100  0.78326157  0.01293701  1
  O  O92  1  0.48159900  0.81272509  0.15341575  1
  O  O93  1  0.49725313  0.78206299  0.34950745  1
  O  O94  1  0.49918990  0.79528446  0.67914802  1
  O  O95  1  0.50731366  0.77789567  0.81863552  1
  O  O96  1  0.50182901  0.77680263  0.48623521  1
  O  O97  1  0.77891552  0.42091633  0.41663687  1
  O  O98  1  0.77934894  0.41587849  0.74821226  1
  O  O99  1  0.78416055  0.43164600  0.07573055  1
  O  O100  1  0.72065106  0.58412151  0.58512074  1
  O  O101  1  0.71583945  0.56835400  0.25760245  1
  O  O102  1  0.72108448  0.57908367  0.91669713  1
  O  O103  1  0.99817099  0.22319737  0.84709879  1
  O  O104  1  0.99623900  0.21673843  0.32039599  1
  O  O105  1  0.01840100  0.18727491  0.17991725  1
  O  O106  1  0.99268634  0.22210433  0.51469748  1
  O  O107  1  1.00081010  0.20471554  0.65418498  1
  O  O108  1  0.00274687  0.21793701  0.98382655  1
  O  O109  1  0.78010816  0.72517285  0.48553730  1
  O  O110  1  0.77507063  0.72279966  0.34874870  1
  O  O111  1  0.78460982  0.71989307  0.01211034  1
  O  O112  1  0.78949502  0.72971715  0.15319358  1
  O  O113  1  0.79550667  0.71166571  0.67972752  1
  O  O114  1  0.78890841  0.71990089  0.81827592  1
  O  O115  1  0.80065617  0.92085583  0.58426273  1
  O  O116  1  0.79213761  0.92068320  0.24957108  1
  O  O117  1  0.79856853  0.92256212  0.91719710  1
