# generated using pymatgen
data_Fe2(MoO4)3
_symmetry_space_group_name_H-M   'P 1'
_cell_length_a   9.41047909
_cell_length_b   16.00988728
_cell_length_c   16.07196391
_cell_angle_alpha   109.34085222
_cell_angle_beta   90.00000000
_cell_angle_gamma   90.00000000
_symmetry_Int_Tables_number   1
_chemical_formula_structural   Fe2(MoO4)3
_chemical_formula_sum   'Fe16 Mo24 O96'
_cell_volume   2284.76114370
_cell_formula_units_Z   8
loop_
 _symmetry_equiv_pos_site_id
 _symmetry_equiv_pos_as_xyz
  1  'x, y, z'
loop_
 _atom_site_type_symbol
 _atom_site_label
 _atom_site_symmetry_multiplicity
 _atom_site_fract_x
 _atom_site_fract_y
 _atom_site_fract_z
 _atom_site_occupancy
  Fe  Fe0  1  0.46679284  0.81214711  0.67984057  1
  Fe  Fe1  1  0.51821572  0.05879698  0.41564973  1
  Fe  Fe2  1  0.01821572  0.94120302  0.58435027  1
  Fe  Fe3  1  0.98444324  0.56146585  0.41570287  1
  Fe  Fe4  1  0.54103608  0.57694365  0.95400488  1
  Fe  Fe5  1  0.02721346  0.81689247  0.18427095  1
  Fe  Fe6  1  0.47484625  0.31729187  0.18587628  1
  Fe  Fe7  1  0.04103608  0.42305635  0.04599512  1
  Fe  Fe8  1  0.46066950  0.92607468  0.04568729  1
  Fe  Fe9  1  0.97484625  0.68270813  0.81412372  1
  Fe  Fe10  1  0.96066950  0.07392532  0.95431271  1
  Fe  Fe11  1  0.03634415  0.31170918  0.68179223  1
  Fe  Fe12  1  0.52721346  0.18310753  0.81572905  1
  Fe  Fe13  1  0.53634415  0.68829082  0.31820777  1
  Fe  Fe14  1  0.96679284  0.18785289  0.32015943  1
  Fe  Fe15  1  0.48444324  0.43853415  0.58429713  1
  Mo  Mo16  1  0.88600635  0.98338708  0.38420488  1
  Mo  Mo17  1  0.11267205  0.36012051  0.24884520  1
  Mo  Mo18  1  0.61267205  0.63987949  0.75115480  1
  Mo  Mo19  1  0.12851332  0.02757515  0.13803582  1
  Mo  Mo20  1  0.38722017  0.86030831  0.24900527  1
  Mo  Mo21  1  0.37415545  0.52466285  0.13534127  1
  Mo  Mo22  1  0.25348158  0.24273960  0.48805437  1
  Mo  Mo23  1  0.13247935  0.88771102  0.78675948  1
  Mo  Mo24  1  0.74640296  0.26676587  0.01983419  1
  Mo  Mo25  1  0.75810038  0.76792157  0.01891607  1
  Mo  Mo26  1  0.87354623  0.61220149  0.21298249  1
  Mo  Mo27  1  0.38600635  0.01661292  0.61579512  1
  Mo  Mo28  1  0.87415545  0.47533715  0.86465873  1
  Mo  Mo29  1  0.24679466  0.74539197  0.48684742  1
  Mo  Mo30  1  0.62851332  0.97242485  0.86196418  1
  Mo  Mo31  1  0.75348158  0.75726040  0.51194563  1
  Mo  Mo32  1  0.88722017  0.13969169  0.75099473  1
  Mo  Mo33  1  0.25810038  0.23207843  0.98108393  1
  Mo  Mo34  1  0.61698264  0.48645405  0.38709994  1
  Mo  Mo35  1  0.24640296  0.73323413  0.98016581  1
  Mo  Mo36  1  0.11698264  0.51354595  0.61290006  1
  Mo  Mo37  1  0.37354623  0.38779851  0.78701751  1
  Mo  Mo38  1  0.63247935  0.11228898  0.21324052  1
  Mo  Mo39  1  0.74679466  0.25460803  0.51315258  1
  O  O40  1  0.21411815  0.81229817  0.24484788  1
  O  O41  1  0.10884666  0.24317279  0.41575936  1
  O  O42  1  0.78710610  0.68602764  0.75435931  1
  O  O43  1  0.89310895  0.03569550  0.66295929  1
  O  O44  1  0.05857092  0.41740978  0.63730698  1
  O  O45  1  0.61533755  0.83557278  0.00395737  1
  O  O46  1  0.19545691  0.01665312  0.60956758  1
  O  O47  1  0.98400593  0.29135552  0.27665900  1
  O  O48  1  0.60884666  0.75682721  0.58424064  1
  O  O49  1  0.64632135  0.35441868  0.55452468  1
  O  O50  1  0.49677014  0.52821684  0.05086572  1
  O  O51  1  0.00161344  0.03213630  0.05616380  1
  O  O52  1  0.11868823  0.12462622  0.23463464  1
  O  O53  1  0.63608559  0.15949793  0.49815427  1
  O  O54  1  0.11533755  0.16442722  0.99604263  1
  O  O55  1  0.12023394  0.75466695  0.06782814  1
  O  O56  1  0.44007977  0.39458135  0.68545249  1
  O  O57  1  0.42441921  0.87680277  0.14596873  1
  O  O58  1  0.57250005  0.63295406  0.85809202  1
  O  O59  1  0.18654985  0.24705586  0.59433730  1
  O  O60  1  0.40274107  0.49053307  0.87421391  1
  O  O61  1  0.43920781  0.11575674  0.70091546  1
  O  O62  1  0.34485324  0.17414242  0.87893546  1
  O  O63  1  0.28710610  0.31397236  0.24564069  1
  O  O64  1  0.15575232  0.67555357  0.87952564  1
  O  O65  1  0.54307797  0.48882503  0.49087396  1
  O  O66  1  0.65575232  0.32444643  0.12047436  1
  O  O67  1  0.44519376  0.92036975  0.63912358  1
  O  O68  1  0.04307797  0.51117497  0.50912604  1
  O  O69  1  0.62023394  0.24533305  0.93217186  1
  O  O70  1  0.07250005  0.36704594  0.14190798  1
  O  O71  1  0.81393982  0.24856682  0.40693890  1
  O  O72  1  0.31304023  0.83739047  0.97608388  1
  O  O73  1  0.50161344  0.96786370  0.94383620  1
  O  O74  1  0.94007977  0.60541865  0.31454751  1
  O  O75  1  0.90274107  0.50946693  0.12578609  1
  O  O76  1  0.46330889  0.29915353  0.80996511  1
  O  O77  1  0.56852164  0.09524477  0.31102880  1
  O  O78  1  0.10200247  0.98582179  0.87953463  1
  O  O79  1  0.38742317  0.66739505  0.00134663  1
  O  O80  1  0.69273578  0.66325833  0.02265651  1
  O  O81  1  0.10650316  0.46905887  0.32894812  1
  O  O82  1  0.69474052  0.48585571  0.90453842  1
  O  O83  1  0.09264396  0.93400031  0.17185748  1
  O  O84  1  0.46577862  0.01704328  0.51478743  1
  O  O85  1  0.31969395  0.86668715  0.77331413  1
  O  O86  1  0.60200247  0.01417821  0.12046537  1
  O  O87  1  0.19474052  0.51414429  0.09546158  1
  O  O88  1  0.88331949  0.74965310  0.93074545  1
  O  O89  1  0.06232067  0.61210511  0.69779867  1
  O  O90  1  0.92441921  0.12319723  0.85403127  1
  O  O91  1  0.38864490  0.62310280  0.22994009  1
  O  O92  1  0.38331949  0.25034690  0.06925455  1
  O  O93  1  0.93920781  0.88424326  0.29908454  1
  O  O94  1  0.86273031  0.66161482  0.49777479  1
  O  O95  1  0.04153379  0.79501200  0.80082990  1
  O  O96  1  0.81969395  0.13331285  0.22668587  1
  O  O97  1  0.71411815  0.18770183  0.75515212  1
  O  O98  1  0.14632135  0.64558132  0.44547532  1
  O  O99  1  0.96577862  0.98295672  0.48521257  1
  O  O100  1  0.81304023  0.16260953  0.02391612  1
  O  O101  1  0.99677014  0.47178316  0.94913428  1
  O  O102  1  0.01668168  0.21272842  0.73093043  1
  O  O103  1  0.31393982  0.75143318  0.59306110  1
  O  O104  1  0.96330889  0.70084647  0.19003489  1
  O  O105  1  0.94519376  0.07963025  0.36087642  1
  O  O106  1  0.06852164  0.90475523  0.68897120  1
  O  O107  1  0.80789240  0.48721813  0.39147358  1
  O  O108  1  0.41157146  0.43190991  0.17021452  1
  O  O109  1  0.88766018  0.25643649  0.58916039  1
  O  O110  1  0.85348825  0.85685360  0.55756771  1
  O  O111  1  0.19273578  0.33674167  0.97734349  1
  O  O112  1  0.18641176  0.36591745  0.77308978  1
  O  O113  1  0.51668168  0.78727158  0.26906957  1
  O  O114  1  0.54153379  0.20498800  0.19917010  1
  O  O115  1  0.30789240  0.51278187  0.60852642  1
  O  O116  1  0.13608559  0.84050207  0.50184573  1
  O  O117  1  0.55857092  0.58259022  0.36269302  1
  O  O118  1  0.59264396  0.06599969  0.82814252  1
  O  O119  1  0.48400593  0.70864448  0.72334100  1
  O  O120  1  0.91157146  0.56809009  0.82978548  1
  O  O121  1  0.68654985  0.75294414  0.40566270  1
  O  O122  1  0.68641176  0.63408255  0.22691022  1
  O  O123  1  0.80565760  0.98415882  0.90604057  1
  O  O124  1  0.38766018  0.74356351  0.41083961  1
  O  O125  1  0.84485324  0.82585758  0.12106454  1
  O  O126  1  0.88864490  0.37689720  0.77005991  1
  O  O127  1  0.39310895  0.96430450  0.33704071  1
  O  O128  1  0.35348825  0.14314640  0.44243229  1
  O  O129  1  0.61868823  0.87537378  0.76536536  1
  O  O130  1  0.30565760  0.01584118  0.09395943  1
  O  O131  1  0.56232067  0.38789489  0.30220133  1
  O  O132  1  0.88742317  0.33260495  0.99865337  1
  O  O133  1  0.60650316  0.53094113  0.67105188  1
  O  O134  1  0.36273031  0.33838518  0.50222521  1
  O  O135  1  0.69545691  0.98334688  0.39043242  1
