# generated using pymatgen
data_Cr2(MoO4)3
_symmetry_space_group_name_H-M   'P 1'
_cell_length_a   9.37112764
_cell_length_b   15.87106095
_cell_length_c   15.98614777
_cell_angle_alpha   109.07240323
_cell_angle_beta   90.00000000
_cell_angle_gamma   90.00000000
_symmetry_Int_Tables_number   1
_chemical_formula_structural   Cr2(MoO4)3
_chemical_formula_sum   'Cr16 Mo24 O96'
_cell_volume   2247.09971083
_cell_formula_units_Z   8
loop_
 _symmetry_equiv_pos_site_id
 _symmetry_equiv_pos_as_xyz
  1  'x, y, z'
loop_
 _atom_site_type_symbol
 _atom_site_label
 _atom_site_symmetry_multiplicity
 _atom_site_fract_x
 _atom_site_fract_y
 _atom_site_fract_z
 _atom_site_occupancy
  Cr  Cr0  1  0.47469900  0.93370654  0.81527587  1
  Cr  Cr1  1  0.02530100  0.43370654  0.81527587  1
  Cr  Cr2  1  0.01859222  0.30954698  0.41732543  1
  Cr  Cr3  1  0.51859222  0.19045302  0.58267457  1
  Cr  Cr4  1  0.46407488  0.43595607  0.31793817  1
  Cr  Cr5  1  0.53592512  0.56404393  0.68206183  1
  Cr  Cr6  1  0.48140778  0.80954698  0.41732543  1
  Cr  Cr7  1  0.54310622  0.67521685  0.04904115  1
  Cr  Cr8  1  0.96407488  0.06404393  0.68206183  1
  Cr  Cr9  1  0.03592512  0.93595607  0.31793817  1
  Cr  Cr10  1  0.04310622  0.82478315  0.95095885  1
  Cr  Cr11  1  0.95689378  0.17521685  0.04904115  1
  Cr  Cr12  1  0.98140778  0.69045302  0.58267457  1
  Cr  Cr13  1  0.45689378  0.32478315  0.95095885  1
  Cr  Cr14  1  0.52530100  0.06629346  0.18472413  1
  Cr  Cr15  1  0.97469900  0.56629346  0.18472413  1
  Mo  Mo16  1  0.12795764  0.36072635  0.21329735  1
  Mo  Mo17  1  0.25498966  0.01840188  0.01925482  1
  Mo  Mo18  1  0.25096499  0.00639382  0.51055112  1
  Mo  Mo19  1  0.75498966  0.48159812  0.98074518  1
  Mo  Mo20  1  0.75096499  0.49360618  0.48944888  1
  Mo  Mo21  1  0.24903501  0.50639382  0.51055112  1
  Mo  Mo22  1  0.62130118  0.27491667  0.13505062  1
  Mo  Mo23  1  0.38049531  0.23180737  0.38326114  1
  Mo  Mo24  1  0.24501034  0.51840188  0.01925482  1
  Mo  Mo25  1  0.62795764  0.13927365  0.78670265  1
  Mo  Mo26  1  0.37869882  0.72508333  0.86494938  1
  Mo  Mo27  1  0.38395647  0.38902717  0.74789203  1
  Mo  Mo28  1  0.11604353  0.88902717  0.74789203  1
  Mo  Mo29  1  0.12130118  0.22508333  0.86494938  1
  Mo  Mo30  1  0.37204236  0.86072635  0.21329735  1
  Mo  Mo31  1  0.11950469  0.73180737  0.38326114  1
  Mo  Mo32  1  0.88395647  0.11097283  0.25210797  1
  Mo  Mo33  1  0.87204236  0.63927365  0.78670265  1
  Mo  Mo34  1  0.61604353  0.61097283  0.25210797  1
  Mo  Mo35  1  0.87869882  0.77491667  0.13505062  1
  Mo  Mo36  1  0.74501034  0.98159812  0.98074518  1
  Mo  Mo37  1  0.61950469  0.76819263  0.61673886  1
  Mo  Mo38  1  0.88049531  0.26819263  0.61673886  1
  Mo  Mo39  1  0.74903501  0.99360618  0.48944888  1
  O  O40  1  0.60157780  0.23869964  0.87940391  1
  O  O41  1  0.20870404  0.43555611  0.75116505  1
  O  O42  1  0.64811837  0.09406248  0.50607574  1
  O  O43  1  0.68188353  0.49651673  0.59501740  1
  O  O44  1  0.10157780  0.26130036  0.12059609  1
  O  O45  1  0.08241182  0.31845233  0.82966019  1
  O  O46  1  0.81077958  0.77028852  0.60907218  1
  O  O47  1  0.57647245  0.62198867  0.14605209  1
  O  O48  1  0.07647245  0.87801133  0.85394791  1
  O  O49  1  0.79129596  0.56444389  0.24883495  1
  O  O50  1  0.64179357  0.89587787  0.45073030  1
  O  O51  1  0.46604273  0.95142778  0.19618855  1
  O  O52  1  0.61166107  0.71826735  0.33613213  1
  O  O53  1  0.46528753  0.23549098  0.48471588  1
  O  O54  1  0.57041844  0.86911972  0.70130749  1
  O  O55  1  0.85820643  0.39587787  0.45073030  1
  O  O56  1  0.88846860  0.87464616  0.22910926  1
  O  O57  1  0.87876735  0.50008853  0.07030695  1
  O  O58  1  0.68922042  0.27028852  0.60907218  1
  O  O59  1  0.42958156  0.13088028  0.29869251  1
  O  O60  1  0.31194399  0.41311534  0.02232433  1
  O  O61  1  0.99666565  0.22137100  0.94881244  1
  O  O62  1  0.30224104  0.23463351  0.90362324  1
  O  O63  1  0.39842220  0.76130036  0.12059609  1
  O  O64  1  0.06233649  0.34641689  0.31248341  1
  O  O65  1  0.88827873  0.98851560  0.41115976  1
  O  O66  1  0.58241182  0.18154767  0.17033981  1
  O  O67  1  0.50333435  0.72137100  0.94881244  1
  O  O68  1  0.34301388  0.07287284  0.12214141  1
  O  O69  1  0.00333435  0.77862900  0.05118756  1
  O  O70  1  0.81811647  0.99651673  0.59501740  1
  O  O71  1  0.88761627  0.91337607  0.99643056  1
  O  O72  1  0.53471247  0.76450902  0.51528412  1
  O  O73  1  0.11153140  0.12535384  0.77089074  1
  O  O74  1  0.91758818  0.68154767  0.17033981  1
  O  O75  1  0.88833893  0.21826735  0.33613213  1
  O  O76  1  0.03395727  0.45142778  0.19618855  1
  O  O77  1  0.61238373  0.41337607  0.99643056  1
  O  O78  1  0.38833893  0.28173265  0.66386787  1
  O  O79  1  0.38846860  0.62535384  0.77089074  1
  O  O80  1  0.53395727  0.04857222  0.80381145  1
  O  O81  1  0.43766351  0.84641689  0.31248341  1
  O  O82  1  0.56178752  0.67173607  0.64251207  1
  O  O83  1  0.81599017  0.11774735  0.77418724  1
  O  O84  1  0.98403355  0.95905334  0.72362187  1
  O  O85  1  0.96604273  0.54857222  0.80381145  1
  O  O86  1  0.18188353  0.00348327  0.40498260  1
  O  O87  1  0.14811837  0.40593752  0.49392426  1
  O  O88  1  0.43821248  0.32826393  0.35748793  1
  O  O89  1  0.15698612  0.57287284  0.12214141  1
  O  O90  1  0.11238373  0.08662393  0.00356944  1
  O  O91  1  0.42352755  0.37801133  0.85394791  1
  O  O92  1  0.85188163  0.59406248  0.50607574  1
  O  O93  1  0.19775896  0.73463351  0.90362324  1
  O  O94  1  0.92958156  0.36911972  0.70130749  1
  O  O95  1  0.11172127  0.01148440  0.58884024  1
  O  O96  1  0.18922042  0.22971148  0.39092782  1
  O  O97  1  0.01596645  0.04094666  0.27637813  1
  O  O98  1  0.96528753  0.26450902  0.51528412  1
  O  O99  1  0.51596645  0.45905334  0.72362187  1
  O  O100  1  0.12123265  0.49991147  0.92969305  1
  O  O101  1  0.18400983  0.88225265  0.22581276  1
  O  O102  1  0.89842220  0.73869964  0.87940391  1
  O  O103  1  0.38761627  0.58662393  0.00356944  1
  O  O104  1  0.68400983  0.61774735  0.77418724  1
  O  O105  1  0.81194399  0.08688466  0.97767567  1
  O  O106  1  0.65698612  0.92712716  0.87785859  1
  O  O107  1  0.61153140  0.37464616  0.22910926  1
  O  O108  1  0.48403355  0.54094666  0.27637813  1
  O  O109  1  0.80224104  0.26536649  0.09637676  1
  O  O110  1  0.29129596  0.93555611  0.75116505  1
  O  O111  1  0.62123265  0.00008853  0.07030695  1
  O  O112  1  0.35820643  0.10412213  0.54926970  1
  O  O113  1  0.49666565  0.27862900  0.05118756  1
  O  O114  1  0.61172127  0.48851560  0.41115976  1
  O  O115  1  0.93766351  0.65358311  0.68751659  1
  O  O116  1  0.03471247  0.73549098  0.48471588  1
  O  O117  1  0.38827873  0.51148440  0.58884024  1
  O  O118  1  0.06178752  0.82826393  0.35748793  1
  O  O119  1  0.35188163  0.90593752  0.49392426  1
  O  O120  1  0.84301388  0.42712716  0.87785859  1
  O  O121  1  0.31077958  0.72971148  0.39092782  1
  O  O122  1  0.11166107  0.78173265  0.66386787  1
  O  O123  1  0.18805601  0.91311534  0.02232433  1
  O  O124  1  0.31599017  0.38225265  0.22581276  1
  O  O125  1  0.14179357  0.60412213  0.54926970  1
  O  O126  1  0.31811647  0.50348327  0.40498260  1
  O  O127  1  0.07041844  0.63088028  0.29869251  1
  O  O128  1  0.70870404  0.06444389  0.24883495  1
  O  O129  1  0.93821248  0.17173607  0.64251207  1
  O  O130  1  0.68805601  0.58688466  0.97767567  1
  O  O131  1  0.41758818  0.81845233  0.82966019  1
  O  O132  1  0.37876735  0.99991147  0.92969305  1
  O  O133  1  0.56233649  0.15358311  0.68751659  1
  O  O134  1  0.92352755  0.12198867  0.14605209  1
  O  O135  1  0.69775896  0.76536649  0.09637676  1
