# generated using pymatgen
data_SrLa3Mn4O12
_symmetry_space_group_name_H-M   'P 1'
_cell_length_a   11.08555664
_cell_length_b   11.08556052
_cell_length_c   13.50847336
_cell_angle_alpha   35.67200864
_cell_angle_beta   35.67204682
_cell_angle_gamma   60.66548362
_symmetry_Int_Tables_number   1
_chemical_formula_structural   SrLa3Mn4O12
_chemical_formula_sum   'Sr2 La6 Mn8 O24'
_cell_volume   488.87725432
_cell_formula_units_Z   2
loop_
 _symmetry_equiv_pos_site_id
 _symmetry_equiv_pos_as_xyz
  1  'x, y, z'
loop_
 _atom_site_type_symbol
 _atom_site_label
 _atom_site_symmetry_multiplicity
 _atom_site_fract_x
 _atom_site_fract_y
 _atom_site_fract_z
 _atom_site_occupancy
  Sr  Sr0  1  0.00000125  0.00003086  0.24996835  1
  Sr  Sr1  1  0.99998931  0.99999044  0.75001382  1
  La  La2  1  0.49815281  0.99627725  0.25373134  1
  La  La3  1  0.49812868  0.50183039  0.25002907  1
  La  La4  1  0.50187045  0.49816365  0.74998197  1
  La  La5  1  0.00372790  0.50184090  0.24628923  1
  La  La6  1  0.50184143  0.00367607  0.74629070  1
  La  La7  1  0.99628062  0.49814115  0.75371971  1
  Mn  Mn8  1  0.00000105  0.00000288  0.99999913  1
  Mn  Mn9  1  0.49999210  0.00000151  -0.00000011  1
  Mn  Mn10  1  0.49999614  0.49999066  0.00001671  1
  Mn  Mn11  1  0.50001240  0.00001361  0.49998159  1
  Mn  Mn12  1  0.50000715  0.49998524  0.50000327  1
  Mn  Mn13  1  0.00000327  0.49999809  -0.00000263  1
  Mn  Mn14  1  -0.00000072  0.00000370  0.49999435  1
  Mn  Mn15  1  0.00000448  0.50000184  0.50000265  1
  O  O16  1  0.28439101  0.06018570  0.18977736  1
  O  O17  1  0.22422134  0.28439151  0.24143500  1
  O  O18  1  0.28056210  0.56107548  0.18890253  1
  O  O19  1  0.22650773  0.77348788  0.24999896  1
  O  O20  1  0.45304217  0.22652781  0.29695643  1
  O  O21  1  0.06017391  0.28438160  0.68979141  1
  O  O22  1  0.77579805  0.06015348  0.18987257  1
  O  O23  1  0.43891231  0.71945098  0.31108975  1
  O  O24  1  0.71945243  0.28053816  0.25000668  1
  O  O25  1  0.06015784  0.77578171  0.68988519  1
  O  O26  1  0.28435242  0.22417895  0.74148564  1
  O  O27  1  0.22654048  0.45307124  0.79692660  1
  O  O28  1  0.77346919  0.54696002  0.20304674  1
  O  O29  1  0.71565256  0.77581825  0.25851362  1
  O  O30  1  0.93984355  0.22422616  0.31010883  1
  O  O31  1  0.28054743  0.71945880  0.74999754  1
  O  O32  1  0.56107705  0.28054732  0.68891850  1
  O  O33  1  0.22420529  0.93984878  0.81013019  1
  O  O34  1  0.93981128  0.71560829  0.31022240  1
  O  O35  1  0.54694981  0.77346701  0.70305092  1
  O  O36  1  0.77348883  0.22651694  0.74999966  1
  O  O37  1  0.71943143  0.43893014  0.81109908  1
  O  O38  1  0.77578123  0.71562063  0.75855123  1
  O  O39  1  0.71562225  0.93982493  0.81021401  1
