# generated using pymatgen
data_LiTi4Mn(PO4)6
_symmetry_space_group_name_H-M   'P 1'
_cell_length_a   8.63910181
_cell_length_b   8.63910186
_cell_length_c   8.63910139
_cell_angle_alpha   60.14056702
_cell_angle_beta   60.14056678
_cell_angle_gamma   60.14056854
_symmetry_Int_Tables_number   1
_chemical_formula_structural   LiTi4Mn(PO4)6
_chemical_formula_sum   'Li1 Ti4 Mn1 P6 O24'
_cell_volume   457.37395962
_cell_formula_units_Z   1
loop_
 _symmetry_equiv_pos_site_id
 _symmetry_equiv_pos_as_xyz
  1  'x, y, z'
loop_
 _atom_site_type_symbol
 _atom_site_label
 _atom_site_symmetry_multiplicity
 _atom_site_fract_x
 _atom_site_fract_y
 _atom_site_fract_z
 _atom_site_occupancy
  Li  Li0  1  0.50000000  0.50000000  0.50000000  1
  Ti  Ti1  1  0.14530142  0.14530142  0.14530142  1
  Ti  Ti2  1  0.35804252  0.35804252  0.35804252  1
  Ti  Ti3  1  0.64195748  0.64195748  0.64195748  1
  Ti  Ti4  1  0.85469858  0.85469858  0.85469858  1
  Mn  Mn5  1  0.00000000  0.00000000  0.00000000  1
  P  P6  1  0.04151748  0.74871817  0.45739543  1
  P  P7  1  0.45739543  0.04151748  0.74871817  1
  P  P8  1  0.74871817  0.45739543  0.04151748  1
  P  P9  1  0.25128183  0.54260457  0.95848252  1
  P  P10  1  0.54260457  0.95848252  0.25128183  1
  P  P11  1  0.95848252  0.25128183  0.54260457  1
  O  O12  1  0.12304574  0.30690665  0.50005533  1
  O  O13  1  0.30690665  0.50005533  0.12304574  1
  O  O14  1  0.05597200  0.91471380  0.26539084  1
  O  O15  1  0.50005533  0.12304574  0.30690665  1
  O  O16  1  0.00114582  0.80845827  0.61900733  1
  O  O17  1  0.23189126  0.58510340  0.44061115  1
  O  O18  1  0.26539084  0.05597200  0.91471380  1
  O  O19  1  0.44061115  0.23189126  0.58510340  1
  O  O20  1  0.19154173  0.38099267  0.99885418  1
  O  O21  1  0.58510340  0.44061115  0.23189126  1
  O  O22  1  0.08528620  0.73460916  0.94402800  1
  O  O23  1  0.38099267  0.99885418  0.19154173  1
  O  O24  1  0.61900733  0.00114582  0.80845827  1
  O  O25  1  0.91471380  0.26539084  0.05597200  1
  O  O26  1  0.41489660  0.55938885  0.76810874  1
  O  O27  1  0.80845827  0.61900733  0.00114582  1
  O  O28  1  0.55938885  0.76810874  0.41489660  1
  O  O29  1  0.73460916  0.94402800  0.08528620  1
  O  O30  1  0.76810874  0.41489660  0.55938885  1
  O  O31  1  0.99885418  0.19154173  0.38099267  1
  O  O32  1  0.49994467  0.87695426  0.69309335  1
  O  O33  1  0.94402800  0.08528620  0.73460916  1
  O  O34  1  0.69309335  0.49994467  0.87695426  1
  O  O35  1  0.87695426  0.69309335  0.49994467  1
