# generated using pymatgen
data_YHSO5
_symmetry_space_group_name_H-M   'P 1'
_cell_length_a   8.05027839
_cell_length_b   11.12690331
_cell_length_c   8.24926787
_cell_angle_alpha   90.00000000
_cell_angle_beta   93.81007751
_cell_angle_gamma   90.00000000
_symmetry_Int_Tables_number   1
_chemical_formula_structural   YHSO5
_chemical_formula_sum   'Y8 H8 S8 O40'
_cell_volume   737.29226581
_cell_formula_units_Z   8
loop_
 _symmetry_equiv_pos_site_id
 _symmetry_equiv_pos_as_xyz
  1  'x, y, z'
loop_
 _atom_site_type_symbol
 _atom_site_label
 _atom_site_symmetry_multiplicity
 _atom_site_fract_x
 _atom_site_fract_y
 _atom_site_fract_z
 _atom_site_occupancy
  Y  Y0  1  0.33752586  0.43578401  0.12733390  1
  Y  Y1  1  0.83752586  0.06421599  0.62733390  1
  Y  Y2  1  0.66247414  0.56421599  0.87266610  1
  Y  Y3  1  0.16247414  0.93578401  0.37266610  1
  Y  Y4  1  0.31173830  0.42370905  0.59191504  1
  Y  Y5  1  0.81173830  0.07629095  0.09191504  1
  Y  Y6  1  0.68826170  0.57629095  0.40808496  1
  Y  Y7  1  0.18826170  0.92370905  0.90808496  1
  H  H8  1  0.31719271  0.58619452  0.85960529  1
  H  H9  1  0.81719271  0.91380548  0.35960529  1
  H  H10  1  0.68280729  0.41380548  0.14039471  1
  H  H11  1  0.18280729  0.08619452  0.64039471  1
  H  H12  1  0.33102050  0.61141768  0.37693203  1
  H  H13  1  0.83102050  0.88858232  0.87693203  1
  H  H14  1  0.66897950  0.38858232  0.62306797  1
  H  H15  1  0.16897950  0.11141768  0.12306797  1
  S  S16  1  0.99805063  0.32998737  0.86481685  1
  S  S17  1  0.49805063  0.17001263  0.36481685  1
  S  S18  1  0.00194937  0.67001263  0.13518315  1
  S  S19  1  0.50194937  0.82998737  0.63518315  1
  S  S20  1  0.04404490  0.69096918  0.63329676  1
  S  S21  1  0.54404490  0.80903082  0.13329676  1
  S  S22  1  0.95595510  0.30903082  0.36670324  1
  S  S23  1  0.45595510  0.19096918  0.86670324  1
  O  O24  1  0.12479466  0.33075104  0.00315176  1
  O  O25  1  0.62479466  0.16924896  0.50315176  1
  O  O26  1  0.87520534  0.66924896  0.99684824  1
  O  O27  1  0.37520534  0.83075104  0.49684824  1
  O  O28  1  0.11075725  0.73898927  0.79301363  1
  O  O29  1  0.61075725  0.76101073  0.29301363  1
  O  O30  1  0.88924275  0.26101073  0.20698637  1
  O  O31  1  0.38924275  0.23898927  0.70698637  1
  O  O32  1  0.01560284  0.79194370  0.51746384  1
  O  O33  1  0.51560284  0.70805630  0.01746384  1
  O  O34  1  0.98439716  0.20805630  0.48253616  1
  O  O35  1  0.48439716  0.29194370  0.98253616  1
  O  O36  1  0.07111696  0.37433441  0.71737375  1
  O  O37  1  0.57111696  0.12566559  0.21737375  1
  O  O38  1  0.92888304  0.62566559  0.28262625  1
  O  O39  1  0.42888304  0.87433441  0.78262625  1
  O  O40  1  0.16636606  0.60443147  0.57424001  1
  O  O41  1  0.66636606  0.89556853  0.07424001  1
  O  O42  1  0.83363394  0.39556853  0.42575999  1
  O  O43  1  0.33363394  0.10443147  0.92575999  1
  O  O44  1  0.40009721  0.53939172  0.37023225  1
  O  O45  1  0.90009721  0.96060828  0.87023225  1
  O  O46  1  0.59990279  0.46060828  0.62976775  1
  O  O47  1  0.09990279  0.03939172  0.12976775  1
  O  O48  1  0.37581673  0.50891068  0.85904896  1
  O  O49  1  0.87581673  0.99108932  0.35904896  1
  O  O50  1  0.62418327  0.49108932  0.14095104  1
  O  O51  1  0.12418327  0.00891068  0.64095104  1
  O  O52  1  0.11959642  0.37143121  0.35189889  1
  O  O53  1  0.61959642  0.12856879  0.85189889  1
  O  O54  1  0.88040358  0.62856879  0.64810111  1
  O  O55  1  0.38040358  0.87143121  0.14810111  1
  O  O56  1  0.14847838  0.59552049  0.10081899  1
  O  O57  1  0.64847838  0.90447951  0.60081899  1
  O  O58  1  0.85152162  0.40447951  0.89918101  1
  O  O59  1  0.35152162  0.09552049  0.39918101  1
  O  O60  1  0.44079054  0.29861404  0.34343496  1
  O  O61  1  0.94079054  0.20138596  0.84343496  1
  O  O62  1  0.55920946  0.70138596  0.65656504  1
  O  O63  1  0.05920946  0.79861404  0.15656504  1
