# generated using pymatgen
data_KMgP(H6O5)2
_symmetry_space_group_name_H-M   'P 1'
_cell_length_a   6.95455092
_cell_length_b   6.16126998
_cell_length_c   11.19083898
_cell_angle_alpha   90.00000000
_cell_angle_beta   90.00000000
_cell_angle_gamma   90.00000000
_symmetry_Int_Tables_number   1
_chemical_formula_structural   KMgP(H6O5)2
_chemical_formula_sum   'K2 Mg2 P2 H24 O20'
_cell_volume   479.51475773
_cell_formula_units_Z   2
loop_
 _symmetry_equiv_pos_site_id
 _symmetry_equiv_pos_as_xyz
  1  'x, y, z'
loop_
 _atom_site_type_symbol
 _atom_site_label
 _atom_site_symmetry_multiplicity
 _atom_site_fract_x
 _atom_site_fract_y
 _atom_site_fract_z
 _atom_site_occupancy
  K  K0  1  0.50000000  0.63327844  0.49349312  1
  K  K1  1  0.00000000  0.36672156  0.99349312  1
  Mg  Mg2  1  0.50000000  0.61406851  0.14665177  1
  Mg  Mg3  1  0.00000000  0.38593149  0.64665177  1
  P  P4  1  0.50000000  0.00505843  0.77184729  1
  P  P5  1  0.00000000  0.99494157  0.27184729  1
  H  H6  1  0.50000000  0.27574442  0.97251464  1
  H  H7  1  0.00000000  0.72425558  0.47251464  1
  H  H8  1  0.00000000  0.83120013  0.60342469  1
  H  H9  1  0.50000000  0.16879987  0.10342469  1
  H  H10  1  0.88263034  0.00272315  0.76891328  1
  H  H11  1  0.11736966  0.00272315  0.76891328  1
  H  H12  1  0.61736966  0.99727685  0.26891328  1
  H  H13  1  0.38263034  0.99727685  0.26891328  1
  H  H14  1  0.70060458  0.78811458  0.95509923  1
  H  H15  1  0.29939542  0.78811458  0.95509923  1
  H  H16  1  0.79939542  0.21188542  0.45509923  1
  H  H17  1  0.20060458  0.21188542  0.45509923  1
  H  H18  1  0.67806352  0.17863631  0.57551288  1
  H  H19  1  0.32193648  0.17863631  0.57551288  1
  H  H20  1  0.82193648  0.82136369  0.07551288  1
  H  H21  1  0.17806352  0.82136369  0.07551288  1
  H  H22  1  0.74470195  0.63715324  0.77853182  1
  H  H23  1  0.25529805  0.63715324  0.77853182  1
  H  H24  1  0.75529805  0.36284676  0.27853182  1
  H  H25  1  0.24470195  0.36284676  0.27853182  1
  H  H26  1  0.67566085  0.38781841  0.78832295  1
  H  H27  1  0.32433915  0.38781841  0.78832295  1
  H  H28  1  0.82433915  0.61218159  0.28832295  1
  H  H29  1  0.17566085  0.61218159  0.28832295  1
  O  O30  1  0.50000000  0.02460831  0.63362799  1
  O  O31  1  0.00000000  0.97539169  0.13362799  1
  O  O32  1  0.50000000  0.23769027  0.82931112  1
  O  O33  1  0.00000000  0.76230973  0.32931112  1
  O  O34  1  0.68344944  0.88396644  0.81559279  1
  O  O35  1  0.31655056  0.88396644  0.81559279  1
  O  O36  1  0.81655056  0.11603356  0.31559279  1
  O  O37  1  0.18344944  0.11603356  0.31559279  1
  O  O38  1  0.00000000  0.69141728  0.56100392  1
  O  O39  1  0.50000000  0.30858272  0.06100392  1
  O  O40  1  0.00000000  0.06631245  0.72904709  1
  O  O41  1  0.50000000  0.93368755  0.22904709  1
  O  O42  1  0.72561707  0.72272749  0.03593460  1
  O  O43  1  0.27438293  0.72272749  0.03593460  1
  O  O44  1  0.77438293  0.27727251  0.53593460  1
  O  O45  1  0.22561707  0.27727251  0.53593460  1
  O  O46  1  0.78876458  0.48304712  0.76673165  1
  O  O47  1  0.21123542  0.48304712  0.76673165  1
  O  O48  1  0.71123542  0.51695288  0.26673165  1
  O  O49  1  0.28876458  0.51695288  0.26673165  1
