# generated using pymatgen
data_InP(H2O3)2
_symmetry_space_group_name_H-M   'P 1'
_cell_length_a   8.91771740
_cell_length_b   10.30642374
_cell_length_c   10.50725571
_cell_angle_alpha   90.00000000
_cell_angle_beta   90.00000000
_cell_angle_gamma   90.00000000
_symmetry_Int_Tables_number   1
_chemical_formula_structural   InP(H2O3)2
_chemical_formula_sum   'In8 P8 H32 O48'
_cell_volume   965.71950101
_cell_formula_units_Z   8
loop_
 _symmetry_equiv_pos_site_id
 _symmetry_equiv_pos_as_xyz
  1  'x, y, z'
loop_
 _atom_site_type_symbol
 _atom_site_label
 _atom_site_symmetry_multiplicity
 _atom_site_fract_x
 _atom_site_fract_y
 _atom_site_fract_z
 _atom_site_occupancy
  In  In0  1  0.65160595  0.67305524  0.63042304  1
  In  In1  1  0.15160595  0.82694476  0.36957696  1
  In  In2  1  0.34839405  0.17305524  0.86957696  1
  In  In3  1  0.84839405  0.32694476  0.13042304  1
  In  In4  1  0.34839405  0.32694476  0.36957696  1
  In  In5  1  0.84839405  0.17305524  0.63042304  1
  In  In6  1  0.65160595  0.82694476  0.13042304  1
  In  In7  1  0.15160595  0.67305524  0.86957696  1
  P  P8  1  0.53160460  0.35867734  0.65232854  1
  P  P9  1  0.03160460  0.14132266  0.34767146  1
  P  P10  1  0.46839540  0.85867734  0.84767146  1
  P  P11  1  0.96839540  0.64132266  0.15232854  1
  P  P12  1  0.46839540  0.64132266  0.34767146  1
  P  P13  1  0.96839540  0.85867734  0.65232854  1
  P  P14  1  0.53160460  0.14132266  0.15232854  1
  P  P15  1  0.03160460  0.35867734  0.84767146  1
  H  H16  1  0.81235918  0.46570257  0.55894717  1
  H  H17  1  0.31235918  0.03429743  0.44105283  1
  H  H18  1  0.18764082  0.96570257  0.94105283  1
  H  H19  1  0.68764082  0.53429743  0.05894717  1
  H  H20  1  0.18764082  0.53429743  0.44105283  1
  H  H21  1  0.68764082  0.96570257  0.55894717  1
  H  H22  1  0.81235918  0.03429743  0.05894717  1
  H  H23  1  0.31235918  0.46570257  0.94105283  1
  H  H24  1  0.87396239  0.57594646  0.46442541  1
  H  H25  1  0.37396239  0.92405354  0.53557459  1
  H  H26  1  0.12603761  0.07594646  0.03557459  1
  H  H27  1  0.62603761  0.42405354  0.96442541  1
  H  H28  1  0.12603761  0.42405354  0.53557459  1
  H  H29  1  0.62603761  0.07594646  0.46442541  1
  H  H30  1  0.87396239  0.92405354  0.96442541  1
  H  H31  1  0.37396239  0.57594646  0.03557459  1
  H  H32  1  0.71136025  0.67205908  0.87641209  1
  H  H33  1  0.21136025  0.82794092  0.12358791  1
  H  H34  1  0.28863975  0.17205908  0.62358791  1
  H  H35  1  0.78863975  0.32794092  0.37641209  1
  H  H36  1  0.28863975  0.32794092  0.12358791  1
  H  H37  1  0.78863975  0.17205908  0.87641209  1
  H  H38  1  0.71136025  0.82794092  0.37641209  1
  H  H39  1  0.21136025  0.67205908  0.62358791  1
  H  H40  1  0.84100271  0.57022899  0.82206513  1
  H  H41  1  0.34100271  0.92977101  0.17793487  1
  H  H42  1  0.15899729  0.07022899  0.67793487  1
  H  H43  1  0.65899729  0.42977101  0.32206513  1
  H  H44  1  0.15899729  0.42977101  0.17793487  1
  H  H45  1  0.65899729  0.07022899  0.82206513  1
  H  H46  1  0.84100271  0.92977101  0.32206513  1
  H  H47  1  0.34100271  0.57022899  0.67793487  1
  O  O48  1  0.84661065  0.55761146  0.55286005  1
  O  O49  1  0.34661065  0.94238854  0.44713995  1
  O  O50  1  0.15338935  0.05761146  0.94713995  1
  O  O51  1  0.65338935  0.44238854  0.05286005  1
  O  O52  1  0.15338935  0.44238854  0.44713995  1
  O  O53  1  0.65338935  0.05761146  0.55286005  1
  O  O54  1  0.84661065  0.94238854  0.05286005  1
  O  O55  1  0.34661065  0.55761146  0.94713995  1
  O  O56  1  0.73412173  0.60260380  0.81402020  1
  O  O57  1  0.23412173  0.89739620  0.18597980  1
  O  O58  1  0.26587827  0.10260380  0.68597980  1
  O  O59  1  0.76587827  0.39739620  0.31402020  1
  O  O60  1  0.26587827  0.39739620  0.18597980  1
  O  O61  1  0.76587827  0.10260380  0.81402020  1
  O  O62  1  0.73412173  0.89739620  0.31402020  1
  O  O63  1  0.23412173  0.60260380  0.68597980  1
  O  O64  1  0.49090411  0.80493015  0.71139741  1
  O  O65  1  0.99090411  0.69506985  0.28860259  1
  O  O66  1  0.50909589  0.30493015  0.78860259  1
  O  O67  1  0.00909589  0.19506985  0.21139741  1
  O  O68  1  0.50909589  0.19506985  0.28860259  1
  O  O69  1  0.00909589  0.30493015  0.71139741  1
  O  O70  1  0.49090411  0.69506985  0.21139741  1
  O  O71  1  0.99090411  0.80493015  0.78860259  1
  O  O72  1  0.58298287  0.70991951  0.43769850  1
  O  O73  1  0.08298287  0.79008049  0.56230150  1
  O  O74  1  0.41701713  0.20991951  0.06230150  1
  O  O75  1  0.91701713  0.29008049  0.93769850  1
  O  O76  1  0.41701713  0.29008049  0.56230150  1
  O  O77  1  0.91701713  0.20991951  0.43769850  1
  O  O78  1  0.58298287  0.79008049  0.93769850  1
  O  O79  1  0.08298287  0.70991951  0.06230150  1
  O  O80  1  0.80372138  0.83574597  0.60724729  1
  O  O81  1  0.30372138  0.66425403  0.39275271  1
  O  O82  1  0.19627862  0.33574597  0.89275271  1
  O  O83  1  0.69627862  0.16425403  0.10724729  1
  O  O84  1  0.19627862  0.16425403  0.39275271  1
  O  O85  1  0.69627862  0.33574597  0.60724729  1
  O  O86  1  0.80372138  0.66425403  0.10724729  1
  O  O87  1  0.30372138  0.83574597  0.89275271  1
  O  O88  1  0.50283979  0.50780839  0.64820916  1
  O  O89  1  0.00283979  0.99219161  0.35179084  1
  O  O90  1  0.49716021  0.00780839  0.85179084  1
  O  O91  1  0.99716021  0.49219161  0.14820916  1
  O  O92  1  0.49716021  0.49219161  0.35179084  1
  O  O93  1  0.99716021  0.00780839  0.64820916  1
  O  O94  1  0.50283979  0.99219161  0.14820916  1
  O  O95  1  0.00283979  0.50780839  0.85179084  1
