# generated using pymatgen
data_PrH20S4N5O16
_symmetry_space_group_name_H-M   'P 1'
_cell_length_a   12.28343004
_cell_length_b   12.28343004
_cell_length_c   9.48292503
_cell_angle_alpha   83.56818774
_cell_angle_beta   96.43181226
_cell_angle_gamma   38.85791429
_symmetry_Int_Tables_number   1
_chemical_formula_structural   PrH20S4N5O16
_chemical_formula_sum   'Pr2 H40 S8 N10 O32'
_cell_volume   845.24259456
_cell_formula_units_Z   2
loop_
 _symmetry_equiv_pos_site_id
 _symmetry_equiv_pos_as_xyz
  1  'x, y, z'
loop_
 _atom_site_type_symbol
 _atom_site_label
 _atom_site_symmetry_multiplicity
 _atom_site_fract_x
 _atom_site_fract_y
 _atom_site_fract_z
 _atom_site_occupancy
  Pr  Pr0  1  0.92387141  0.92387141  0.75000000  1
  Pr  Pr1  1  0.07612859  0.07612859  0.25000000  1
  H  H2  1  0.76979510  0.66897631  0.84360881  1
  H  H3  1  0.66897631  0.76979510  0.65639119  1
  H  H4  1  0.23020490  0.33102369  0.15639119  1
  H  H5  1  0.33102369  0.23020490  0.34360881  1
  H  H6  1  0.57126612  0.76470668  0.76127967  1
  H  H7  1  0.76470668  0.57126612  0.73872033  1
  H  H8  1  0.42873388  0.23529332  0.23872033  1
  H  H9  1  0.23529332  0.42873388  0.26127967  1
  H  H10  1  0.45750052  0.72733932  0.10182360  1
  H  H11  1  0.72733932  0.45750052  0.39817640  1
  H  H12  1  0.54249948  0.27266068  0.89817640  1
  H  H13  1  0.27266068  0.54249948  0.60182360  1
  H  H14  1  0.36377619  0.68527097  0.02938582  1
  H  H15  1  0.68527097  0.36377619  0.47061418  1
  H  H16  1  0.63622381  0.31472903  0.97061418  1
  H  H17  1  0.31472903  0.63622381  0.52938582  1
  H  H18  1  0.41770009  0.74502046  0.91796483  1
  H  H19  1  0.74502046  0.41770009  0.58203517  1
  H  H20  1  0.58229991  0.25497954  0.08203517  1
  H  H21  1  0.25497954  0.58229991  0.41796483  1
  H  H22  1  0.58808198  0.53819910  0.04883628  1
  H  H23  1  0.53819910  0.58808198  0.45116372  1
  H  H24  1  0.41191802  0.46180090  0.95116372  1
  H  H25  1  0.46180090  0.41191802  0.54883628  1
  H  H26  1  0.03113559  0.37880324  0.45665322  1
  H  H27  1  0.37880324  0.03113559  0.04334678  1
  H  H28  1  0.96886441  0.62119676  0.54334678  1
  H  H29  1  0.62119676  0.96886441  0.95665322  1
  H  H30  1  0.11626313  0.33405470  0.63998842  1
  H  H31  1  0.33405470  0.11626313  0.86001158  1
  H  H32  1  0.88373687  0.66594530  0.36001158  1
  H  H33  1  0.66594530  0.88373687  0.13998842  1
  H  H34  1  0.08639444  0.22544072  0.58901874  1
  H  H35  1  0.22544072  0.08639444  0.91098126  1
  H  H36  1  0.91360556  0.77455928  0.41098126  1
  H  H37  1  0.77455928  0.91360556  0.08901874  1
  H  H38  1  0.24804981  0.17612962  0.55144859  1
  H  H39  1  0.17612962  0.24804981  0.94855141  1
  H  H40  1  0.75195019  0.82387038  0.44855141  1
  H  H41  1  0.82387038  0.75195019  0.05144859  1
  S  S42  1  0.89907719  0.22319690  0.87916641  1
  S  S43  1  0.22319690  0.89907719  0.62083359  1
  S  S44  1  0.10092281  0.77680310  0.12083359  1
  S  S45  1  0.77680310  0.10092281  0.37916641  1
  S  S46  1  0.52885981  0.11552644  0.66647880  1
  S  S47  1  0.11552644  0.52885981  0.83352120  1
  S  S48  1  0.47114019  0.88447356  0.33352120  1
  S  S49  1  0.88447356  0.47114019  0.16647880  1
  N  N50  1  0.69439005  0.69439005  0.75000000  1
  N  N51  1  0.30560995  0.30560995  0.25000000  1
  N  N52  1  0.45770484  0.67244787  0.02591926  1
  N  N53  1  0.67244787  0.45770484  0.47408074  1
  N  N54  1  0.54229516  0.32755213  0.97408074  1
  N  N55  1  0.32755213  0.54229516  0.52591926  1
  N  N56  1  0.11934537  0.27897919  0.56209253  1
  N  N57  1  0.27897919  0.11934537  0.93790747  1
  N  N58  1  0.88065463  0.72102081  0.43790747  1
  N  N59  1  0.72102081  0.88065463  0.06209253  1
  O  O60  1  0.09558676  0.05570656  0.97446648  1
  O  O61  1  0.05570656  0.09558676  0.52553352  1
  O  O62  1  0.90441324  0.94429344  0.02553352  1
  O  O63  1  0.94429344  0.90441324  0.47446648  1
  O  O64  1  0.83771134  0.17871061  0.78811536  1
  O  O65  1  0.17871061  0.83771134  0.71188464  1
  O  O66  1  0.16228866  0.82128939  0.21188464  1
  O  O67  1  0.82128939  0.16228866  0.28811536  1
  O  O68  1  0.79253660  0.30792063  0.98794811  1
  O  O69  1  0.30792063  0.79253660  0.51205189  1
  O  O70  1  0.20746340  0.69207937  0.01205189  1
  O  O71  1  0.69207937  0.20746340  0.48794811  1
  O  O72  1  0.87081608  0.34835015  0.77533959  1
  O  O73  1  0.34835015  0.87081608  0.72466041  1
  O  O74  1  0.12918392  0.65164985  0.22466041  1
  O  O75  1  0.65164985  0.12918392  0.27533959  1
  O  O76  1  0.60318226  0.15003271  0.76009027  1
  O  O77  1  0.15003271  0.60318226  0.73990973  1
  O  O78  1  0.39681774  0.84996729  0.23990973  1
  O  O79  1  0.84996729  0.39681774  0.26009027  1
  O  O80  1  0.49977354  0.04174777  0.76653608  1
  O  O81  1  0.04174777  0.49977354  0.73346392  1
  O  O82  1  0.50022646  0.95825223  0.23346392  1
  O  O83  1  0.95825223  0.50022646  0.26653608  1
  O  O84  1  0.35527598  0.28465953  0.54872017  1
  O  O85  1  0.28465953  0.35527598  0.95127983  1
  O  O86  1  0.64472402  0.71534047  0.45127983  1
  O  O87  1  0.71534047  0.64472402  0.04872017  1
  O  O88  1  0.67732676  0.97302095  0.60395523  1
  O  O89  1  0.97302095  0.67732676  0.89604477  1
  O  O90  1  0.32267324  0.02697905  0.39604477  1
  O  O91  1  0.02697905  0.32267324  0.10395523  1
