# generated using pymatgen
data_Li9Mn2Co5O16
_symmetry_space_group_name_H-M   'P 1'
_cell_length_a   2.99159132
_cell_length_b   10.11324374
_cell_length_c   10.00935910
_cell_angle_alpha   72.98568690
_cell_angle_beta   88.39149284
_cell_angle_gamma   91.08061936
_symmetry_Int_Tables_number   1
_chemical_formula_structural   Li9Mn2Co5O16
_chemical_formula_sum   'Li9 Mn2 Co5 O16'
_cell_volume   289.34548614
_cell_formula_units_Z   1
loop_
 _symmetry_equiv_pos_site_id
 _symmetry_equiv_pos_as_xyz
  1  'x, y, z'
loop_
 _atom_site_type_symbol
 _atom_site_label
 _atom_site_symmetry_multiplicity
 _atom_site_fract_x
 _atom_site_fract_y
 _atom_site_fract_z
 _atom_site_occupancy
  Li  Li0  1  0.99507705  0.26101184  0.75115946  1
  Li  Li1  1  0.50800608  0.74567246  0.49935907  1
  Li  Li2  1  0.01519550  0.24574857  0.25399807  1
  Li  Li3  1  0.50232771  0.25267508  0.49987977  1
  Li  Li4  1  0.00414357  0.74855522  0.25110070  1
  Li  Li5  1  0.48118169  0.25779778  0.98987932  1
  Li  Li6  1  0.50818906  0.74868771  0.00290173  1
  Li  Li7  1  0.98503908  0.74615029  0.74600708  1
  Li  Li8  1  0.51460111  0.48984891  0.75506088  1
  Mn  Mn9  1  0.99863193  0.00073587  -0.00064948  1
  Mn  Mn10  1  0.98659950  0.49997146  0.99515687  1
  Co  Co11  1  0.00131397  0.99905862  0.50066666  1
  Co  Co12  1  0.48995426  0.50356205  0.25016247  1
  Co  Co13  1  0.01353832  0.50037756  0.50871535  1
  Co  Co14  1  0.50962404  0.00061604  0.25178960  1
  Co  Co15  1  0.49174958  -0.00072101  0.74824850  1
  O  O16  1  0.45241042  0.11759415  0.86994145  1
  O  O17  1  0.00528047  0.61463227  0.60842948  1
  O  O18  1  0.51289119  0.11806242  0.37454675  1
  O  O19  1  0.00480033  0.11382330  0.62265673  1
  O  O20  1  0.47219573  0.61156897  0.37604737  1
  O  O21  1  0.02062188  0.11365924  0.12789240  1
  O  O22  1  0.95926243  0.61279871  0.12878901  1
  O  O23  1  0.49867807  0.60882624  0.89211055  1
  O  O24  1  0.55034187  0.38518637  0.61148947  1
  O  O25  1  -0.00044563  0.88506023  0.37654973  1
  O  O26  1  0.47816641  0.39614938  0.11796039  1
  O  O27  1  0.03173023  0.39284790  0.37423897  1
  O  O28  1  0.54272867  0.88276103  0.12875129  1
  O  O29  1  -0.00372638  0.38193469  0.88703991  1
  O  O30  1  -0.02017033  0.88495090  0.87376509  1
  O  O31  1  0.49006219  0.88039574  0.62635537  1
