# generated using pymatgen
data_Hg3H4S2O11
_symmetry_space_group_name_H-M   'P 1'
_cell_length_a   5.82695666
_cell_length_b   5.82695666
_cell_length_c   14.81332656
_cell_angle_alpha   84.42181108
_cell_angle_beta   95.57818892
_cell_angle_gamma   77.09607120
_symmetry_Int_Tables_number   1
_chemical_formula_structural   Hg3H4S2O11
_chemical_formula_sum   'Hg6 H8 S4 O22'
_cell_volume   484.26033744
_cell_formula_units_Z   2
loop_
 _symmetry_equiv_pos_site_id
 _symmetry_equiv_pos_as_xyz
  1  'x, y, z'
loop_
 _atom_site_type_symbol
 _atom_site_label
 _atom_site_symmetry_multiplicity
 _atom_site_fract_x
 _atom_site_fract_y
 _atom_site_fract_z
 _atom_site_occupancy
  Hg  Hg0  1  0.00000000  0.50000000  0.50000000  1
  Hg  Hg1  1  0.50000000  0.00000000  0.00000000  1
  Hg  Hg2  1  0.31714003  0.81450228  0.64895581  1
  Hg  Hg3  1  0.81450228  0.31714003  0.85104419  1
  Hg  Hg4  1  0.68285997  0.18549772  0.35104419  1
  Hg  Hg5  1  0.18549772  0.68285997  0.14895581  1
  H  H6  1  0.90414779  0.71995457  0.64846823  1
  H  H7  1  0.71995457  0.90414779  0.85153177  1
  H  H8  1  0.09585221  0.28004543  0.35153177  1
  H  H9  1  0.28004543  0.09585221  0.14846823  1
  H  H10  1  0.14330763  0.32317705  0.71167235  1
  H  H11  1  0.32317705  0.14330763  0.78832765  1
  H  H12  1  0.85669237  0.67682295  0.28832765  1
  H  H13  1  0.67682295  0.85669237  0.21167235  1
  S  S14  1  0.62494965  0.19249949  0.60458917  1
  S  S15  1  0.19249949  0.62494965  0.89541083  1
  S  S16  1  0.37505035  0.80750051  0.39541083  1
  S  S17  1  0.80750051  0.37505035  0.10458917  1
  O  O18  1  0.05539955  0.61416832  0.63739143  1
  O  O19  1  0.61416832  0.05539955  0.86260857  1
  O  O20  1  0.94460045  0.38583168  0.36260857  1
  O  O21  1  0.38583168  0.94460045  0.13739143  1
  O  O22  1  0.63170277  0.94796420  0.66051852  1
  O  O23  1  0.94796420  0.63170277  0.83948148  1
  O  O24  1  0.36829723  0.05203580  0.33948148  1
  O  O25  1  0.05203580  0.36829723  0.16051852  1
  O  O26  1  0.61672950  0.37089974  0.66911625  1
  O  O27  1  0.37089974  0.61672950  0.83088375  1
  O  O28  1  0.38327050  0.62910026  0.33088375  1
  O  O29  1  0.62910026  0.38327050  0.16911625  1
  O  O30  1  0.84861919  0.15064287  0.56157849  1
  O  O31  1  0.15064287  0.84861919  0.93842151  1
  O  O32  1  0.15138081  0.84935713  0.43842151  1
  O  O33  1  0.84935713  0.15138081  0.06157849  1
  O  O34  1  0.41571317  0.24966414  0.53427761  1
  O  O35  1  0.24966414  0.41571317  0.96572239  1
  O  O36  1  0.58428683  0.75033586  0.46572239  1
  O  O37  1  0.75033586  0.58428683  0.03427761  1
  O  O38  1  0.16814881  0.16814881  0.75000000  1
  O  O39  1  0.83185119  0.83185119  0.25000000  1
