# generated using pymatgen
data_Sr2Mg3H10
_symmetry_space_group_name_H-M   'P 1'
_cell_length_a   9.21767873
_cell_length_b   9.21767873
_cell_length_c   7.48499122
_cell_angle_alpha   69.87403085
_cell_angle_beta   110.12596915
_cell_angle_gamma   143.97169892
_symmetry_Int_Tables_number   1
_chemical_formula_structural   Sr2Mg3H10
_chemical_formula_sum   'Sr4 Mg6 H20'
_cell_volume   348.72200646
_cell_formula_units_Z   2
loop_
 _symmetry_equiv_pos_site_id
 _symmetry_equiv_pos_as_xyz
  1  'x, y, z'
loop_
 _atom_site_type_symbol
 _atom_site_label
 _atom_site_symmetry_multiplicity
 _atom_site_fract_x
 _atom_site_fract_y
 _atom_site_fract_z
 _atom_site_occupancy
  Sr  Sr0  1  0.71898106  0.28101894  0.31118269  1
  Sr  Sr1  1  0.28101894  0.71898106  0.68881731  1
  Sr  Sr2  1  0.61673370  0.38326630  0.72074895  1
  Sr  Sr3  1  0.38326630  0.61673370  0.27925105  1
  Mg  Mg4  1  0.92455367  0.07544633  0.55358602  1
  Mg  Mg5  1  0.07544633  0.92455367  0.44641398  1
  Mg  Mg6  1  0.82602135  0.17397865  0.98189047  1
  Mg  Mg7  1  0.17397865  0.82602135  0.01810953  1
  Mg  Mg8  1  0.25774454  0.25774454  0.00000000  1
  Mg  Mg9  1  0.74225546  0.74225546  0.00000000  1
  H  H10  1  0.15961253  0.38587230  0.97424254  1
  H  H11  1  0.61412770  0.84038747  0.97424254  1
  H  H12  1  0.84038747  0.61412770  0.02575746  1
  H  H13  1  0.38587230  0.15961253  0.02575746  1
  H  H14  1  0.09120538  0.39962281  0.51594446  1
  H  H15  1  0.60037719  0.90879462  0.51594446  1
  H  H16  1  0.90879462  0.60037719  0.48405554  1
  H  H17  1  0.39962281  0.09120538  0.48405554  1
  H  H18  1  0.97834630  0.02165370  0.82283778  1
  H  H19  1  0.02165370  0.97834630  0.17716222  1
  H  H20  1  0.86425985  0.13574015  0.25807143  1
  H  H21  1  0.13574015  0.86425985  0.74192857  1
  H  H22  1  0.76288471  0.23711529  0.71459937  1
  H  H23  1  0.23711529  0.76288471  0.28540063  1
  H  H24  1  0.48360617  0.51639383  0.81088473  1
  H  H25  1  0.51639383  0.48360617  0.18911527  1
  H  H26  1  0.23099423  0.23099423  0.50000000  1
  H  H27  1  0.76900577  0.76900577  0.50000000  1
  H  H28  1  0.00000000  0.50000000  0.00000000  1
  H  H29  1  0.50000000  0.00000000  0.00000000  1
