# generated using pymatgen
data_Na2B5H3O10
_symmetry_space_group_name_H-M   'P 1'
_cell_length_a   11.27941022
_cell_length_b   6.62523513
_cell_length_c   21.07645170
_cell_angle_alpha   90.00000000
_cell_angle_beta   93.76378067
_cell_angle_gamma   90.00000000
_symmetry_Int_Tables_number   1
_chemical_formula_structural   Na2B5H3O10
_chemical_formula_sum   'Na16 B40 H24 O80'
_cell_volume   1571.61972775
_cell_formula_units_Z   8
loop_
 _symmetry_equiv_pos_site_id
 _symmetry_equiv_pos_as_xyz
  1  'x, y, z'
loop_
 _atom_site_type_symbol
 _atom_site_label
 _atom_site_symmetry_multiplicity
 _atom_site_fract_x
 _atom_site_fract_y
 _atom_site_fract_z
 _atom_site_occupancy
  Na  Na0  1  0.06025809  0.99564951  0.72535737  1
  Na  Na1  1  0.93974191  0.49564951  0.77464263  1
  Na  Na2  1  0.93974191  0.00435049  0.27464263  1
  Na  Na3  1  0.06025809  0.50435049  0.22535737  1
  Na  Na4  1  0.43815360  0.38920918  0.76478675  1
  Na  Na5  1  0.56184640  0.88920918  0.73521325  1
  Na  Na6  1  0.56184640  0.61079082  0.23521325  1
  Na  Na7  1  0.43815360  0.11079082  0.26478675  1
  Na  Na8  1  0.15456871  0.95039324  0.54243845  1
  Na  Na9  1  0.84543129  0.45039324  0.95756155  1
  Na  Na10  1  0.84543129  0.04960676  0.45756155  1
  Na  Na11  1  0.15456871  0.54960676  0.04243845  1
  Na  Na12  1  0.47073570  0.65007056  0.59595158  1
  Na  Na13  1  0.52926430  0.15007056  0.90404842  1
  Na  Na14  1  0.52926430  0.34992944  0.40404842  1
  Na  Na15  1  0.47073570  0.84992944  0.09595158  1
  B  B16  1  0.25853842  0.71243800  0.66345951  1
  B  B17  1  0.74146158  0.21243800  0.83654049  1
  B  B18  1  0.74146158  0.28756200  0.33654049  1
  B  B19  1  0.25853842  0.78756200  0.16345951  1
  B  B20  1  0.20260205  0.35820052  0.66924141  1
  B  B21  1  0.79739795  0.85820052  0.83075859  1
  B  B22  1  0.79739795  0.64179948  0.33075859  1
  B  B23  1  0.20260205  0.14179948  0.16924141  1
  B  B24  1  0.04228147  0.61234126  0.64495972  1
  B  B25  1  0.95771853  0.11234126  0.85504028  1
  B  B26  1  0.95771853  0.38765874  0.35504028  1
  B  B27  1  0.04228147  0.88765874  0.14495972  1
  B  B28  1  0.88994959  0.66629474  0.55375583  1
  B  B29  1  0.11005041  0.16629474  0.94624417  1
  B  B30  1  0.11005041  0.33370526  0.44624417  1
  B  B31  1  0.88994959  0.83370526  0.05375583  1
  B  B32  1  0.83954290  0.78451164  0.66108705  1
  B  B33  1  0.16045710  0.28451164  0.83891295  1
  B  B34  1  0.16045710  0.21548836  0.33891295  1
  B  B35  1  0.83954290  0.71548836  0.16108705  1
  B  B36  1  0.70378879  0.49740096  0.68483252  1
  B  B37  1  0.29621121  0.99740096  0.81516748  1
  B  B38  1  0.29621121  0.50259904  0.31516748  1
  B  B39  1  0.70378879  0.00259904  0.18483252  1
  B  B40  1  0.76133165  0.14598753  0.67321976  1
  B  B41  1  0.23866835  0.64598753  0.82678024  1
  B  B42  1  0.23866835  0.85401247  0.32678024  1
  B  B43  1  0.76133165  0.35401247  0.17321976  1
  B  B44  1  0.54879058  0.24466305  0.64594619  1
  B  B45  1  0.45120942  0.74466305  0.85405381  1
  B  B46  1  0.45120942  0.75533695  0.35405381  1
  B  B47  1  0.54879058  0.25533695  0.14594619  1
  B  B48  1  0.42241623  0.18588135  0.54555921  1
  B  B49  1  0.57758377  0.68588135  0.95444079  1
  B  B50  1  0.57758377  0.81411865  0.45444079  1
  B  B51  1  0.42241623  0.31411865  0.04555921  1
  B  B52  1  0.34656031  0.06992749  0.64923271  1
  B  B53  1  0.65343969  0.56992749  0.85076729  1
  B  B54  1  0.65343969  0.93007251  0.35076729  1
  B  B55  1  0.34656031  0.43007251  0.14923271  1
  H  H56  1  0.36162593  0.68668256  0.48023770  1
  H  H57  1  0.63837407  0.18668256  0.01976230  1
  H  H58  1  0.63837407  0.31331744  0.51976230  1
  H  H59  1  0.36162593  0.81331744  0.98023770  1
  H  H60  1  0.27009633  0.53784970  0.50970736  1
  H  H61  1  0.72990367  0.03784970  0.99029264  1
  H  H62  1  0.72990367  0.46215030  0.49029264  1
  H  H63  1  0.27009633  0.96215030  0.00970736  1
  H  H64  1  0.97346669  0.26843215  0.56855316  1
  H  H65  1  0.02653331  0.76843215  0.93144684  1
  H  H66  1  0.02653331  0.73156785  0.43144684  1
  H  H67  1  0.97346669  0.23156785  0.06855316  1
  H  H68  1  0.93004970  0.07913462  0.60216777  1
  H  H69  1  0.06995030  0.57913462  0.89783223  1
  H  H70  1  0.06995030  0.92086538  0.39783223  1
  H  H71  1  0.93004970  0.42086538  0.10216777  1
  H  H72  1  0.90585827  0.55677017  0.46635004  1
  H  H73  1  0.09414173  0.05677017  0.03364996  1
  H  H74  1  0.09414173  0.44322983  0.53364996  1
  H  H75  1  0.90585827  0.94322983  0.96635004  1
  H  H76  1  0.33137126  0.17638747  0.45789900  1
  H  H77  1  0.66862874  0.67638747  0.04210100  1
  H  H78  1  0.66862874  0.82361253  0.54210100  1
  H  H79  1  0.33137126  0.32361253  0.95789900  1
  O  O80  1  0.34945755  0.84944019  0.66800811  1
  O  O81  1  0.65054245  0.34944019  0.83199189  1
  O  O82  1  0.65054245  0.15055981  0.33199189  1
  O  O83  1  0.34945755  0.65055981  0.16800811  1
  O  O84  1  0.29100507  0.51016163  0.67499293  1
  O  O85  1  0.70899493  0.01016163  0.82500707  1
  O  O86  1  0.70899493  0.48983837  0.32500707  1
  O  O87  1  0.29100507  0.98983837  0.17499293  1
  O  O88  1  0.23316510  0.15997911  0.66734126  1
  O  O89  1  0.76683490  0.65997911  0.83265874  1
  O  O90  1  0.76683490  0.84002089  0.33265874  1
  O  O91  1  0.23316510  0.34002089  0.16734126  1
  O  O92  1  0.14325534  0.76083704  0.64551801  1
  O  O93  1  0.85674466  0.26083704  0.85448199  1
  O  O94  1  0.85674466  0.23916296  0.35448199  1
  O  O95  1  0.14325534  0.73916296  0.14551801  1
  O  O96  1  0.08477394  0.41170609  0.66626468  1
  O  O97  1  0.91522606  0.91170609  0.83373532  1
  O  O98  1  0.91522606  0.58829391  0.33373532  1
  O  O99  1  0.08477394  0.08829391  0.16626468  1
  O  O100  1  0.95149720  0.69108048  0.68289384  1
  O  O101  1  0.04850280  0.19108048  0.81710616  1
  O  O102  1  0.04850280  0.30891952  0.31710616  1
  O  O103  1  0.95149720  0.80891952  0.18289384  1
  O  O104  1  0.99846727  0.58816612  0.57562606  1
  O  O105  1  0.00153273  0.08816612  0.92437394  1
  O  O106  1  0.00153273  0.41183388  0.42437394  1
  O  O107  1  0.99846727  0.91183388  0.07562606  1
  O  O108  1  0.81504364  0.76631515  0.59048975  1
  O  O109  1  0.18495636  0.26631515  0.90951025  1
  O  O110  1  0.18495636  0.23368485  0.40951025  1
  O  O111  1  0.81504364  0.73368485  0.09048975  1
  O  O112  1  0.85193588  0.64371501  0.49002492  1
  O  O113  1  0.14806412  0.14371501  0.00997508  1
  O  O114  1  0.14806412  0.35628499  0.50997508  1
  O  O115  1  0.85193588  0.85628499  0.99002492  1
  O  O116  1  0.85084550  0.00563225  0.67692724  1
  O  O117  1  0.14915450  0.50563225  0.82307276  1
  O  O118  1  0.14915450  0.99436775  0.32307276  1
  O  O119  1  0.85084550  0.49436775  0.17692724  1
  O  O120  1  0.73566595  0.69583254  0.69078013  1
  O  O121  1  0.26433405  0.19583254  0.80921987  1
  O  O122  1  0.26433405  0.30416746  0.30921987  1
  O  O123  1  0.73566595  0.80416746  0.19078013  1
  O  O124  1  0.79095395  0.34551000  0.69053157  1
  O  O125  1  0.20904605  0.84551000  0.80946843  1
  O  O126  1  0.20904605  0.65449000  0.30946843  1
  O  O127  1  0.79095395  0.15449000  0.19053157  1
  O  O128  1  0.58558976  0.44740264  0.67322619  1
  O  O129  1  0.41441024  0.94740264  0.82677381  1
  O  O130  1  0.41441024  0.55259736  0.32677381  1
  O  O131  1  0.58558976  0.05259736  0.17322619  1
  O  O132  1  0.64780306  0.09835044  0.65312384  1
  O  O133  1  0.35219694  0.59835044  0.84687616  1
  O  O134  1  0.35219694  0.90164956  0.34687616  1
  O  O135  1  0.64780306  0.40164956  0.15312384  1
  O  O136  1  0.45087967  0.16589698  0.67940217  1
  O  O137  1  0.54912033  0.66589698  0.82059783  1
  O  O138  1  0.54912033  0.83410302  0.32059783  1
  O  O139  1  0.45087967  0.33410302  0.17940217  1
  O  O140  1  0.51929061  0.28091852  0.57629094  1
  O  O141  1  0.48070939  0.78091852  0.92370906  1
  O  O142  1  0.48070939  0.71908148  0.42370906  1
  O  O143  1  0.51929061  0.21908148  0.07629094  1
  O  O144  1  0.40898586  0.21073274  0.47994883  1
  O  O145  1  0.59101414  0.71073274  0.02005117  1
  O  O146  1  0.59101414  0.78926726  0.52005117  1
  O  O147  1  0.40898586  0.28926726  0.97994883  1
  O  O148  1  0.34514539  0.07432011  0.57820514  1
  O  O149  1  0.65485461  0.57432011  0.92179486  1
  O  O150  1  0.65485461  0.92567989  0.42179486  1
  O  O151  1  0.34514539  0.42567989  0.07820514  1
  O  O152  1  0.31279822  0.66672773  0.51706427  1
  O  O153  1  0.68720178  0.16672773  0.98293573  1
  O  O154  1  0.68720178  0.33327227  0.48293573  1
  O  O155  1  0.31279822  0.83327227  0.01706427  1
  O  O156  1  0.96005070  0.12403544  0.56156243  1
  O  O157  1  0.03994930  0.62403544  0.93843757  1
  O  O158  1  0.03994930  0.87596456  0.43843757  1
  O  O159  1  0.96005070  0.37596456  0.06156243  1
