# generated using pymatgen
data_Ba4Na3Nd3P6(O12F)2
_symmetry_space_group_name_H-M   'P 1'
_cell_length_a   9.84614472
_cell_length_b   9.86943443
_cell_length_c   14.59584473
_cell_angle_alpha   89.90251058
_cell_angle_beta   90.04869210
_cell_angle_gamma   120.20374707
_symmetry_Int_Tables_number   1
_chemical_formula_structural   Ba4Na3Nd3P6(O12F)2
_chemical_formula_sum   'Ba8 Na6 Nd6 P12 O48 F4'
_cell_volume   1225.80787329
_cell_formula_units_Z   2
loop_
 _symmetry_equiv_pos_site_id
 _symmetry_equiv_pos_as_xyz
  1  'x, y, z'
loop_
 _atom_site_type_symbol
 _atom_site_label
 _atom_site_symmetry_multiplicity
 _atom_site_fract_x
 _atom_site_fract_y
 _atom_site_fract_z
 _atom_site_occupancy
  Ba  Ba0  1  0.02214280  0.77009676  0.36565491  1
  Ba  Ba1  1  0.22818362  0.24653538  0.86851811  1
  Ba  Ba2  1  0.74929775  0.97904984  0.36932828  1
  Ba  Ba3  1  0.74900234  0.98370792  0.86853247  1
  Ba  Ba4  1  0.77343521  0.75158279  0.12970550  1
  Ba  Ba5  1  0.76618746  0.74286465  0.63037662  1
  Ba  Ba6  1  0.98353225  0.23747564  0.13301213  1
  Ba  Ba7  1  0.98302834  0.22775760  0.62931679  1
  Na  Na8  1  0.33341959  0.67075036  0.25923282  1
  Na  Na9  1  0.33395943  0.67049200  0.75957547  1
  Na  Na10  1  0.27272053  0.00653942  0.13767703  1
  Na  Na11  1  0.27317638  0.00920640  0.64157477  1
  Na  Na12  1  0.66008773  0.33051863  0.23670802  1
  Na  Na13  1  0.66034237  0.32615832  0.73656070  1
  Nd  Nd14  1  0.01778176  0.77663822  0.86238429  1
  Nd  Nd15  1  0.33408085  0.66801796  0.01316442  1
  Nd  Nd16  1  0.33123120  0.67121645  0.51354824  1
  Nd  Nd17  1  0.22979543  0.23285888  0.36378401  1
  Nd  Nd18  1  0.66471309  0.33201132  0.48987057  1
  Nd  Nd19  1  0.66238598  0.33071375  0.99003412  1
  P  P20  1  0.02785317  0.62468985  0.11243432  1
  P  P21  1  0.03107817  0.62077901  0.62518775  1
  P  P22  1  0.58665730  0.97077833  0.11988551  1
  P  P23  1  0.58619168  0.97024310  0.61975849  1
  P  P24  1  0.38139077  0.41045119  0.12584681  1
  P  P25  1  0.37979841  0.40399274  0.61343154  1
  P  P26  1  0.60852419  0.58320446  0.37944859  1
  P  P27  1  0.62705400  0.58862612  0.88125918  1
  P  P28  1  0.40753163  0.03802387  0.38180349  1
  P  P29  1  0.39990020  0.02388236  0.88407542  1
  P  P30  1  0.97509922  0.38201123  0.38228899  1
  P  P31  1  0.97468522  0.39268552  0.87910614  1
  O  O32  1  0.04748264  0.74710829  0.18455035  1
  O  O33  1  0.04500021  0.72970162  0.70598761  1
  O  O34  1  0.08640653  0.70745772  0.01707596  1
  O  O35  1  0.09913252  0.72257965  0.53728799  1
  O  O36  1  0.13412585  0.55231990  0.13491566  1
  O  O37  1  0.13354173  0.54349836  0.64221846  1
  O  O38  1  0.14903129  0.51140020  0.39556880  1
  O  O39  1  0.15340619  0.50665587  0.89155054  1
  O  O40  1  0.35362493  0.86156014  0.39118133  1
  O  O41  1  0.35537861  0.84936982  0.89493661  1
  O  O42  1  0.40847110  0.87251132  0.13958189  1
  O  O43  1  0.40826377  0.87231188  0.63982939  1
  O  O44  1  0.27288187  0.37407586  0.03971292  1
  O  O45  1  0.28606243  0.37375417  0.52076415  1
  O  O46  1  0.27375910  0.31779920  0.20808409  1
  O  O47  1  0.26444922  0.30222397  0.68912779  1
  O  O48  1  0.44954105  0.58305246  0.63401959  1
  O  O49  1  0.45629192  0.59012515  0.14187998  1
  O  O50  1  0.61399591  0.89707878  0.03159209  1
  O  O51  1  0.61314284  0.89607470  0.53135305  1
  O  O52  1  0.49308575  0.64510052  0.39225597  1
  O  O53  1  0.50625769  0.64416833  0.89147164  1
  O  O54  1  0.68827414  0.95618322  0.19618038  1
  O  O55  1  0.68721578  0.95337756  0.69551493  1
  O  O56  1  0.30755563  0.05696220  0.30464647  1
  O  O57  1  0.28105215  0.01910437  0.81132513  1
  O  O58  1  0.50892887  0.36539983  0.11154895  1
  O  O59  1  0.51547631  0.36807572  0.60824901  1
  O  O60  1  0.37748329  0.11006394  0.46950799  1
  O  O61  1  0.38065504  0.09946800  0.97324245  1
  O  O62  1  0.51884638  0.40240648  0.36184535  1
  O  O63  1  0.54646114  0.41149346  0.85905069  1
  O  O64  1  0.72391969  0.67603133  0.30157482  1
  O  O65  1  0.75037461  0.69092421  0.80707107  1
  O  O66  1  0.71193209  0.60784663  0.46637726  1
  O  O67  1  0.72640703  0.61359398  0.96943945  1
  O  O68  1  0.58621497  0.13676625  0.36100225  1
  O  O69  1  0.57537392  0.12915156  0.85567617  1
  O  O70  1  0.64668378  0.14810018  0.10761893  1
  O  O71  1  0.64451292  0.14672058  0.60715844  1
  O  O72  1  0.85269165  0.49238935  0.10988727  1
  O  O73  1  0.85465165  0.49602385  0.61292906  1
  O  O74  1  0.87071835  0.45172033  0.35421846  1
  O  O75  1  0.88439630  0.48263565  0.86122646  1
  O  O76  1  0.89637334  0.28408294  0.47032353  1
  O  O77  1  0.89647197  0.28976283  0.96650393  1
  O  O78  1  0.97838972  0.26678450  0.31086280  1
  O  O79  1  0.95233346  0.27756511  0.80127000  1
  F  F80  1  0.00931540  0.01603832  0.26114804  1
  F  F81  1  0.98909689  0.98109876  0.76045844  1
  F  F82  1  0.02741214  0.03561811  0.45550121  1
  F  F83  1  0.99318016  0.96112276  0.95500967  1
