# generated using pymatgen
data_KMnH4Cl3O2
_symmetry_space_group_name_H-M   'P 1'
_cell_length_a   6.52060781
_cell_length_b   6.97380254
_cell_length_c   9.98192233
_cell_angle_alpha   96.96427986
_cell_angle_beta   113.88186856
_cell_angle_gamma   112.58020200
_symmetry_Int_Tables_number   1
_chemical_formula_structural   KMnH4Cl3O2
_chemical_formula_sum   'K2 Mn2 H8 Cl6 O4'
_cell_volume   362.06651941
_cell_formula_units_Z   2
loop_
 _symmetry_equiv_pos_site_id
 _symmetry_equiv_pos_as_xyz
  1  'x, y, z'
loop_
 _atom_site_type_symbol
 _atom_site_label
 _atom_site_symmetry_multiplicity
 _atom_site_fract_x
 _atom_site_fract_y
 _atom_site_fract_z
 _atom_site_occupancy
  K  K0  1  0.86223298  0.15436588  0.80412562  1
  K  K1  1  0.13776702  0.84563412  0.19587438  1
  Mn  Mn2  1  0.04784555  0.70222911  0.67379867  1
  Mn  Mn3  1  0.95215445  0.29777089  0.32620133  1
  H  H4  1  0.40226196  0.27675654  0.50552239  1
  H  H5  1  0.59773804  0.72324346  0.49447761  1
  H  H6  1  0.23571499  0.18014786  0.58321089  1
  H  H7  1  0.76428501  0.81985214  0.41678911  1
  H  H8  1  0.40373211  0.69369620  0.94192541  1
  H  H9  1  0.59626789  0.30630380  0.05807459  1
  H  H10  1  0.42857894  0.57880620  0.80866124  1
  H  H11  1  0.57142106  0.42119380  0.19133876  1
  Cl  Cl12  1  0.74889604  0.28918689  0.50164239  1
  Cl  Cl13  1  0.25110396  0.71081311  0.49835761  1
  Cl  Cl14  1  0.35088382  0.10881062  0.81222345  1
  Cl  Cl15  1  0.64911618  0.89118938  0.18777655  1
  Cl  Cl16  1  0.82798204  0.66484107  0.83136270  1
  Cl  Cl17  1  0.17201796  0.33515893  0.16863730  1
  O  O18  1  0.22690406  0.21544558  0.48894016  1
  O  O19  1  0.77309594  0.78455442  0.51105984  1
  O  O20  1  0.30265894  0.59617507  0.83225789  1
  O  O21  1  0.69734106  0.40382493  0.16774211  1
