# generated using pymatgen
data_SrCo2H2(SeO3)4
_symmetry_space_group_name_H-M   'P 1'
_cell_length_a   15.11723303
_cell_length_b   5.38026147
_cell_length_c   14.05317006
_cell_angle_alpha   90.00000000
_cell_angle_beta   94.35906780
_cell_angle_gamma   90.00000000
_symmetry_Int_Tables_number   1
_chemical_formula_structural   SrCo2H2(SeO3)4
_chemical_formula_sum   'Sr4 Co8 H8 Se16 O48'
_cell_volume   1139.70352132
_cell_formula_units_Z   4
loop_
 _symmetry_equiv_pos_site_id
 _symmetry_equiv_pos_as_xyz
  1  'x, y, z'
loop_
 _atom_site_type_symbol
 _atom_site_label
 _atom_site_symmetry_multiplicity
 _atom_site_fract_x
 _atom_site_fract_y
 _atom_site_fract_z
 _atom_site_occupancy
  Sr  Sr0  1  0.25000000  0.54084572  0.75000000  1
  Sr  Sr1  1  0.75000000  0.45915428  0.25000000  1
  Sr  Sr2  1  0.25000000  0.32851922  0.25000000  1
  Sr  Sr3  1  0.75000000  0.67148078  0.75000000  1
  Co  Co4  1  0.74514532  0.95294251  0.49746576  1
  Co  Co5  1  0.25485468  0.04705749  0.50253424  1
  Co  Co6  1  0.75485468  0.95294251  0.00253424  1
  Co  Co7  1  0.24514532  0.04705749  0.99746576  1
  Co  Co8  1  0.50341669  0.59443975  0.75366315  1
  Co  Co9  1  0.49658331  0.40556025  0.24633685  1
  Co  Co10  1  0.99658331  0.59443975  0.74633685  1
  Co  Co11  1  0.00341669  0.40556025  0.25366315  1
  H  H12  1  0.38196592  0.22396262  0.63363476  1
  H  H13  1  0.61803408  0.77603738  0.36636524  1
  H  H14  1  0.11803408  0.22396262  0.86636524  1
  H  H15  1  0.88196592  0.77603738  0.13363476  1
  H  H16  1  0.37067234  0.88479061  0.12747541  1
  H  H17  1  0.62932766  0.11520939  0.87252459  1
  H  H18  1  0.12932766  0.88479061  0.37252459  1
  H  H19  1  0.87067234  0.11520939  0.62747541  1
  Se  Se20  1  0.40810642  0.08120598  0.84180860  1
  Se  Se21  1  0.59189358  0.91879402  0.15819140  1
  Se  Se22  1  0.09189358  0.08120598  0.65819140  1
  Se  Se23  1  0.90810642  0.91879402  0.34180860  1
  Se  Se24  1  0.41027229  0.89515822  0.33509326  1
  Se  Se25  1  0.58972771  0.10484178  0.66490674  1
  Se  Se26  1  0.08972771  0.89515822  0.16490674  1
  Se  Se27  1  0.91027229  0.10484178  0.83509326  1
  Se  Se28  1  0.38464370  0.57445680  0.53135243  1
  Se  Se29  1  0.61535630  0.42554320  0.46864757  1
  Se  Se30  1  0.11535630  0.57445680  0.96864757  1
  Se  Se31  1  0.88464370  0.42554320  0.03135243  1
  Se  Se32  1  0.37848823  0.52062821  0.02571631  1
  Se  Se33  1  0.62151177  0.47937179  0.97428369  1
  Se  Se34  1  0.12151177  0.52062821  0.47428369  1
  Se  Se35  1  0.87848823  0.47937179  0.52571631  1
  O  O36  1  0.39079276  0.79477744  0.78833265  1
  O  O37  1  0.60920724  0.20522256  0.21166735  1
  O  O38  1  0.10920724  0.79477744  0.71166735  1
  O  O39  1  0.89079276  0.20522256  0.28833265  1
  O  O40  1  0.30210390  0.15754410  0.87176727  1
  O  O41  1  0.69789610  0.84245590  0.12823273  1
  O  O42  1  0.19789610  0.15754410  0.62823273  1
  O  O43  1  0.80210390  0.84245590  0.37176727  1
  O  O44  1  0.41134452  0.28230682  0.74345565  1
  O  O45  1  0.58865548  0.71769318  0.25654435  1
  O  O46  1  0.08865548  0.28230682  0.75654435  1
  O  O47  1  0.91134452  0.71769318  0.24345565  1
  O  O48  1  0.38559581  0.61741614  0.27564071  1
  O  O49  1  0.61440419  0.38258386  0.72435929  1
  O  O50  1  0.11440419  0.61741614  0.22435929  1
  O  O51  1  0.88559581  0.38258386  0.77564071  1
  O  O52  1  0.30753117  0.97936944  0.37209238  1
  O  O53  1  0.69246883  0.02063056  0.62790762  1
  O  O54  1  0.19246883  0.97936944  0.12790762  1
  O  O55  1  0.80753117  0.02063056  0.87209238  1
  O  O56  1  0.41103591  0.09011639  0.23626756  1
  O  O57  1  0.58896409  0.90988361  0.76373244  1
  O  O58  1  0.08896409  0.09011639  0.26373244  1
  O  O59  1  0.91103591  0.90988361  0.73626756  1
  O  O60  1  0.47536533  0.63718868  0.60551426  1
  O  O61  1  0.52463467  0.36281132  0.39448574  1
  O  O62  1  0.02463467  0.63718868  0.89448574  1
  O  O63  1  0.97536533  0.36281132  0.10551426  1
  O  O64  1  0.29732728  0.71318658  0.58209466  1
  O  O65  1  0.70267272  0.28681342  0.41790534  1
  O  O66  1  0.20267272  0.71318658  0.91790534  1
  O  O67  1  0.79732728  0.28681342  0.08209466  1
  O  O68  1  0.36698342  0.24077358  0.56140250  1
  O  O69  1  0.63301658  0.75922642  0.43859750  1
  O  O70  1  0.13301658  0.24077358  0.93859750  1
  O  O71  1  0.86698342  0.75922642  0.06140250  1
  O  O72  1  0.46913321  0.46100395  0.09974430  1
  O  O73  1  0.53086679  0.53899605  0.90025570  1
  O  O74  1  0.03086679  0.46100395  0.40025570  1
  O  O75  1  0.96913321  0.53899605  0.59974430  1
  O  O76  1  0.29187707  0.37586866  0.07487012  1
  O  O77  1  0.70812293  0.62413134  0.92512988  1
  O  O78  1  0.20812293  0.37586866  0.42512988  1
  O  O79  1  0.79187707  0.62413134  0.57487012  1
  O  O80  1  0.35846459  0.85502258  0.05732828  1
  O  O81  1  0.64153541  0.14497742  0.94267172  1
  O  O82  1  0.14153541  0.85502258  0.44267172  1
  O  O83  1  0.85846459  0.14497742  0.55732828  1
