# generated using pymatgen
data_Li9Mn2Co5O16
_symmetry_space_group_name_H-M   'P 1'
_cell_length_a   2.94339981
_cell_length_b   10.51337742
_cell_length_c   9.86558856
_cell_angle_alpha   107.21721837
_cell_angle_beta   92.75362509
_cell_angle_gamma   83.19275010
_symmetry_Int_Tables_number   1
_chemical_formula_structural   Li9Mn2Co5O16
_chemical_formula_sum   'Li9 Mn2 Co5 O16'
_cell_volume   289.52835794
_cell_formula_units_Z   1
loop_
 _symmetry_equiv_pos_site_id
 _symmetry_equiv_pos_as_xyz
  1  'x, y, z'
loop_
 _atom_site_type_symbol
 _atom_site_label
 _atom_site_symmetry_multiplicity
 _atom_site_fract_x
 _atom_site_fract_y
 _atom_site_fract_z
 _atom_site_occupancy
  Li  Li0  1  0.92513967  0.13091866  0.31279332  1
  Li  Li1  1  0.42091236  0.13140983  0.82103609  1
  Li  Li2  1  0.31668279  0.37936833  0.43640360  1
  Li  Li3  1  0.81519302  0.36710317  0.94389006  1
  Li  Li4  1  0.68949906  0.62400057  0.56400431  1
  Li  Li5  1  0.19068122  0.62244555  0.06254185  1
  Li  Li6  1  0.06936038  0.87159204  0.68232437  1
  Li  Li7  1  0.56776690  0.87422039  0.18448557  1
  Li  Li8  1  0.38759824  0.24979334  0.11565976  1
  Mn  Mn9  1  0.99075706  0.00680969  0.00265044  1
  Mn  Mn10  1  0.12505183  0.74601332  0.37576109  1
  Co  Co11  1  0.49811363  -0.00013638  0.50114433  1
  Co  Co12  1  0.87203815  0.25144946  0.62459592  1
  Co  Co13  1  0.76602531  0.48799478  0.24503327  1
  Co  Co14  1  0.24888678  0.50269614  0.75002576  1
  Co  Co15  1  0.61773747  0.75134877  0.87716301  1
  O  O16  1  0.48946165  0.05517283  0.13803858  1
  O  O17  1  0.95854586  0.05958884  0.64264416  1
  O  O18  1  0.83086969  0.33443594  0.28142884  1
  O  O19  1  0.33135258  0.31178126  0.77020282  1
  O  O20  1  0.19520057  0.56519880  0.39718303  1
  O  O21  1  0.71607360  0.56912688  0.89495466  1
  O  O22  1  0.56157790  0.81191375  0.52661973  1
  O  O23  1  0.05286120  0.81796844  0.02224070  1
  O  O24  1  0.41564610  0.18967692  0.47584065  1
  O  O25  1  0.91882324  0.17016178  0.96712990  1
  O  O26  1  0.78532235  0.44105800  0.60560064  1
  O  O27  1  0.31175919  0.44309544  0.10512407  1
  O  O28  1  0.18582597  0.69058303  0.73175525  1
  O  O29  1  0.69114213  0.67469389  0.22610667  1
  O  O30  1  0.50397027  0.93614902  0.86404321  1
  O  O31  1  0.05012386  0.93236752  0.35157435  1
