# generated using pymatgen
data_CoP4(H5O8)2
_symmetry_space_group_name_H-M   'P 1'
_cell_length_a   8.23521651
_cell_length_b   5.31718050
_cell_length_c   7.26767454
_cell_angle_alpha   92.74188098
_cell_angle_beta   99.88738729
_cell_angle_gamma   97.99347596
_symmetry_Int_Tables_number   1
_chemical_formula_structural   CoP4(H5O8)2
_chemical_formula_sum   'Co1 P4 H10 O16'
_cell_volume   309.62507540
_cell_formula_units_Z   1
loop_
 _symmetry_equiv_pos_site_id
 _symmetry_equiv_pos_as_xyz
  1  'x, y, z'
loop_
 _atom_site_type_symbol
 _atom_site_label
 _atom_site_symmetry_multiplicity
 _atom_site_fract_x
 _atom_site_fract_y
 _atom_site_fract_z
 _atom_site_occupancy
  Co  Co0  1  0.50000000  0.50000000  0.50000000  1
  P  P1  1  0.27371052  0.92807148  0.32401344  1
  P  P2  1  0.72628948  0.07192852  0.67598656  1
  P  P3  1  0.25304397  0.54720302  0.81880022  1
  P  P4  1  0.74695603  0.45279698  0.18119978  1
  H  H5  1  0.22928657  0.13000303  0.57705716  1
  H  H6  1  0.77071343  0.86999697  0.42294284  1
  H  H7  1  0.14805145  0.08944442  0.07791356  1
  H  H8  1  0.85194855  0.91055558  0.92208644  1
  H  H9  1  0.07746943  0.72182521  0.63663640  1
  H  H10  1  0.92253057  0.27817479  0.36336360  1
  H  H11  1  0.26856675  0.50763703  0.12418970  1
  H  H12  1  0.73143325  0.49236297  0.87581030  1
  H  H13  1  0.46270344  0.84654269  0.81097023  1
  H  H14  1  0.53729656  0.15345731  0.18902977  1
  O  O15  1  0.18816754  0.95764696  0.50269255  1
  O  O16  1  0.81183246  0.04235304  0.49730745  1
  O  O17  1  0.13103079  0.93688672  0.14879433  1
  O  O18  1  0.86896921  0.06311328  0.85120567  1
  O  O19  1  0.32268241  0.66095008  0.31323035  1
  O  O20  1  0.67731759  0.33904992  0.68676965  1
  O  O21  1  0.41534053  0.14832499  0.33189985  1
  O  O22  1  0.58465947  0.85167501  0.66810015  1
  O  O23  1  0.07163351  0.60283840  0.73704929  1
  O  O24  1  0.92836649  0.39716160  0.26295071  1
  O  O25  1  0.23325548  0.39986811  0.99628935  1
  O  O26  1  0.76674452  0.60013189  0.00371065  1
  O  O27  1  0.36887381  0.80442630  0.88568813  1
  O  O28  1  0.63112619  0.19557370  0.11431187  1
  O  O29  1  0.31904695  0.39125155  0.67418088  1
  O  O30  1  0.68095305  0.60874845  0.32581912  1
