# generated using pymatgen
data_Sm2SnS5
_symmetry_space_group_name_H-M   'P 1'
_cell_length_a   3.88364919
_cell_length_b   7.84911730
_cell_length_c   11.48178880
_cell_angle_alpha   90.00000000
_cell_angle_beta   90.00000000
_cell_angle_gamma   90.00000000
_symmetry_Int_Tables_number   1
_chemical_formula_structural   Sm2SnS5
_chemical_formula_sum   'Sm4 Sn2 S10'
_cell_volume   350.00187153
_cell_formula_units_Z   2
loop_
 _symmetry_equiv_pos_site_id
 _symmetry_equiv_pos_as_xyz
  1  'x, y, z'
loop_
 _atom_site_type_symbol
 _atom_site_label
 _atom_site_symmetry_multiplicity
 _atom_site_fract_x
 _atom_site_fract_y
 _atom_site_fract_z
 _atom_site_occupancy
  S  S0  1  0.50000000  0.67096960  0.40659153  1
  S  S1  1  0.50000000  0.32903040  0.59340847  1
  S  S2  1  0.50000000  0.17096960  0.09340847  1
  S  S3  1  0.50000000  0.82903040  0.90659153  1
  S  S4  1  0.00000000  0.82698831  0.19501989  1
  S  S5  1  0.00000000  0.17301169  0.80498011  1
  S  S6  1  0.00000000  0.50000000  0.00000000  1
  S  S7  1  0.00000000  0.00000000  0.50000000  1
  S  S8  1  0.00000000  0.67301169  0.69501989  1
  S  S9  1  0.00000000  0.32698831  0.30498011  1
  Sn  Sn10  1  0.00000000  0.50000000  0.50000000  1
  Sn  Sn11  1  0.00000000  0.00000000  0.00000000  1
  Sm  Sm12  1  0.50000000  0.53370727  0.17278676  1
  Sm  Sm13  1  0.50000000  0.46629273  0.82721324  1
  Sm  Sm14  1  0.50000000  0.03370727  0.32721324  1
  Sm  Sm15  1  0.50000000  0.96629273  0.67278676  1
