# generated using pymatgen
data_K2FeH4(SO5)2
_symmetry_space_group_name_H-M   'P 1'
_cell_length_a   7.41081561
_cell_length_b   10.97441790
_cell_length_c   6.58055645
_cell_angle_alpha   108.67447592
_cell_angle_beta   110.48871139
_cell_angle_gamma   94.51372924
_symmetry_Int_Tables_number   1
_chemical_formula_structural   K2FeH4(SO5)2
_chemical_formula_sum   'K4 Fe2 H8 S4 O20'
_cell_volume   463.83893362
_cell_formula_units_Z   2
loop_
 _symmetry_equiv_pos_site_id
 _symmetry_equiv_pos_as_xyz
  1  'x, y, z'
loop_
 _atom_site_type_symbol
 _atom_site_label
 _atom_site_symmetry_multiplicity
 _atom_site_fract_x
 _atom_site_fract_y
 _atom_site_fract_z
 _atom_site_occupancy
  K  K0  1  0.74930922  0.89883611  0.18806774  1
  K  K1  1  0.25069078  0.10116389  0.81193226  1
  K  K2  1  0.23859130  0.57816058  0.81473504  1
  K  K3  1  0.76140870  0.42183942  0.18526496  1
  Fe  Fe4  1  0.47768464  0.74951716  0.49876377  1
  Fe  Fe5  1  0.52231536  0.25048284  0.50123623  1
  H  H6  1  0.84158213  0.85802363  0.62776146  1
  H  H7  1  0.15841787  0.14197637  0.37223854  1
  H  H8  1  0.82552690  0.70325723  0.56384707  1
  H  H9  1  0.17447310  0.29674277  0.43615293  1
  H  H10  1  0.18071959  0.79424470  0.65337510  1
  H  H11  1  0.81928041  0.20575530  0.34662490  1
  H  H12  1  0.08128373  0.71242232  0.37425024  1
  H  H13  1  0.91871627  0.28757768  0.62574976  1
  S  S14  1  0.27692825  0.92526282  0.17404353  1
  S  S15  1  0.72307175  0.07473718  0.82595647  1
  S  S16  1  0.72716469  0.58263633  0.81144503  1
  S  S17  1  0.27283531  0.41736367  0.18855497  1
  O  O18  1  0.42820121  0.04615430  0.23805073  1
  O  O19  1  0.57179879  0.95384570  0.76194927  1
  O  O20  1  0.15336002  0.87696108  0.91949408  1
  O  O21  1  0.84663998  0.12303892  0.08050592  1
  O  O22  1  0.15554235  0.95617325  0.31306133  1
  O  O23  1  0.84445765  0.04382675  0.68693867  1
  O  O24  1  0.38519408  0.81947205  0.22082441  1
  O  O25  1  0.61480592  0.18052795  0.77917559  1
  O  O26  1  0.58971439  0.67635804  0.77557073  1
  O  O27  1  0.41028561  0.32364196  0.22442927  1
  O  O28  1  0.83363131  0.57108985  0.65399999  1
  O  O29  1  0.16636869  0.42891015  0.34600001  1
  O  O30  1  0.86519521  0.63352176  0.05893307  1
  O  O31  1  0.13480479  0.36647824  0.94106693  1
  O  O32  1  0.60276191  0.45178655  0.75545253  1
  O  O33  1  0.39723809  0.54821345  0.24454747  1
  O  O34  1  0.77403676  0.77116993  0.50189450  1
  O  O35  1  0.22596324  0.22883007  0.49810550  1
  O  O36  1  0.19719058  0.72992877  0.51910335  1
  O  O37  1  0.80280942  0.27007123  0.48089665  1
