# generated using pymatgen
data_SiO2
_symmetry_space_group_name_H-M   'P 1'
_cell_length_a   8.78151285
_cell_length_b   8.77455739
_cell_length_c   16.71000529
_cell_angle_alpha   88.69379867
_cell_angle_beta   91.41146569
_cell_angle_gamma   120.40471125
_symmetry_Int_Tables_number   1
_chemical_formula_structural   SiO2
_chemical_formula_sum   'Si24 O48'
_cell_volume   1110.07729818
_cell_formula_units_Z   24
loop_
 _symmetry_equiv_pos_site_id
 _symmetry_equiv_pos_as_xyz
  1  'x, y, z'
loop_
 _atom_site_type_symbol
 _atom_site_label
 _atom_site_symmetry_multiplicity
 _atom_site_fract_x
 _atom_site_fract_y
 _atom_site_fract_z
 _atom_site_occupancy
  Si  Si0  1  0.31182080  0.92531475  0.16469859  1
  Si  Si1  1  0.66882854  0.60432037  0.18350755  1
  Si  Si2  1  0.99481340  0.29018995  0.15068646  1
  Si  Si3  1  0.97802874  0.60893398  0.08560449  1
  Si  Si4  1  0.33945886  0.28073430  0.11151108  1
  Si  Si5  1  0.65451636  0.92824827  0.11364370  1
  Si  Si6  1  0.36276275  0.97525494  0.35198893  1
  Si  Si7  1  0.05128229  0.64971038  0.43508234  1
  Si  Si8  1  0.71801647  0.65095468  0.37102802  1
  Si  Si9  1  0.35746097  0.31411184  0.40814186  1
  Si  Si10  1  0.04409442  0.34009307  0.33863134  1
  Si  Si11  1  0.71683272  0.00121808  0.40635518  1
  Si  Si12  1  0.00374747  0.60000920  0.62207373  1
  Si  Si13  1  0.30921758  0.26398490  0.59530162  1
  Si  Si14  1  0.66720425  0.95095617  0.59330161  1
  Si  Si15  1  0.33764037  0.95051209  0.66768737  1
  Si  Si16  1  0.65254405  0.60651875  0.64958891  1
  Si  Si17  1  0.99132134  0.25771215  0.68161357  1
  Si  Si18  1  0.38560410  0.00176350  0.85476567  1
  Si  Si19  1  0.03087482  0.65809490  0.89799982  1
  Si  Si20  1  0.69942930  0.65839989  0.83743833  1
  Si  Si21  1  0.39119961  0.33176743  0.92446212  1
  Si  Si22  1  0.04103561  0.30870953  0.86885168  1
  Si  Si23  1  0.70362227  0.97697028  0.92707705  1
  O  O24  1  0.50738591  0.98210909  0.13283482  1
  O  O25  1  0.82875438  0.63841281  0.12557708  1
  O  O26  1  0.18131703  0.32415661  0.11721966  1
  O  O27  1  0.16904737  0.73467345  0.12816410  1
  O  O28  1  0.92982845  0.40381956  0.09620591  1
  O  O29  1  0.50168740  0.40431989  0.17250031  1
  O  O30  1  0.26323258  0.07404586  0.13551425  1
  O  O31  1  0.84765795  0.08203933  0.14512936  1
  O  O32  1  0.60418464  0.74425980  0.16027233  1
  O  O33  1  0.30312257  0.90421097  0.26135714  1
  O  O34  1  0.73759868  0.62822000  0.27594734  1
  O  O35  1  0.01883246  0.35229218  0.24291360  1
  O  O36  1  0.24695686  0.81500306  0.41486557  1
  O  O37  1  0.57118478  0.04329992  0.36639827  1
  O  O38  1  0.00386323  0.48102589  0.38005912  1
  O  O39  1  0.56504070  0.46584730  0.40976699  1
  O  O40  1  0.90363541  0.70703720  0.41762998  1
  O  O41  1  0.33055919  0.13965239  0.36379870  1
  O  O42  1  0.90975262  0.14107134  0.37094174  1
  O  O43  1  0.24603499  0.38890189  0.35895656  1
  O  O44  1  0.66652756  0.80218937  0.38348486  1
  O  O45  1  0.05146341  0.59745774  0.52891657  1
  O  O46  1  0.28491257  0.26351763  0.49887544  1
  O  O47  1  0.72427748  0.02423071  0.50262457  1
  O  O48  1  0.17917499  0.74516045  0.67065910  1
  O  O49  1  0.93500421  0.40589497  0.66232840  1
  O  O50  1  0.51090366  0.40607319  0.62208545  1
  O  O51  1  0.26198691  0.06678851  0.62403233  1
  O  O52  1  0.83383837  0.06408065  0.65356639  1
  O  O53  1  0.61115314  0.74369204  0.59981081  1
  O  O54  1  0.50075315  0.97202624  0.61580516  1
  O  O55  1  0.85014248  0.64962309  0.62876437  1
  O  O56  1  0.17333765  0.31371263  0.63532542  1
  O  O57  1  0.40587574  0.01749659  0.75811543  1
  O  O58  1  0.63176213  0.62279201  0.74489776  1
  O  O59  1  0.02083444  0.24335162  0.77707585  1
  O  O60  1  0.23650064  0.80309983  0.88155427  1
  O  O61  1  0.57326332  0.04874735  0.89654173  1
  O  O62  1  0.99416398  0.46458949  0.87338429  1
  O  O63  1  0.58259056  0.48129784  0.89139530  1
  O  O64  1  0.90488615  0.70679940  0.84303659  1
  O  O65  1  0.33026209  0.14215035  0.88389698  1
  O  O66  1  0.90722489  0.14082804  0.92475141  1
  O  O67  1  0.24252523  0.38498907  0.90171078  1
  O  O68  1  0.67688582  0.81913541  0.86900958  1
  O  O69  1  0.98580388  0.65969473  0.99148883  1
  O  O70  1  0.41178909  0.31941363  0.02065504  1
  O  O71  1  0.65752213  0.90028548  0.01801347  1
