# generated using pymatgen
data_Li6Ti8Ni(PO5)8
_symmetry_space_group_name_H-M   'P 1'
_cell_length_a   6.45341123
_cell_length_b   14.64555775
_cell_length_c   10.43517991
_cell_angle_alpha   45.52769216
_cell_angle_beta   90.32518374
_cell_angle_gamma   90.35757180
_symmetry_Int_Tables_number   1
_chemical_formula_structural   Li6Ti8Ni(PO5)8
_chemical_formula_sum   'Li6 Ti8 Ni1 P8 O40'
_cell_volume   703.77565598
_cell_formula_units_Z   1
loop_
 _symmetry_equiv_pos_site_id
 _symmetry_equiv_pos_as_xyz
  1  'x, y, z'
loop_
 _atom_site_type_symbol
 _atom_site_label
 _atom_site_symmetry_multiplicity
 _atom_site_fract_x
 _atom_site_fract_y
 _atom_site_fract_z
 _atom_site_occupancy
  Li  Li0  1  0.00000000  0.00000000  0.00000000  1
  Li  Li1  1  0.00000000  0.50000000  0.00000000  1
  Li  Li2  1  0.50000000  0.50000000  0.50000000  1
  Li  Li3  1  0.50000000  0.00000000  0.00000000  1
  Li  Li4  1  0.50000000  0.50000000  0.00000000  1
  Li  Li5  1  0.00000000  0.50000000  0.50000000  1
  Ti  Ti6  1  0.23635592  0.05636875  0.66176981  1
  Ti  Ti7  1  0.25063060  0.55934177  0.66164753  1
  Ti  Ti8  1  0.25106623  0.27923640  0.16130127  1
  Ti  Ti9  1  0.25040222  0.77882585  0.16214616  1
  Ti  Ti10  1  0.74936940  0.44065823  0.33835247  1
  Ti  Ti11  1  0.76364408  0.94363125  0.33823019  1
  Ti  Ti12  1  0.74959778  0.22117415  0.83785384  1
  Ti  Ti13  1  0.74893377  0.72076360  0.83869873  1
  Ni  Ni14  1  0.50000000  0.00000000  0.50000000  1
  P  P15  1  0.24887156  0.37612009  0.37355061  1
  P  P16  1  0.25112599  0.87779515  0.37208434  1
  P  P17  1  0.24996938  0.25018518  0.87133866  1
  P  P18  1  0.25370570  0.74815161  0.87325107  1
  P  P19  1  0.74887401  0.12220485  0.62791566  1
  P  P20  1  0.75112844  0.62387991  0.62644939  1
  P  P21  1  0.74629430  0.25184839  0.12674893  1
  P  P22  1  0.75003062  0.74981482  0.12866134  1
  O  O23  1  0.05656480  0.43894786  0.37304244  1
  O  O24  1  0.05749381  0.93941757  0.37003729  1
  O  O25  1  0.05652639  0.18784479  0.87052551  1
  O  O26  1  0.05554197  0.69303656  0.86413054  1
  O  O27  1  0.24752206  0.39884265  0.20369285  1
  O  O28  1  0.25378639  0.89868819  0.20390884  1
  O  O29  1  0.24867437  0.47700691  0.88681360  1
  O  O30  1  0.24708331  0.97666171  0.88602858  1
  O  O31  1  0.25089119  0.22059494  0.04565758  1
  O  O32  1  0.24900306  0.23169978  0.54614601  1
  O  O33  1  0.24716839  0.71922773  0.04696707  1
  O  O34  1  0.25339517  0.73382801  0.54710534  1
  O  O35  1  0.27827616  0.13592282  0.38488287  1
  O  O36  1  0.24963128  0.63560247  0.38677367  1
  O  O37  1  0.24967103  0.39714604  0.70329308  1
  O  O38  1  0.27141467  0.89480655  0.70591812  1
  O  O39  1  0.44284019  0.43943047  0.37232587  1
  O  O40  1  0.44236502  0.94424492  0.36732584  1
  O  O41  1  0.44280166  0.18847654  0.87064936  1
  O  O42  1  0.44178953  0.68065148  0.87974691  1
  O  O43  1  0.55821047  0.31934852  0.12025309  1
  O  O44  1  0.55719834  0.81152346  0.12935064  1
  O  O45  1  0.55763498  0.05575508  0.63267416  1
  O  O46  1  0.55715981  0.56056953  0.62767413  1
  O  O47  1  0.75291669  0.02333829  0.11397142  1
  O  O48  1  0.74621361  0.10131181  0.79609116  1
  O  O49  1  0.75132563  0.52299309  0.11318640  1
  O  O50  1  0.75283161  0.28077227  0.95303293  1
  O  O51  1  0.75247794  0.60115735  0.79630715  1
  O  O52  1  0.74910881  0.77940506  0.95434242  1
  O  O53  1  0.72858533  0.10519345  0.29408188  1
  O  O54  1  0.75032897  0.60285396  0.29670692  1
  O  O55  1  0.74660483  0.26617199  0.45289466  1
  O  O56  1  0.75036872  0.36439753  0.61322633  1
  O  O57  1  0.75099694  0.76830022  0.45385399  1
  O  O58  1  0.72172384  0.86407718  0.61511713  1
  O  O59  1  0.94445803  0.30696344  0.13586946  1
  O  O60  1  0.94347361  0.81215521  0.12947449  1
  O  O61  1  0.94250619  0.06058243  0.62996271  1
  O  O62  1  0.94343520  0.56105214  0.62695756  1
