# generated using pymatgen
data_K4Mo3H4O17
_symmetry_space_group_name_H-M   'P 1'
_cell_length_a   8.65902886
_cell_length_b   12.47728116
_cell_length_c   8.61007713
_cell_angle_alpha   104.41400880
_cell_angle_beta   103.78991659
_cell_angle_gamma   103.22016691
_symmetry_Int_Tables_number   1
_chemical_formula_structural   K4Mo3H4O17
_chemical_formula_sum   'K8 Mo6 H8 O34'
_cell_volume   832.95886348
_cell_formula_units_Z   2
loop_
 _symmetry_equiv_pos_site_id
 _symmetry_equiv_pos_as_xyz
  1  'x, y, z'
loop_
 _atom_site_type_symbol
 _atom_site_label
 _atom_site_symmetry_multiplicity
 _atom_site_fract_x
 _atom_site_fract_y
 _atom_site_fract_z
 _atom_site_occupancy
  K  K0  1  0.69618298  0.57569021  0.43404565  1
  K  K1  1  0.30381702  0.42430979  0.56595435  1
  K  K2  1  0.44272799  0.03875242  0.76543066  1
  K  K3  1  0.55727201  0.96124758  0.23456934  1
  K  K4  1  0.02531145  0.91617154  0.15793645  1
  K  K5  1  0.97468855  0.08382846  0.84206355  1
  K  K6  1  0.76499941  0.52128764  0.92652719  1
  K  K7  1  0.23500059  0.47871236  0.07347281  1
  Mo  Mo8  1  0.58451114  0.77433356  0.77125668  1
  Mo  Mo9  1  0.41548886  0.22566644  0.22874332  1
  Mo  Mo10  1  0.14196697  0.73856327  0.79937818  1
  Mo  Mo11  1  0.85803303  0.26143673  0.20062182  1
  Mo  Mo12  1  0.18954285  0.72791664  0.41344117  1
  Mo  Mo13  1  0.81045715  0.27208336  0.58655883  1
  H  H14  1  0.67357958  0.70588195  0.20266316  1
  H  H15  1  0.32642042  0.29411805  0.79733684  1
  H  H16  1  0.52480813  0.64595458  0.03975346  1
  H  H17  1  0.47519187  0.35404542  0.96024654  1
  H  H18  1  0.76695066  0.83393275  0.50198356  1
  H  H19  1  0.23304934  0.16606725  0.49801644  1
  H  H20  1  0.84464404  0.91436393  0.41162944  1
  H  H21  1  0.15535596  0.08563607  0.58837056  1
  O  O22  1  0.15686180  0.90678542  0.82527684  1
  O  O23  1  0.84313820  0.09321458  0.17472316  1
  O  O24  1  0.25510825  0.89235326  0.97968932  1
  O  O25  1  0.74489175  0.10764674  0.02031068  1
  O  O26  1  0.28865817  0.67074811  0.93549495  1
  O  O27  1  0.71134183  0.32925189  0.06450505  1
  O  O28  1  0.19414480  0.58851742  0.76445002  1
  O  O29  1  0.80585520  0.41148258  0.23554998  1
  O  O30  1  0.19221636  0.89725462  0.46950206  1
  O  O31  1  0.80778364  0.10274538  0.53049794  1
  O  O32  1  0.32908725  0.87494359  0.40391771  1
  O  O33  1  0.67091275  0.12505641  0.59608229  1
  O  O34  1  0.36923785  0.66098211  0.37431960  1
  O  O35  1  0.63076215  0.33901789  0.62568040  1
  O  O36  1  0.24284113  0.58142892  0.41600342  1
  O  O37  1  0.75715887  0.41857108  0.58399658  1
  O  O38  1  0.37338264  0.79303038  0.70275130  1
  O  O39  1  0.62661736  0.20696962  0.29724870  1
  O  O40  1  0.04683041  0.69922827  0.55357887  1
  O  O41  1  0.95316959  0.30077173  0.44642113  1
  O  O42  1  0.95940677  0.70127031  0.85124056  1
  O  O43  1  0.04059323  0.29872969  0.14875944  1
  O  O44  1  0.04425390  0.67564810  0.21251335  1
  O  O45  1  0.95574610  0.32435190  0.78748665  1
  O  O46  1  0.71924126  0.85136373  0.67900946  1
  O  O47  1  0.28075874  0.14863627  0.32099054  1
  O  O48  1  0.66996654  0.83422602  0.99473411  1
  O  O49  1  0.33003346  0.16577398  0.00526589  1
  O  O50  1  0.57298740  0.62490662  0.71165495  1
  O  O51  1  0.42701260  0.37509338  0.28834505  1
  O  O52  1  0.60067449  0.62792861  0.12673607  1
  O  O53  1  0.39932551  0.37207139  0.87326393  1
  O  O54  1  0.78963006  0.83297494  0.39202052  1
  O  O55  1  0.21036994  0.16702506  0.60797948  1
