# generated using pymatgen
data_NaFeP3H7O13
_symmetry_space_group_name_H-M   'P 1'
_cell_length_a   8.91854684
_cell_length_b   12.71062632
_cell_length_c   19.10278176
_cell_angle_alpha   90.00000000
_cell_angle_beta   90.00000000
_cell_angle_gamma   90.00000000
_symmetry_Int_Tables_number   1
_chemical_formula_structural   NaFeP3H7O13
_chemical_formula_sum   'Na8 Fe8 P24 H56 O104'
_cell_volume   2165.49738063
_cell_formula_units_Z   8
loop_
 _symmetry_equiv_pos_site_id
 _symmetry_equiv_pos_as_xyz
  1  'x, y, z'
loop_
 _atom_site_type_symbol
 _atom_site_label
 _atom_site_symmetry_multiplicity
 _atom_site_fract_x
 _atom_site_fract_y
 _atom_site_fract_z
 _atom_site_occupancy
  Na  Na0  1  0.19134570  0.98492537  0.26835222  1
  Na  Na1  1  0.30865430  0.51507463  0.76835222  1
  Na  Na2  1  0.69134570  0.51507463  0.73164778  1
  Na  Na3  1  0.80865430  0.98492537  0.23164778  1
  Na  Na4  1  0.80865430  0.01507463  0.73164778  1
  Na  Na5  1  0.69134570  0.48492537  0.23164778  1
  Na  Na6  1  0.30865430  0.48492537  0.26835222  1
  Na  Na7  1  0.19134570  0.01507463  0.76835222  1
  Fe  Fe8  1  0.25149736  0.75376090  0.87505726  1
  Fe  Fe9  1  0.24850264  0.74623910  0.37505726  1
  Fe  Fe10  1  0.75149736  0.74623910  0.12494274  1
  Fe  Fe11  1  0.74850264  0.75376090  0.62494274  1
  Fe  Fe12  1  0.74850264  0.24623910  0.12494274  1
  Fe  Fe13  1  0.75149736  0.25376090  0.62494274  1
  Fe  Fe14  1  0.24850264  0.25376090  0.87505726  1
  Fe  Fe15  1  0.25149736  0.24623910  0.37505726  1
  P  P16  1  0.05108528  0.79152040  0.02132032  1
  P  P17  1  0.44891472  0.70847960  0.52132032  1
  P  P18  1  0.55108528  0.70847960  0.97867968  1
  P  P19  1  0.94891472  0.79152040  0.47867968  1
  P  P20  1  0.94891472  0.20847960  0.97867968  1
  P  P21  1  0.55108528  0.29152040  0.47867968  1
  P  P22  1  0.44891472  0.29152040  0.02132032  1
  P  P23  1  0.05108528  0.20847960  0.52132032  1
  P  P24  1  0.50000000  0.78844665  0.75000000  1
  P  P25  1  0.00000000  0.71155335  0.25000000  1
  P  P26  1  0.50000000  0.21155335  0.25000000  1
  P  P27  1  0.00000000  0.28844665  0.75000000  1
  P  P28  1  0.00000000  0.70746435  0.75000000  1
  P  P29  1  0.50000000  0.79253565  0.25000000  1
  P  P30  1  0.00000000  0.29253565  0.25000000  1
  P  P31  1  0.50000000  0.20746435  0.75000000  1
  P  P32  1  0.15225413  0.50469950  0.91097960  1
  P  P33  1  0.34774587  0.99530050  0.41097960  1
  P  P34  1  0.65225413  0.99530050  0.08902040  1
  P  P35  1  0.84774587  0.50469950  0.58902040  1
  P  P36  1  0.84774587  0.49530050  0.08902040  1
  P  P37  1  0.65225413  0.00469950  0.58902040  1
  P  P38  1  0.34774587  0.00469950  0.91097960  1
  P  P39  1  0.15225413  0.49530050  0.41097960  1
  H  H40  1  0.17311850  0.94457876  0.01839002  1
  H  H41  1  0.32688150  0.55542124  0.51839002  1
  H  H42  1  0.67311850  0.55542124  0.98160998  1
  H  H43  1  0.82688150  0.94457876  0.48160998  1
  H  H44  1  0.82688150  0.05542124  0.98160998  1
  H  H45  1  0.67311850  0.44457876  0.48160998  1
  H  H46  1  0.32688150  0.44457876  0.01839002  1
  H  H47  1  0.17311850  0.05542124  0.51839002  1
  H  H48  1  0.25413523  0.70497294  0.04144724  1
  H  H49  1  0.24586477  0.79502706  0.54144724  1
  H  H50  1  0.75413523  0.79502706  0.95855276  1
  H  H51  1  0.74586477  0.70497294  0.45855276  1
  H  H52  1  0.74586477  0.29502706  0.95855276  1
  H  H53  1  0.75413523  0.20497294  0.45855276  1
  H  H54  1  0.24586477  0.20497294  0.04144724  1
  H  H55  1  0.25413523  0.29502706  0.54144724  1
  H  H56  1  0.62415528  0.84908667  0.83944473  1
  H  H57  1  0.87584472  0.65091333  0.33944473  1
  H  H58  1  0.12415528  0.65091333  0.16055527  1
  H  H59  1  0.37584472  0.84908667  0.66055527  1
  H  H60  1  0.37584472  0.15091333  0.16055527  1
  H  H61  1  0.12415528  0.34908667  0.66055527  1
  H  H62  1  0.87584472  0.34908667  0.83944473  1
  H  H63  1  0.62415528  0.15091333  0.33944473  1
  H  H64  1  0.07716246  0.59589518  0.66623007  1
  H  H65  1  0.42283754  0.90410482  0.16623007  1
  H  H66  1  0.57716246  0.90410482  0.33376993  1
  H  H67  1  0.92283754  0.59589518  0.83376993  1
  H  H68  1  0.92283754  0.40410482  0.33376993  1
  H  H69  1  0.57716246  0.09589518  0.83376993  1
  H  H70  1  0.42283754  0.09589518  0.66623007  1
  H  H71  1  0.07716246  0.40410482  0.16623007  1
  H  H72  1  0.91084804  0.50575550  0.94858614  1
  H  H73  1  0.58915196  0.99424450  0.44858614  1
  H  H74  1  0.41084804  0.99424450  0.05141386  1
  H  H75  1  0.08915196  0.50575550  0.55141386  1
  H  H76  1  0.08915196  0.49424450  0.05141386  1
  H  H77  1  0.41084804  0.00575550  0.55141386  1
  H  H78  1  0.58915196  0.00575550  0.94858614  1
  H  H79  1  0.91084804  0.49424450  0.44858614  1
  H  H80  1  0.05981963  0.99182745  0.12508706  1
  H  H81  1  0.44018037  0.50817255  0.62508706  1
  H  H82  1  0.55981963  0.50817255  0.87491294  1
  H  H83  1  0.94018037  0.99182745  0.37491294  1
  H  H84  1  0.94018037  0.00817255  0.87491294  1
  H  H85  1  0.55981963  0.49182745  0.37491294  1
  H  H86  1  0.44018037  0.49182745  0.12508706  1
  H  H87  1  0.05981963  0.00817255  0.62508706  1
  H  H88  1  0.02655471  0.10047398  0.16320146  1
  H  H89  1  0.47344529  0.39952602  0.66320146  1
  H  H90  1  0.52655471  0.39952602  0.83679854  1
  H  H91  1  0.97344529  0.10047398  0.33679854  1
  H  H92  1  0.97344529  0.89952602  0.83679854  1
  H  H93  1  0.52655471  0.60047398  0.33679854  1
  H  H94  1  0.47344529  0.60047398  0.16320146  1
  H  H95  1  0.02655471  0.89952602  0.66320146  1
  O  O96  1  0.08232756  0.77729331  0.94379499  1
  O  O97  1  0.41767244  0.72270669  0.44379499  1
  O  O98  1  0.58232756  0.72270669  0.05620501  1
  O  O99  1  0.91767244  0.77729331  0.55620501  1
  O  O100  1  0.91767244  0.22270669  0.05620501  1
  O  O101  1  0.58232756  0.27729331  0.55620501  1
  O  O102  1  0.41767244  0.27729331  0.94379499  1
  O  O103  1  0.08232756  0.22270669  0.44379499  1
  O  O104  1  0.89000755  0.76535071  0.04060067  1
  O  O105  1  0.60999245  0.73464929  0.54060067  1
  O  O106  1  0.39000755  0.73464929  0.95939933  1
  O  O107  1  0.10999245  0.76535071  0.45939933  1
  O  O108  1  0.10999245  0.23464929  0.95939933  1
  O  O109  1  0.39000755  0.26535071  0.45939933  1
  O  O110  1  0.60999245  0.26535071  0.04060067  1
  O  O111  1  0.89000755  0.23464929  0.54060067  1
  O  O112  1  0.08592101  0.90789120  0.04516277  1
  O  O113  1  0.41407899  0.59210880  0.54516277  1
  O  O114  1  0.58592101  0.59210880  0.95483723  1
  O  O115  1  0.91407899  0.90789120  0.45483723  1
  O  O116  1  0.91407899  0.09210880  0.95483723  1
  O  O117  1  0.58592101  0.40789120  0.45483723  1
  O  O118  1  0.41407899  0.40789120  0.04516277  1
  O  O119  1  0.08592101  0.09210880  0.54516277  1
  O  O120  1  0.15837592  0.71553948  0.06651373  1
  O  O121  1  0.34162408  0.78446052  0.56651373  1
  O  O122  1  0.65837592  0.78446052  0.93348627  1
  O  O123  1  0.84162408  0.71553948  0.43348627  1
  O  O124  1  0.84162408  0.28446052  0.93348627  1
  O  O125  1  0.65837592  0.21553948  0.43348627  1
  O  O126  1  0.34162408  0.21553948  0.06651373  1
  O  O127  1  0.15837592  0.28446052  0.56651373  1
  O  O128  1  0.41580623  0.72192669  0.80355262  1
  O  O129  1  0.08419377  0.77807331  0.30355262  1
  O  O130  1  0.91580623  0.77807331  0.19644738  1
  O  O131  1  0.58419377  0.72192669  0.69644738  1
  O  O132  1  0.58419377  0.27807331  0.19644738  1
  O  O133  1  0.91580623  0.22192669  0.69644738  1
  O  O134  1  0.08419377  0.22192669  0.80355262  1
  O  O135  1  0.41580623  0.27807331  0.30355262  1
  O  O136  1  0.61095423  0.86663894  0.78959396  1
  O  O137  1  0.88904577  0.63336106  0.28959396  1
  O  O138  1  0.11095423  0.63336106  0.21040604  1
  O  O139  1  0.38904577  0.86663894  0.71040604  1
  O  O140  1  0.38904577  0.13336106  0.21040604  1
  O  O141  1  0.11095423  0.36663894  0.71040604  1
  O  O142  1  0.88904577  0.36663894  0.78959396  1
  O  O143  1  0.61095423  0.13336106  0.28959396  1
  O  O144  1  0.09263629  0.77517717  0.79945451  1
  O  O145  1  0.40736371  0.72482283  0.29945451  1
  O  O146  1  0.59263629  0.72482283  0.20054549  1
  O  O147  1  0.90736371  0.77517717  0.70054549  1
  O  O148  1  0.90736371  0.22482283  0.20054549  1
  O  O149  1  0.59263629  0.27517717  0.70054549  1
  O  O150  1  0.40736371  0.27517717  0.79945451  1
  O  O151  1  0.09263629  0.22482283  0.29945451  1
  O  O152  1  0.11460129  0.63361037  0.70895135  1
  O  O153  1  0.38539871  0.86638963  0.20895135  1
  O  O154  1  0.61460129  0.86638963  0.29104865  1
  O  O155  1  0.88539871  0.63361037  0.79104865  1
  O  O156  1  0.88539871  0.36638963  0.29104865  1
  O  O157  1  0.61460129  0.13361037  0.79104865  1
  O  O158  1  0.38539871  0.13361037  0.70895135  1
  O  O159  1  0.11460129  0.36638963  0.20895135  1
  O  O160  1  0.97419732  0.51682831  0.90401324  1
  O  O161  1  0.52580268  0.98317169  0.40401324  1
  O  O162  1  0.47419732  0.98317169  0.09598676  1
  O  O163  1  0.02580268  0.51682831  0.59598676  1
  O  O164  1  0.02580268  0.48317169  0.09598676  1
  O  O165  1  0.47419732  0.01682831  0.59598676  1
  O  O166  1  0.52580268  0.01682831  0.90401324  1
  O  O167  1  0.97419732  0.48317169  0.40401324  1
  O  O168  1  0.19376807  0.50077818  0.98884257  1
  O  O169  1  0.30623193  0.99922182  0.48884257  1
  O  O170  1  0.69376807  0.99922182  0.01115743  1
  O  O171  1  0.80623193  0.50077818  0.51115743  1
  O  O172  1  0.80623193  0.49922182  0.01115743  1
  O  O173  1  0.69376807  0.00077818  0.51115743  1
  O  O174  1  0.30623193  0.00077818  0.98884257  1
  O  O175  1  0.19376807  0.49922182  0.48884257  1
  O  O176  1  0.21665212  0.59907927  0.87076682  1
  O  O177  1  0.28334788  0.90092073  0.37076682  1
  O  O178  1  0.71665212  0.90092073  0.12923318  1
  O  O179  1  0.78334788  0.59907927  0.62923318  1
  O  O180  1  0.78334788  0.40092073  0.12923318  1
  O  O181  1  0.71665212  0.09907927  0.62923318  1
  O  O182  1  0.28334788  0.09907927  0.87076682  1
  O  O183  1  0.21665212  0.40092073  0.37076682  1
  O  O184  1  0.20208238  0.40674878  0.86969405  1
  O  O185  1  0.29791762  0.09325122  0.36969405  1
  O  O186  1  0.70208238  0.09325122  0.13030595  1
  O  O187  1  0.79791762  0.40674878  0.63030595  1
  O  O188  1  0.79791762  0.59325122  0.13030595  1
  O  O189  1  0.70208238  0.90674878  0.63030595  1
  O  O190  1  0.29791762  0.90674878  0.86969405  1
  O  O191  1  0.20208238  0.59325122  0.36969405  1
  O  O192  1  0.05640612  0.02727593  0.17081198  1
  O  O193  1  0.44359388  0.47272407  0.67081198  1
  O  O194  1  0.55640612  0.47272407  0.82918802  1
  O  O195  1  0.94359388  0.02727593  0.32918802  1
  O  O196  1  0.94359388  0.97272407  0.82918802  1
  O  O197  1  0.55640612  0.52727593  0.32918802  1
  O  O198  1  0.44359388  0.52727593  0.17081198  1
  O  O199  1  0.05640612  0.97272407  0.67081198  1
