# generated using pymatgen
data_Li8HfO6
_symmetry_space_group_name_H-M   'P 1'
_cell_length_a   6.07981565
_cell_length_b   6.07981565
_cell_length_c   6.07981581
_cell_angle_alpha   53.94398848
_cell_angle_beta   53.94398848
_cell_angle_gamma   53.94398367
_symmetry_Int_Tables_number   1
_chemical_formula_structural   Li8HfO6
_chemical_formula_sum   'Li8 Hf1 O6'
_cell_volume   136.42857599
_cell_formula_units_Z   1
loop_
 _symmetry_equiv_pos_site_id
 _symmetry_equiv_pos_as_xyz
  1  'x, y, z'
loop_
 _atom_site_type_symbol
 _atom_site_label
 _atom_site_symmetry_multiplicity
 _atom_site_fract_x
 _atom_site_fract_y
 _atom_site_fract_z
 _atom_site_occupancy
  Li  Li0  1  0.10300431  0.76563892  0.49532765  1
  Li  Li1  1  0.50467135  0.89699569  0.23436108  1
  Li  Li2  1  0.23436108  0.50467135  0.89699569  1
  Li  Li3  1  0.34461569  0.34461569  0.34461569  1
  Li  Li4  1  0.65538431  0.65538431  0.65538431  1
  Li  Li5  1  0.76563892  0.49532765  0.10300431  1
  Li  Li6  1  0.49532765  0.10300431  0.76563892  1
  Li  Li7  1  0.89699569  0.23436108  0.50467135  1
  Hf  Hf8  1  0.00000000  0.00000000  0.00000000  1
  O  O9  1  0.23405182  0.90811174  0.61585602  1
  O  O10  1  0.38414398  0.76594818  0.09188826  1
  O  O11  1  0.09188826  0.38414398  0.76594818  1
  O  O12  1  0.90811174  0.61585602  0.23405182  1
  O  O13  1  0.61585602  0.23405182  0.90811174  1
  O  O14  1  0.76594818  0.09188826  0.38414398  1
