# generated using pymatgen
data_SrTaNO2
_symmetry_space_group_name_H-M   'P 1'
_cell_length_a   5.77452356
_cell_length_b   5.79524273
_cell_length_c   8.06741843
_cell_angle_alpha   90.00000000
_cell_angle_beta   90.00000000
_cell_angle_gamma   89.61593457
_symmetry_Int_Tables_number   1
_chemical_formula_structural   SrTaNO2
_chemical_formula_sum   'Sr4 Ta4 N4 O8'
_cell_volume   269.96820234
_cell_formula_units_Z   4
loop_
 _symmetry_equiv_pos_site_id
 _symmetry_equiv_pos_as_xyz
  1  'x, y, z'
loop_
 _atom_site_type_symbol
 _atom_site_label
 _atom_site_symmetry_multiplicity
 _atom_site_fract_x
 _atom_site_fract_y
 _atom_site_fract_z
 _atom_site_occupancy
  Sr  Sr0  1  0.00433034  0.00485727  0.24699505  1
  Sr  Sr1  1  0.50544561  0.50571699  0.24887668  1
  Sr  Sr2  1  0.49455439  0.49428301  0.74887668  1
  Sr  Sr3  1  0.99566966  0.99514273  0.74699505  1
  Ta  Ta4  1  0.00416713  0.48357858  0.49849540  1
  Ta  Ta5  1  0.99583287  0.51642142  0.99849540  1
  Ta  Ta6  1  0.49536513  0.98356684  0.99797067  1
  Ta  Ta7  1  0.50463487  0.01643316  0.49797067  1
  N  N8  1  0.23639328  0.76622706  0.00001770  1
  N  N9  1  0.26342695  0.26628917  0.47456282  1
  N  N10  1  0.73657305  0.73371083  0.97456282  1
  N  N11  1  0.76360672  0.23377294  0.50001770  1
  O  O12  1  0.22273253  0.77144401  0.50161055  1
  O  O13  1  0.52563339  0.96926443  0.25090160  1
  O  O14  1  0.02945668  0.47324062  0.75072650  1
  O  O15  1  0.27669575  0.27050866  0.02984303  1
  O  O16  1  0.72330425  0.72949134  0.52984303  1
  O  O17  1  0.47436661  0.03073557  0.75090160  1
  O  O18  1  0.97054332  0.52675938  0.25072650  1
  O  O19  1  0.77726747  0.22855599  0.00161055  1
