# generated using pymatgen
data_Fe3P2(H2O3)4
_symmetry_space_group_name_H-M   'P 1'
_cell_length_a   10.68397786
_cell_length_b   4.72290685
_cell_length_c   9.39350779
_cell_angle_alpha   90.00000000
_cell_angle_beta   100.32407778
_cell_angle_gamma   90.00000000
_symmetry_Int_Tables_number   1
_chemical_formula_structural   Fe3P2(H2O3)4
_chemical_formula_sum   'Fe6 P4 H16 O24'
_cell_volume   466.31706501
_cell_formula_units_Z   2
loop_
 _symmetry_equiv_pos_site_id
 _symmetry_equiv_pos_as_xyz
  1  'x, y, z'
loop_
 _atom_site_type_symbol
 _atom_site_label
 _atom_site_symmetry_multiplicity
 _atom_site_fract_x
 _atom_site_fract_y
 _atom_site_fract_z
 _atom_site_occupancy
  Fe  Fe0  1  0.50000000  0.50000000  0.00000000  1
  Fe  Fe1  1  0.00000000  0.00000000  0.00000000  1
  Fe  Fe2  1  0.67212591  0.43028138  0.32933515  1
  Fe  Fe3  1  0.82787409  0.93028138  0.67066485  1
  Fe  Fe4  1  0.32787409  0.56971862  0.67066485  1
  Fe  Fe5  1  0.17212591  0.06971862  0.32933515  1
  P  P6  1  0.95197104  0.53143720  0.23745070  1
  P  P7  1  0.54802896  0.03143720  0.76254930  1
  P  P8  1  0.04802896  0.46856280  0.76254930  1
  P  P9  1  0.45197104  0.96856280  0.23745070  1
  H  H10  1  0.64642234  0.06999228  0.06148284  1
  H  H11  1  0.85357766  0.56999228  0.93851716  1
  H  H12  1  0.35357766  0.93000772  0.93851716  1
  H  H13  1  0.14642234  0.43000772  0.06148284  1
  H  H14  1  0.76370700  0.28951393  0.09079552  1
  H  H15  1  0.73629300  0.78951393  0.90920448  1
  H  H16  1  0.23629300  0.71048607  0.90920448  1
  H  H17  1  0.26370700  0.21048607  0.09079552  1
  H  H18  1  0.83044878  0.93773623  0.39094356  1
  H  H19  1  0.66955122  0.43773623  0.60905644  1
  H  H20  1  0.16955122  0.06226377  0.60905644  1
  H  H21  1  0.33044878  0.56226377  0.39094356  1
  H  H22  1  0.90701673  0.21528935  0.44490268  1
  H  H23  1  0.59298327  0.71528935  0.55509732  1
  H  H24  1  0.09298327  0.78471065  0.55509732  1
  H  H25  1  0.40701673  0.28471065  0.44490268  1
  O  O26  1  0.53475029  0.71895597  0.19851524  1
  O  O27  1  0.96524971  0.21895597  0.80148476  1
  O  O28  1  0.46524971  0.28104403  0.80148476  1
  O  O29  1  0.03475029  0.78104403  0.19851524  1
  O  O30  1  0.90658316  0.34768846  0.09768252  1
  O  O31  1  0.59341684  0.84768846  0.90231748  1
  O  O32  1  0.09341684  0.65231154  0.90231748  1
  O  O33  1  0.40658316  0.15231154  0.09768252  1
  O  O34  1  0.83175154  0.64693609  0.29046188  1
  O  O35  1  0.66824846  0.14693609  0.70953812  1
  O  O36  1  0.16824846  0.35306391  0.70953812  1
  O  O37  1  0.33175154  0.85306391  0.29046188  1
  O  O38  1  0.53141445  0.15154226  0.35796455  1
  O  O39  1  0.96858555  0.65154226  0.64203545  1
  O  O40  1  0.46858555  0.84845774  0.64203545  1
  O  O41  1  0.03141445  0.34845774  0.35796455  1
  O  O42  1  0.67106894  0.25995071  0.10222589  1
  O  O43  1  0.82893106  0.75995071  0.89777411  1
  O  O44  1  0.32893106  0.74004929  0.89777411  1
  O  O45  1  0.17106894  0.24004929  0.10222589  1
  O  O46  1  0.82771194  0.10999996  0.45451467  1
  O  O47  1  0.67228806  0.60999996  0.54548533  1
  O  O48  1  0.17228806  0.89000004  0.54548533  1
  O  O49  1  0.32771194  0.39000004  0.45451467  1
