# generated using pymatgen
data_Na2TiCr(PO4)3
_symmetry_space_group_name_H-M   'P 1'
_cell_length_a   8.87236190
_cell_length_b   8.87974218
_cell_length_c   8.87974232
_cell_angle_alpha   58.73911387
_cell_angle_beta   58.64410554
_cell_angle_gamma   58.64410341
_symmetry_Int_Tables_number   1
_chemical_formula_structural   Na2TiCr(PO4)3
_chemical_formula_sum   'Na4 Ti2 Cr2 P6 O24'
_cell_volume   479.70940298
_cell_formula_units_Z   2
loop_
 _symmetry_equiv_pos_site_id
 _symmetry_equiv_pos_as_xyz
  1  'x, y, z'
loop_
 _atom_site_type_symbol
 _atom_site_label
 _atom_site_symmetry_multiplicity
 _atom_site_fract_x
 _atom_site_fract_y
 _atom_site_fract_z
 _atom_site_occupancy
  Na  Na0  1  0.00754664  -0.00001758  0.99499416  1
  Na  Na1  1  0.49245336  0.50500584  0.50001758  1
  Na  Na2  1  0.61666965  0.24883075  0.88419832  1
  Na  Na3  1  0.88333035  0.61580168  0.25116925  1
  Ti  Ti4  1  0.14416238  0.14127694  0.14332366  1
  Ti  Ti5  1  0.35583762  0.35667634  0.35872306  1
  Cr  Cr6  1  0.64389001  0.65037371  0.64771103  1
  Cr  Cr7  1  0.85610999  0.85228897  0.84962629  1
  P  P8  1  0.03637296  0.75011383  0.46284024  1
  P  P9  1  0.46362704  0.03715976  0.74988617  1
  P  P10  1  0.75000000  0.46261783  0.03738217  1
  P  P11  1  0.25000000  0.54100261  0.95899739  1
  P  P12  1  0.53569493  0.96013283  0.25434152  1
  P  P13  1  0.96430507  0.24565848  0.53986717  1
  O  O14  1  0.13353655  0.28312807  0.50432053  1
  O  O15  1  0.27929458  0.50639669  0.13376563  1
  O  O16  1  0.06569532  0.92234795  0.27984439  1
  O  O17  1  0.50491788  0.13503797  0.27947481  1
  O  O18  1  0.01307508  0.77794481  0.62963132  1
  O  O19  1  0.21999074  0.57788405  0.43354039  1
  O  O20  1  0.28000926  0.06645961  0.92211595  1
  O  O21  1  0.43430468  0.22015561  0.57765205  1
  O  O22  1  0.57746076  0.43431328  0.22018024  1
  O  O23  1  0.22070542  0.36623437  0.99360331  1
  O  O24  1  0.07563087  0.71947050  0.94222977  1
  O  O25  1  0.36646345  0.99567947  0.21687193  1
  O  O26  1  0.62826563  0.01912963  0.78047135  1
  O  O27  1  0.92253924  0.27981976  0.06568672  1
  O  O28  1  0.78012454  0.62849943  0.01659593  1
  O  O29  1  0.42436913  0.55777023  0.78052950  1
  O  O30  1  0.56529424  0.77650735  0.42023743  1
  O  O31  1  0.71935102  0.93785050  0.08064042  1
  O  O32  1  0.78064898  0.41935958  0.56214950  1
  O  O33  1  0.99508212  0.22052519  0.36496203  1
  O  O34  1  0.48692492  0.87036868  0.72205519  1
  O  O35  1  0.93470576  0.07976257  0.72349265  1
  O  O36  1  0.71987546  0.48340407  0.87150057  1
  O  O37  1  0.87173437  0.71952865  0.48087037  1
