# generated using pymatgen
data_Li9Mn2Co5O16
_symmetry_space_group_name_H-M   'P 1'
_cell_length_a   2.98636547
_cell_length_b   7.79211336
_cell_length_c   12.54385591
_cell_angle_alpha   90.71718747
_cell_angle_beta   90.21279848
_cell_angle_gamma   81.41864772
_symmetry_Int_Tables_number   1
_chemical_formula_structural   Li9Mn2Co5O16
_chemical_formula_sum   'Li9 Mn2 Co5 O16'
_cell_volume   288.60586041
_cell_formula_units_Z   1
loop_
 _symmetry_equiv_pos_site_id
 _symmetry_equiv_pos_as_xyz
  1  'x, y, z'
loop_
 _atom_site_type_symbol
 _atom_site_label
 _atom_site_symmetry_multiplicity
 _atom_site_fract_x
 _atom_site_fract_y
 _atom_site_fract_z
 _atom_site_occupancy
  Li  Li0  1  0.81458876  0.37226330  0.06398547  1
  Li  Li1  1  0.05727590  0.87408432  0.31203863  1
  Li  Li2  1  0.31053815  0.37893651  0.57032237  1
  Li  Li3  1  0.18364040  0.62704640  0.93354660  1
  Li  Li4  1  0.43606747  0.12581790  0.19081646  1
  Li  Li5  1  0.69113126  0.62501439  0.43980664  1
  Li  Li6  1  0.57819833  0.86783978  0.80410547  1
  Li  Li7  1  0.92831656  0.13836004  0.68677173  1
  Li  Li8  1  0.76578186  0.49227622  0.74455365  1
  Mn  Mn9  1  0.99013044  0.99920654  0.00138178  1
  Mn  Mn10  1  0.36206724  0.25951457  0.87044755  1
  Co  Co11  1  0.26123463  0.49992000  0.25107036  1
  Co  Co12  1  0.49714522  0.99913180  0.50200281  1
  Co  Co13  1  0.63636364  0.74719023  0.12466382  1
  Co  Co14  1  0.87962652  0.24961456  0.37732694  1
  Co  Co15  1  0.12754942  0.74098533  0.62863647  1
  O  O16  1  0.36218970  0.18249000  0.02444548  1
  O  O17  1  0.67591847  0.68016269  0.27162749  1
  O  O18  1  0.91008142  0.18382540  0.52519345  1
  O  O19  1  0.79699169  0.41644826  0.90175413  1
  O  O20  1  0.00351317  0.92678667  0.14988628  1
  O  O21  1  0.29817955  0.43263048  0.39865292  1
  O  O22  1  0.14625060  0.70182505  0.76595347  1
  O  O23  1  0.49018274  0.93067047  0.64737221  1
  O  O24  1  0.26560106  0.56878435  0.10131227  1
  O  O25  1  0.45978620  0.06328276  0.35286257  1
  O  O26  1  0.73919921  0.58001810  0.59534152  1
  O  O27  1  0.62408276  0.81360902  0.97410553  1
  O  O28  1  0.84313257  0.31521388  0.22752392  1
  O  O29  1  0.08063299  0.81632773  0.48114680  1
  O  O30  1  0.93388692  0.08450318  0.85277882  1
  O  O31  1  0.35071511  0.30622004  0.72856438  1
