# generated using pymatgen
data_SrTaNO2
_symmetry_space_group_name_H-M   'P 1'
_cell_length_a   5.74053909
_cell_length_b   8.17919663
_cell_length_c   5.73044200
_cell_angle_alpha   89.99785898
_cell_angle_beta   90.82938006
_cell_angle_gamma   89.99851161
_symmetry_Int_Tables_number   1
_chemical_formula_structural   SrTaNO2
_chemical_formula_sum   'Sr4 Ta4 N4 O8'
_cell_volume   269.03324283
_cell_formula_units_Z   4
loop_
 _symmetry_equiv_pos_site_id
 _symmetry_equiv_pos_as_xyz
  1  'x, y, z'
loop_
 _atom_site_type_symbol
 _atom_site_label
 _atom_site_symmetry_multiplicity
 _atom_site_fract_x
 _atom_site_fract_y
 _atom_site_fract_z
 _atom_site_occupancy
  Sr  Sr0  1  0.99420210  0.76549040  0.00709592  1
  Sr  Sr1  1  0.48895672  0.76523351  0.50725974  1
  Sr  Sr2  1  0.49110858  0.26518744  0.48771973  1
  Sr  Sr3  1  0.99535278  0.26552789  0.98449043  1
  Ta  Ta4  1  0.98667608  0.00763008  0.50585524  1
  Ta  Ta5  1  0.98645273  0.52334616  0.50549856  1
  Ta  Ta6  1  0.50224161  0.02437259  0.99253415  1
  Ta  Ta7  1  0.50199684  0.50632579  0.99220317  1
  N  N8  1  0.46097402  0.26540291  0.99814568  1
  N  N9  1  0.73026075  0.02907569  0.72942192  1
  N  N10  1  0.72995695  0.50168688  0.72869676  1
  N  N11  1  0.96945011  0.76547575  0.48293801  1
  O  O12  1  0.05018071  0.26538616  0.50842675  1
  O  O13  1  0.22772798  0.53956920  0.77585332  1
  O  O14  1  0.22776911  0.99124531  0.77615306  1
  O  O15  1  0.28162856  0.00011009  0.27796710  1
  O  O16  1  0.28154661  0.53053343  0.27747657  1
  O  O17  1  0.53535148  0.76540070  0.01350841  1
  O  O18  1  0.77889228  0.04029852  0.22475057  1
  O  O19  1  0.77927501  0.49070351  0.22400491  1
