# generated using pymatgen
data_ErTa3O9
_symmetry_space_group_name_H-M   'P 1'
_cell_length_a   5.27336500
_cell_length_b   7.51807597
_cell_length_c   8.31060195
_cell_angle_alpha   90.00000000
_cell_angle_beta   92.45575285
_cell_angle_gamma   90.00000000
_symmetry_Int_Tables_number   1
_chemical_formula_structural   ErTa3O9
_chemical_formula_sum   'Er2 Ta6 O18'
_cell_volume   329.17586745
_cell_formula_units_Z   2
loop_
 _symmetry_equiv_pos_site_id
 _symmetry_equiv_pos_as_xyz
  1  'x, y, z'
loop_
 _atom_site_type_symbol
 _atom_site_label
 _atom_site_symmetry_multiplicity
 _atom_site_fract_x
 _atom_site_fract_y
 _atom_site_fract_z
 _atom_site_occupancy
  Er  Er0  1  0.03636377  0.75000000  0.43545393  1
  Er  Er1  1  0.96363623  0.25000000  0.56454607  1
  Ta  Ta2  1  0.00000000  0.00000000  0.00000000  1
  Ta  Ta3  1  0.00000000  0.50000000  0.00000000  1
  Ta  Ta4  1  0.46955892  0.99309844  0.69496402  1
  Ta  Ta5  1  0.46955892  0.50690156  0.69496402  1
  Ta  Ta6  1  0.53044108  0.00690156  0.30503598  1
  Ta  Ta7  1  0.53044108  0.49309844  0.30503598  1
  O  O8  1  0.09460354  0.75000000  0.97719333  1
  O  O9  1  0.14708301  0.06577542  0.78385982  1
  O  O10  1  0.14708301  0.43422458  0.78385982  1
  O  O11  1  0.25564437  0.04329920  0.46738335  1
  O  O12  1  0.25564437  0.45670080  0.46738335  1
  O  O13  1  0.33464722  0.75000000  0.65331845  1
  O  O14  1  0.32689784  0.05213966  0.12093041  1
  O  O15  1  0.32689784  0.44786034  0.12093041  1
  O  O16  1  0.41926548  0.75000000  0.31616016  1
  O  O17  1  0.58073452  0.25000000  0.68383984  1
  O  O18  1  0.67310216  0.94786034  0.87906959  1
  O  O19  1  0.67310216  0.55213966  0.87906959  1
  O  O20  1  0.66535278  0.25000000  0.34668155  1
  O  O21  1  0.74435563  0.95670080  0.53261665  1
  O  O22  1  0.74435563  0.54329920  0.53261665  1
  O  O23  1  0.85291699  0.93422458  0.21614018  1
  O  O24  1  0.85291699  0.56577542  0.21614018  1
  O  O25  1  0.90539646  0.25000000  0.02280667  1
