# generated using pymatgen
data_Ag7(PbO3)3
_symmetry_space_group_name_H-M   'P 1'
_cell_length_a   8.91005257
_cell_length_b   8.86112357
_cell_length_c   8.86111895
_cell_angle_alpha   72.09392384
_cell_angle_beta   107.77839725
_cell_angle_gamma   107.77779825
_symmetry_Int_Tables_number   1
_chemical_formula_structural   Ag7(PbO3)3
_chemical_formula_sum   'Ag14 Pb6 O18'
_cell_volume   616.43067152
_cell_formula_units_Z   2
loop_
 _symmetry_equiv_pos_site_id
 _symmetry_equiv_pos_as_xyz
  1  'x, y, z'
loop_
 _atom_site_type_symbol
 _atom_site_label
 _atom_site_symmetry_multiplicity
 _atom_site_fract_x
 _atom_site_fract_y
 _atom_site_fract_z
 _atom_site_occupancy
  Ag  Ag0  1  0.83337209  0.16663959  0.66666207  1
  Ag  Ag1  1  0.16725327  0.33129822  0.83553698  1
  Ag  Ag2  1  0.66665954  0.83331710  0.83331816  1
  Ag  Ag3  1  0.49938792  0.00213755  0.49773953  1
  Ag  Ag4  1  0.07903523  0.92102326  0.92101692  1
  Ag  Ag5  1  0.25502042  0.74498893  0.74498569  1
  Ag  Ag6  1  0.41164744  0.58837586  0.58837072  1
  Ag  Ag7  1  0.58767451  0.41221304  0.41221513  1
  Ag  Ag8  1  0.73973197  0.25135759  0.25135461  1
  Ag  Ag9  1  0.92700349  0.08196427  0.08196609  1
  Ag  Ag10  1  0.00001018  0.50005782  0.50005772  1
  Ag  Ag11  1  0.83337371  0.66665536  0.16664281  1
  Ag  Ag12  1  0.16725044  0.83552963  0.33130601  1
  Ag  Ag13  1  0.49939172  0.49773473  0.00214144  1
  Pb  Pb14  1  0.49857879  0.16573881  0.83881781  1
  Pb  Pb15  1  0.83328817  0.49903872  0.83424340  1
  Pb  Pb16  1  0.16805282  0.16754462  0.49453195  1
  Pb  Pb17  1  0.83328342  0.83426360  0.49901901  1
  Pb  Pb18  1  0.16805387  0.49454781  0.16753504  1
  Pb  Pb19  1  0.49857541  0.83883147  0.16571707  1
  O  O20  1  0.77007645  0.22773187  0.85184858  1
  O  O21  1  0.56176151  0.43844133  0.81508676  1
  O  O22  1  0.89660822  0.10560414  0.48143969  1
  O  O23  1  0.22745733  0.14778275  0.76920937  1
  O  O24  1  0.85194461  0.77156318  0.77154388  1
  O  O25  1  0.48013620  0.89377051  0.89375446  1
  O  O26  1  0.10482474  0.51823935  0.89487492  1
  O  O27  1  0.43924267  0.18560836  0.56411915  1
  O  O28  1  0.81463210  0.56177501  0.56175162  1
  O  O29  1  0.52020266  0.10443054  0.10441540  1
  O  O30  1  0.18657760  0.43962255  0.43960759  1
  O  O31  1  0.89660814  0.48144545  0.10558247  1
  O  O32  1  0.56175512  0.81509154  0.43842697  1
  O  O33  1  0.14651096  0.22898117  0.22896615  1
  O  O34  1  0.77006850  0.85184915  0.22771792  1
  O  O35  1  0.43923734  0.56412466  0.18559954  1
  O  O36  1  0.10482304  0.89489096  0.51823193  1
  O  O37  1  0.22745542  0.76922350  0.14777845  1
