# generated using pymatgen
data_Sr2Hf7O16
_symmetry_space_group_name_H-M   'P 1'
_cell_length_a   6.40625154
_cell_length_b   9.67270386
_cell_length_c   6.40625189
_cell_angle_alpha   109.33865126
_cell_angle_beta   60.00000182
_cell_angle_gamma   109.33865271
_symmetry_Int_Tables_number   1
_chemical_formula_structural   Sr2Hf7O16
_chemical_formula_sum   'Sr2 Hf7 O16'
_cell_volume   317.65878983
_cell_formula_units_Z   1
loop_
 _symmetry_equiv_pos_site_id
 _symmetry_equiv_pos_as_xyz
  1  'x, y, z'
loop_
 _atom_site_type_symbol
 _atom_site_label
 _atom_site_symmetry_multiplicity
 _atom_site_fract_x
 _atom_site_fract_y
 _atom_site_fract_z
 _atom_site_occupancy
  Sr  Sr0  1  0.33336613  0.00009739  0.33336613  1
  Sr  Sr1  1  0.66663387  0.99990261  0.66663387  1
  Hf  Hf2  1  0.00000000  0.00000000  0.00000000  1
  Hf  Hf3  1  0.25367826  0.65388365  0.51397121  1
  Hf  Hf4  1  0.11376583  0.34611635  0.74632174  1
  Hf  Hf5  1  0.48602879  0.34611635  0.11376583  1
  Hf  Hf6  1  0.51397121  0.65388365  0.88623417  1
  Hf  Hf7  1  0.88623417  0.65388365  0.25367826  1
  Hf  Hf8  1  0.74632174  0.34611635  0.48602879  1
  O  O9  1  0.23554715  0.70664044  0.23554715  1
  O  O10  1  0.22802395  0.87152848  0.67882008  1
  O  O11  1  0.15046017  0.41053256  0.41209114  1
  O  O12  1  0.15201976  0.58946744  0.84953983  1
  O  O13  1  0.03531555  0.12847152  0.77197605  1
  O  O14  1  0.32117992  0.12847152  0.03531555  1
  O  O15  1  0.58790886  0.58946744  0.15201976  1
  O  O16  1  0.57089506  0.71268418  0.57089506  1
  O  O17  1  0.42910494  0.28731582  0.42910494  1
  O  O18  1  0.41209114  0.41053256  0.84798024  1
  O  O19  1  0.67882008  0.87152848  0.96468445  1
  O  O20  1  0.96468445  0.87152848  0.22802395  1
  O  O21  1  0.84798024  0.41053256  0.15046017  1
  O  O22  1  0.84953983  0.58946744  0.58790886  1
  O  O23  1  0.77197605  0.12847152  0.32117992  1
  O  O24  1  0.76445285  0.29335956  0.76445285  1
