# generated using pymatgen
data_NaAl11O17
_symmetry_space_group_name_H-M   'P 1'
_cell_length_a   5.65255955
_cell_length_b   11.79235995
_cell_length_c   5.65256029
_cell_angle_alpha   103.86708947
_cell_angle_beta   59.99999851
_cell_angle_gamma   103.86709115
_symmetry_Int_Tables_number   1
_chemical_formula_structural   NaAl11O17
_chemical_formula_sum   'Na1 Al11 O17'
_cell_volume   313.55892759
_cell_formula_units_Z   1
loop_
 _symmetry_equiv_pos_site_id
 _symmetry_equiv_pos_as_xyz
  1  'x, y, z'
loop_
 _atom_site_type_symbol
 _atom_site_label
 _atom_site_symmetry_multiplicity
 _atom_site_fract_x
 _atom_site_fract_y
 _atom_site_fract_z
 _atom_site_occupancy
  Na  Na0  1  0.82789811  0.48369432  0.82789811  1
  Al  Al1  1  0.09620559  0.78403069  0.09620559  1
  Al  Al2  1  0.99986361  0.99958984  0.99986361  1
  Al  Al3  1  0.09620559  0.78403069  0.59161951  1
  Al  Al4  1  0.59161951  0.78403069  0.09620559  1
  Al  Al5  1  0.45041659  0.35125078  0.45041659  1
  Al  Al6  1  0.54987089  0.64961266  0.54987089  1
  Al  Al7  1  0.34997551  0.04992552  0.34997551  1
  Al  Al8  1  0.64940656  0.94821968  0.64940656  1
  Al  Al9  1  0.40573222  0.21467354  0.90447016  1
  Al  Al10  1  0.90447016  0.21467354  0.40573222  1
  Al  Al11  1  0.90447016  0.21467354  0.90447016  1
  O  O12  1  0.29646309  0.88938826  0.29646309  1
  O  O13  1  0.09532419  0.28597356  0.09532419  1
  O  O14  1  0.27848132  0.89914271  0.81033120  1
  O  O15  1  0.19077487  0.10108949  0.19077487  1
  O  O16  1  0.08992499  0.29415206  0.60211353  1
  O  O17  1  0.40110035  0.70894809  0.40110035  1
  O  O18  1  0.60211353  0.29415206  0.08992499  1
  O  O19  1  0.50025146  0.50075437  0.50025146  1
  O  O20  1  0.19077487  0.10108949  0.71954074  1
  O  O21  1  0.81033120  0.89914271  0.27848132  1
  O  O22  1  0.40110035  0.70894809  0.90674639  1
  O  O23  1  0.60211353  0.29415206  0.60211353  1
  O  O24  1  0.90674639  0.70894809  0.40110035  1
  O  O25  1  0.81033120  0.89914271  0.81033120  1
  O  O26  1  0.71954074  0.10108949  0.19077487  1
  O  O27  1  0.70353883  0.11061550  0.70353883  1
  O  O28  1  0.90327159  0.70981377  0.90327159  1
