# generated using pymatgen
data_Li4Cr3Ni3(TeO8)2
_symmetry_space_group_name_H-M   'P 1'
_cell_length_a   5.92117009
_cell_length_b   5.91706886
_cell_length_c   9.62855938
_cell_angle_alpha   89.99980037
_cell_angle_beta   90.79890405
_cell_angle_gamma   119.98084855
_symmetry_Int_Tables_number   1
_chemical_formula_structural   Li4Cr3Ni3(TeO8)2
_chemical_formula_sum   'Li4 Cr3 Ni3 Te2 O16'
_cell_volume   292.16865746
_cell_formula_units_Z   1
loop_
 _symmetry_equiv_pos_site_id
 _symmetry_equiv_pos_as_xyz
  1  'x, y, z'
loop_
 _atom_site_type_symbol
 _atom_site_label
 _atom_site_symmetry_multiplicity
 _atom_site_fract_x
 _atom_site_fract_y
 _atom_site_fract_z
 _atom_site_occupancy
  Li  Li0  1  0.32922806  0.66458724  0.90890283  1
  Li  Li1  1  0.99230464  0.99619010  0.98499168  1
  Li  Li2  1  0.99760487  0.99881686  0.48987846  1
  Li  Li3  1  0.66660097  0.33332545  0.41053697  1
  Cr  Cr4  1  0.17258230  0.83176893  0.21285348  1
  Cr  Cr5  1  0.17257739  0.34085693  0.21285998  1
  Cr  Cr6  1  0.34390469  0.17209759  0.71398325  1
  Ni  Ni7  1  0.65989342  0.82995474  0.21271934  1
  Ni  Ni8  1  0.83165725  0.65962552  0.71262418  1
  Ni  Ni9  1  0.83162589  0.17199273  0.71261024  1
  Te  Te10  1  0.33969302  0.66988258  0.48530704  1
  Te  Te11  1  0.67005049  0.33502284  0.98342073  1
  O  O12  1  0.17621109  0.83250259  0.59023447  1
  O  O13  1  0.03742026  0.51873446  0.34451226  1
  O  O14  1  0.32476707  0.66240948  0.10865847  1
  O  O15  1  0.00740508  0.00372054  0.30321834  1
  O  O16  1  0.00758298  0.00382010  0.79868706  1
  O  O17  1  0.17624013  0.34376137  0.59024726  1
  O  O18  1  0.47659703  0.96444902  0.35008782  1
  O  O19  1  0.47658286  0.51220110  0.35010740  1
  O  O20  1  0.34007445  0.17006239  0.09434259  1
  O  O21  1  0.66584949  0.83296385  0.58917273  1
  O  O22  1  0.50757272  0.47438565  0.85212099  1
  O  O23  1  0.50750061  0.03310748  0.85213658  1
  O  O24  1  0.65988209  0.32983368  0.61019540  1
  O  O25  1  0.83325846  0.66226516  0.09043955  1
  O  O26  1  0.96210564  0.48097099  0.85254402  1
  O  O27  1  0.83322704  0.17099163  0.09044687  1
