# generated using pymatgen
data_La2S2O
_symmetry_space_group_name_H-M   'P 1'
_cell_length_a   8.70065818
_cell_length_b   7.37316220
_cell_length_c   7.23036765
_cell_angle_alpha   90.00000000
_cell_angle_beta   98.54595530
_cell_angle_gamma   90.00000000
_symmetry_Int_Tables_number   1
_chemical_formula_structural   La2S2O
_chemical_formula_sum   'La8 S8 O4'
_cell_volume   458.68795018
_cell_formula_units_Z   4
loop_
 _symmetry_equiv_pos_site_id
 _symmetry_equiv_pos_as_xyz
  1  'x, y, z'
loop_
 _atom_site_type_symbol
 _atom_site_label
 _atom_site_symmetry_multiplicity
 _atom_site_fract_x
 _atom_site_fract_y
 _atom_site_fract_z
 _atom_site_occupancy
  La  La0  1  0.13679875  0.55578629  0.75202754  1
  La  La1  1  0.13679875  0.94421371  0.25202754  1
  La  La2  1  0.41965123  0.13704879  0.68737958  1
  La  La3  1  0.41965123  0.36295121  0.18737958  1
  La  La4  1  0.58034877  0.63704879  0.81262042  1
  La  La5  1  0.58034877  0.86295121  0.31262042  1
  La  La6  1  0.86320125  0.05578629  0.74797246  1
  La  La7  1  0.86320125  0.44421371  0.24797246  1
  S  S8  1  0.07923081  0.22574375  0.52748929  1
  S  S9  1  0.07923081  0.27425625  0.02748929  1
  S  S10  1  0.32340042  0.85536291  0.93706166  1
  S  S11  1  0.32340042  0.64463709  0.43706166  1
  S  S12  1  0.67659958  0.35536291  0.56293834  1
  S  S13  1  0.67659958  0.14463709  0.06293834  1
  S  S14  1  0.92076919  0.72574375  0.97251071  1
  S  S15  1  0.92076919  0.77425625  0.47251071  1
  O  O16  1  0.38263676  0.41515402  0.85045448  1
  O  O17  1  0.38263676  0.08484598  0.35045448  1
  O  O18  1  0.61736324  0.91515402  0.64954552  1
  O  O19  1  0.61736324  0.58484598  0.14954552  1
