# generated using pymatgen
data_Li9Mn2Co5O16
_symmetry_space_group_name_H-M   'P 1'
_cell_length_a   2.96912362
_cell_length_b   7.79256012
_cell_length_c   12.58283078
_cell_angle_alpha   91.09991651
_cell_angle_beta   90.30902831
_cell_angle_gamma   81.55865957
_symmetry_Int_Tables_number   1
_chemical_formula_structural   Li9Mn2Co5O16
_chemical_formula_sum   'Li9 Mn2 Co5 O16'
_cell_volume   287.92194665
_cell_formula_units_Z   1
loop_
 _symmetry_equiv_pos_site_id
 _symmetry_equiv_pos_as_xyz
  1  'x, y, z'
loop_
 _atom_site_type_symbol
 _atom_site_label
 _atom_site_symmetry_multiplicity
 _atom_site_fract_x
 _atom_site_fract_y
 _atom_site_fract_z
 _atom_site_occupancy
  Li  Li0  1  0.80175032  0.37806330  0.05740359  1
  Li  Li1  1  0.06205896  0.87411175  0.31139134  1
  Li  Li2  1  0.31499300  0.37485704  0.56525247  1
  Li  Li3  1  0.20590417  0.61867366  0.93226903  1
  Li  Li4  1  0.44346479  0.12376850  0.18886714  1
  Li  Li5  1  0.69053839  0.62454906  0.43834933  1
  Li  Li6  1  0.55051288  0.88712466  0.81158548  1
  Li  Li7  1  0.93206241  0.12822097  0.69697715  1
  Li  Li8  1  0.39315230  0.24090306  0.87084898  1
  Mn  Mn9  1  0.99063413  0.00697967  0.99649811  1
  Mn  Mn10  1  0.49960140  -0.00113068  0.50135821  1
  Co  Co11  1  0.25563992  0.50001906  0.24625374  1
  Co  Co12  1  0.75641271  0.48923623  0.75547550  1
  Co  Co13  1  0.61683410  0.75271592  0.12450052  1
  Co  Co14  1  0.86985498  0.25260082  0.37586367  1
  Co  Co15  1  0.13174937  0.74706875  0.62945571  1
  O  O16  1  0.42541677  0.16513430  0.02827130  1
  O  O17  1  0.66904318  0.68012286  0.26925985  1
  O  O18  1  0.86545379  0.18491845  0.52443190  1
  O  O19  1  0.77561390  0.45024571  0.89192230  1
  O  O20  1  -0.00346291  0.92824817  0.14833444  1
  O  O21  1  0.28285097  0.43209118  0.39810193  1
  O  O22  1  0.12133222  0.67882029  0.77410649  1
  O  O23  1  0.54538690  0.93089748  0.65041496  1
  O  O24  1  0.25075733  0.57284290  0.09613445  1
  O  O25  1  0.45674940  0.06909546  0.35081122  1
  O  O26  1  0.71177872  0.56531460  0.60842595  1
  O  O27  1  0.56052887  0.83336509  0.97979713  1
  O  O28  1  0.84242997  0.32049543  0.22351605  1
  O  O29  1  0.13755966  0.80946553  0.47713869  1
  O  O30  1  0.97726840  0.05308653  0.85540681  1
  O  O31  1  0.36612900  0.32809426  0.72157456  1
