# generated using pymatgen
data_Li35(RuO4)12
_symmetry_space_group_name_H-M   'P 1'
_cell_length_a   10.32545887
_cell_length_b   9.88080763
_cell_length_c   10.32545887
_cell_angle_alpha   69.05802590
_cell_angle_beta   70.50730994
_cell_angle_gamma   69.05802590
_symmetry_Int_Tables_number   1
_chemical_formula_structural   Li35(RuO4)12
_chemical_formula_sum   'Li35 Ru12 O48'
_cell_volume   892.88828927
_cell_formula_units_Z   1
loop_
 _symmetry_equiv_pos_site_id
 _symmetry_equiv_pos_as_xyz
  1  'x, y, z'
loop_
 _atom_site_type_symbol
 _atom_site_label
 _atom_site_symmetry_multiplicity
 _atom_site_fract_x
 _atom_site_fract_y
 _atom_site_fract_z
 _atom_site_occupancy
  Li  Li0  1  0.23416990  0.58310432  0.09960092  1
  Li  Li1  1  0.09963436  0.08236485  0.23435178  1
  Li  Li2  1  0.43827250  0.74927799  0.05970546  1
  Li  Li3  1  0.06045921  0.25043845  0.43963692  1
  Li  Li4  1  0.40650569  0.91479726  0.26776081  1
  Li  Li5  1  0.64055409  0.91228483  0.03299378  1
  Li  Li6  1  0.14078644  0.91678914  0.52603507  1
  Li  Li7  1  0.52617153  0.41699278  0.14105727  1
  Li  Li8  1  0.26620481  0.41762916  0.40087185  1
  Li  Li9  1  0.02657555  0.41571427  0.64011167  1
  Li  Li10  1  0.72751891  0.58610058  0.10898466  1
  Li  Li11  1  0.22744281  0.58310118  0.60630629  1
  Li  Li12  1  0.60780986  0.07695835  0.22790101  1
  Li  Li13  1  0.10619571  0.08404657  0.72669893  1
  Li  Li14  1  0.92725222  0.75000000  0.07274778  1
  Li  Li15  1  0.19309490  0.75000000  0.80690510  1
  Li  Li16  1  0.43615736  0.75000000  0.56384264  1
  Li  Li17  1  0.06799081  0.25000000  0.93200919  1
  Li  Li18  1  0.80680969  0.25000000  0.19319031  1
  Li  Li19  1  0.56745821  0.25000000  0.43254179  1
  Li  Li20  1  0.30771302  0.25000000  0.69228698  1
  Li  Li21  1  0.89101534  0.91389942  0.27248109  1
  Li  Li22  1  0.39369371  0.91689882  0.77255719  1
  Li  Li23  1  0.27330107  0.41595343  0.89380429  1
  Li  Li24  1  0.77209899  0.42304165  0.39219014  1
  Li  Li25  1  0.96700622  0.58771517  0.35944591  1
  Li  Li26  1  0.73223919  0.58520274  0.59349431  1
  Li  Li27  1  0.47396493  0.58321086  0.85921356  1
  Li  Li28  1  0.85894273  0.08300722  0.47382847  1
  Li  Li29  1  0.35988833  0.08428573  0.97342445  1
  Li  Li30  1  0.59912815  0.08237084  0.73379519  1
  Li  Li31  1  0.94029454  0.75072201  0.56172750  1
  Li  Li32  1  0.56036308  0.24956155  0.93954079  1
  Li  Li33  1  0.90039908  0.91689568  0.76583010  1
  Li  Li34  1  0.76564822  0.41763515  0.90036564  1
  Ru  Ru35  1  0.15450457  0.91689785  0.01186771  1
  Ru  Ru36  1  0.01371750  0.41413277  0.15385263  1
  Ru  Ru37  1  0.17917837  0.74930289  0.32144984  1
  Ru  Ru38  1  0.32241929  0.24902583  0.17885446  1
  Ru  Ru39  1  0.48995483  0.58552305  0.34435427  1
  Ru  Ru40  1  0.34455515  0.08428848  0.48934676  1
  Ru  Ru41  1  0.65564573  0.91447695  0.51004517  1
  Ru  Ru42  1  0.51065324  0.41571152  0.65544485  1
  Ru  Ru43  1  0.67855016  0.75069711  0.82082163  1
  Ru  Ru44  1  0.82114554  0.25097417  0.67758071  1
  Ru  Ru45  1  0.98813229  0.58310215  0.84549543  1
  Ru  Ru46  1  0.84614737  0.08586723  0.98628250  1
  O  O47  1  0.07378436  0.75645236  0.18668642  1
  O  O48  1  0.25860002  0.90991021  0.14685214  1
  O  O49  1  0.19012380  0.25363693  0.07264989  1
  O  O50  1  0.03446756  0.90694245  0.39337408  1
  O  O51  1  0.14836029  0.40835147  0.25837859  1
  O  O52  1  0.39382073  0.40693908  0.03342885  1
  O  O53  1  0.10672255  0.59294396  0.46671471  1
  O  O54  1  0.35207604  0.58961893  0.24156303  1
  O  O55  1  0.46862906  0.09141734  0.10744973  1
  O  O56  1  0.31421211  0.74354397  0.42607476  1
  O  O57  1  0.24091742  0.09025738  0.35328612  1
  O  O58  1  0.55338891  0.73978976  0.19482229  1
  O  O59  1  0.05974784  0.74074594  0.70010750  1
  O  O60  1  0.42548251  0.24410777  0.31403827  1
  O  O61  1  0.77642408  0.93099554  0.12794102  1
  O  O62  1  0.27227804  0.92685913  0.63372146  1
  O  O63  1  0.70059406  0.24252858  0.05867591  1
  O  O64  1  0.19828141  0.24281142  0.56045373  1
  O  O65  1  0.02045552  0.92450962  0.90626635  1
  O  O66  1  0.51588977  0.92739666  0.40998861  1
  O  O67  1  0.13351275  0.42625282  0.77311052  1
  O  O68  1  0.63404234  0.42693138  0.27343715  1
  O  O69  1  0.90805312  0.42238248  0.01877958  1
  O  O70  1  0.40702793  0.42280128  0.52060768  1
  O  O71  1  0.59001139  0.57260334  0.48411023  1
  O  O72  1  0.09373365  0.57549038  0.97954448  1
  O  O73  1  0.87205898  0.56900446  0.22357592  1
  O  O74  1  0.36627854  0.57314087  0.72772196  1
  O  O75  1  0.98122042  0.07761752  0.09194688  1
  O  O76  1  0.47939232  0.07719872  0.59297207  1
  O  O77  1  0.29989250  0.75925406  0.94025216  1
  O  O78  1  0.80517771  0.76021024  0.44661109  1
  O  O79  1  0.22688948  0.07374718  0.86648725  1
  O  O80  1  0.72656285  0.07306862  0.36595766  1
  O  O81  1  0.57392524  0.75645603  0.68578789  1
  O  O82  1  0.94132409  0.25747142  0.29940594  1
  O  O83  1  0.43954627  0.25718858  0.80171859  1
  O  O84  1  0.75843697  0.91038107  0.64792396  1
  O  O85  1  0.68596173  0.25589223  0.57451749  1
  O  O86  1  0.53328529  0.90705604  0.89327745  1
  O  O87  1  0.64671388  0.40974262  0.75908258  1
  O  O88  1  0.89255027  0.40858266  0.53137094  1
  O  O89  1  0.60662592  0.59305755  0.96553244  1
  O  O90  1  0.85314786  0.59008979  0.74139998  1
  O  O91  1  0.96657115  0.09306092  0.60617927  1
  O  O92  1  0.81331358  0.74354764  0.92621564  1
  O  O93  1  0.74162141  0.09164853  0.85163971  1
  O  O94  1  0.92735011  0.24636307  0.80987620  1
