# generated using pymatgen
data_WSCl4
_symmetry_space_group_name_H-M   'P 1'
_cell_length_a   7.94664131
_cell_length_b   6.70865989
_cell_length_c   8.07220072
_cell_angle_alpha   85.86359756
_cell_angle_beta   101.24272675
_cell_angle_gamma   86.73738802
_symmetry_Int_Tables_number   1
_chemical_formula_structural   WSCl4
_chemical_formula_sum   'W2 S2 Cl8'
_cell_volume   419.87248558
_cell_formula_units_Z   2
loop_
 _symmetry_equiv_pos_site_id
 _symmetry_equiv_pos_as_xyz
  1  'x, y, z'
loop_
 _atom_site_type_symbol
 _atom_site_label
 _atom_site_symmetry_multiplicity
 _atom_site_fract_x
 _atom_site_fract_y
 _atom_site_fract_z
 _atom_site_occupancy
  W  W0  1  0.21274867  0.85840941  0.76007799  1
  W  W1  1  0.78725133  0.14159059  0.23992201  1
  S  S2  1  0.27093290  0.67969894  0.99176189  1
  S  S3  1  0.72906710  0.32030106  0.00823811  1
  Cl  Cl4  1  0.14171181  0.17048318  0.83867477  1
  Cl  Cl5  1  0.07903195  0.16742193  0.32917965  1
  Cl  Cl6  1  0.25355055  0.63891385  0.56354716  1
  Cl  Cl7  1  0.46948869  0.98108564  0.72709779  1
  Cl  Cl8  1  0.53051131  0.01891436  0.27290221  1
  Cl  Cl9  1  0.74644945  0.36108615  0.43645284  1
  Cl  Cl10  1  0.92096805  0.83257807  0.67082035  1
  Cl  Cl11  1  0.85828819  0.82951682  0.16132523  1
