# generated using pymatgen
data_LiCoPO4
_symmetry_space_group_name_H-M   'P 1'
_cell_length_a   8.36078547
_cell_length_b   5.12916222
_cell_length_c   8.60994205
_cell_angle_alpha   90.00000000
_cell_angle_beta   108.41241477
_cell_angle_gamma   90.00000000
_symmetry_Int_Tables_number   1
_chemical_formula_structural   LiCoPO4
_chemical_formula_sum   'Li4 Co4 P4 O16'
_cell_volume   350.32561717
_cell_formula_units_Z   4
loop_
 _symmetry_equiv_pos_site_id
 _symmetry_equiv_pos_as_xyz
  1  'x, y, z'
loop_
 _atom_site_type_symbol
 _atom_site_label
 _atom_site_symmetry_multiplicity
 _atom_site_fract_x
 _atom_site_fract_y
 _atom_site_fract_z
 _atom_site_occupancy
  Li  Li0  1  0.10360322  0.82590449  0.98340441  1
  Li  Li1  1  0.25753025  0.31675585  0.49948823  1
  Li  Li2  1  0.60360322  0.17409551  0.98340441  1
  Li  Li3  1  0.75753025  0.68324415  0.49948823  1
  Co  Co4  1  0.99384345  0.67653967  0.25204892  1
  Co  Co5  1  0.33714290  0.82016742  0.73670403  1
  Co  Co6  1  0.49384345  0.32346033  0.25204892  1
  Co  Co7  1  0.83714290  0.17983258  0.73670403  1
  P  P8  1  0.22548641  0.31615104  0.86405474  1
  P  P9  1  0.36708924  0.81656942  0.37024673  1
  P  P10  1  0.72548641  0.68384896  0.86405474  1
  P  P11  1  0.86708924  0.18343058  0.37024673  1
  O  O12  1  0.06993389  0.18047684  0.88949329  1
  O  O13  1  0.02370910  0.32148654  0.34803812  1
  O  O14  1  0.18993699  0.61203172  0.83193664  1
  O  O15  1  0.26496736  0.19292019  0.71475909  1
  O  O16  1  0.21299546  0.76945029  0.21542622  1
  O  O17  1  0.32029383  0.69553869  0.51577868  1
  O  O18  1  0.56993389  0.81952316  0.88949329  1
  O  O19  1  0.40570447  0.11216514  0.40125551  1
  O  O20  1  0.38156244  0.26690114  0.01616539  1
  O  O21  1  0.52370910  0.67851346  0.34803812  1
  O  O22  1  0.68993699  0.38796828  0.83193664  1
  O  O23  1  0.76496736  0.80707981  0.71475909  1
  O  O24  1  0.71299546  0.23054971  0.21542622  1
  O  O25  1  0.82029383  0.30446131  0.51577868  1
  O  O26  1  0.90570447  0.88783486  0.40125551  1
  O  O27  1  0.88156244  0.73309886  0.01616539  1
