# generated using pymatgen
data_Li2MnV(P2O7)2
_symmetry_space_group_name_H-M   'P 1'
_cell_length_a   4.87032930
_cell_length_b   24.83438919
_cell_length_c   7.07510128
_cell_angle_alpha   90.47637989
_cell_angle_beta   108.80651920
_cell_angle_gamma   89.75643027
_symmetry_Int_Tables_number   1
_chemical_formula_structural   Li2MnV(P2O7)2
_chemical_formula_sum   'Li6 Mn3 V3 P12 O42'
_cell_volume   810.03006041
_cell_formula_units_Z   3
loop_
 _symmetry_equiv_pos_site_id
 _symmetry_equiv_pos_as_xyz
  1  'x, y, z'
loop_
 _atom_site_type_symbol
 _atom_site_label
 _atom_site_symmetry_multiplicity
 _atom_site_fract_x
 _atom_site_fract_y
 _atom_site_fract_z
 _atom_site_occupancy
  Li  Li0  1  0.17428700  0.62049556  0.67317704  1
  Li  Li1  1  0.17225912  0.95334403  0.67486375  1
  Li  Li2  1  0.17690537  0.28705470  0.67402104  1
  Li  Li3  1  0.82382098  0.11999352  0.32498673  1
  Li  Li4  1  0.82192274  0.45364371  0.32576491  1
  Li  Li5  1  0.82721075  0.78652401  0.32538253  1
  Mn  Mn6  1  0.21239525  0.83292651  0.72774736  1
  Mn  Mn7  1  0.78715548  0.66597767  0.26909423  1
  Mn  Mn8  1  0.78555912  -0.00002225  0.27270304  1
  V  V9  1  0.21558784  0.16672908  0.72599600  1
  V  V10  1  0.21327583  0.49954479  0.72914918  1
  V  V11  1  0.78460374  0.33316977  0.27148366  1
  P  P12  1  0.40203058  0.05904957  0.52282668  1
  P  P13  1  0.40041869  0.39339888  0.52357001  1
  P  P14  1  0.40169991  0.72563852  0.51642629  1
  P  P15  1  0.21367691  0.26118255  0.08581471  1
  P  P16  1  0.21484412  0.59516060  0.08947598  1
  P  P17  1  0.21386347  0.92915259  0.09153809  1
  P  P18  1  0.78905966  0.09567188  0.91298925  1
  P  P19  1  0.78669709  0.42815893  0.91424491  1
  P  P20  1  0.78677283  0.76276715  0.90869293  1
  P  P21  1  0.59963446  0.22675758  0.47591217  1
  P  P22  1  0.60037857  0.56015749  0.48205191  1
  P  P23  1  0.59924083  0.89248999  0.48363319  1
  O  O24  1  0.04876031  0.10857020  0.84563787  1
  O  O25  1  0.05508466  0.77633094  0.84982624  1
  O  O26  1  0.04975872  0.44141369  0.85241674  1
  O  O27  1  0.12846986  0.90091750  0.89015840  1
  O  O28  1  0.13377504  0.23206664  0.88520238  1
  O  O29  1  0.13227073  0.56550854  0.88963546  1
  O  O30  1  0.18716517  0.01190128  0.48241964  1
  O  O31  1  0.19127518  0.67771191  0.48029662  1
  O  O32  1  0.18722606  0.34599524  0.48255278  1
  O  O33  1  0.24949925  0.77980986  0.49332957  1
  O  O34  1  0.25037250  0.11397541  0.50526941  1
  O  O35  1  0.24711895  0.44768432  0.50758187  1
  O  O36  1  0.39658304  0.22592403  0.60266534  1
  O  O37  1  0.39215623  0.55834987  0.60527476  1
  O  O38  1  0.39200195  0.89037157  0.60889233  1
  O  O39  1  0.60028284  0.14558181  0.91232227  1
  O  O40  1  0.60066770  0.47806024  0.91671200  1
  O  O41  1  0.59716633  0.81242799  0.90885158  1
  O  O42  1  0.59724470  0.05110919  0.75248764  1
  O  O43  1  0.59627448  0.38436603  0.75269620  1
  O  O44  1  0.59909617  0.71852173  0.74755688  1
  O  O45  1  0.40468256  0.21773791  0.24598964  1
  O  O46  1  0.40292543  0.88527740  0.25139846  1
  O  O47  1  0.40369452  0.55208300  0.25045070  1
  O  O48  1  0.39802794  0.31113944  0.08428708  1
  O  O49  1  0.39897367  0.64485955  0.08625595  1
  O  O50  1  0.40178607  0.97898483  0.09211711  1
  O  O51  1  0.60345283  0.05806672  0.39349046  1
  O  O52  1  0.60303825  0.39243260  0.39621043  1
  O  O53  1  0.60790040  0.72365460  0.38996976  1
  O  O54  1  0.75218313  0.28127281  0.49321628  1
  O  O55  1  0.75512268  0.61385921  0.50496624  1
  O  O56  1  0.75018836  0.94678880  0.50813200  1
  O  O57  1  0.81288816  0.17943327  0.51509624  1
  O  O58  1  0.81019461  0.51192949  0.51760759  1
  O  O59  1  0.81062347  0.84451371  0.51818617  1
  O  O60  1  0.87310239  0.06805022  0.11370509  1
  O  O61  1  0.87214049  0.73458058  0.10892732  1
  O  O62  1  0.86640780  0.39906157  0.11382506  1
  O  O63  1  0.94961869  0.27458617  0.14788766  1
  O  O64  1  0.94304696  0.60891758  0.14459883  1
  O  O65  1  0.94445244  0.94278369  0.15035035  1
