# generated using pymatgen
data_Na(NiO2)2
_symmetry_space_group_name_H-M   'P 1'
_cell_length_a   4.84896941
_cell_length_b   5.74514102
_cell_length_c   11.17133031
_cell_angle_alpha   89.71532116
_cell_angle_beta   89.98428137
_cell_angle_gamma   90.01267970
_symmetry_Int_Tables_number   1
_chemical_formula_structural   Na(NiO2)2
_chemical_formula_sum   'Na4 Ni8 O16'
_cell_volume   311.20720471
_cell_formula_units_Z   4
loop_
 _symmetry_equiv_pos_site_id
 _symmetry_equiv_pos_as_xyz
  1  'x, y, z'
loop_
 _atom_site_type_symbol
 _atom_site_label
 _atom_site_symmetry_multiplicity
 _atom_site_fract_x
 _atom_site_fract_y
 _atom_site_fract_z
 _atom_site_occupancy
  Na  Na0  1  0.01801549  0.75000925  0.24995976  1
  Na  Na1  1  0.35693355  0.75001098  0.75009965  1
  Na  Na2  1  0.64304650  0.24999011  0.24989922  1
  Na  Na3  1  0.98201543  0.24999257  0.75004870  1
  Ni  Ni4  1  0.00194252  0.24791351  0.00357021  1
  Ni  Ni5  1  0.99804416  0.75209148  0.99642422  1
  Ni  Ni6  1  0.00190894  0.25210123  0.49642847  1
  Ni  Ni7  1  0.99810643  0.74789291  0.50357908  1
  Ni  Ni8  1  0.49999484  0.49998443  0.99999934  1
  Ni  Ni9  1  0.49999041  0.00001196  0.99999885  1
  Ni  Ni10  1  0.50000626  0.00002441  0.49999981  1
  Ni  Ni11  1  0.50000551  0.49997831  0.49999896  1
  O  O12  1  0.17583563  0.00141299  0.59187370  1
  O  O13  1  0.17792824  0.00181843  0.90748378  1
  O  O14  1  0.17786441  0.49807909  0.59252355  1
  O  O15  1  0.17585900  0.49856154  0.90812256  1
  O  O16  1  0.33438397  0.24149728  0.08763870  1
  O  O17  1  0.33443130  0.25858483  0.41232524  1
  O  O18  1  0.32175374  0.76171220  0.08569432  1
  O  O19  1  0.32204152  0.73837715  0.41432756  1
  O  O20  1  0.67799065  0.26162008  0.58568794  1
  O  O21  1  0.67824403  0.23828872  0.91429477  1
  O  O22  1  0.66555078  0.74141184  0.58766508  1
  O  O23  1  0.66558625  0.75850397  0.91236521  1
  O  O24  1  0.82418223  0.99875052  0.40812375  1
  O  O25  1  0.82214720  0.50176568  0.40746990  1
  O  O26  1  0.82205733  0.99827770  0.09251950  1
  O  O27  1  0.82413370  0.50133686  0.09187814  1
