# generated using pymatgen
data_V2OF5
_symmetry_space_group_name_H-M   'P 1'
_cell_length_a   9.06247655
_cell_length_b   5.42189399
_cell_length_c   7.59419421
_cell_angle_alpha   87.10495689
_cell_angle_beta   66.14449824
_cell_angle_gamma   105.88555653
_symmetry_Int_Tables_number   1
_chemical_formula_structural   V2OF5
_chemical_formula_sum   'V6 O3 F15'
_cell_volume   322.67619548
_cell_formula_units_Z   3
loop_
 _symmetry_equiv_pos_site_id
 _symmetry_equiv_pos_as_xyz
  1  'x, y, z'
loop_
 _atom_site_type_symbol
 _atom_site_label
 _atom_site_symmetry_multiplicity
 _atom_site_fract_x
 _atom_site_fract_y
 _atom_site_fract_z
 _atom_site_occupancy
  V  V0  1  0.00414356  -0.00026772  0.99867984  1
  V  V1  1  0.99276985  0.96725891  0.50813479  1
  V  V2  1  0.33998925  0.63720460  0.33539109  1
  V  V3  1  0.31799130  0.68049058  0.84576330  1
  V  V4  1  0.66254881  0.33093876  0.17099368  1
  V  V5  1  0.66920089  0.34391888  0.66735090  1
  O  O6  1  0.14796142  0.77647979  0.96495565  1
  O  O7  1  0.46463045  0.44972216  0.30679828  1
  O  O8  1  0.86694688  0.65780855  0.60628979  1
  F  F9  1  0.20211962  0.88711248  0.35337938  1
  F  F10  1  0.39755402  0.70301966  0.05178683  1
  F  F11  1  0.13070697  0.35331193  0.38845853  1
  F  F12  1  0.52972802  0.96536982  0.28550080  1
  F  F13  1  0.26582413  0.62946630  0.61665365  1
  F  F14  1  0.06819546  0.03902634  0.71390952  1
  F  F15  1  0.80183597  0.69921283  0.04896134  1
  F  F16  1  0.20147852  0.30424845  0.95061831  1
  F  F17  1  0.93782704  0.97425358  0.28162722  1
  F  F18  1  0.52321427  0.56292191  0.69254763  1
  F  F19  1  0.86612621  0.23092015  0.01888218  1
  F  F20  1  0.73224562  0.36908751  0.38446811  1
  F  F21  1  0.47186034  0.02948674  0.71253873  1
  F  F22  1  0.60091281  0.29864085  0.94968345  1
  F  F23  1  0.80418958  0.11036493  0.64662901  1
