# generated using pymatgen
data_Li9Mn2Co5O16
_symmetry_space_group_name_H-M   'P 1'
_cell_length_a   2.98013664
_cell_length_b   7.79534047
_cell_length_c   12.56736409
_cell_angle_alpha   90.83166052
_cell_angle_beta   90.20235746
_cell_angle_gamma   81.46241656
_symmetry_Int_Tables_number   1
_chemical_formula_structural   Li9Mn2Co5O16
_chemical_formula_sum   'Li9 Mn2 Co5 O16'
_cell_volume   288.68876037
_cell_formula_units_Z   1
loop_
 _symmetry_equiv_pos_site_id
 _symmetry_equiv_pos_as_xyz
  1  'x, y, z'
loop_
 _atom_site_type_symbol
 _atom_site_label
 _atom_site_symmetry_multiplicity
 _atom_site_fract_x
 _atom_site_fract_y
 _atom_site_fract_z
 _atom_site_occupancy
  Li  Li0  1  0.80332726  0.37782407  0.05886593  1
  Li  Li1  1  0.06182107  0.87616877  0.31427932  1
  Li  Li2  1  0.31810604  0.37475161  0.56551620  1
  Li  Li3  1  0.20123271  0.61954762  0.93125461  1
  Li  Li4  1  0.43795038  0.12203283  0.18830702  1
  Li  Li5  1  0.68815423  0.62448387  0.43519121  1
  Li  Li6  1  0.55212204  0.88725042  0.81339738  1
  Li  Li7  1  0.93238260  0.12825830  0.69549602  1
  Li  Li8  1  0.39159443  0.24148643  0.87059404  1
  Mn  Mn9  1  0.99717376  0.00700794  0.99556049  1
  Mn  Mn10  1  0.11845786  0.74798419  0.62650479  1
  Co  Co11  1  0.25271057  0.49711791  0.24968216  1
  Co  Co12  1  0.49519307  0.00206460  0.49930797  1
  Co  Co13  1  0.76707700  0.48898630  0.75623507  1
  Co  Co14  1  0.61748347  0.74952408  0.12817413  1
  Co  Co15  1  0.88062454  0.25195970  0.37491541  1
  O  O16  1  0.43170633  0.16480573  0.02776166  1
  O  O17  1  0.61592393  0.67651564  0.27450162  1
  O  O18  1  0.91569868  0.18500992  0.52127953  1
  O  O19  1  0.77429328  0.45050788  0.89308692  1
  O  O20  1  0.02911459  0.92732758  0.14842094  1
  O  O21  1  0.30023366  0.43219047  0.39654836  1
  O  O22  1  0.13161545  0.67829928  0.77438926  1
  O  O23  1  0.48506029  0.93861469  0.64848168  1
  O  O24  1  0.20480953  0.56965418  0.10165319  1
  O  O25  1  0.46356774  0.06591235  0.35081132  1
  O  O26  1  0.75043779  0.56176290  0.60620315  1
  O  O27  1  0.57120986  0.83364601  0.97744702  1
  O  O28  1  0.88200325  0.31792564  0.22493850  1
  O  O29  1  0.07288868  0.81691183  0.47650993  1
  O  O30  1  0.97657805  0.05606237  0.85341852  1
  O  O31  1  0.37944790  0.32840490  0.72126462  1
