# generated using pymatgen
data_LiVCrP2(HO5)2
_symmetry_space_group_name_H-M   'P 1'
_cell_length_a   10.62580700
_cell_length_b   7.36767127
_cell_length_c   5.20819842
_cell_angle_alpha   109.77003178
_cell_angle_beta   98.15138944
_cell_angle_gamma   105.94629180
_symmetry_Int_Tables_number   1
_chemical_formula_structural   LiVCrP2(HO5)2
_chemical_formula_sum   'Li2 V2 Cr2 P4 H4 O20'
_cell_volume   356.30981230
_cell_formula_units_Z   2
loop_
 _symmetry_equiv_pos_site_id
 _symmetry_equiv_pos_as_xyz
  1  'x, y, z'
loop_
 _atom_site_type_symbol
 _atom_site_label
 _atom_site_symmetry_multiplicity
 _atom_site_fract_x
 _atom_site_fract_y
 _atom_site_fract_z
 _atom_site_occupancy
  Li  Li0  1  0.20759587  0.85524662  0.78321526  1
  Li  Li1  1  0.79240413  0.14475338  0.21678474  1
  V  V2  1  0.00000000  0.50000000  0.00000000  1
  V  V3  1  0.50000000  0.50000000  0.00000000  1
  Cr  Cr4  1  0.00000000  0.00000000  0.00000000  1
  Cr  Cr5  1  0.50000000  0.00000000  0.00000000  1
  P  P6  1  0.17652522  0.22294852  0.67528044  1
  P  P7  1  0.32472292  0.77062493  0.32194425  1
  P  P8  1  0.67527708  0.22937507  0.67805575  1
  P  P9  1  0.82347478  0.77705148  0.32471956  1
  H  H10  1  0.03190910  0.34674454  0.35514099  1
  H  H11  1  0.48677784  0.66235081  0.65109970  1
  H  H12  1  0.51322216  0.33764919  0.34890030  1
  H  H13  1  0.96809090  0.65325546  0.64485901  1
  O  O14  1  0.02164613  0.71804073  0.84452401  1
  O  O15  1  0.09606650  0.37814767  0.73398308  1
  O  O16  1  0.17160529  0.65379384  0.28831249  1
  O  O17  1  0.12121782  0.07176002  0.36830217  1
  O  O18  1  0.16295710  0.10828175  0.87421291  1
  O  O19  1  0.33374987  0.87325866  0.10955173  1
  O  O20  1  0.37364958  0.92884322  0.63036328  1
  O  O21  1  0.32753171  0.34799536  0.72718773  1
  O  O22  1  0.40590800  0.62113254  0.28333337  1
  O  O23  1  0.51530065  0.71884690  0.85948626  1
  O  O24  1  0.48469935  0.28115310  0.14051374  1
  O  O25  1  0.59409200  0.37886746  0.71666663  1
  O  O26  1  0.67246829  0.65200464  0.27281227  1
  O  O27  1  0.62635042  0.07115678  0.36963672  1
  O  O28  1  0.66625013  0.12674134  0.89044827  1
  O  O29  1  0.83704290  0.89171825  0.12578709  1
  O  O30  1  0.87878218  0.92823998  0.63169783  1
  O  O31  1  0.82839471  0.34620616  0.71168751  1
  O  O32  1  0.90393350  0.62185233  0.26601692  1
  O  O33  1  0.97835387  0.28195927  0.15547599  1
