# generated using pymatgen
data_Na11(WO3)13
_symmetry_space_group_name_H-M   'P 1'
_cell_length_a   14.30685155
_cell_length_b   6.85860280
_cell_length_c   8.92620073
_cell_angle_alpha   105.07989272
_cell_angle_beta   104.63707468
_cell_angle_gamma   80.77266697
_symmetry_Int_Tables_number   1
_chemical_formula_structural   Na11(WO3)13
_chemical_formula_sum   'Na11 W13 O39'
_cell_volume   814.06767093
_cell_formula_units_Z   1
loop_
 _symmetry_equiv_pos_site_id
 _symmetry_equiv_pos_as_xyz
  1  'x, y, z'
loop_
 _atom_site_type_symbol
 _atom_site_label
 _atom_site_symmetry_multiplicity
 _atom_site_fract_x
 _atom_site_fract_y
 _atom_site_fract_z
 _atom_site_occupancy
  Na  Na0  1  0.30810961  0.07635932  0.53872314  1
  Na  Na1  1  0.92306681  0.23099846  0.61672460  1
  Na  Na2  1  0.76923100  0.69230800  0.84615400  1
  Na  Na3  1  0.38521924  0.84520418  0.92269860  1
  Na  Na4  1  0.15324276  0.53941082  0.76960940  1
  Na  Na5  1  0.84653315  0.46049459  0.23045795  1
  Na  Na6  1  0.69192785  0.92412141  0.46184905  1
  Na  Na7  1  0.61539519  0.15361654  0.07558240  1
  Na  Na8  1  0.46111065  0.61560395  0.30869966  1
  Na  Na9  1  0.23035239  0.30825668  0.15358486  1
  Na  Na10  1  0.07735135  0.76901105  0.38360734  1
  W  W11  1  0.15238670  0.03971979  0.77058262  1
  W  W12  1  0.38607530  0.34489521  0.92172538  1
  W  W13  1  0.76923100  0.19230800  0.84615400  1
  W  W14  1  0.07743059  0.26842895  0.38113915  1
  W  W15  1  0.46103141  0.11618605  0.31116885  1
  W  W16  1  0.53903240  0.88509799  0.69256639  1
  W  W17  1  0.92304199  0.73184813  0.61928049  1
  W  W18  1  0.30849499  0.57929869  0.54058029  1
  W  W19  1  0.69095846  0.42416924  0.46312796  1
  W  W20  1  0.22996601  0.80531631  0.15172671  1
  W  W21  1  0.84750354  0.96044576  0.22917904  1
  W  W22  1  0.61542001  0.65276787  0.07302651  1
  W  W23  1  0.99942960  0.49951701  -0.00025939  1
  O  O24  1  0.26923100  0.19230800  0.84615400  1
  O  O25  1  0.45705461  0.12045272  0.81468287  1
  O  O26  1  0.66027682  0.03818948  0.77196702  1
  O  O27  1  0.87818518  0.34642652  0.92034098  1
  O  O28  1  0.69164215  0.42872605  0.97097778  1
  O  O29  1  0.08140739  0.26416228  0.87762513  1
  O  O30  1  0.49976134  0.98962038  0.49488185  1
  O  O31  1  0.19454688  0.92575115  0.95516650  1
  O  O32  1  0.11623166  0.15603319  0.58230755  1
  O  O33  1  0.34391412  0.45886485  0.73714050  1
  O  O34  1  0.57765268  0.77904196  0.88992889  1
  O  O35  1  0.96080832  0.60557304  0.80237811  1
  O  O36  1  0.73342723  0.30623162  0.64728375  1
  O  O37  1  0.38462977  0.33851656  0.41413686  1
  O  O38  1  0.00053112  0.50102561  0.49994843  1
  O  O39  1  0.62064271  0.64708778  0.56982435  1
  O  O40  1  0.80705812  0.56966816  0.53551993  1
  O  O41  1  0.84681985  0.95588895  0.72133022  1
  O  O42  1  0.04173337  0.88477161  0.68906936  1
  O  O43  1  0.15383223  0.04609944  0.27817114  1
  O  O44  1  0.95787507  0.11675042  0.31080724  1
  O  O45  1  0.58058593  0.26786458  0.38149976  1
  O  O46  1  0.22879528  0.81487493  0.65625481  1
  O  O47  1  0.76923100  0.19230800  0.34615400  1
  O  O48  1  0.19533306  0.42828333  0.46536258  1
  O  O49  1  0.41850303  0.72933407  0.61509848  1
  O  O50  1  0.03870066  0.39499562  0.19742615  1
  O  O51  1  0.88363294  0.84864271  0.41897421  1
  O  O52  1  0.26923100  0.69230800  0.34615400  1
  O  O53  1  0.80503377  0.07838438  0.04502325  1
  O  O54  1  0.42222934  0.22858181  0.11000045  1
  O  O55  1  0.65482906  0.53597229  0.27333379  1
  O  O56  1  0.30966672  0.56974007  0.03605219  1
  O  O57  1  0.34312894  0.95633167  0.22694542  1
  O  O58  1  0.53793088  0.88359039  0.19235957  1
  O  O59  1  0.91781929  0.73752722  0.12248365  1
  O  O60  1  0.11995797  0.65528193  0.07720952  1
  O  O61  1  0.49672863  0.49984439  0.00323864  1
  O  O62  1  0.73140388  0.81494784  0.15678707  1
