# generated using pymatgen
data_Li2MnCr(PO4)2
_symmetry_space_group_name_H-M   'P 1'
_cell_length_a   10.41570507
_cell_length_b   6.26757517
_cell_length_c   4.78782595
_cell_angle_alpha   90.00000000
_cell_angle_beta   88.44830756
_cell_angle_gamma   90.00000000
_symmetry_Int_Tables_number   1
_chemical_formula_structural   Li2MnCr(PO4)2
_chemical_formula_sum   'Li4 Mn2 Cr2 P4 O16'
_cell_volume   312.44047914
_cell_formula_units_Z   2
loop_
 _symmetry_equiv_pos_site_id
 _symmetry_equiv_pos_as_xyz
  1  'x, y, z'
loop_
 _atom_site_type_symbol
 _atom_site_label
 _atom_site_symmetry_multiplicity
 _atom_site_fract_x
 _atom_site_fract_y
 _atom_site_fract_z
 _atom_site_occupancy
  Li  Li0  1  0.00000000  0.00000000  0.00000000  1
  Li  Li1  1  0.00000000  0.50000000  0.00000000  1
  Li  Li2  1  0.50000000  0.00000000  0.50000000  1
  Li  Li3  1  0.50000000  0.50000000  0.50000000  1
  Mn  Mn4  1  0.28091094  0.25000000  0.97285217  1
  Mn  Mn5  1  0.71908906  0.75000000  0.02714783  1
  Cr  Cr6  1  0.21747568  0.75000000  0.45496447  1
  Cr  Cr7  1  0.78252432  0.25000000  0.54503553  1
  P  P8  1  0.08937486  0.25000000  0.41975300  1
  P  P9  1  0.40536349  0.75000000  0.91216294  1
  P  P10  1  0.59463651  0.25000000  0.08783706  1
  P  P11  1  0.91062514  0.75000000  0.58024700  1
  O  O12  1  0.04936444  0.75000000  0.69730897  1
  O  O13  1  0.09104805  0.25000000  0.74076556  1
  O  O14  1  0.15981547  0.05348697  0.28394259  1
  O  O15  1  0.15981547  0.44651303  0.28394259  1
  O  O16  1  0.33829219  0.54983587  0.78618093  1
  O  O17  1  0.33829219  0.95016413  0.78618093  1
  O  O18  1  0.39842423  0.75000000  0.23626251  1
  O  O19  1  0.45457737  0.25000000  0.20957580  1
  O  O20  1  0.54542263  0.75000000  0.79042420  1
  O  O21  1  0.60157577  0.25000000  0.76373749  1
  O  O22  1  0.66170781  0.04983587  0.21381907  1
  O  O23  1  0.66170781  0.45016413  0.21381907  1
  O  O24  1  0.84018453  0.55348697  0.71605741  1
  O  O25  1  0.84018453  0.94651303  0.71605741  1
  O  O26  1  0.90895195  0.75000000  0.25923444  1
  O  O27  1  0.95063556  0.25000000  0.30269103  1
