# generated using pymatgen
data_VOF
_symmetry_space_group_name_H-M   'P 1'
_cell_length_a   4.71697177
_cell_length_b   4.73074508
_cell_length_c   9.39317705
_cell_angle_alpha   90.00000000
_cell_angle_beta   90.00000000
_cell_angle_gamma   90.00000000
_symmetry_Int_Tables_number   1
_chemical_formula_structural   VOF
_chemical_formula_sum   'V6 O6 F6'
_cell_volume   209.60678263
_cell_formula_units_Z   6
loop_
 _symmetry_equiv_pos_site_id
 _symmetry_equiv_pos_as_xyz
  1  'x, y, z'
loop_
 _atom_site_type_symbol
 _atom_site_label
 _atom_site_symmetry_multiplicity
 _atom_site_fract_x
 _atom_site_fract_y
 _atom_site_fract_z
 _atom_site_occupancy
  V  V0  1  0.97860087  0.97075379  0.99921848  1
  V  V1  1  0.97860087  0.97075379  0.33411452  1
  V  V2  1  0.04612587  0.02216892  0.66666700  1
  V  V3  1  0.54612587  0.47783108  0.16666700  1
  V  V4  1  0.47860087  0.52924621  0.83411452  1
  V  V5  1  0.47860087  0.52924621  0.49921848  1
  O  O6  1  0.19337532  0.81812042  0.49834508  1
  O  O7  1  0.19337532  0.81812042  0.83498892  1
  O  O8  1  0.31555617  0.32561355  0.66666700  1
  O  O9  1  0.69337532  0.68187958  0.99834508  1
  O  O10  1  0.69337532  0.68187958  0.33498892  1
  O  O11  1  0.81555617  0.17438645  0.16666700  1
  F  F12  1  0.20047683  0.77106112  0.16666700  1
  F  F13  1  0.29694488  0.29377490  0.00124375  1
  F  F14  1  0.29694488  0.29377490  0.33208925  1
  F  F15  1  0.70047683  0.72893888  0.66666700  1
  F  F16  1  0.79694488  0.20622510  0.83208925  1
  F  F17  1  0.79694488  0.20622510  0.50124375  1
