# generated using pymatgen
data_LiFe(SiO3)2
_symmetry_space_group_name_H-M   'P 1'
_cell_length_a   18.39092759
_cell_length_b   8.82292831
_cell_length_c   5.27990002
_cell_angle_alpha   90.00000000
_cell_angle_beta   90.00000000
_cell_angle_gamma   90.00000000
_symmetry_Int_Tables_number   1
_chemical_formula_structural   LiFe(SiO3)2
_chemical_formula_sum   'Li8 Fe8 Si16 O48'
_cell_volume   856.72626946
_cell_formula_units_Z   8
loop_
 _symmetry_equiv_pos_site_id
 _symmetry_equiv_pos_as_xyz
  1  'x, y, z'
loop_
 _atom_site_type_symbol
 _atom_site_label
 _atom_site_symmetry_multiplicity
 _atom_site_fract_x
 _atom_site_fract_y
 _atom_site_fract_z
 _atom_site_occupancy
  Li  Li0  1  0.12236386  0.99120994  0.37145815  1
  Li  Li1  1  0.12236386  0.50879006  0.87145815  1
  Li  Li2  1  0.37763614  0.00879006  0.87145815  1
  Li  Li3  1  0.37763614  0.49120994  0.37145815  1
  Li  Li4  1  0.62236386  0.50879006  0.62854185  1
  Li  Li5  1  0.62236386  0.99120994  0.12854185  1
  Li  Li6  1  0.87763614  0.00879006  0.62854185  1
  Li  Li7  1  0.87763614  0.49120994  0.12854185  1
  Fe  Fe8  1  0.12491723  0.35551265  0.37603099  1
  Fe  Fe9  1  0.12491723  0.14448735  0.87603099  1
  Fe  Fe10  1  0.37508277  0.64448735  0.87603099  1
  Fe  Fe11  1  0.37508277  0.85551265  0.37603099  1
  Fe  Fe12  1  0.62491723  0.14448735  0.62396901  1
  Fe  Fe13  1  0.62491723  0.35551265  0.12396901  1
  Fe  Fe14  1  0.87508277  0.64448735  0.62396901  1
  Fe  Fe15  1  0.87508277  0.85551265  0.12396901  1
  Si  Si16  1  0.02567851  0.66425432  0.29592916  1
  Si  Si17  1  0.02567851  0.83574568  0.79592916  1
  Si  Si18  1  0.22710513  0.66067348  0.55365862  1
  Si  Si19  1  0.22710513  0.83932652  0.05365862  1
  Si  Si20  1  0.27289487  0.16067348  0.55365862  1
  Si  Si21  1  0.27289487  0.33932652  0.05365862  1
  Si  Si22  1  0.47432149  0.16425432  0.29592916  1
  Si  Si23  1  0.47432149  0.33574568  0.79592916  1
  Si  Si24  1  0.52567851  0.66425432  0.20407084  1
  Si  Si25  1  0.52567851  0.83574568  0.70407084  1
  Si  Si26  1  0.72710513  0.66067348  0.94634138  1
  Si  Si27  1  0.72710513  0.83932652  0.44634138  1
  Si  Si28  1  0.77289487  0.16067348  0.94634138  1
  Si  Si29  1  0.77289487  0.33932652  0.44634138  1
  Si  Si30  1  0.97432149  0.16425432  0.20407084  1
  Si  Si31  1  0.97432149  0.33574568  0.70407084  1
  O  O32  1  0.05258664  0.70662795  0.58690884  1
  O  O33  1  0.05258664  0.79337205  0.08690884  1
  O  O34  1  0.06436622  0.16693598  0.20074809  1
  O  O35  1  0.06436622  0.33306402  0.70074809  1
  O  O36  1  0.06386055  0.50664797  0.21012229  1
  O  O37  1  0.06386055  0.99335203  0.71012229  1
  O  O38  1  0.18307139  0.16536418  0.55016090  1
  O  O39  1  0.18307139  0.33463582  0.05016090  1
  O  O40  1  0.19119624  0.00700225  0.04446770  1
  O  O41  1  0.19119624  0.49299775  0.54446770  1
  O  O42  1  0.19687269  0.73081656  0.82396615  1
  O  O43  1  0.19687269  0.76918344  0.32396615  1
  O  O44  1  0.30312731  0.23081656  0.82396615  1
  O  O45  1  0.30312731  0.26918344  0.32396615  1
  O  O46  1  0.30880376  0.50700225  0.04446770  1
  O  O47  1  0.30880376  0.99299775  0.54446770  1
  O  O48  1  0.31692861  0.66536418  0.55016090  1
  O  O49  1  0.31692861  0.83463582  0.05016090  1
  O  O50  1  0.43613945  0.00664797  0.21012229  1
  O  O51  1  0.43613945  0.49335203  0.71012229  1
  O  O52  1  0.43563378  0.66693598  0.20074809  1
  O  O53  1  0.43563378  0.83306402  0.70074809  1
  O  O54  1  0.44741336  0.20662795  0.58690884  1
  O  O55  1  0.44741336  0.29337205  0.08690884  1
  O  O56  1  0.55258664  0.70662795  0.91309116  1
  O  O57  1  0.55258664  0.79337205  0.41309116  1
  O  O58  1  0.56436622  0.16693598  0.29925191  1
  O  O59  1  0.56436622  0.33306402  0.79925191  1
  O  O60  1  0.56386055  0.50664797  0.28987771  1
  O  O61  1  0.56386055  0.99335203  0.78987771  1
  O  O62  1  0.68307139  0.16536418  0.94983910  1
  O  O63  1  0.68307139  0.33463582  0.44983910  1
  O  O64  1  0.69119624  0.00700225  0.45553230  1
  O  O65  1  0.69119624  0.49299775  0.95553230  1
  O  O66  1  0.69687269  0.73081656  0.67603385  1
  O  O67  1  0.69687269  0.76918344  0.17603385  1
  O  O68  1  0.80312731  0.23081656  0.67603385  1
  O  O69  1  0.80312731  0.26918344  0.17603385  1
  O  O70  1  0.80880376  0.50700225  0.45553230  1
  O  O71  1  0.80880376  0.99299775  0.95553230  1
  O  O72  1  0.81692861  0.66536418  0.94983910  1
  O  O73  1  0.81692861  0.83463582  0.44983910  1
  O  O74  1  0.93613945  0.00664797  0.28987771  1
  O  O75  1  0.93613945  0.49335203  0.78987771  1
  O  O76  1  0.93563378  0.66693598  0.29925191  1
  O  O77  1  0.93563378  0.83306402  0.79925191  1
  O  O78  1  0.94741336  0.20662795  0.91309116  1
  O  O79  1  0.94741336  0.29337205  0.41309116  1
