# generated using pymatgen
data_Na5LiFe6(SiO3)12
_symmetry_space_group_name_H-M   'P 1'
_cell_length_a   9.42645532
_cell_length_b   8.87381301
_cell_length_c   9.62658438
_cell_angle_alpha   90.00000000
_cell_angle_beta   72.27326021
_cell_angle_gamma   118.07887649
_symmetry_Int_Tables_number   1
_chemical_formula_structural   Na5LiFe6(SiO3)12
_chemical_formula_sum   'Na5 Li1 Fe6 Si12 O36'
_cell_volume   666.82675134
_cell_formula_units_Z   1
loop_
 _symmetry_equiv_pos_site_id
 _symmetry_equiv_pos_as_xyz
  1  'x, y, z'
loop_
 _atom_site_type_symbol
 _atom_site_label
 _atom_site_symmetry_multiplicity
 _atom_site_fract_x
 _atom_site_fract_y
 _atom_site_fract_z
 _atom_site_occupancy
  Na  Na0  1  0.16689878  0.87911900  0.41677950  1
  Na  Na1  1  0.50000000  0.45442790  0.25000000  1
  Na  Na2  1  0.83310122  0.21222122  0.08322050  1
  Na  Na3  1  0.16655946  0.78764523  0.91662404  1
  Na  Na4  1  0.83344054  0.12108578  0.58337596  1
  Li  Li5  1  0.50000000  0.53398429  0.75000000  1
  Fe  Fe6  1  0.16654357  0.48143585  0.41641767  1
  Fe  Fe7  1  0.50000000  0.85182533  0.25000000  1
  Fe  Fe8  1  0.83345643  0.81489228  0.08358233  1
  Fe  Fe9  1  0.16745689  0.18653112  0.91589914  1
  Fe  Fe10  1  0.50000000  0.14813580  0.75000000  1
  Fe  Fe11  1  0.83254311  0.51907423  0.58410086  1
  Si  Si12  1  0.30075627  0.56097533  0.05682926  1
  Si  Si13  1  0.03371696  0.10551904  0.27456664  1
  Si  Si14  1  0.36755246  0.09473498  0.10732076  1
  Si  Si15  1  0.30001404  0.24034588  0.55939902  1
  Si  Si16  1  0.03378895  0.42792811  0.77419166  1
  Si  Si17  1  0.63244754  0.22718252  0.39267924  1
  Si  Si18  1  0.36730611  0.77207181  0.60842457  1
  Si  Si19  1  0.96628304  0.57180208  0.22543336  1
  Si  Si20  1  0.69924373  0.76022005  0.44317074  1
  Si  Si21  1  0.63269389  0.90476570  0.89157543  1
  Si  Si22  1  0.96621105  0.89413916  0.72580834  1
  Si  Si23  1  0.69998596  0.44033184  0.94060098  1
  O  O24  1  0.11222482  0.54970028  0.09115277  1
  O  O25  1  0.03736571  0.27387638  0.34088820  1
  O  O26  1  0.01595622  0.58780270  0.37704479  1
  O  O27  1  0.22170306  0.11664623  0.24160695  1
  O  O28  1  0.37091851  0.93003156  0.17408789  1
  O  O29  1  0.34992857  0.59520988  0.20892015  1
  O  O30  1  0.55498717  0.27200611  0.07460052  1
  O  O31  1  0.70448529  0.60811090  0.00835024  1
  O  O32  1  0.68266808  0.92056267  0.04329342  1
  O  O33  1  0.11299983  0.06237884  0.59228102  1
  O  O34  1  0.31733192  0.73789459  0.45670658  1
  O  O35  1  0.29551471  0.40362661  0.49164976  1
  O  O36  1  0.44501283  0.21701994  0.42539948  1
  O  O37  1  0.65007143  0.74528130  0.29107985  1
  O  O38  1  0.62908149  0.05911305  0.32591211  1
  O  O39  1  0.03692039  0.26312840  0.84112797  1
  O  O40  1  0.77829694  0.39494317  0.25839305  1
  O  O41  1  0.01699704  0.92918297  0.87686311  1
  O  O42  1  0.98404378  0.07184647  0.12295521  1
  O  O43  1  0.22057132  0.60502029  0.74237858  1
  O  O44  1  0.96263429  0.73651067  0.15911180  1
  O  O45  1  0.37110521  0.94117278  0.67417090  1
  O  O46  1  0.35329163  0.26151283  0.70974555  1
  O  O47  1  0.55337970  0.78044156  0.57823001  1
  O  O48  1  0.69930335  0.59483622  0.51348251  1
  O  O49  1  0.68321294  0.26219208  0.54381419  1
  O  O50  1  0.88777518  0.93747446  0.40884723  1
  O  O51  1  0.31678706  0.07897814  0.95618581  1
  O  O52  1  0.30069665  0.39553287  0.98651749  1
  O  O53  1  0.44662030  0.72706186  0.92176999  1
  O  O54  1  0.64670837  0.40822020  0.79025445  1
  O  O55  1  0.62889479  0.07006757  0.82582910  1
  O  O56  1  0.77942868  0.88444997  0.75762142  1
  O  O57  1  0.98300296  0.41218492  0.62313689  1
  O  O58  1  0.96307961  0.72620801  0.65887203  1
  O  O59  1  0.88700017  0.44937901  0.90771898  1
