# generated using pymatgen
data_Li6Ti9O20
_symmetry_space_group_name_H-M   'P 1'
_cell_length_a   5.97523931
_cell_length_b   5.97252703
_cell_length_c   24.70190724
_cell_angle_alpha   97.01538486
_cell_angle_beta   83.01765933
_cell_angle_gamma   119.98808396
_symmetry_Int_Tables_number   1
_chemical_formula_structural   Li6Ti9O20
_chemical_formula_sum   'Li12 Ti18 O40'
_cell_volume   755.93458922
_cell_formula_units_Z   2
loop_
 _symmetry_equiv_pos_site_id
 _symmetry_equiv_pos_as_xyz
  1  'x, y, z'
loop_
 _atom_site_type_symbol
 _atom_site_label
 _atom_site_symmetry_multiplicity
 _atom_site_fract_x
 _atom_site_fract_y
 _atom_site_fract_z
 _atom_site_occupancy
  Li  Li0  1  0.99557726  0.99197856  0.99911784  1
  Li  Li1  1  0.25177876  0.75004962  0.25107362  1
  Li  Li2  1  0.65515921  0.35889970  0.04738675  1
  Li  Li3  1  0.19917807  0.79991795  0.39839996  1
  Li  Li4  1  0.59516863  0.39587834  0.19978027  1
  Li  Li5  1  0.52383401  0.47622904  0.42468706  1
  Li  Li6  1  0.84902389  0.15076704  0.45081948  1
  Li  Li7  1  0.44814445  0.54581361  0.64985774  1
  Li  Li8  1  0.05287056  0.95334687  0.85098721  1
  Li  Li9  1  0.79508497  0.19675930  0.59822384  1
  Li  Li10  1  0.39386814  0.59488171  0.80363664  1
  Li  Li11  1  0.52204490  0.97617862  0.92520665  1
  Ti  Ti12  1  0.11986000  0.86980667  0.12572004  1
  Ti  Ti13  1  0.33749436  0.69591088  0.02102484  1
  Ti  Ti14  1  0.12702847  0.37595432  0.12381554  1
  Ti  Ti15  1  0.62317157  0.87464498  0.12559923  1
  Ti  Ti16  1  0.71747728  0.76892208  0.32722848  1
  Ti  Ti17  1  0.23061653  0.27633078  0.32722621  1
  Ti  Ti18  1  0.32699885  0.67029810  0.52248484  1
  Ti  Ti19  1  0.12165187  0.86964527  0.62333100  1
  Ti  Ti20  1  0.92592145  0.07841099  0.22648888  1
  Ti  Ti21  1  0.72313034  0.28223287  0.32726504  1
  Ti  Ti22  1  0.81754549  0.67225310  0.52229059  1
  Ti  Ti23  1  0.32861065  0.18112509  0.52208982  1
  Ti  Ti24  1  0.03247136  0.47552403  0.92453044  1
  Ti  Ti25  1  0.92314704  0.57146853  0.72557003  1
  Ti  Ti26  1  0.42539643  0.07638927  0.72477363  1
  Ti  Ti27  1  0.92574739  0.07553540  0.72453592  1
  Ti  Ti28  1  0.71498270  0.25608825  0.82943884  1
  Ti  Ti29  1  0.52925662  0.47247087  0.92620525  1
  O  O30  1  0.00825323  0.54322447  0.07903503  1
  O  O31  1  0.45689943  0.99364804  0.07790510  1
  O  O32  1  0.05723616  0.94664844  0.27667277  1
  O  O33  1  0.45575704  0.54441426  0.07882868  1
  O  O34  1  0.27640317  0.72301890  0.16812127  1
  O  O35  1  0.24019506  0.20713465  0.17271471  1
  O  O36  1  0.79136630  0.75764422  0.17295897  1
  O  O37  1  0.61206893  0.94428537  0.27690875  1
  O  O38  1  0.05534492  0.38952678  0.27719140  1
  O  O39  1  0.38972952  0.61129415  0.36769552  1
  O  O40  1  0.97157322  0.02673842  0.08315713  1
  O  O41  1  0.57262989  0.42782349  0.28204829  1
  O  O42  1  0.79290214  0.20702775  0.17261406  1
  O  O43  1  0.17113190  0.82741522  0.48174764  1
  O  O44  1  0.85383643  0.61238481  0.36740923  1
  O  O45  1  0.38990757  0.14642991  0.36732488  1
  O  O46  1  0.19562339  0.33938474  0.48177174  1
  O  O47  1  0.66050399  0.80580973  0.48240724  1
  O  O48  1  0.25507990  0.74043430  0.67712084  1
  O  O49  1  0.65904679  0.33899901  0.48193594  1
  O  O50  1  0.47540083  0.52168349  0.56746349  1
  O  O51  1  0.87813112  0.12402061  0.36764675  1
  O  O52  1  0.07714219  0.92100004  0.76684828  1
  O  O53  1  0.99270657  0.55918986  0.57250044  1
  O  O54  1  0.43567168  0.00391091  0.57266938  1
  O  O55  1  0.59191037  0.95651588  0.77260824  1
  O  O56  1  0.04023103  0.40503439  0.77105104  1
  O  O57  1  0.80759740  0.74104615  0.67705679  1
  O  O58  1  0.25611124  0.18900569  0.67711773  1
  O  O59  1  0.77126255  0.22410383  0.68172004  1
  O  O60  1  0.35850315  0.60687127  0.88438100  1
  O  O61  1  0.17709350  0.79161359  0.97609846  1
  O  O62  1  0.59264571  0.40492201  0.77074818  1
  O  O63  1  0.99268824  0.00347618  0.57268400  1
  O  O64  1  0.63845593  0.79177601  0.97600283  1
  O  O65  1  0.18994304  0.35468096  0.97357125  1
  O  O66  1  0.85888646  0.59399076  0.87678693  1
  O  O67  1  0.41235466  0.16000697  0.87442252  1
  O  O68  1  0.87322610  0.15783563  0.87448979  1
  O  O69  1  0.68618501  0.34430829  0.96645698  1
