# generated using pymatgen
data_YTmO3
_symmetry_space_group_name_H-M   'P 1'
_cell_length_a   9.16618041
_cell_length_b   9.16540155
_cell_length_c   9.16540155
_cell_angle_alpha   109.46130426
_cell_angle_beta   109.47029660
_cell_angle_gamma   109.47861813
_symmetry_Int_Tables_number   1
_chemical_formula_structural   YTmO3
_chemical_formula_sum   'Y8 Tm8 O24'
_cell_volume   592.77236393
_cell_formula_units_Z   8
loop_
 _symmetry_equiv_pos_site_id
 _symmetry_equiv_pos_as_xyz
  1  'x, y, z'
loop_
 _atom_site_type_symbol
 _atom_site_label
 _atom_site_symmetry_multiplicity
 _atom_site_fract_x
 _atom_site_fract_y
 _atom_site_fract_z
 _atom_site_occupancy
  Y  Y0  1  0.49835086  0.99907001  0.99903515  1
  Y  Y1  1  0.78241681  0.03190978  0.74995161  1
  Y  Y2  1  0.71758319  0.46753480  0.24949297  1
  Y  Y3  1  0.75000000  0.28281043  0.53281043  1
  Y  Y4  1  0.75000000  0.78229240  0.03229240  1
  Y  Y5  1  0.00305238  0.50124483  0.00124153  1
  Y  Y6  1  0.00164914  0.00068429  0.50071915  1
  Y  Y7  1  0.49694762  0.49818916  0.49819245  1
  Tm  Tm8  1  0.96902576  0.25083450  0.21787988  1
  Tm  Tm9  1  0.46486882  0.24885614  0.71570860  1
  Tm  Tm10  1  0.53097424  0.74885412  0.28180874  1
  Tm  Tm11  1  0.25000000  0.71712361  0.46712361  1
  Tm  Tm12  1  0.25000000  0.21659743  0.96659743  1
  Tm  Tm13  1  0.21749311  0.96705220  0.24996931  1
  Tm  Tm14  1  0.28250689  0.53247620  0.74955809  1
  Tm  Tm15  1  0.03513118  0.75083978  0.78398732  1
  O  O16  1  0.75738684  0.02795919  0.48592873  1
  O  O17  1  0.74261316  0.22854090  0.27057136  1
  O  O18  1  0.27000890  0.01200128  0.04353565  1
  O  O19  1  0.97209323  0.51194047  0.24181997  1
  O  O20  1  0.77026031  0.72989006  0.26134369  1
  O  O21  1  0.46498262  0.22613843  0.45600389  1
  O  O22  1  0.04549154  0.27111758  0.01376018  1
  O  O23  1  0.45450846  0.46826964  0.22562604  1
  O  O24  1  0.01528322  0.04581058  0.27182529  1
  O  O25  1  0.77332322  0.54618062  0.53510290  1
  O  O26  1  0.48471678  0.75654307  0.03052736  1
  O  O27  1  0.72667678  0.26177968  0.77285741  1
  O  O28  1  0.27419959  0.74325387  0.23170833  1
  O  O29  1  0.22580041  0.45750974  0.46905428  1
  O  O30  1  0.99275973  0.95734011  0.73082826  1
  O  O31  1  0.50724027  0.23806852  0.96458038  1
  O  O32  1  0.53940506  0.52820388  0.76992485  1
  O  O33  1  0.96059494  0.73051879  0.98879783  1
  O  O34  1  0.22999110  0.27352675  0.74199238  1
  O  O35  1  0.52790677  0.76972774  0.53984724  1
  O  O36  1  0.72973969  0.99108338  0.95962975  1
  O  O37  1  0.03501738  0.49102227  0.76115581  1
  O  O38  1  0.24175409  0.96798097  0.51097988  1
  O  O39  1  0.25824591  0.76922579  0.72622788  1
