# generated using pymatgen
data_P3W2O13
_symmetry_space_group_name_H-M   'P 1'
_cell_length_a   9.75695095
_cell_length_b   19.50134495
_cell_length_c   6.44483451
_cell_angle_alpha   90.00000000
_cell_angle_beta   106.68914357
_cell_angle_gamma   90.00000000
_symmetry_Int_Tables_number   1
_chemical_formula_structural   P3W2O13
_chemical_formula_sum   'P12 W8 O52'
_cell_volume   1174.62751056
_cell_formula_units_Z   4
loop_
 _symmetry_equiv_pos_site_id
 _symmetry_equiv_pos_as_xyz
  1  'x, y, z'
loop_
 _atom_site_type_symbol
 _atom_site_label
 _atom_site_symmetry_multiplicity
 _atom_site_fract_x
 _atom_site_fract_y
 _atom_site_fract_z
 _atom_site_occupancy
  P  P0  1  0.03080000  0.67493448  0.65833662  1
  P  P1  1  0.03080000  0.82506552  0.15833662  1
  P  P2  1  0.29585612  0.90843364  0.76651018  1
  P  P3  1  0.30258646  0.03205390  0.51169645  1
  P  P4  1  0.29585612  0.59156636  0.26651018  1
  P  P5  1  0.30258646  0.46794610  0.01169645  1
  P  P6  1  0.69741354  0.53205390  0.98830355  1
  P  P7  1  0.70414388  0.40843364  0.73348982  1
  P  P8  1  0.69741354  0.96794610  0.48830355  1
  P  P9  1  0.70414388  0.09156636  0.23348982  1
  P  P10  1  0.96920000  0.17493448  0.84166338  1
  P  P11  1  0.96920000  0.32506552  0.34166338  1
  W  W12  1  0.07139044  0.33714702  0.88487987  1
  W  W13  1  0.07139044  0.16285298  0.38487987  1
  W  W14  1  0.38492587  0.62467243  0.81301271  1
  W  W15  1  0.38492587  0.87532757  0.31301271  1
  W  W16  1  0.61507413  0.12467243  0.68698729  1
  W  W17  1  0.61507413  0.37532757  0.18698729  1
  W  W18  1  0.92860956  0.83714702  0.61512013  1
  W  W19  1  0.92860956  0.66285298  0.11512013  1
  O  O20  1  0.04866596  0.14938440  0.68507172  1
  O  O21  1  0.06349643  0.75202114  0.67403334  1
  O  O22  1  0.05379806  0.35005916  0.56556717  1
  O  O23  1  0.15602439  0.43581619  0.92694951  1
  O  O24  1  0.14259716  0.88736475  0.71414388  1
  O  O25  1  0.04866596  0.35061560  0.18507172  1
  O  O26  1  0.06349643  0.74797886  0.17403334  1
  O  O27  1  0.18087644  0.63720939  0.71882261  1
  O  O28  1  0.22915504  0.29070881  0.95287842  1
  O  O29  1  0.05379806  0.14994084  0.06556717  1
  O  O30  1  0.15602439  0.06418381  0.42694951  1
  O  O31  1  0.14259716  0.61263525  0.21414388  1
  O  O32  1  0.18087644  0.86279061  0.21882261  1
  O  O33  1  0.22915504  0.20929119  0.45287842  1
  O  O34  1  0.30572579  0.98966113  0.72918077  1
  O  O35  1  0.33778911  0.51689633  0.85149995  1
  O  O36  1  0.30572579  0.51033887  0.22918077  1
  O  O37  1  0.37944743  0.87342270  0.62300771  1
  O  O38  1  0.33778911  0.98310367  0.35149995  1
  O  O39  1  0.37995861  0.60208627  0.50732867  1
  O  O40  1  0.43261328  0.70978572  0.81268664  1
  O  O41  1  0.41693076  0.08854023  0.59462817  1
  O  O42  1  0.37944743  0.62657730  0.12300771  1
  O  O43  1  0.37995861  0.89791373  0.00732867  1
  O  O44  1  0.43261328  0.79021428  0.31268664  1
  O  O45  1  0.41693076  0.41145977  0.09462817  1
  O  O46  1  0.58306924  0.58854023  0.90537183  1
  O  O47  1  0.56738672  0.20978572  0.68731336  1
  O  O48  1  0.62004139  0.10208627  0.99267133  1
  O  O49  1  0.62055257  0.37342270  0.87699229  1
  O  O50  1  0.58306924  0.91145977  0.40537183  1
  O  O51  1  0.56738672  0.29021428  0.18731336  1
  O  O52  1  0.62004139  0.39791373  0.49267133  1
  O  O53  1  0.66221089  0.01689633  0.64850005  1
  O  O54  1  0.62055257  0.12657730  0.37699229  1
  O  O55  1  0.69427421  0.48966113  0.77081923  1
  O  O56  1  0.66221089  0.48310367  0.14850005  1
  O  O57  1  0.69427421  0.01033887  0.27082023  1
  O  O58  1  0.77084496  0.79070881  0.54712158  1
  O  O59  1  0.81912356  0.13720939  0.78117739  1
  O  O60  1  0.85740284  0.38736475  0.78585612  1
  O  O61  1  0.84397561  0.93581619  0.57305049  1
  O  O62  1  0.94620194  0.85005916  0.93443283  1
  O  O63  1  0.77084496  0.70929119  0.04712158  1
  O  O64  1  0.81912356  0.36279061  0.28117739  1
  O  O65  1  0.93650357  0.25202114  0.82596666  1
  O  O66  1  0.95133404  0.64938440  0.81492828  1
  O  O67  1  0.85740284  0.11263525  0.28585612  1
  O  O68  1  0.84397561  0.56418381  0.07305049  1
  O  O69  1  0.94620194  0.64994084  0.43443283  1
  O  O70  1  0.93650357  0.24797886  0.32596666  1
  O  O71  1  0.95133404  0.85061560  0.31492828  1
