# generated using pymatgen
data_Li4ScFe3(SiO3)8
_symmetry_space_group_name_H-M   'P 1'
_cell_length_a   9.54697973
_cell_length_b   13.91926932
_cell_length_c   7.37187186
_cell_angle_alpha   89.87817985
_cell_angle_beta   110.05214699
_cell_angle_gamma   106.17630393
_symmetry_Int_Tables_number   1
_chemical_formula_structural   Li4ScFe3(SiO3)8
_chemical_formula_sum   'Li8 Sc2 Fe6 Si16 O48'
_cell_volume   879.05992137
_cell_formula_units_Z   2
loop_
 _symmetry_equiv_pos_site_id
 _symmetry_equiv_pos_as_xyz
  1  'x, y, z'
loop_
 _atom_site_type_symbol
 _atom_site_label
 _atom_site_symmetry_multiplicity
 _atom_site_fract_x
 _atom_site_fract_y
 _atom_site_fract_z
 _atom_site_occupancy
  Li  Li0  1  0.93981497  0.31652043  0.05950051  1
  Li  Li1  1  0.55954364  0.18487255  0.44068724  1
  Li  Li2  1  0.19146635  0.06630719  0.80913925  1
  Li  Li3  1  0.69004202  0.56507535  0.30937995  1
  Li  Li4  1  0.80808969  0.93350223  0.19140663  1
  Li  Li5  1  0.30980069  0.43439052  0.69070735  1
  Li  Li6  1  0.44161076  0.81493266  0.55922304  1
  Li  Li7  1  0.05828012  0.68296335  0.94142511  1
  Sc  Sc8  1  0.98844984  0.11359085  0.01167378  1
  Sc  Sc9  1  0.23772987  0.86253898  0.76233862  1
  Fe  Fe10  1  0.75968699  0.13625465  0.24074567  1
  Fe  Fe11  1  0.73942350  0.36468346  0.26040194  1
  Fe  Fe12  1  0.51101923  0.38581317  0.48963667  1
  Fe  Fe13  1  0.48904364  0.61379089  0.51094548  1
  Fe  Fe14  1  0.26058164  0.63395172  0.73898814  1
  Fe  Fe15  1  0.00912160  0.88441711  0.99011733  1
  Si  Si16  1  0.93448712  0.27376134  0.65535016  1
  Si  Si17  1  0.60202076  0.01432535  0.80639234  1
  Si  Si18  1  0.89898005  0.48687871  0.69241549  1
  Si  Si19  1  0.56597802  0.22839597  0.84212152  1
  Si  Si20  1  0.68515199  0.52209019  0.90710039  1
  Si  Si21  1  0.84842173  0.76294719  0.55535699  1
  Si  Si22  1  0.64870352  0.73577313  0.94321857  1
  Si  Si23  1  0.81501850  0.97698800  0.58973266  1
  Si  Si24  1  0.18520609  0.02290740  0.40738356  1
  Si  Si25  1  0.35427732  0.26504450  0.05712050  1
  Si  Si26  1  0.14954282  0.23781738  0.44548166  1
  Si  Si27  1  0.31514424  0.47781812  0.09316441  1
  Si  Si28  1  0.43577417  0.77124471  0.15906653  1
  Si  Si29  1  0.10058097  0.51356010  0.30628124  1
  Si  Si30  1  0.39923566  0.98681815  0.19622098  1
  Si  Si31  1  0.06424661  0.72643491  0.34074037  1
  O  O32  1  0.96384032  0.00228803  0.79791514  1
  O  O33  1  0.90483493  0.20631857  0.82459304  1
  O  O34  1  0.96687128  0.38982083  0.74166692  1
  O  O35  1  0.84154426  0.04535217  0.41951550  1
  O  O36  1  0.99662545  0.20822594  0.24136356  1
  O  O37  1  0.84122171  0.51406136  0.86729216  1
  O  O38  1  0.96066268  0.41482785  0.30206767  1
  O  O39  1  0.78652043  0.24568412  0.44522995  1
  O  O40  1  0.71586118  0.63837855  0.99338416  1
  O  O41  1  0.53480789  0.11186476  0.75674422  1
  O  O42  1  0.78845797  0.83533645  0.94860170  1
  O  O43  1  0.59213593  0.29570811  0.67042186  1
  O  O44  1  0.75029061  0.04460331  0.01550997  1
  O  O45  1  0.74731638  0.45571359  0.48603779  1
  O  O46  1  0.41034591  0.23762088  0.88092236  1
  O  O47  1  0.90994723  0.73629802  0.38343939  1
  O  O48  1  0.70951528  0.66387784  0.55024215  1
  O  O49  1  0.71355572  0.25563227  0.05281622  1
  O  O50  1  0.53669324  0.49465292  0.69709989  1
  O  O51  1  0.53913523  0.08548822  0.19995963  1
  O  O52  1  0.78148577  0.86058717  0.50263640  1
  O  O53  1  0.34264264  0.01438046  0.37183791  1
  O  O54  1  0.34183205  0.54500707  0.92121822  1
  O  O55  1  0.50523666  0.29614560  0.26414069  1
  O  O56  1  0.49720256  0.70482722  0.73667551  1
  O  O57  1  0.65855705  0.45453549  0.07846572  1
  O  O58  1  0.66147685  0.98780104  0.63238908  1
  O  O59  1  0.21565904  0.13956079  0.49041787  1
  O  O60  1  0.46496183  0.91466514  0.80168000  1
  O  O61  1  0.46336117  0.50557550  0.30307891  1
  O  O62  1  0.28689247  0.74143081  0.95015306  1
  O  O63  1  0.28982483  0.33604405  0.44915289  1
  O  O64  1  0.09219087  0.26464221  0.62085655  1
  O  O65  1  0.59158829  0.76367670  0.11832441  1
  O  O66  1  0.25230100  0.54437777  0.51313910  1
  O  O67  1  0.24649365  0.95751765  0.99196986  1
  O  O68  1  0.40982973  0.70459735  0.33106349  1
  O  O69  1  0.21639727  0.16567544  0.05389694  1
  O  O70  1  0.46442967  0.88803736  0.24191383  1
  O  O71  1  0.28538683  0.36178272  0.00734641  1
  O  O72  1  0.21365781  0.75232460  0.54803536  1
  O  O73  1  0.03933154  0.58589272  0.69803575  1
  O  O74  1  0.15888701  0.48601995  0.13220272  1
  O  O75  1  0.99749774  0.79293927  0.76421777  1
  O  O76  1  0.15615768  0.95636342  0.57716014  1
  O  O77  1  0.03229554  0.61051933  0.25356128  1
  O  O78  1  0.09102284  0.79453134  0.16986235  1
  O  O79  1  0.03674084  0.99237776  0.19828042  1
