# generated using pymatgen
data_VOF
_symmetry_space_group_name_H-M   'P 1'
_cell_length_a   4.72690249
_cell_length_b   4.72690249
_cell_length_c   12.50171673
_cell_angle_alpha   90.00000000
_cell_angle_beta   90.00000000
_cell_angle_gamma   90.26683244
_symmetry_Int_Tables_number   1
_chemical_formula_structural   VOF
_chemical_formula_sum   'V8 O8 F8'
_cell_volume   279.33041873
_cell_formula_units_Z   8
loop_
 _symmetry_equiv_pos_site_id
 _symmetry_equiv_pos_as_xyz
  1  'x, y, z'
loop_
 _atom_site_type_symbol
 _atom_site_label
 _atom_site_symmetry_multiplicity
 _atom_site_fract_x
 _atom_site_fract_y
 _atom_site_fract_z
 _atom_site_occupancy
  V  V0  1  0.97088181  0.97088181  0.00000000  1
  V  V1  1  0.01873382  0.04101128  0.25000000  1
  V  V2  1  0.97088181  0.97088181  0.50000000  1
  V  V3  1  0.04101128  0.01873382  0.75000000  1
  V  V4  1  0.52803491  0.47239015  0.12441370  1
  V  V5  1  0.47239015  0.52803491  0.62441370  1
  V  V6  1  0.47239015  0.52803491  0.87558630  1
  V  V7  1  0.52803491  0.47239015  0.37558630  1
  O  O8  1  0.18549686  0.81474228  0.87657867  1
  O  O9  1  0.18549686  0.81474228  0.62342133  1
  O  O10  1  0.32290056  0.31092471  0.25000000  1
  O  O11  1  0.31092471  0.32290056  0.75000000  1
  O  O12  1  0.68203086  0.68203086  0.00000000  1
  O  O13  1  0.68203086  0.68203086  0.50000000  1
  O  O14  1  0.81474228  0.18549686  0.12342133  1
  O  O15  1  0.81474228  0.18549686  0.37657867  1
  F  F16  1  0.20541165  0.79213435  0.12569744  1
  F  F17  1  0.20541165  0.79213435  0.37430256  1
  F  F18  1  0.29105452  0.29105452  0.00000000  1
  F  F19  1  0.29105452  0.29105452  0.50000000  1
  F  F20  1  0.72748334  0.69459250  0.25000000  1
  F  F21  1  0.69459250  0.72748334  0.75000000  1
  F  F22  1  0.79213435  0.20541165  0.62569744  1
  F  F23  1  0.79213435  0.20541165  0.87430256  1
