# generated using pymatgen
data_KLiCoO2
_symmetry_space_group_name_H-M   'P 1'
_cell_length_a   5.71003912
_cell_length_b   3.38881309
_cell_length_c   7.49960493
_cell_angle_alpha   103.20743964
_cell_angle_beta   85.13982983
_cell_angle_gamma   72.76713644
_symmetry_Int_Tables_number   1
_chemical_formula_structural   KLiCoO2
_chemical_formula_sum   'K2 Li2 Co2 O4'
_cell_volume   133.11343484
_cell_formula_units_Z   2
loop_
 _symmetry_equiv_pos_site_id
 _symmetry_equiv_pos_as_xyz
  1  'x, y, z'
loop_
 _atom_site_type_symbol
 _atom_site_label
 _atom_site_symmetry_multiplicity
 _atom_site_fract_x
 _atom_site_fract_y
 _atom_site_fract_z
 _atom_site_occupancy
  K  K0  1  0.29357662  0.53746722  0.37286789  1
  K  K1  1  0.70615686  0.45390416  0.62792991  1
  Li  Li2  1  0.37085811  0.28627962  0.94525310  1
  Li  Li3  1  0.62735016  0.71484394  0.05561886  1
  Co  Co4  1  0.09593792  0.86116298  0.82171085  1
  Co  Co5  1  0.90238191  0.14023080  0.17958057  1
  O  O6  1  0.22242330  0.23529039  0.69691853  1
  O  O7  1  0.25990059  0.90178134  0.06457328  1
  O  O8  1  0.73822164  0.09907075  0.93631903  1
  O  O9  1  0.77521388  0.76604779  0.30415298  1
