# generated using pymatgen
data_Li4FeNi3(PO4)4
_symmetry_space_group_name_H-M   'P 1'
_cell_length_a   4.73186680
_cell_length_b   10.18402749
_cell_length_c   5.97581428
_cell_angle_alpha   90.00000000
_cell_angle_beta   90.00000000
_cell_angle_gamma   89.96935827
_symmetry_Int_Tables_number   1
_chemical_formula_structural   Li4FeNi3(PO4)4
_chemical_formula_sum   'Li4 Fe1 Ni3 P4 O16'
_cell_volume   287.97123111
_cell_formula_units_Z   1
loop_
 _symmetry_equiv_pos_site_id
 _symmetry_equiv_pos_as_xyz
  1  'x, y, z'
loop_
 _atom_site_type_symbol
 _atom_site_label
 _atom_site_symmetry_multiplicity
 _atom_site_fract_x
 _atom_site_fract_y
 _atom_site_fract_z
 _atom_site_occupancy
  Li  Li0  1  0.00008302  0.99887776  0.00000268  1
  Li  Li1  1  0.00008302  0.99887776  0.49999732  1
  Li  Li2  1  0.49987110  0.50145267  0.50079948  1
  Li  Li3  1  0.49987110  0.50145267  0.99920052  1
  Fe  Fe4  1  0.97676226  0.27812587  0.25000000  1
  Ni  Ni5  1  0.01917809  0.72484077  0.75000000  1
  Ni  Ni6  1  0.47948165  0.22244349  0.75000000  1
  Ni  Ni7  1  0.52063754  0.77633206  0.25000000  1
  P  P8  1  0.08559265  0.59650559  0.25000000  1
  P  P9  1  0.41546485  0.09161583  0.25000000  1
  P  P10  1  0.58382673  0.90536921  0.75000000  1
  P  P11  1  0.91517413  0.40677754  0.75000000  1
  O  O12  1  0.20456983  0.45461268  0.25000000  1
  O  O13  1  0.22563522  0.66690938  0.04338933  1
  O  O14  1  0.22563522  0.66690938  0.45661067  1
  O  O15  1  0.23974410  0.39937036  0.75000000  1
  O  O16  1  0.25981144  0.90022058  0.75000000  1
  O  O17  1  0.27804847  0.16243429  0.04224724  1
  O  O18  1  0.27804847  0.16243429  0.45775276  1
  O  O19  1  0.29609912  0.94976148  0.25000000  1
  O  O20  1  0.70162924  0.04820113  0.75000000  1
  O  O21  1  0.72504407  0.83458269  0.54415365  1
  O  O22  1  0.72504407  0.83458269  0.95584635  1
  O  O23  1  0.73874678  0.09645383  0.25000000  1
  O  O24  1  0.76117590  0.60083816  0.25000000  1
  O  O25  1  0.77245466  0.33543552  0.54602882  1
  O  O26  1  0.77245466  0.33543552  0.95397118  1
  O  O27  1  0.79983059  0.54914977  0.75000000  1
