# generated using pymatgen
data_LiV(SiO3)2
_symmetry_space_group_name_H-M   'P 1'
_cell_length_a   18.34590021
_cell_length_b   8.77288423
_cell_length_c   5.30904181
_cell_angle_alpha   90.00000000
_cell_angle_beta   90.00000000
_cell_angle_gamma   90.00000000
_symmetry_Int_Tables_number   1
_chemical_formula_structural   LiV(SiO3)2
_chemical_formula_sum   'Li8 V8 Si16 O48'
_cell_volume   854.47147808
_cell_formula_units_Z   8
loop_
 _symmetry_equiv_pos_site_id
 _symmetry_equiv_pos_as_xyz
  1  'x, y, z'
loop_
 _atom_site_type_symbol
 _atom_site_label
 _atom_site_symmetry_multiplicity
 _atom_site_fract_x
 _atom_site_fract_y
 _atom_site_fract_z
 _atom_site_occupancy
  Li  Li0  1  0.12357176  0.98769744  0.36895013  1
  Li  Li1  1  0.12357176  0.51230256  0.86895013  1
  Li  Li2  1  0.37642824  0.01230256  0.86895013  1
  Li  Li3  1  0.37642824  0.48769744  0.36895013  1
  Li  Li4  1  0.62357176  0.51230256  0.63104987  1
  Li  Li5  1  0.62357176  0.98769744  0.13104987  1
  Li  Li6  1  0.87642824  0.01230256  0.63104987  1
  Li  Li7  1  0.87642824  0.48769744  0.13104987  1
  V  V8  1  0.12441044  0.34749322  0.37307244  1
  V  V9  1  0.12441044  0.15250678  0.87307244  1
  V  V10  1  0.37558956  0.65250678  0.87307244  1
  V  V11  1  0.37558956  0.84749322  0.37307244  1
  V  V12  1  0.62441044  0.15250678  0.62692756  1
  V  V13  1  0.62441044  0.34749322  0.12692756  1
  V  V14  1  0.87558956  0.65250678  0.62692756  1
  V  V15  1  0.87558956  0.84749322  0.12692756  1
  Si  Si16  1  0.02672726  0.66334596  0.29354332  1
  Si  Si17  1  0.02672726  0.83665404  0.79354332  1
  Si  Si18  1  0.22594012  0.66034985  0.54944654  1
  Si  Si19  1  0.22594012  0.83965015  0.04944654  1
  Si  Si20  1  0.27405988  0.16034985  0.54944654  1
  Si  Si21  1  0.27405988  0.33965015  0.04944654  1
  Si  Si22  1  0.47327274  0.16334596  0.29354332  1
  Si  Si23  1  0.47327274  0.33665404  0.79354332  1
  Si  Si24  1  0.52672726  0.66334596  0.20645668  1
  Si  Si25  1  0.52672726  0.83665404  0.70645668  1
  Si  Si26  1  0.72594012  0.66034985  0.95055346  1
  Si  Si27  1  0.72594012  0.83965015  0.45055346  1
  Si  Si28  1  0.77405988  0.16034985  0.95055346  1
  Si  Si29  1  0.77405988  0.33965015  0.45055346  1
  Si  Si30  1  0.97327274  0.16334596  0.20645668  1
  Si  Si31  1  0.97327274  0.33665404  0.70645668  1
  O  O32  1  0.05299648  0.70744023  0.58323109  1
  O  O33  1  0.05299648  0.79255977  0.08323109  1
  O  O34  1  0.06362842  0.16696217  0.20633430  1
  O  O35  1  0.06362842  0.33303783  0.70633430  1
  O  O36  1  0.06458893  0.50485496  0.20830151  1
  O  O37  1  0.06458893  0.99514504  0.70830151  1
  O  O38  1  0.18402003  0.16589561  0.54253784  1
  O  O39  1  0.18402003  0.33410439  0.04253784  1
  O  O40  1  0.19019656  0.00762267  0.03971940  1
  O  O41  1  0.19019656  0.49237733  0.53971940  1
  O  O42  1  0.19599762  0.72958903  0.82083525  1
  O  O43  1  0.19599762  0.77041097  0.32083525  1
  O  O44  1  0.30400238  0.22958903  0.82083525  1
  O  O45  1  0.30400238  0.27041097  0.32083525  1
  O  O46  1  0.30980344  0.50762267  0.03971940  1
  O  O47  1  0.30980344  0.99237733  0.53971940  1
  O  O48  1  0.31597997  0.66589561  0.54253784  1
  O  O49  1  0.31597997  0.83410439  0.04253784  1
  O  O50  1  0.43541107  0.00485496  0.20830151  1
  O  O51  1  0.43541107  0.49514504  0.70830151  1
  O  O52  1  0.43637158  0.66696217  0.20633430  1
  O  O53  1  0.43637158  0.83303783  0.70633430  1
  O  O54  1  0.44700352  0.20744023  0.58323109  1
  O  O55  1  0.44700352  0.29255977  0.08323109  1
  O  O56  1  0.55299648  0.70744023  0.91676891  1
  O  O57  1  0.55299648  0.79255977  0.41676891  1
  O  O58  1  0.56362842  0.16696217  0.29366570  1
  O  O59  1  0.56362842  0.33303783  0.79366570  1
  O  O60  1  0.56458893  0.50485496  0.29169849  1
  O  O61  1  0.56458893  0.99514504  0.79169849  1
  O  O62  1  0.68402003  0.16589561  0.95746216  1
  O  O63  1  0.68402003  0.33410439  0.45746216  1
  O  O64  1  0.69019656  0.00762267  0.46028060  1
  O  O65  1  0.69019656  0.49237733  0.96028060  1
  O  O66  1  0.69599762  0.72958903  0.67916475  1
  O  O67  1  0.69599762  0.77041097  0.17916475  1
  O  O68  1  0.80400238  0.22958903  0.67916475  1
  O  O69  1  0.80400238  0.27041097  0.17916475  1
  O  O70  1  0.80980344  0.50762267  0.46028060  1
  O  O71  1  0.80980344  0.99237733  0.96028060  1
  O  O72  1  0.81597997  0.66589561  0.95746216  1
  O  O73  1  0.81597997  0.83410439  0.45746216  1
  O  O74  1  0.93541107  0.00485496  0.29169849  1
  O  O75  1  0.93541107  0.49514504  0.79169849  1
  O  O76  1  0.93637158  0.66696217  0.29366570  1
  O  O77  1  0.93637158  0.83303783  0.79366570  1
  O  O78  1  0.94700352  0.20744023  0.91676891  1
  O  O79  1  0.94700352  0.29255977  0.41676891  1
