# generated using pymatgen
data_V2O3F
_symmetry_space_group_name_H-M   'P 1'
_cell_length_a   7.09110286
_cell_length_b   5.58839437
_cell_length_c   5.58839437
_cell_angle_alpha   75.85896376
_cell_angle_beta   73.21961580
_cell_angle_gamma   73.21961580
_symmetry_Int_Tables_number   1
_chemical_formula_structural   V2O3F
_chemical_formula_sum   'V6 O9 F3'
_cell_volume   199.84374073
_cell_formula_units_Z   3
loop_
 _symmetry_equiv_pos_site_id
 _symmetry_equiv_pos_as_xyz
  1  'x, y, z'
loop_
 _atom_site_type_symbol
 _atom_site_label
 _atom_site_symmetry_multiplicity
 _atom_site_fract_x
 _atom_site_fract_y
 _atom_site_fract_z
 _atom_site_occupancy
  V  V0  1  0.83317903  0.66300564  0.67057592  1
  V  V1  1  0.66738926  0.37266010  0.29305748  1
  V  V2  1  0.33260974  0.70694252  0.62733990  1
  V  V3  1  0.16682097  0.32942408  0.33699436  1
  V  V4  1  0.50000000  0.99483787  0.00516213  1
  V  V5  1  0.00000000  0.95293948  0.04706052  1
  O  O6  1  0.96186443  0.22698615  0.23364433  1
  O  O7  1  0.62854021  0.56354928  0.56482023  1
  O  O8  1  0.29429307  0.89854754  0.89829640  1
  O  O9  1  0.70570693  0.10170360  0.10145246  1
  O  O10  1  0.03813557  0.76635567  0.77301385  1
  O  O11  1  0.37145979  0.43517977  0.43645072  1
  O  O12  1  0.66740420  0.63479608  0.03244036  1
  O  O13  1  0.33259580  0.96755964  0.36520392  1
  O  O14  1  0.00000000  0.69209402  0.30790598  1
  F  F15  1  0.66507643  0.03217072  0.63438078  1
  F  F16  1  0.33492357  0.36561922  0.96782928  1
  F  F17  1  0.00000000  0.29562661  0.70437339  1
