# generated using pymatgen
data_Li9Mn2Co5O16
_symmetry_space_group_name_H-M   'P 1'
_cell_length_a   2.96272675
_cell_length_b   15.58544514
_cell_length_c   6.49135739
_cell_angle_alpha   89.49066339
_cell_angle_beta   77.06448311
_cell_angle_gamma   82.01132009
_symmetry_Int_Tables_number   1
_chemical_formula_structural   Li9Mn2Co5O16
_chemical_formula_sum   'Li9 Mn2 Co5 O16'
_cell_volume   289.22278819
_cell_formula_units_Z   1
loop_
 _symmetry_equiv_pos_site_id
 _symmetry_equiv_pos_as_xyz
  1  'x, y, z'
loop_
 _atom_site_type_symbol
 _atom_site_label
 _atom_site_symmetry_multiplicity
 _atom_site_fract_x
 _atom_site_fract_y
 _atom_site_fract_z
 _atom_site_occupancy
  Li  Li0  1  0.75775665  0.18514615  0.12190612  1
  Li  Li1  1  0.73999353  0.43943256  0.64057571  1
  Li  Li2  1  0.75931313  0.68727548  0.11632897  1
  Li  Li3  1  0.22777537  0.31927872  0.87826687  1
  Li  Li4  1  0.23994785  0.56391462  0.37358380  1
  Li  Li5  1  0.25566507  0.81165203  0.87842514  1
  Li  Li6  1  0.75692800  0.93606441  0.61929661  1
  Li  Li7  1  0.25005165  0.06279277  0.37723995  1
  Li  Li8  1  0.02397399  0.49604322  0.99045405  1
  Mn  Mn9  1  -0.00605290  0.99862192  0.00376963  1
  Mn  Mn10  1  0.50091283  0.37906323  0.23760933  1
  Co  Co11  1  0.98773793  0.25158716  0.50146524  1
  Co  Co12  1  0.00585417  0.74930795  0.50246776  1
  Co  Co13  1  0.50358936  0.61977732  0.75738378  1
  Co  Co14  1  0.51009632  0.87341407  0.25333813  1
  Co  Co15  1  0.49345612  0.12619933  0.75390179  1
  O  O16  1  0.33404719  0.09105534  0.05806070  1
  O  O17  1  0.37250819  0.33833641  0.54488847  1
  O  O18  1  0.38377201  0.60055955  0.02788306  1
  O  O19  1  0.88229390  0.21170550  0.80325117  1
  O  O20  1  0.90553223  0.45759410  0.30606230  1
  O  O21  1  0.85198528  0.71627796  0.79238926  1
  O  O22  1  0.40372181  0.84096324  0.54440465  1
  O  O23  1  0.85704302  0.96425493  0.30230540  1
  O  O24  1  0.08917089  0.29285974  0.19671524  1
  O  O25  1  0.14754145  0.53869193  0.68829103  1
  O  O26  1  0.15608717  0.78303476  0.20712806  1
  O  O27  1  0.62099537  0.40411047  0.95553626  1
  O  O28  1  0.60463023  0.65695171  0.46148009  1
  O  O29  1  0.65087618  0.90482374  0.95574891  1
  O  O30  1  0.11422546  0.03540536  0.70290701  1
  O  O31  1  0.61857055  0.16380733  0.44693552  1
