# generated using pymatgen
data_Li4Al3Cr3(SbO8)2
_symmetry_space_group_name_H-M   'P 1'
_cell_length_a   5.85872375
_cell_length_b   5.84822806
_cell_length_c   9.56950975
_cell_angle_alpha   90.00066837
_cell_angle_beta   89.50696921
_cell_angle_gamma   119.94090749
_symmetry_Int_Tables_number   1
_chemical_formula_structural   Li4Al3Cr3(SbO8)2
_chemical_formula_sum   'Li4 Al3 Cr3 Sb2 O16'
_cell_volume   284.10871264
_cell_formula_units_Z   1
loop_
 _symmetry_equiv_pos_site_id
 _symmetry_equiv_pos_as_xyz
  1  'x, y, z'
loop_
 _atom_site_type_symbol
 _atom_site_label
 _atom_site_symmetry_multiplicity
 _atom_site_fract_x
 _atom_site_fract_y
 _atom_site_fract_z
 _atom_site_occupancy
  Li  Li0  1  0.33644798  0.66823568  0.90471088  1
  Li  Li1  1  0.99641605  0.99822377  0.98609027  1
  Li  Li2  1  0.99692372  0.99846946  0.48948306  1
  Li  Li3  1  0.66818834  0.33410123  0.40728786  1
  Al  Al4  1  0.65969133  0.82984605  0.21463655  1
  Al  Al5  1  0.83164035  0.66008171  0.71449976  1
  Al  Al6  1  0.83163534  0.17157701  0.71449923  1
  Cr  Cr7  1  0.17065661  0.83112675  0.21371434  1
  Cr  Cr8  1  0.17063683  0.33955372  0.21370979  1
  Cr  Cr9  1  0.34172819  0.17088274  0.71387827  1
  Sb  Sb10  1  0.33480451  0.66740714  0.48856185  1
  Sb  Sb11  1  0.67013382  0.33508038  0.98605161  1
  O  O12  1  0.15624223  0.82916576  0.59825275  1
  O  O13  1  0.03556254  0.51778922  0.34399055  1
  O  O14  1  0.35394600  0.67697781  0.11072358  1
  O  O15  1  0.97892586  0.98947028  0.30341098  1
  O  O16  1  0.98201333  0.99102009  0.79807682  1
  O  O17  1  0.15624057  0.32709689  0.59825526  1
  O  O18  1  0.48653896  0.96603572  0.34234073  1
  O  O19  1  0.48653398  0.52050807  0.34233498  1
  O  O20  1  0.32601702  0.16302050  0.09121420  1
  O  O21  1  0.66765831  0.83383866  0.60127976  1
  O  O22  1  0.52547778  0.48829156  0.84046213  1
  O  O23  1  0.52547415  0.03721343  0.84046136  1
  O  O24  1  0.68626885  0.34314333  0.61380839  1
  O  O25  1  0.82835891  0.67003365  0.09795403  1
  O  O26  1  0.96748566  0.48375611  0.84019449  1
  O  O27  1  0.82835178  0.15835227  0.09795653  1
