# generated using pymatgen
data_MnV(PO4)2
_symmetry_space_group_name_H-M   'P 1'
_cell_length_a   8.63496819
_cell_length_b   8.66787612
_cell_length_c   8.66787629
_cell_angle_alpha   59.99999827
_cell_angle_beta   59.87385273
_cell_angle_gamma   59.87384962
_symmetry_Int_Tables_number   1
_chemical_formula_structural   MnV(PO4)2
_chemical_formula_sum   'Mn3 V3 P6 O24'
_cell_volume   457.86813003
_cell_formula_units_Z   3
loop_
 _symmetry_equiv_pos_site_id
 _symmetry_equiv_pos_as_xyz
  1  'x, y, z'
loop_
 _atom_site_type_symbol
 _atom_site_label
 _atom_site_symmetry_multiplicity
 _atom_site_fract_x
 _atom_site_fract_y
 _atom_site_fract_z
 _atom_site_occupancy
  Mn  Mn0  1  0.99308002  0.00230666  0.00230666  1
  Mn  Mn1  1  0.56511549  0.14496150  0.14496150  1
  Mn  Mn2  1  0.49728843  0.50090419  0.50090419  1
  V  V3  1  0.06483165  0.64505645  0.64505645  1
  V  V4  1  0.43016484  0.85661139  0.85661139  1
  V  V5  1  0.93580345  0.35473252  0.35473252  1
  P  P6  1  0.25074477  0.24888200  0.54573513  1
  P  P7  1  0.25074477  0.95463911  0.24888200  1
  P  P8  1  0.25074477  0.54573513  0.95463911  1
  P  P9  1  0.75221176  0.46062615  0.04132686  1
  P  P10  1  0.75221176  0.04132686  0.74583523  1
  P  P11  1  0.75221176  0.74583523  0.46062615  1
  O  O12  1  0.06942202  0.12113250  0.30466159  1
  O  O13  1  0.06942202  0.50478389  0.12113250  1
  O  O14  1  0.06942202  0.30466159  0.50478389  1
  O  O15  1  0.23401750  0.08561079  0.74149891  1
  O  O16  1  0.43342913  0.19457221  0.39302497  1
  O  O17  1  0.25227415  0.41455326  0.57204446  1
  O  O18  1  0.23401750  0.93887380  0.08561079  1
  O  O19  1  0.25227415  0.76112814  0.41455326  1
  O  O20  1  0.56847356  0.62148481  0.00329862  1
  O  O21  1  0.25227415  0.57204446  0.76112814  1
  O  O22  1  0.77695552  0.27016029  0.04902743  1
  O  O23  1  0.56847356  0.00329862  0.80674302  1
  O  O24  1  0.43342913  0.97897368  0.19457221  1
  O  O25  1  0.23401750  0.74149891  0.93887380  1
  O  O26  1  0.73716801  0.44658556  0.23572304  1
  O  O27  1  0.43342913  0.39302497  0.97897368  1
  O  O28  1  0.73716801  0.23572304  0.58052438  1
  O  O29  1  0.77695552  0.04902743  0.90385676  1
  O  O30  1  0.73716801  0.58052438  0.44658556  1
  O  O31  1  0.56847356  0.80674302  0.62148481  1
  O  O32  1  0.77695552  0.90385676  0.27016029  1
  O  O33  1  0.92987629  0.67279979  0.51151303  1
  O  O34  1  0.92987629  0.51151303  0.88580989  1
  O  O35  1  0.92987629  0.88580989  0.67279979  1
