# generated using pymatgen
data_BeCrO4
_symmetry_space_group_name_H-M   'P 1'
_cell_length_a   7.73101370
_cell_length_b   8.32874761
_cell_length_c   4.91102945
_cell_angle_alpha   90.00000000
_cell_angle_beta   97.92623732
_cell_angle_gamma   90.00000000
_symmetry_Int_Tables_number   1
_chemical_formula_structural   BeCrO4
_chemical_formula_sum   'Be4 Cr4 O16'
_cell_volume   313.19849724
_cell_formula_units_Z   4
loop_
 _symmetry_equiv_pos_site_id
 _symmetry_equiv_pos_as_xyz
  1  'x, y, z'
loop_
 _atom_site_type_symbol
 _atom_site_label
 _atom_site_symmetry_multiplicity
 _atom_site_fract_x
 _atom_site_fract_y
 _atom_site_fract_z
 _atom_site_occupancy
  Be  Be0  1  0.24707990  0.10376171  0.34255045  1
  Be  Be1  1  0.25292010  0.60376171  0.15744955  1
  Be  Be2  1  0.74707990  0.39623829  0.84255045  1
  Be  Be3  1  0.75292010  0.89623829  0.65744955  1
  Cr  Cr4  1  0.14427097  0.30151950  0.84707152  1
  Cr  Cr5  1  0.35572903  0.80151950  0.65292848  1
  Cr  Cr6  1  0.64427097  0.19848050  0.34707152  1
  Cr  Cr7  1  0.85572903  0.69848050  0.15292848  1
  O  O8  1  0.04912988  0.60958886  0.22008244  1
  O  O9  1  0.12905185  0.14179741  0.04494819  1
  O  O10  1  0.21409662  0.93067481  0.48301571  1
  O  O11  1  0.21313186  0.24603858  0.55501249  1
  O  O12  1  0.28686814  0.74603858  0.94498751  1
  O  O13  1  0.28590338  0.43067481  0.01698429  1
  O  O14  1  0.37094815  0.64179741  0.45505181  1
  O  O15  1  0.54912988  0.89041114  0.72008244  1
  O  O16  1  0.45087012  0.10958886  0.27991756  1
  O  O17  1  0.62905185  0.35820259  0.54494819  1
  O  O18  1  0.71409662  0.56932519  0.98301571  1
  O  O19  1  0.71313186  0.25396142  0.05501249  1
  O  O20  1  0.78686814  0.75396142  0.44498751  1
  O  O21  1  0.78590338  0.06932519  0.51698429  1
  O  O22  1  0.87094815  0.85820259  0.95505181  1
  O  O23  1  0.95087012  0.39041114  0.77991756  1
