# generated using pymatgen
data_Li4Nb2V3Cr3O16
_symmetry_space_group_name_H-M   'P 1'
_cell_length_a   6.02473823
_cell_length_b   6.00426351
_cell_length_c   9.68387394
_cell_angle_alpha   90.00958454
_cell_angle_beta   90.44529497
_cell_angle_gamma   119.98207738
_symmetry_Int_Tables_number   1
_chemical_formula_structural   Li4Nb2V3Cr3O16
_chemical_formula_sum   'Li4 Nb2 V3 Cr3 O16'
_cell_volume   303.41582219
_cell_formula_units_Z   1
loop_
 _symmetry_equiv_pos_site_id
 _symmetry_equiv_pos_as_xyz
  1  'x, y, z'
loop_
 _atom_site_type_symbol
 _atom_site_label
 _atom_site_symmetry_multiplicity
 _atom_site_fract_x
 _atom_site_fract_y
 _atom_site_fract_z
 _atom_site_occupancy
  Li  Li0  1  0.33398725  0.66708873  0.90109418  1
  Li  Li1  1  0.00205705  0.00082524  0.99213727  1
  Li  Li2  1  0.00346799  0.00206433  0.49196414  1
  Li  Li3  1  0.66588487  0.33296421  0.39772871  1
  Nb  Nb4  1  0.33270484  0.66683269  0.49306057  1
  Nb  Nb5  1  0.66328295  0.33073028  0.99457367  1
  V  V6  1  0.65837750  0.82870856  0.21770394  1
  V  V7  1  0.82958622  0.65781585  0.71613096  1
  V  V8  1  0.83130225  0.17343579  0.71642714  1
  Cr  Cr9  1  0.17061878  0.82971331  0.21468741  1
  Cr  Cr10  1  0.17077734  0.34102059  0.21473554  1
  Cr  Cr11  1  0.33978855  0.16970341  0.71471210  1
  O  O12  1  0.16901427  0.83343316  0.59339364  1
  O  O13  1  0.04016884  0.51981734  0.33926060  1
  O  O14  1  0.33560880  0.66813273  0.10876984  1
  O  O15  1  0.99949762  0.99953052  0.30526529  1
  O  O16  1  0.00019860  0.00034976  0.80467256  1
  O  O17  1  0.17113385  0.33650363  0.59294874  1
  O  O18  1  0.47612557  0.96010216  0.34352645  1
  O  O19  1  0.47668949  0.51660646  0.34336397  1
  O  O20  1  0.33338326  0.16706778  0.09541958  1
  O  O21  1  0.66532452  0.83362482  0.59135033  1
  O  O22  1  0.51799507  0.47754903  0.84269853  1
  O  O23  1  0.51595398  0.04056348  0.84327503  1
  O  O24  1  0.66644270  0.33253625  0.60801511  1
  O  O25  1  0.83516572  0.66484097  0.09259617  1
  O  O26  1  0.96037697  0.47912791  0.84544360  1
  O  O27  1  0.83508715  0.16960900  0.09288495  1
