# generated using pymatgen
data_LiMn2(SO4)3
_symmetry_space_group_name_H-M   'P 1'
_cell_length_a   8.47222686
_cell_length_b   8.80867070
_cell_length_c   12.49512835
_cell_angle_alpha   90.00000000
_cell_angle_beta   88.37367254
_cell_angle_gamma   90.00000000
_symmetry_Int_Tables_number   1
_chemical_formula_structural   LiMn2(SO4)3
_chemical_formula_sum   'Li4 Mn8 S12 O48'
_cell_volume   932.12401000
_cell_formula_units_Z   4
loop_
 _symmetry_equiv_pos_site_id
 _symmetry_equiv_pos_as_xyz
  1  'x, y, z'
loop_
 _atom_site_type_symbol
 _atom_site_label
 _atom_site_symmetry_multiplicity
 _atom_site_fract_x
 _atom_site_fract_y
 _atom_site_fract_z
 _atom_site_occupancy
  Li  Li0  1  0.19466119  0.71472171  0.82141808  1
  Li  Li1  1  0.30533881  0.21472171  0.67858192  1
  Li  Li2  1  0.69466119  0.78527829  0.32141808  1
  Li  Li3  1  0.80533881  0.28527829  0.17858192  1
  Mn  Mn4  1  0.24885848  0.96258717  0.38540907  1
  Mn  Mn5  1  0.24765945  0.54019261  0.60795439  1
  Mn  Mn6  1  0.25114152  0.46258717  0.11459093  1
  Mn  Mn7  1  0.25234055  0.04019261  0.89204561  1
  Mn  Mn8  1  0.74765945  0.95980739  0.10795439  1
  Mn  Mn9  1  0.74885848  0.53741283  0.88540907  1
  Mn  Mn10  1  0.75234055  0.45980739  0.39204561  1
  Mn  Mn11  1  0.75114152  0.03741283  0.61459093  1
  S  S12  1  0.03958185  0.24580028  0.50556971  1
  S  S13  1  0.10303347  0.12089166  0.14927440  1
  S  S14  1  0.10799475  0.39230294  0.85215649  1
  S  S15  1  0.39200525  0.89230294  0.64784351  1
  S  S16  1  0.39696653  0.62089166  0.35072560  1
  S  S17  1  0.46041815  0.74580028  0.99443029  1
  S  S18  1  0.53958185  0.25419972  0.00556971  1
  S  S19  1  0.60303347  0.37910834  0.64927440  1
  S  S20  1  0.60799475  0.10769706  0.35215649  1
  S  S21  1  0.89200525  0.60769706  0.14784351  1
  S  S22  1  0.89696653  0.87910834  0.85072560  1
  S  S23  1  0.96041815  0.75419972  0.49443029  1
  O  O24  1  0.03732260  0.63663143  0.55720799  1
  O  O25  1  0.06574235  0.62006393  0.12640259  1
  O  O26  1  0.06891385  0.90696091  0.82451542  1
  O  O27  1  0.06747619  0.81321379  0.40619633  1
  O  O28  1  0.08886809  0.12252296  0.43070920  1
  O  O29  1  0.11749038  0.29076733  0.17067231  1
  O  O30  1  0.13451853  0.09129902  0.03539313  1
  O  O31  1  0.13936906  0.51072692  0.76882626  1
  O  O32  1  0.17978576  0.30808588  0.56043509  1
  O  O33  1  0.16699659  0.24304917  0.81061126  1
  O  O34  1  0.19142553  0.43478950  0.94910034  1
  O  O35  1  0.20378851  0.03059175  0.21710724  1
  O  O36  1  0.29621149  0.53059175  0.28289276  1
  O  O37  1  0.30857447  0.93478950  0.55089966  1
  O  O38  1  0.33300341  0.74304917  0.68938874  1
  O  O39  1  0.32021424  0.80808588  0.93956491  1
  O  O40  1  0.36548147  0.59129902  0.46460687  1
  O  O41  1  0.36063094  0.01072692  0.73117374  1
  O  O42  1  0.38250962  0.79076833  0.32932769  1
  O  O43  1  0.41113191  0.62252296  0.06929080  1
  O  O44  1  0.43252381  0.31321379  0.09380367  1
  O  O45  1  0.43425765  0.12006393  0.37359741  1
  O  O46  1  0.43108615  0.40696091  0.67548458  1
  O  O47  1  0.46267740  0.13663143  0.94279201  1
  O  O48  1  0.53732260  0.86336857  0.05720799  1
  O  O49  1  0.56891385  0.59303909  0.32451542  1
  O  O50  1  0.56574235  0.87993607  0.62640259  1
  O  O51  1  0.56747619  0.68678621  0.90619633  1
  O  O52  1  0.58886809  0.37747704  0.93070920  1
  O  O53  1  0.61749038  0.20923267  0.67067231  1
  O  O54  1  0.63936906  0.98927308  0.26882626  1
  O  O55  1  0.63451853  0.40870098  0.53539313  1
  O  O56  1  0.67978576  0.19191412  0.06043509  1
  O  O57  1  0.66699659  0.25695083  0.31061126  1
  O  O58  1  0.69142553  0.06521050  0.44910034  1
  O  O59  1  0.70378851  0.46940825  0.71710724  1
  O  O60  1  0.79621149  0.96940825  0.78289276  1
  O  O61  1  0.80857447  0.56521050  0.05089966  1
  O  O62  1  0.83300341  0.75695083  0.18938874  1
  O  O63  1  0.82021424  0.69191412  0.43956491  1
  O  O64  1  0.86063094  0.48927308  0.23117374  1
  O  O65  1  0.86548147  0.90870098  0.96460687  1
  O  O66  1  0.88250962  0.70923167  0.82932769  1
  O  O67  1  0.91113191  0.87747704  0.56929080  1
  O  O68  1  0.93252381  0.18678621  0.59380367  1
  O  O69  1  0.93108615  0.09303909  0.17548458  1
  O  O70  1  0.93425765  0.37993607  0.87359741  1
  O  O71  1  0.96267740  0.36336857  0.44279201  1
