# generated using pymatgen
data_Li9Mn2Co5O16
_symmetry_space_group_name_H-M   'P 1'
_cell_length_a   2.93692804
_cell_length_b   19.36700272
_cell_length_c   5.12155944
_cell_angle_alpha   94.51415491
_cell_angle_beta   91.30250253
_cell_angle_gamma   84.37152836
_symmetry_Int_Tables_number   1
_chemical_formula_structural   Li9Mn2Co5O16
_chemical_formula_sum   'Li9 Mn2 Co5 O16'
_cell_volume   288.97482682
_cell_formula_units_Z   1
loop_
 _symmetry_equiv_pos_site_id
 _symmetry_equiv_pos_as_xyz
  1  'x, y, z'
loop_
 _atom_site_type_symbol
 _atom_site_label
 _atom_site_symmetry_multiplicity
 _atom_site_fract_x
 _atom_site_fract_y
 _atom_site_fract_z
 _atom_site_occupancy
  Li  Li0  1  0.86348632  0.12607914  0.39437804  1
  Li  Li1  1  0.26111661  0.24983463  0.24748001  1
  Li  Li2  1  0.63271663  0.37286478  0.12472162  1
  Li  Li3  1  0.00077117  0.49896000  0.99968561  1
  Li  Li4  1  0.37338727  0.62559372  0.87343460  1
  Li  Li5  1  0.74873433  0.74988743  0.75198167  1
  Li  Li6  1  0.12787367  0.87405603  0.61907764  1
  Li  Li7  1  0.48929557  0.00445374  0.50639915  1
  Li  Li8  1  0.39011478  0.12316540  0.85933989  1
  Mn  Mn9  1  0.99157866  0.00361095  0.99679621  1
  Mn  Mn10  1  0.25550252  0.75133974  0.24433189  1
  Co  Co11  1  0.75807918  0.24446952  0.76038615  1
  Co  Co12  1  0.12950133  0.37317629  0.63538576  1
  Co  Co13  1  0.49825991  0.49868411  0.50129810  1
  Co  Co14  1  0.87815223  0.62410742  0.36862700  1
  Co  Co15  1  0.60744071  0.87679226  0.12703317  1
  O  O16  1  0.46187858  0.05602412  0.16606030  1
  O  O17  1  0.80459615  0.19520642  0.02746637  1
  O  O18  1  0.16841026  0.30893346  0.92438473  1
  O  O19  1  0.55389005  0.43353633  0.80084804  1
  O  O20  1  0.93232835  0.55861376  0.66936231  1
  O  O21  1  0.30540096  0.68558885  0.53463476  1
  O  O22  1  0.65495546  0.81518990  0.41980796  1
  O  O23  1  0.02132909  0.93728531  0.28434529  1
  O  O24  1  0.34115846  0.19294619  0.56852570  1
  O  O25  1  0.69685309  0.31275738  0.47754714  1
  O  O26  1  0.06898739  0.43944048  0.33150040  1
  O  O27  1  0.44490907  0.56574209  0.20445167  1
  O  O28  1  0.84986992  0.68912286  0.06745237  1
  O  O29  1  0.20541474  0.81559311  0.95473560  1
  O  O30  1  0.53160789  0.94150091  0.84812926  1
  O  O31  1  0.95239164  0.05544570  0.71038661  1
