# generated using pymatgen
data_Na5Mn2P2(CO7)2
_symmetry_space_group_name_H-M   'P 1'
_cell_length_a   11.22441360
_cell_length_b   11.24397921
_cell_length_c   5.22799610
_cell_angle_alpha   89.48387482
_cell_angle_beta   89.33462547
_cell_angle_gamma   73.55801942
_symmetry_Int_Tables_number   1
_chemical_formula_structural   Na5Mn2P2(CO7)2
_chemical_formula_sum   'Na10 Mn4 P4 C4 O28'
_cell_volume   632.77444027
_cell_formula_units_Z   2
loop_
 _symmetry_equiv_pos_site_id
 _symmetry_equiv_pos_as_xyz
  1  'x, y, z'
loop_
 _atom_site_type_symbol
 _atom_site_label
 _atom_site_symmetry_multiplicity
 _atom_site_fract_x
 _atom_site_fract_y
 _atom_site_fract_z
 _atom_site_occupancy
  Na  Na0  1  0.11419811  0.12525372  0.24149072  1
  Na  Na1  1  0.37062986  0.37167835  0.75027293  1
  Na  Na2  1  0.62789672  0.12381912  0.75387670  1
  Na  Na3  1  0.11781034  0.62997061  0.75601481  1
  Na  Na4  1  0.58578605  0.33370067  0.24272744  1
  Na  Na5  1  0.41421395  0.66629933  0.75727256  1
  Na  Na6  1  0.88218966  0.37002939  0.24398519  1
  Na  Na7  1  0.62937014  0.62832165  0.24972707  1
  Na  Na8  1  0.37210328  0.87618088  0.24612330  1
  Na  Na9  1  0.88580189  0.87474628  0.75850928  1
  Mn  Mn10  1  0.29958085  0.05496296  0.77719387  1
  Mn  Mn11  1  0.19136649  0.44718048  0.21919425  1
  Mn  Mn12  1  0.80863351  0.55281952  0.78080575  1
  Mn  Mn13  1  0.70041915  0.94503704  0.22280613  1
  P  P14  1  0.08407559  0.33157399  0.70521711  1
  P  P15  1  0.41622495  0.16388226  0.29887335  1
  P  P16  1  0.58377505  0.83611774  0.70112665  1
  P  P17  1  0.91592441  0.66842601  0.29478289  1
  C  C18  1  0.83743122  0.08840539  0.27609697  1
  C  C19  1  0.34624382  0.59394558  0.26616842  1
  C  C20  1  0.65375618  0.40605442  0.73383158  1
  C  C21  1  0.16256878  0.91159461  0.72390303  1
  O  O22  1  0.13615632  0.19402476  0.79463985  1
  O  O23  1  0.09231847  0.33656529  0.40645138  1
  O  O24  1  0.34081337  0.08773055  0.16512830  1
  O  O25  1  0.16289717  0.41190271  0.81929128  1
  O  O26  1  0.40156378  0.14886210  0.59861564  1
  O  O27  1  0.05258963  0.62048362  0.20702727  1
  O  O28  1  0.55750703  0.11804938  0.23015653  1
  O  O29  1  0.37386325  0.30346185  0.22999357  1
  O  O30  1  0.30380087  0.55316747  0.47155446  1
  O  O31  1  0.79723546  0.04533901  0.48078223  1
  O  O32  1  0.79870126  0.04971110  0.05987421  1
  O  O33  1  0.31743108  0.56027780  0.04312535  1
  O  O34  1  0.09628373  0.83844899  0.72938533  1
  O  O35  1  0.58161990  0.33423466  0.71682367  1
  O  O36  1  0.41838010  0.66576534  0.28317633  1
  O  O37  1  0.90371627  0.16155101  0.27061467  1
  O  O38  1  0.68256892  0.43972220  0.95687465  1
  O  O39  1  0.20129874  0.95028890  0.94012579  1
  O  O40  1  0.69619913  0.44683253  0.52844554  1
  O  O41  1  0.20276454  0.95466099  0.51921777  1
  O  O42  1  0.44249297  0.88195062  0.76984347  1
  O  O43  1  0.94741037  0.37951638  0.79297273  1
  O  O44  1  0.62613675  0.69653815  0.77000643  1
  O  O45  1  0.59843622  0.85113790  0.40138436  1
  O  O46  1  0.83710283  0.58809729  0.18070872  1
  O  O47  1  0.65918663  0.91226945  0.83487170  1
  O  O48  1  0.90768153  0.66343471  0.59354862  1
  O  O49  1  0.86384368  0.80597524  0.20536015  1
