# generated using pymatgen
data_UAs2H6O11
_symmetry_space_group_name_H-M   'P 1'
_cell_length_a   8.08597332
_cell_length_b   8.08597332
_cell_length_c   8.93513352
_cell_angle_alpha   81.77043730
_cell_angle_beta   64.44417014
_cell_angle_gamma   111.41588555
_symmetry_Int_Tables_number   1
_chemical_formula_structural   UAs2H6O11
_chemical_formula_sum   'U2 As4 H12 O22'
_cell_volume   458.14394236
_cell_formula_units_Z   2
loop_
 _symmetry_equiv_pos_site_id
 _symmetry_equiv_pos_as_xyz
  1  'x, y, z'
loop_
 _atom_site_type_symbol
 _atom_site_label
 _atom_site_symmetry_multiplicity
 _atom_site_fract_x
 _atom_site_fract_y
 _atom_site_fract_z
 _atom_site_occupancy
  U  U0  1  0.09208656  0.34208656  0.25000000  1
  U  U1  1  0.90791344  0.65791344  0.75000000  1
  As  As2  1  0.24672533  0.81205743  0.94249782  1
  As  As3  1  0.74544576  0.81077785  0.44249782  1
  As  As4  1  0.25455424  0.18922215  0.55750218  1
  As  As5  1  0.75327467  0.18794257  0.05750218  1
  H  H6  1  0.33269918  0.68462383  0.32526870  1
  H  H7  1  0.41652783  0.79071807  0.58210712  1
  H  H8  1  0.50989254  0.65796788  0.17473130  1
  H  H9  1  0.57819087  0.83891090  0.78197533  1
  H  H10  1  0.12088623  0.36016620  0.71802467  1
  H  H11  1  0.87282519  0.99863395  0.91789288  1
  H  H12  1  0.12717481  0.00136605  0.08210712  1
  H  H13  1  0.87911377  0.63983380  0.28197533  1
  H  H14  1  0.42180913  0.16108910  0.21802467  1
  H  H15  1  0.49010746  0.34203212  0.82526870  1
  H  H16  1  0.58347217  0.20928193  0.41789288  1
  H  H17  1  0.66730082  0.31537617  0.67473130  1
  O  O18  1  0.02857314  0.98574228  0.71251120  1
  O  O19  1  0.08871545  0.63755058  0.14885443  1
  O  O20  1  0.08972876  0.70131012  0.52172735  1
  O  O21  1  0.19825249  0.74108434  0.78748880  1
  O  O22  1  0.51101233  0.90059634  0.86316248  1
  O  O23  1  0.53291402  0.83283031  0.45669686  1
  O  O24  1  0.35970196  0.60970196  0.25000000  1
  O  O25  1  0.78952717  0.98961089  0.04330314  1
  O  O26  1  0.27696353  0.38854389  0.02172735  1
  O  O27  1  0.26375882  0.37417482  0.63683752  1
  O  O28  1  0.71359499  0.76243012  0.64885443  1
  O  O29  1  0.28640501  0.23756988  0.35114557  1
  O  O30  1  0.73624118  0.62582518  0.36316248  1
  O  O31  1  0.72303647  0.61145611  0.97827265  1
  O  O32  1  0.21047283  0.01038911  0.95669686  1
  O  O33  1  0.64029804  0.39029804  0.75000000  1
  O  O34  1  0.46708598  0.16716969  0.54330314  1
  O  O35  1  0.48898767  0.09940366  0.13683752  1
  O  O36  1  0.80174751  0.25891566  0.21251120  1
  O  O37  1  0.91027124  0.29868988  0.47827265  1
  O  O38  1  0.91128455  0.36244942  0.85114557  1
  O  O39  1  0.97142686  0.01425772  0.28748880  1
