# generated using pymatgen
data_Li8Mn15NiO32
_symmetry_space_group_name_H-M   'P 1'
_cell_length_a   8.37453451
_cell_length_b   8.37453451
_cell_length_c   8.37453451
_cell_angle_alpha   90.21078382
_cell_angle_beta   89.78921618
_cell_angle_gamma   89.78921618
_symmetry_Int_Tables_number   1
_chemical_formula_structural   Li8Mn15NiO32
_chemical_formula_sum   'Li8 Mn15 Ni1 O32'
_cell_volume   587.31783730
_cell_formula_units_Z   1
loop_
 _symmetry_equiv_pos_site_id
 _symmetry_equiv_pos_as_xyz
  1  'x, y, z'
loop_
 _atom_site_type_symbol
 _atom_site_label
 _atom_site_symmetry_multiplicity
 _atom_site_fract_x
 _atom_site_fract_y
 _atom_site_fract_z
 _atom_site_occupancy
  Li  Li0  1  0.00352598  0.00146321  0.00098930  1
  Li  Li1  1  0.24647402  0.24901070  0.24853679  1
  Li  Li2  1  0.25146321  0.75352598  0.74901070  1
  Li  Li3  1  0.49901070  0.99647402  0.50146321  1
  Li  Li4  1  0.50187602  0.49812398  0.99812398  1
  Li  Li5  1  0.74812398  0.25187602  0.75187602  1
  Li  Li6  1  0.75098930  0.74853679  0.25352598  1
  Li  Li7  1  0.99853679  0.50098930  0.49647402  1
  Mn  Mn8  1  0.12036464  0.12384286  0.62722902  1
  Mn  Mn9  1  0.12500000  0.37906055  0.87093945  1
  Mn  Mn10  1  0.12963536  0.62277098  0.12615714  1
  Mn  Mn11  1  0.37443969  0.37500000  0.62443969  1
  Mn  Mn12  1  0.36839129  0.11839129  0.87500000  1
  Mn  Mn13  1  0.37722902  0.62615714  0.37036464  1
  Mn  Mn14  1  0.37384286  0.87036464  0.12277098  1
  Mn  Mn15  1  0.62093945  0.37093945  0.37500000  1
  Mn  Mn16  1  0.62500000  0.12443969  0.12556031  1
  Mn  Mn17  1  0.62500000  0.63160871  0.61839129  1
  Mn  Mn18  1  0.62906055  0.87500000  0.87906055  1
  Mn  Mn19  1  0.87615714  0.12722902  0.37963536  1
  Mn  Mn20  1  0.88160871  0.37500000  0.13160871  1
  Mn  Mn21  1  0.87277098  0.87963536  0.62384286  1
  Mn  Mn22  1  0.87556031  0.62556031  0.87500000  1
  Ni  Ni23  1  0.12500000  0.87500000  0.37500000  1
  O  O24  1  0.10551240  0.12376249  0.39790388  1
  O  O25  1  0.10209612  0.89448760  0.62376249  1
  O  O26  1  0.11339114  0.61250627  0.88890115  1
  O  O27  1  0.12745558  0.39138969  0.10170127  1
  O  O28  1  0.12254442  0.14829873  0.85861031  1
  O  O29  1  0.13660886  0.36109885  0.63749373  1
  O  O30  1  0.14790388  0.62623751  0.35551240  1
  O  O31  1  0.14448760  0.85209612  0.12623751  1
  O  O32  1  0.34874225  0.11626564  0.64404677  1
  O  O33  1  0.35582108  0.37066766  0.85814126  1
  O  O34  1  0.36413013  0.63586987  0.13586987  1
  O  O35  1  0.37376249  0.85551240  0.35209612  1
  O  O36  1  0.39404677  0.63373536  0.59874225  1
  O  O37  1  0.38749373  0.38890115  0.38660886  1
  O  O38  1  0.36626564  0.09874225  0.10595323  1
  O  O39  1  0.39829873  0.87254442  0.89138969  1
  O  O40  1  0.60814126  0.37933234  0.60582108  1
  O  O41  1  0.60861031  0.60170127  0.37254442  1
  O  O42  1  0.61109885  0.88660886  0.11250627  1
  O  O43  1  0.62066766  0.10582108  0.89185874  1
  O  O44  1  0.62933234  0.35814126  0.14417892  1
  O  O45  1  0.63890115  0.13749373  0.36339114  1
  O  O46  1  0.64138969  0.87745558  0.64829873  1
  O  O47  1  0.64185874  0.64417892  0.87066766  1
  O  O48  1  0.85170127  0.35861031  0.37745558  1
  O  O49  1  0.88373536  0.14404677  0.15125775  1
  O  O50  1  0.86250627  0.86339114  0.86109885  1
  O  O51  1  0.85595323  0.65125775  0.61626464  1
  O  O52  1  0.87623751  0.89790388  0.39448760  1
  O  O53  1  0.88586987  0.11413013  0.61413013  1
  O  O54  1  0.89417892  0.39185874  0.87933234  1
  O  O55  1  0.90125775  0.60595323  0.13373536  1
