# generated using pymatgen
data_Li4MnV3(P2O7)4
_symmetry_space_group_name_H-M   'P 1'
_cell_length_a   4.86733313
_cell_length_b   16.58686536
_cell_length_c   7.05407830
_cell_angle_alpha   90.61039236
_cell_angle_beta   108.79605757
_cell_angle_gamma   89.58795166
_symmetry_Int_Tables_number   1
_chemical_formula_structural   Li4MnV3(P2O7)4
_chemical_formula_sum   'Li4 Mn1 V3 P8 O28'
_cell_volume   539.09694312
_cell_formula_units_Z   1
loop_
 _symmetry_equiv_pos_site_id
 _symmetry_equiv_pos_as_xyz
  1  'x, y, z'
loop_
 _atom_site_type_symbol
 _atom_site_label
 _atom_site_symmetry_multiplicity
 _atom_site_fract_x
 _atom_site_fract_y
 _atom_site_fract_z
 _atom_site_occupancy
  Li  Li0  1  0.17410363  0.93121459  0.67409175  1
  Li  Li1  1  0.17642787  0.43080026  0.67461099  1
  Li  Li2  1  0.82347873  0.18011350  0.32451898  1
  Li  Li3  1  0.82247062  0.68064622  0.32557751  1
  Mn  Mn4  1  0.78422612  0.99978104  0.26859594  1
  V  V5  1  0.21617557  0.24982024  0.72631363  1
  V  V6  1  0.21381421  0.74972539  0.72899078  1
  V  V7  1  0.78386277  0.49984295  0.27158743  1
  P  P8  1  0.40220158  0.08866023  0.52197917  1
  P  P9  1  0.39986449  0.58990865  0.52271066  1
  P  P10  1  0.21331614  0.39187589  0.08565883  1
  P  P11  1  0.21336396  0.89233916  0.08841991  1
  P  P12  1  0.79004203  0.14349580  0.91327163  1
  P  P13  1  0.78756184  0.64228188  0.91439620  1
  P  P14  1  0.60124130  0.84025639  0.48268646  1
  P  P15  1  0.60036422  0.34026459  0.47725373  1
  O  O16  1  0.04961099  0.16309484  0.84642549  1
  O  O17  1  0.04983219  0.66242420  0.85133875  1
  O  O18  1  0.13275727  0.34820695  0.88436331  1
  O  O19  1  0.13113006  0.84755339  0.88816095  1
  O  O20  1  0.18945501  0.01773192  0.48219015  1
  O  O21  1  0.18675998  0.51906510  0.48205573  1
  O  O22  1  0.24674566  0.67153667  0.50685679  1
  O  O23  1  0.25019601  0.17081634  0.50543157  1
  O  O24  1  0.39662472  0.33880967  0.60415526  1
  O  O25  1  0.39224758  0.83735247  0.60584638  1
  O  O26  1  0.60053178  0.21817550  0.91322135  1
  O  O27  1  0.60025177  0.71703571  0.91653445  1
  O  O28  1  0.59853073  0.07663045  0.75278237  1
  O  O29  1  0.59634936  0.57634854  0.75283590  1
  O  O30  1  0.40549673  0.32652716  0.24598076  1
  O  O31  1  0.40516760  0.82778942  0.24931116  1
  O  O32  1  0.39745780  0.46663183  0.08443390  1
  O  O33  1  0.39575903  0.96712146  0.08395285  1
  O  O34  1  0.60302267  0.58859982  0.39524964  1
  O  O35  1  0.60388753  0.08762621  0.39168604  1
  O  O36  1  0.75216709  0.42180002  0.49415717  1
  O  O37  1  0.75426631  0.92093082  0.50564022  1
  O  O38  1  0.81173444  0.76812749  0.51807035  1
  O  O39  1  0.81418115  0.26912139  0.51622731  1
  O  O40  1  0.87457592  0.10204329  0.11456468  1
  O  O41  1  0.86740866  0.59866920  0.11406416  1
  O  O42  1  0.94969169  0.41202869  0.14851096  1
  O  O43  1  0.94164421  0.91275765  0.14529074  1
