# generated using pymatgen
data_Li2V3WO8
_symmetry_space_group_name_H-M   'P 1'
_cell_length_a   8.62041711
_cell_length_b   8.58555431
_cell_length_c   8.61406602
_cell_angle_alpha   90.01282968
_cell_angle_beta   89.98205282
_cell_angle_gamma   90.01619009
_symmetry_Int_Tables_number   1
_chemical_formula_structural   Li2V3WO8
_chemical_formula_sum   'Li8 V12 W4 O32'
_cell_volume   637.53607823
_cell_formula_units_Z   4
loop_
 _symmetry_equiv_pos_site_id
 _symmetry_equiv_pos_as_xyz
  1  'x, y, z'
loop_
 _atom_site_type_symbol
 _atom_site_label
 _atom_site_symmetry_multiplicity
 _atom_site_fract_x
 _atom_site_fract_y
 _atom_site_fract_z
 _atom_site_occupancy
  Li  Li0  1  0.99873247  0.99956779  0.99927726  1
  Li  Li1  1  0.25037994  0.25156924  0.25132112  1
  Li  Li2  1  0.24966542  0.74844203  0.75113183  1
  Li  Li3  1  0.50106050  0.00052926  0.49876847  1
  Li  Li4  1  0.49850566  0.50040182  0.00087210  1
  Li  Li5  1  0.75013013  0.24905673  0.74910057  1
  Li  Li6  1  0.74938238  0.75193292  0.24919518  1
  Li  Li7  1  0.00114313  0.49912835  0.50136534  1
  V  V8  1  0.12219654  0.12791344  0.62605489  1
  V  V9  1  0.12285815  0.37932946  0.87162304  1
  V  V10  1  0.13040115  0.62587753  0.12030810  1
  V  V11  1  0.36987822  0.37351798  0.62012294  1
  V  V12  1  0.37742530  0.62062127  0.37091292  1
  V  V13  1  0.37805370  0.87192388  0.12579014  1
  V  V14  1  0.62218643  0.37207564  0.37360699  1
  V  V15  1  0.62232491  0.12143549  0.12907887  1
  V  V16  1  0.62994871  0.87359193  0.87969445  1
  V  V17  1  0.87002713  0.12648419  0.38057038  1
  V  V18  1  0.87726166  0.87917476  0.62884207  1
  V  V19  1  0.87797405  0.62832657  0.87372254  1
  W  W20  1  0.12624664  0.87541044  0.37529372  1
  W  W21  1  0.37393759  0.12408164  0.87539580  1
  W  W22  1  0.62601078  0.62419863  0.62450628  1
  W  W23  1  0.87387527  0.37595263  0.12441533  1
  O  O24  1  0.11099797  0.10674161  0.38040754  1
  O  O25  1  0.11828059  0.88918424  0.61264419  1
  O  O26  1  0.11257004  0.61334249  0.88714906  1
  O  O27  1  0.14057588  0.13949440  0.86982974  1
  O  O28  1  0.10982349  0.38381162  0.11206716  1
  O  O29  1  0.13703002  0.36278265  0.63715888  1
  O  O30  1  0.13302780  0.64372593  0.36313197  1
  O  O31  1  0.13930963  0.86750168  0.13771040  1
  O  O32  1  0.36055601  0.13196925  0.63767737  1
  O  O33  1  0.36682295  0.35640242  0.86269811  1
  O  O34  1  0.36300174  0.63690564  0.13699962  1
  O  O35  1  0.39139512  0.61623598  0.61219050  1
  O  O36  1  0.35976769  0.86010501  0.36950721  1
  O  O37  1  0.38753987  0.38657197  0.38709255  1
  O  O38  1  0.38148489  0.11054500  0.11262590  1
  O  O39  1  0.38935882  0.89265540  0.88018942  1
  O  O40  1  0.61093602  0.39299054  0.61954318  1
  O  O41  1  0.61854448  0.61070553  0.38716629  1
  O  O42  1  0.61279718  0.88697220  0.11269037  1
  O  O43  1  0.63889164  0.36020632  0.13051455  1
  O  O44  1  0.60822660  0.11634110  0.88758189  1
  O  O45  1  0.63724135  0.13687068  0.36293682  1
  O  O46  1  0.63324831  0.85619578  0.63680293  1
  O  O47  1  0.63945313  0.63218897  0.86207429  1
  O  O48  1  0.86100666  0.36774481  0.36224569  1
  O  O49  1  0.86746845  0.14513443  0.13717341  1
  O  O50  1  0.86301458  0.86321578  0.86292583  1
  O  O51  1  0.89128069  0.88401009  0.38756287  1
  O  O52  1  0.85967394  0.63978102  0.63024180  1
  O  O53  1  0.88733247  0.11344604  0.61325786  1
  O  O54  1  0.88140471  0.38970399  0.88766821  1
  O  O55  1  0.88833539  0.60611486  0.11970607  1
