# generated using pymatgen
data_Li4MnV3(P2O7)4
_symmetry_space_group_name_H-M   'P 1'
_cell_length_a   4.87726023
_cell_length_b   8.29197624
_cell_length_c   13.36768972
_cell_angle_alpha   90.48543222
_cell_angle_beta   88.58581023
_cell_angle_gamma   89.65292808
_symmetry_Int_Tables_number   1
_chemical_formula_structural   Li4MnV3(P2O7)4
_chemical_formula_sum   'Li4 Mn1 V3 P8 O28'
_cell_volume   540.42310813
_cell_formula_units_Z   1
loop_
 _symmetry_equiv_pos_site_id
 _symmetry_equiv_pos_as_xyz
  1  'x, y, z'
loop_
 _atom_site_type_symbol
 _atom_site_label
 _atom_site_symmetry_multiplicity
 _atom_site_fract_x
 _atom_site_fract_y
 _atom_site_fract_z
 _atom_site_occupancy
  Li  Li0  1  0.16084061  0.36031190  0.66267133  1
  Li  Li1  1  0.33728480  0.86129929  0.83675919  1
  Li  Li2  1  0.66004938  0.36113939  0.16262759  1
  Li  Li3  1  0.83887868  0.86248978  0.33783436  1
  Mn  Mn4  1  0.15006615  0.99928918  0.63422709  1
  V  V5  1  0.35096007  0.49867211  0.86408770  1
  V  V6  1  0.64849647  -0.00009019  0.13572842  1
  V  V7  1  0.85099165  0.50050244  0.36361272  1
  P  P8  1  0.13900485  0.18041044  0.26173852  1
  P  P9  1  0.17113615  0.78327873  0.04321002  1
  P  P10  1  0.33204530  0.28744425  0.45670051  1
  P  P11  1  0.36074901  0.68096082  0.23887642  1
  P  P12  1  0.64054206  0.17720096  0.76068676  1
  P  P13  1  0.66958293  0.78423677  0.54426469  1
  P  P14  1  0.83041680  0.28412132  0.95675799  1
  P  P15  1  0.86107798  0.68008310  0.74105574  1
  O  O16  1  0.00131367  0.84179855  0.75268361  1
  O  O17  1  0.05335664  0.53587771  0.75867813  1
  O  O18  1  0.09413205  0.67836923  0.30225576  1
  O  O19  1  0.14343291  0.43687046  0.45652417  1
  O  O20  1  0.12387588  0.32467646  0.92566029  1
  O  O21  1  0.22027244  0.15407412  0.37663312  1
  O  O22  1  0.19117207  0.69541524  0.94314369  1
  O  O23  1  0.28239658  0.65284153  0.12345337  1
  O  O24  1  0.31727632  0.20448734  0.55716790  1
  O  O25  1  0.35577556  0.93301082  0.04239242  1
  O  O26  1  0.36962528  0.82453204  0.57227454  1
  O  O27  1  0.40488557  0.17765491  0.19758352  1
  O  O28  1  0.44818522  0.03538097  0.74058528  1
  O  O29  1  0.50426734  0.84406442  0.24724990  1
  O  O30  1  0.49635906  0.34093014  0.75311873  1
  O  O31  1  0.55488113  0.53922216  0.25862891  1
  O  O32  1  0.59083307  0.67415420  0.80258436  1
  O  O33  1  0.62460760  0.32658865  0.42281529  1
  O  O34  1  0.64235260  0.43346204  0.95792860  1
  O  O35  1  0.68784727  0.69552507  0.44383519  1
  O  O36  1  0.72153313  0.15194439  0.87600219  1
  O  O37  1  0.80993257  0.19737732  0.05684759  1
  O  O38  1  0.78168443  0.65554965  0.62457726  1
  O  O39  1  0.87645048  0.82396939  0.07461649  1
  O  O40  1  0.85409105  0.93390179  0.54161885  1
  O  O41  1  0.90689785  0.17560335  0.69584510  1
  O  O42  1  0.94581014  0.03890298  0.24124881  1
  O  O43  1  0.99462722  0.34362580  0.25320891  1
