# generated using pymatgen
data_Hf2N2O
_symmetry_space_group_name_H-M   'P 1'
_cell_length_a   8.72722000
_cell_length_b   8.73237893
_cell_length_c   8.74160676
_cell_angle_alpha   109.53243300
_cell_angle_beta   109.48689259
_cell_angle_gamma   109.43804655
_symmetry_Int_Tables_number   1
_chemical_formula_structural   Hf2N2O
_chemical_formula_sum   'Hf16 N16 O8'
_cell_volume   512.55816096
_cell_formula_units_Z   8
loop_
 _symmetry_equiv_pos_site_id
 _symmetry_equiv_pos_as_xyz
  1  'x, y, z'
loop_
 _atom_site_type_symbol
 _atom_site_label
 _atom_site_symmetry_multiplicity
 _atom_site_fract_x
 _atom_site_fract_y
 _atom_site_fract_z
 _atom_site_occupancy
  Hf  Hf0  1  0.96071828  0.24855796  0.21922921  1
  Hf  Hf1  1  0.50685035  0.00536930  0.99621177  1
  Hf  Hf2  1  0.78013611  0.03219326  0.75292404  1
  Hf  Hf3  1  0.71496148  0.46621788  0.25129663  1
  Hf  Hf4  1  0.75568046  0.29443373  0.53810208  1
  Hf  Hf5  1  0.74953885  0.77868635  0.03138427  1
  Hf  Hf6  1  0.99666852  0.50392254  0.98727510  1
  Hf  Hf7  1  0.00720597  0.99660546  0.50779509  1
  Hf  Hf8  1  0.50283674  0.50848914  0.51319947  1
  Hf  Hf9  1  0.46481112  0.24942078  0.72088723  1
  Hf  Hf10  1  0.53684364  0.75034161  0.28957595  1
  Hf  Hf11  1  0.25644086  0.71673045  0.46898044  1
  Hf  Hf12  1  0.24619769  0.21335781  0.95418249  1
  Hf  Hf13  1  0.28131931  0.53334844  0.74167290  1
  Hf  Hf14  1  0.21492312  0.95351762  0.24973755  1
  Hf  Hf15  1  0.03193115  0.74694260  0.77903990  1
  N  N16  1  0.74226824  0.22476383  0.27526743  1
  N  N17  1  0.77083838  0.72624912  0.25979143  1
  N  N18  1  0.72657966  0.25788734  0.77046067  1
  N  N19  1  0.76826892  0.54340458  0.53121283  1
  N  N20  1  0.22557918  0.45126534  0.46203519  1
  N  N21  1  0.50815482  0.23871125  0.96949696  1
  N  N22  1  0.27371029  0.73606609  0.22307169  1
  N  N23  1  0.98991455  0.95925736  0.73087194  1
  N  N24  1  0.95891744  0.73187568  0.99305559  1
  N  N25  1  0.54529517  0.53396259  0.77251911  1
  N  N26  1  0.22300168  0.27287413  0.73939426  1
  N  N27  1  0.53626732  0.77172700  0.54275796  1
  N  N28  1  0.03270476  0.48679397  0.76011001  1
  N  N29  1  0.72975662  0.98812182  0.95647497  1
  N  N30  1  0.26388633  0.77698942  0.73045480  1
  N  N31  1  0.23640935  0.96650177  0.50735651  1
  O  O32  1  0.75658773  0.03094185  0.48186510  1
  O  O33  1  0.96358248  0.50707006  0.23583835  1
  O  O34  1  0.27714269  0.01611535  0.05301001  1
  O  O35  1  0.46189998  0.22561586  0.44781437  1
  O  O36  1  0.44966287  0.46461777  0.22471911  1
  O  O37  1  0.05192389  0.27946458  0.01978595  1
  O  O38  1  0.01279740  0.04833036  0.27490939  1
  O  O39  1  0.48778459  0.76325994  0.03623129  1
