# generated using pymatgen
data_Na3VSiCO7
_symmetry_space_group_name_H-M   'P 1'
_cell_length_a   9.08078455
_cell_length_b   6.62462920
_cell_length_c   5.22799268
_cell_angle_alpha   90.00000000
_cell_angle_beta   89.03548588
_cell_angle_gamma   90.00000000
_symmetry_Int_Tables_number   1
_chemical_formula_structural   Na3VSiCO7
_chemical_formula_sum   'Na6 V2 Si2 C2 O14'
_cell_volume   314.45490872
_cell_formula_units_Z   2
loop_
 _symmetry_equiv_pos_site_id
 _symmetry_equiv_pos_as_xyz
  1  'x, y, z'
loop_
 _atom_site_type_symbol
 _atom_site_label
 _atom_site_symmetry_multiplicity
 _atom_site_fract_x
 _atom_site_fract_y
 _atom_site_fract_z
 _atom_site_occupancy
  Na  Na0  1  0.08631776  0.25000000  0.76495847  1
  Na  Na1  1  0.26674030  0.00985966  0.25330902  1
  Na  Na2  1  0.26674030  0.49014034  0.25330902  1
  Na  Na3  1  0.73325970  0.50985966  0.74669098  1
  Na  Na4  1  0.73325970  0.99014034  0.74669098  1
  Na  Na5  1  0.91368224  0.75000000  0.23504153  1
  V  V6  1  0.34812794  0.75000000  0.79665952  1
  V  V7  1  0.65187206  0.25000000  0.20334048  1
  Si  Si8  1  0.41798680  0.25000000  0.70009457  1
  Si  Si9  1  0.58201320  0.75000000  0.29990543  1
  C  C10  1  0.06212736  0.75000000  0.72905403  1
  C  C11  1  0.93787264  0.25000000  0.27094597  1
  O  O12  1  0.07963885  0.25000000  0.28730583  1
  O  O13  1  0.12429829  0.75000000  0.95228307  1
  O  O14  1  0.14744821  0.75000000  0.52537598  1
  O  O15  1  0.31499616  0.05125759  0.77592137  1
  O  O16  1  0.31499616  0.44874241  0.77592137  1
  O  O17  1  0.45102604  0.25000000  0.39054641  1
  O  O18  1  0.42607509  0.75000000  0.14286239  1
  O  O19  1  0.57392491  0.25000000  0.85713761  1
  O  O20  1  0.54897396  0.75000000  0.60945359  1
  O  O21  1  0.68500384  0.55125759  0.22407863  1
  O  O22  1  0.68500384  0.94874241  0.22407863  1
  O  O23  1  0.85255179  0.25000000  0.47462402  1
  O  O24  1  0.87570171  0.25000000  0.04771693  1
  O  O25  1  0.92036115  0.75000000  0.71269417  1
