# generated using pymatgen
data_Li2Ti3CrO8
_symmetry_space_group_name_H-M   'P 1'
_cell_length_a   5.97251533
_cell_length_b   5.97251533
_cell_length_c   5.97251533
_cell_angle_alpha   59.88869183
_cell_angle_beta   59.88869183
_cell_angle_gamma   59.88869183
_symmetry_Int_Tables_number   1
_chemical_formula_structural   Li2Ti3CrO8
_chemical_formula_sum   'Li2 Ti3 Cr1 O8'
_cell_volume   150.26528796
_cell_formula_units_Z   1
loop_
 _symmetry_equiv_pos_site_id
 _symmetry_equiv_pos_as_xyz
  1  'x, y, z'
loop_
 _atom_site_type_symbol
 _atom_site_label
 _atom_site_symmetry_multiplicity
 _atom_site_fract_x
 _atom_site_fract_y
 _atom_site_fract_z
 _atom_site_occupancy
  Li  Li0  1  0.00014893  0.00014893  0.00014893  1
  Li  Li1  1  0.24985107  0.24985107  0.24985107  1
  Ti  Ti2  1  0.62500000  0.62500000  0.12500000  1
  Ti  Ti3  1  0.62500000  0.12500000  0.62500000  1
  Ti  Ti4  1  0.12500000  0.62500000  0.62500000  1
  Cr  Cr5  1  0.62500000  0.62500000  0.62500000  1
  O  O6  1  0.83724699  0.38568858  0.38568858  1
  O  O7  1  0.38684625  0.38684625  0.38684625  1
  O  O8  1  0.38568858  0.83724699  0.38568858  1
  O  O9  1  0.38568858  0.38568858  0.83724699  1
  O  O10  1  0.86431142  0.86431142  0.41275301  1
  O  O11  1  0.86431142  0.41275301  0.86431142  1
  O  O12  1  0.86315375  0.86315375  0.86315375  1
  O  O13  1  0.41275301  0.86431142  0.86431142  1
