# generated using pymatgen
data_NaLi7Fe8(SiO3)16
_symmetry_space_group_name_H-M   'P 1'
_cell_length_a   12.90680567
_cell_length_b   12.91283246
_cell_length_c   5.35891549
_cell_angle_alpha   81.04149022
_cell_angle_beta   81.03163882
_cell_angle_gamma   85.80969112
_symmetry_Int_Tables_number   1
_chemical_formula_structural   NaLi7Fe8(SiO3)16
_chemical_formula_sum   'Na1 Li7 Fe8 Si16 O48'
_cell_volume   870.36401117
_cell_formula_units_Z   1
loop_
 _symmetry_equiv_pos_site_id
 _symmetry_equiv_pos_as_xyz
  1  'x, y, z'
loop_
 _atom_site_type_symbol
 _atom_site_label
 _atom_site_symmetry_multiplicity
 _atom_site_fract_x
 _atom_site_fract_y
 _atom_site_fract_z
 _atom_site_occupancy
  Na  Na0  1  0.89467956  0.35679210  0.49664624  1
  Li  Li1  1  0.11992348  0.13076015  0.00156032  1
  Li  Li2  1  0.38059933  0.36912913  0.99857852  1
  Li  Li3  1  0.61893334  0.13051140  0.49837483  1
  Li  Li4  1  0.11871030  0.63033264  0.49879070  1
  Li  Li5  1  0.38109463  0.86961867  0.50143233  1
  Li  Li6  1  0.61980371  0.63090646  0.00144775  1
  Li  Li7  1  0.88013233  0.86866701  0.99863814  1
  Fe  Fe8  1  0.19904999  0.05079708  0.49735755  1
  Fe  Fe9  1  0.30183573  0.44887464  0.50349849  1
  Fe  Fe10  1  0.19875217  0.55195119  0.00368313  1
  Fe  Fe11  1  0.69822815  0.05145584  0.00176530  1
  Fe  Fe12  1  0.30138720  0.94845954  0.99729002  1
  Fe  Fe13  1  0.79995423  0.44987051  0.99709165  1
  Fe  Fe14  1  0.69843430  0.55152819  0.49722512  1
  Fe  Fe15  1  0.80122402  0.94819150  0.50230894  1
  Si  Si16  1  0.05889819  0.39830395  0.79128585  1
  Si  Si17  1  0.35298304  0.19239866  0.71389198  1
  Si  Si18  1  0.14807346  0.30752560  0.28877427  1
  Si  Si19  1  0.44238421  0.10305972  0.21383170  1
  Si  Si20  1  0.64554443  0.30817820  0.78139250  1
  Si  Si21  1  0.14697861  0.80775159  0.77882927  1
  Si  Si22  1  0.44217374  0.60326519  0.72126086  1
  Si  Si23  1  0.94241798  0.10149288  0.71897380  1
  Si  Si24  1  0.55721068  0.39671331  0.27984528  1
  Si  Si25  1  0.05772482  0.89704789  0.27882425  1
  Si  Si26  1  0.85190292  0.19072298  0.21608654  1
  Si  Si27  1  0.35285677  0.69244580  0.22119980  1
  Si  Si28  1  0.55743305  0.89708729  0.78618103  1
  Si  Si29  1  0.85333121  0.69288197  0.71290361  1
  Si  Si30  1  0.64672583  0.80767781  0.28608504  1
  Si  Si31  1  0.94189577  0.60447970  0.21129308  1
  O  O32  1  0.06231528  0.05417321  0.70391500  1
  O  O33  1  0.26457719  0.10168581  0.77951063  1
  O  O34  1  0.07640805  0.32104341  0.56679626  1
  O  O35  1  0.35164132  0.01469058  0.27938515  1
  O  O36  1  0.19399636  0.18756269  0.28726612  1
  O  O37  1  0.07016957  0.32553814  0.06747183  1
  O  O38  1  0.43026939  0.17375769  0.93606504  1
  O  O39  1  0.30604989  0.31220341  0.71480401  1
  O  O40  1  0.15014401  0.48542556  0.72125032  1
  O  O41  1  0.42377613  0.18019773  0.43623890  1
  O  O42  1  0.06140410  0.55580625  0.21450239  1
  O  O43  1  0.56225336  0.05623826  0.21456025  1
  O  O44  1  0.23570708  0.39841797  0.22122647  1
  O  O45  1  0.85100755  0.01438530  0.78666944  1
  O  O46  1  0.35125995  0.51515530  0.78684210  1
  O  O47  1  0.19538819  0.68812373  0.79569709  1
  O  O48  1  0.69571713  0.18888264  0.79560379  1
  O  O49  1  0.57490360  0.31914784  0.54593356  1
  O  O50  1  0.07566212  0.81973228  0.54485893  1
  O  O51  1  0.26477350  0.60144547  0.28634063  1
  O  O52  1  0.76455189  0.09971596  0.28566651  1
  O  O53  1  0.43775881  0.44580933  0.29621583  1
  O  O54  1  0.56738874  0.32443986  0.04772709  1
  O  O55  1  0.06970610  0.82564750  0.04507632  1
  O  O56  1  0.43011001  0.67477400  0.95499032  1
  O  O57  1  0.93057075  0.17421128  0.95047595  1
  O  O58  1  0.56170311  0.55512895  0.70462990  1
  O  O59  1  0.23506493  0.89876836  0.71355317  1
  O  O60  1  0.73049016  0.40166502  0.71920433  1
  O  O61  1  0.42411924  0.68063781  0.45514406  1
  O  O62  1  0.92428950  0.17756832  0.44991011  1
  O  O63  1  0.30435465  0.81210721  0.20449879  1
  O  O64  1  0.80194460  0.30965337  0.19228671  1
  O  O65  1  0.14876859  0.98510894  0.21361395  1
  O  O66  1  0.64808145  0.48473167  0.21426505  1
  O  O67  1  0.76482567  0.60245497  0.77876182  1
  O  O68  1  0.94014478  0.44828007  0.80055780  1
  O  O69  1  0.43752484  0.94398616  0.78522087  1
  O  O70  1  0.57588615  0.81996868  0.56384167  1
  O  O71  1  0.84848741  0.51942068  0.27439868  1
  O  O72  1  0.69320126  0.68797662  0.28507571  1
  O  O73  1  0.56933976  0.82645781  0.06395793  1
  O  O74  1  0.93136831  0.67606974  0.93364826  1
  O  O75  1  0.80585547  0.81255358  0.71416645  1
  O  O76  1  0.64812757  0.98548658  0.72068178  1
  O  O77  1  0.92440730  0.68106646  0.43522784  1
  O  O78  1  0.73517091  0.89827341  0.22041904  1
  O  O79  1  0.93805411  0.94554378  0.29549626  1
