# generated using pymatgen
data_Ce2U3O10
_symmetry_space_group_name_H-M   'P 1'
_cell_length_a   6.66652943
_cell_length_b   5.44595664
_cell_length_c   6.67004316
_cell_angle_alpha   65.88881027
_cell_angle_beta   99.85825902
_cell_angle_gamma   114.10913471
_symmetry_Int_Tables_number   1
_chemical_formula_structural   Ce2U3O10
_chemical_formula_sum   'Ce2 U3 O10'
_cell_volume   201.74908396
_cell_formula_units_Z   1
loop_
 _symmetry_equiv_pos_site_id
 _symmetry_equiv_pos_as_xyz
  1  'x, y, z'
loop_
 _atom_site_type_symbol
 _atom_site_label
 _atom_site_symmetry_multiplicity
 _atom_site_fract_x
 _atom_site_fract_y
 _atom_site_fract_z
 _atom_site_occupancy
  Ce  Ce0  1  0.39926553  0.80007740  0.80208157  1
  Ce  Ce1  1  0.20098330  0.40193430  0.40043621  1
  U  U2  1  0.00005568  0.00089620  0.00102302  1
  U  U3  1  0.80040798  0.60186705  0.60131354  1
  U  U4  1  0.60050568  0.20101389  0.20152482  1
  O  O5  1  0.08728886  0.44115160  0.70499302  1
  O  O6  1  0.08701040  0.94197345  0.70321730  1
  O  O7  1  0.70565827  0.64755917  0.90580216  1
  O  O8  1  0.70524504  0.15808796  0.90714037  1
  O  O9  1  0.51404064  0.26009163  0.49893201  1
  O  O10  1  0.29894646  0.85971570  0.10012600  1
  O  O11  1  0.51235849  0.76004230  0.49720141  1
  O  O12  1  0.30088254  0.33601089  0.10195328  1
  O  O13  1  0.89468599  0.04745169  0.29650496  1
  O  O14  1  0.89510415  0.55917875  0.29642732  1
