# generated using pymatgen
data_Li9Mn2Co5O16
_symmetry_space_group_name_H-M   'P 1'
_cell_length_a   2.99744404
_cell_length_b   15.59825654
_cell_length_c   6.43217141
_cell_angle_alpha   88.57782072
_cell_angle_beta   76.85412690
_cell_angle_gamma   82.27998333
_symmetry_Int_Tables_number   1
_chemical_formula_structural   Li9Mn2Co5O16
_chemical_formula_sum   'Li9 Mn2 Co5 O16'
_cell_volume   290.19506302
_cell_formula_units_Z   1
loop_
 _symmetry_equiv_pos_site_id
 _symmetry_equiv_pos_as_xyz
  1  'x, y, z'
loop_
 _atom_site_type_symbol
 _atom_site_label
 _atom_site_symmetry_multiplicity
 _atom_site_fract_x
 _atom_site_fract_y
 _atom_site_fract_z
 _atom_site_occupancy
  Li  Li0  1  0.74011913  0.18774862  0.13288274  1
  Li  Li1  1  0.75544157  0.43700260  0.60797203  1
  Li  Li2  1  0.73916293  0.69013610  0.12602892  1
  Li  Li3  1  0.25958139  0.31123707  0.87804873  1
  Li  Li4  1  0.26913915  0.55662863  0.37762152  1
  Li  Li5  1  0.25221328  0.81184745  0.87809579  1
  Li  Li6  1  0.75573003  0.93713736  0.61796723  1
  Li  Li7  1  0.24564249  0.06290454  0.37818488  1
  Li  Li8  1  0.47742440  0.38009998  0.25903009  1
  Mn  Mn9  1  0.99457730  0.99920622  0.99944281  1
  Mn  Mn10  1  0.00550993  0.49692244  0.00573693  1
  Co  Co11  1  0.99481098  0.25615440  0.49208244  1
  Co  Co12  1  0.99851850  0.74951698  0.50027703  1
  Co  Co13  1  0.51296790  0.62367821  0.74481602  1
  Co  Co14  1  0.50658592  0.87356703  0.25291816  1
  Co  Co15  1  0.49329567  0.12701391  0.74651357  1
  O  O16  1  0.34268603  0.09339345  0.04650111  1
  O  O17  1  0.35639946  0.33579241  0.56100339  1
  O  O18  1  0.42124449  0.58415475  0.03824228  1
  O  O19  1  0.89155028  0.21837385  0.78902586  1
  O  O20  1  0.87847498  0.47300064  0.29157945  1
  O  O21  1  0.84968204  0.71471187  0.80018846  1
  O  O22  1  0.39944990  0.84110513  0.54555097  1
  O  O23  1  0.84672767  0.96504499  0.29909169  1
  O  O24  1  0.11764441  0.27597819  0.21858545  1
  O  O25  1  0.15437573  0.53603391  0.70090312  1
  O  O26  1  0.16196782  0.78256567  0.20215381  1
  O  O27  1  0.59128258  0.41918739  0.94407974  1
  O  O28  1  0.59962161  0.66040065  0.45307978  1
  O  O29  1  0.64351898  0.90555908  0.95650198  1
  O  O30  1  0.09997207  0.03424086  0.70086334  1
  O  O31  1  0.64468140  0.15965866  0.45503070  1
