# generated using pymatgen
data_Li2NbV3O8
_symmetry_space_group_name_H-M   'P 1'
_cell_length_a   6.01160863
_cell_length_b   6.01158549
_cell_length_c   9.76651939
_cell_angle_alpha   89.99809907
_cell_angle_beta   90.00100915
_cell_angle_gamma   119.99993973
_symmetry_Int_Tables_number   1
_chemical_formula_structural   Li2NbV3O8
_chemical_formula_sum   'Li4 Nb2 V6 O16'
_cell_volume   305.66832624
_cell_formula_units_Z   2
loop_
 _symmetry_equiv_pos_site_id
 _symmetry_equiv_pos_as_xyz
  1  'x, y, z'
loop_
 _atom_site_type_symbol
 _atom_site_label
 _atom_site_symmetry_multiplicity
 _atom_site_fract_x
 _atom_site_fract_y
 _atom_site_fract_z
 _atom_site_occupancy
  Li  Li0  1  0.33333632  0.66667286  0.89894246  1
  Li  Li1  1  0.00000905  0.00000125  0.99286960  1
  Li  Li2  1  0.99999086  0.99999127  0.49286935  1
  Li  Li3  1  0.66666371  0.33333625  0.39894252  1
  Nb  Nb4  1  0.33333094  0.66667863  0.49088541  1
  Nb  Nb5  1  0.66667056  0.33334903  0.99088501  1
  V  V6  1  0.17044489  0.82940882  0.21502452  1
  V  V7  1  0.17060111  0.34106628  0.21502637  1
  V  V8  1  0.65894604  0.82956065  0.21502551  1
  V  V9  1  0.34105381  0.17061339  0.71502599  1
  V  V10  1  0.82955454  0.65896310  0.71502487  1
  V  V11  1  0.82939808  0.17046500  0.71502670  1
  O  O12  1  0.16799855  0.83220069  0.59248213  1
  O  O13  1  0.03794892  0.51911336  0.34410844  1
  O  O14  1  0.33333563  0.66669070  0.10780432  1
  O  O15  1  0.99999480  0.00000429  0.30856918  1
  O  O16  1  0.00000479  0.00000679  0.80856877  1
  O  O17  1  0.16779508  0.33580596  0.59247713  1
  O  O18  1  0.48114272  0.96205320  0.34410783  1
  O  O19  1  0.48088882  0.51886021  0.34411221  1
  O  O20  1  0.33581532  0.16783055  0.09248311  1
  O  O21  1  0.66418448  0.83201534  0.59248228  1
  O  O22  1  0.51885853  0.48091063  0.84410742  1
  O  O23  1  0.51911046  0.03797099  0.84411286  1
  O  O24  1  0.66666471  0.33335529  0.60780459  1
  O  O25  1  0.83200131  0.66420228  0.09248175  1
  O  O26  1  0.96205039  0.48116312  0.84410825  1
  O  O27  1  0.83220557  0.16801009  0.09247740  1
