# generated using pymatgen
data_Zr2N2O
_symmetry_space_group_name_H-M   'P 1'
_cell_length_a   8.89227770
_cell_length_b   8.88495976
_cell_length_c   8.86061477
_cell_angle_alpha   109.38128313
_cell_angle_beta   109.44180850
_cell_angle_gamma   109.66540969
_symmetry_Int_Tables_number   1
_chemical_formula_structural   Zr2N2O
_chemical_formula_sum   'Zr16 N16 O8'
_cell_volume   538.40173642
_cell_formula_units_Z   8
loop_
 _symmetry_equiv_pos_site_id
 _symmetry_equiv_pos_as_xyz
  1  'x, y, z'
loop_
 _atom_site_type_symbol
 _atom_site_label
 _atom_site_symmetry_multiplicity
 _atom_site_fract_x
 _atom_site_fract_y
 _atom_site_fract_z
 _atom_site_occupancy
  Zr  Zr0  1  0.49847502  0.99765779  0.98679501  1
  Zr  Zr1  1  0.75773422  0.29446868  0.54621732  1
  Zr  Zr2  1  0.21336928  0.95490116  0.25009402  1
  Zr  Zr3  1  0.71997787  0.47282347  0.25063842  1
  Zr  Zr4  1  0.24805628  0.21243397  0.95489245  1
  Zr  Zr5  1  0.03043028  0.74335487  0.77740475  1
  Zr  Zr6  1  0.53585195  0.74979162  0.29084604  1
  Zr  Zr7  1  0.96449883  0.25853271  0.21720649  1
  Zr  Zr8  1  0.00815030  0.99758306  0.50774065  1
  Zr  Zr9  1  0.50322000  0.50832569  0.51220601  1
  Zr  Zr10  1  0.46432243  0.24967610  0.72023079  1
  Zr  Zr11  1  0.99647924  0.50681372  0.99649065  1
  Zr  Zr12  1  0.75060286  0.78281424  0.03322121  1
  Zr  Zr13  1  0.28314601  0.53303685  0.74294149  1
  Zr  Zr14  1  0.78082699  0.03192469  0.75254568  1
  Zr  Zr15  1  0.24967756  0.71263541  0.46242047  1
  N  N16  1  0.72897484  0.99286242  0.95934893  1
  N  N17  1  0.50972664  0.23746262  0.97064136  1
  N  N18  1  0.76779853  0.72827462  0.26021124  1
  N  N19  1  0.76829199  0.53929399  0.52831470  1
  N  N20  1  0.72683417  0.25755153  0.76892205  1
  N  N21  1  0.23515143  0.96653811  0.50771620  1
  N  N22  1  0.27565670  0.73979050  0.22396730  1
  N  N23  1  0.22637981  0.44876168  0.46294130  1
  N  N24  1  0.95821779  0.73121952  0.99240744  1
  N  N25  1  0.98995817  0.95865377  0.73018851  1
  N  N26  1  0.22575461  0.27282958  0.74105839  1
  N  N27  1  0.54642827  0.53522959  0.77284565  1
  N  N28  1  0.53810013  0.77076694  0.54249486  1
  N  N29  1  0.96304419  0.50535233  0.23585804  1
  N  N30  1  0.03229548  0.48578199  0.75884042  1
  N  N31  1  0.26559819  0.77687523  0.73135099  1
  O  O32  1  0.75887585  0.03439898  0.48212006  1
  O  O33  1  0.27830227  0.01381490  0.05195009  1
  O  O34  1  0.73938451  0.22056952  0.27597544  1
  O  O35  1  0.05130387  0.27500791  0.01789864  1
  O  O36  1  0.01100668  0.04658792  0.27368827  1
  O  O37  1  0.44669765  0.46487506  0.22373874  1
  O  O38  1  0.46168320  0.22571299  0.44944312  1
  O  O39  1  0.48972092  0.76501530  0.03618482  1
