# generated using pymatgen
data_Li4MnV3(P2O7)4
_symmetry_space_group_name_H-M   'P 1'
_cell_length_a   4.87222239
_cell_length_b   8.28664248
_cell_length_c   26.67940812
_cell_angle_alpha   90.42782381
_cell_angle_beta   88.57274917
_cell_angle_gamma   89.59048210
_symmetry_Int_Tables_number   1
_chemical_formula_structural   Li4MnV3(P2O7)4
_chemical_formula_sum   'Li8 Mn2 V6 P16 O56'
_cell_volume   1076.77098481
_cell_formula_units_Z   2
loop_
 _symmetry_equiv_pos_site_id
 _symmetry_equiv_pos_as_xyz
  1  'x, y, z'
loop_
 _atom_site_type_symbol
 _atom_site_label
 _atom_site_symmetry_multiplicity
 _atom_site_fract_x
 _atom_site_fract_y
 _atom_site_fract_z
 _atom_site_occupancy
  Li  Li0  1  0.16026251  0.36142102  0.33122490  1
  Li  Li1  1  0.16071192  0.36051283  0.83112798  1
  Li  Li2  1  0.33878425  0.86296552  0.41906099  1
  Li  Li3  1  0.33713999  0.86217693  0.91838816  1
  Li  Li4  1  0.66025431  0.36137834  0.08111312  1
  Li  Li5  1  0.66129035  0.36073412  0.58130199  1
  Li  Li6  1  0.83875629  0.86216375  0.16868463  1
  Li  Li7  1  0.83709062  0.86222887  0.66881668  1
  Mn  Mn8  1  0.14984142  0.99907977  0.81699387  1
  Mn  Mn9  1  0.64926789  0.99937981  0.56719825  1
  V  V10  1  0.14832736  0.99984459  0.31794491  1
  V  V11  1  0.35074577  0.50021913  0.43210986  1
  V  V12  1  0.35149853  0.49868196  0.93183463  1
  V  V13  1  0.64843107  0.99945181  0.06761943  1
  V  V14  1  0.85100511  0.49953288  0.18206146  1
  V  V15  1  0.85157703  0.49938031  0.68183608  1
  P  P16  1  0.13872953  0.17965180  0.13047358  1
  P  P17  1  0.17075617  0.78347721  0.02139736  1
  P  P18  1  0.14090086  0.17762281  0.63057607  1
  P  P19  1  0.16897971  0.78456765  0.52218517  1
  P  P20  1  0.33056191  0.28407699  0.22854389  1
  P  P21  1  0.36125405  0.68100115  0.11942991  1
  P  P22  1  0.33250462  0.28709900  0.72834118  1
  P  P23  1  0.36114617  0.68057646  0.62065955  1
  P  P24  1  0.63877473  0.18030901  0.38088099  1
  P  P25  1  0.67052227  0.78411916  0.27158425  1
  P  P26  1  0.64091387  0.17720245  0.88021158  1
  P  P27  1  0.66944801  0.78399800  0.77197779  1
  P  P28  1  0.83234683  0.28671411  0.47856793  1
  P  P29  1  0.86045111  0.68100494  0.36955079  1
  P  P30  1  0.83086499  0.28423778  0.97843489  1
  P  P31  1  0.86147999  0.68036834  0.87053074  1
  O  O32  1  0.00441956  0.84386557  0.37371145  1
  O  O33  1  0.05487321  0.53885163  0.37935126  1
  O  O34  1  0.09439516  0.67803272  0.15133802  1
  O  O35  1  0.00187241  0.84205596  0.87617422  1
  O  O36  1  0.05372794  0.53579859  0.87926677  1
  O  O37  1  0.14307573  0.43427403  0.22925970  1
  O  O38  1  0.09047409  0.67487313  0.65133550  1
  O  O39  1  0.12534298  0.32592491  0.46159672  1
  O  O40  1  0.21919928  0.15285542  0.18822227  1
  O  O41  1  0.14248079  0.43616641  0.72807999  1
  O  O42  1  0.18690508  0.69544853  0.47173548  1
  O  O43  1  0.12436063  0.32441730  0.96277627  1
  O  O44  1  0.28270369  0.65287007  0.06171626  1
  O  O45  1  0.22253387  0.15301216  0.68828133  1
  O  O46  1  0.19056587  0.69528741  0.97136769  1
  O  O47  1  0.31032072  0.19693412  0.27856448  1
  O  O48  1  0.35522841  0.93306315  0.02097894  1
  O  O49  1  0.28174628  0.65544954  0.56212401  1
  O  O50  1  0.37562526  0.82401227  0.28736437  1
  O  O51  1  0.31711584  0.20401288  0.77869012  1
  O  O52  1  0.40558471  0.17759061  0.09875959  1
  O  O53  1  0.35330411  0.93422994  0.52061862  1
  O  O54  1  0.36934321  0.82423480  0.78615619  1
  O  O55  1  0.40709936  0.17617246  0.59783392  1
  O  O56  1  0.44608085  0.03852568  0.37073470  1
  O  O57  1  0.50491537  0.84385568  0.12362995  1
  O  O58  1  0.49423510  0.34382568  0.37659075  1
  O  O59  1  0.44848010  0.03542443  0.87036059  1
  O  O60  1  0.55515192  0.53835091  0.12937055  1
  O  O61  1  0.50124028  0.84210867  0.62631453  1
  O  O62  1  0.49632899  0.34136407  0.87633202  1
  O  O63  1  0.55360635  0.53644721  0.62939224  1
  O  O64  1  0.59370985  0.67837262  0.40126478  1
  O  O65  1  0.62455093  0.32404581  0.21273999  1
  O  O66  1  0.64308016  0.43653952  0.47857528  1
  O  O67  1  0.59075717  0.67469402  0.90134823  1
  O  O68  1  0.68974657  0.69675418  0.22120331  1
  O  O69  1  0.62441805  0.32706495  0.71157163  1
  O  O70  1  0.72010109  0.15389490  0.43839407  1
  O  O71  1  0.64245588  0.43375147  0.97906647  1
  O  O72  1  0.68818517  0.69371776  0.72194164  1
  O  O73  1  0.81046320  0.19695105  0.02854261  1
  O  O74  1  0.78229534  0.65310626  0.31156614  1
  O  O75  1  0.72165273  0.15217535  0.93810274  1
  O  O76  1  0.87590664  0.82364444  0.03724719  1
  O  O77  1  0.81742494  0.20360571  0.52874001  1
  O  O78  1  0.85560410  0.93342425  0.27109050  1
  O  O79  1  0.78224700  0.65513252  0.81228904  1
  O  O80  1  0.86895652  0.82453213  0.53633833  1
  O  O81  1  0.90545699  0.17773761  0.34880393  1
  O  O82  1  0.85361083  0.93374777  0.77055070  1
  O  O83  1  0.94614045  0.03813011  0.12050757  1
  O  O84  1  0.99377588  0.34327146  0.12647661  1
  O  O85  1  0.90747518  0.17582978  0.84779627  1
  O  O86  1  0.94840456  0.03578750  0.62060956  1
  O  O87  1  0.99662635  0.34189842  0.62654133  1
