# generated using pymatgen
data_Ti3CrSn2(PO4)6
_symmetry_space_group_name_H-M   'P 1'
_cell_length_a   9.01241073
_cell_length_b   9.01241057
_cell_length_c   9.01241033
_cell_angle_alpha   57.24201246
_cell_angle_beta   57.24201325
_cell_angle_gamma   57.24200979
_symmetry_Int_Tables_number   1
_chemical_formula_structural   Ti3CrSn2(PO4)6
_chemical_formula_sum   'Ti3 Cr1 Sn2 P6 O24'
_cell_volume   484.73936052
_cell_formula_units_Z   1
loop_
 _symmetry_equiv_pos_site_id
 _symmetry_equiv_pos_as_xyz
  1  'x, y, z'
loop_
 _atom_site_type_symbol
 _atom_site_label
 _atom_site_symmetry_multiplicity
 _atom_site_fract_x
 _atom_site_fract_y
 _atom_site_fract_z
 _atom_site_occupancy
  Ti  Ti0  1  0.14703973  0.14703973  0.14703973  1
  Ti  Ti1  1  0.35118677  0.35118677  0.35118677  1
  Ti  Ti2  1  0.64888669  0.64888669  0.64888669  1
  Cr  Cr3  1  0.85309788  0.85309788  0.85309788  1
  Sn  Sn4  1  0.99713826  0.99713826  0.99713826  1
  Sn  Sn5  1  0.49858871  0.49858871  0.49858871  1
  P  P6  1  0.03770928  0.75037483  0.46518124  1
  P  P7  1  0.46518124  0.03770928  0.75037483  1
  P  P8  1  0.24934236  0.53804461  0.96135811  1
  P  P9  1  0.53804461  0.96135811  0.24934236  1
  P  P10  1  0.96135811  0.24934236  0.53804461  1
  P  P11  1  0.75037483  0.46518124  0.03770928  1
  O  O12  1  0.12543391  0.28957805  0.50398572  1
  O  O13  1  0.28957805  0.50398572  0.12543391  1
  O  O14  1  0.06140812  0.92230025  0.27972734  1
  O  O15  1  0.50398572  0.12543391  0.28957805  1
  O  O16  1  0.01059377  0.78411512  0.62772900  1
  O  O17  1  0.22128756  0.57686713  0.43645645  1
  O  O18  1  0.27972734  0.06140812  0.92230025  1
  O  O19  1  0.43645645  0.22128756  0.57686713  1
  O  O20  1  0.21085959  0.37370289  0.99439894  1
  O  O21  1  0.57686713  0.43645645  0.22128756  1
  O  O22  1  0.07701855  0.72244792  0.93962963  1
  O  O23  1  0.37370289  0.99439894  0.21085959  1
  O  O24  1  0.62772900  0.01059377  0.78411512  1
  O  O25  1  0.92230025  0.27972734  0.06140812  1
  O  O26  1  0.42388860  0.56115169  0.77847497  1
  O  O27  1  0.78411512  0.62772900  0.01059377  1
  O  O28  1  0.56115169  0.77847497  0.42388860  1
  O  O29  1  0.72244792  0.93962963  0.07701855  1
  O  O30  1  0.77847497  0.42388860  0.56115169  1
  O  O31  1  0.99439894  0.21085959  0.37370289  1
  O  O32  1  0.49708700  0.87226317  0.71164516  1
  O  O33  1  0.93962963  0.07701855  0.72244792  1
  O  O34  1  0.71164516  0.49708700  0.87226317  1
  O  O35  1  0.87226317  0.71164516  0.49708700  1
