# generated using pymatgen
data_V2O3F
_symmetry_space_group_name_H-M   'P 1'
_cell_length_a   4.72532833
_cell_length_b   4.72532833
_cell_length_c   15.05490723
_cell_angle_alpha   90.00000000
_cell_angle_beta   90.00000000
_cell_angle_gamma   94.56433232
_symmetry_Int_Tables_number   1
_chemical_formula_structural   V2O3F
_chemical_formula_sum   'V10 O15 F5'
_cell_volume   335.09084154
_cell_formula_units_Z   5
loop_
 _symmetry_equiv_pos_site_id
 _symmetry_equiv_pos_as_xyz
  1  'x, y, z'
loop_
 _atom_site_type_symbol
 _atom_site_label
 _atom_site_symmetry_multiplicity
 _atom_site_fract_x
 _atom_site_fract_y
 _atom_site_fract_z
 _atom_site_occupancy
  V  V0  1  0.00060970  0.99939030  0.40004695  1
  V  V1  1  0.00060970  0.99939030  0.19995305  1
  V  V2  1  0.00235182  0.99764818  0.99977606  1
  V  V3  1  0.00235182  0.99764818  0.60022394  1
  V  V4  1  0.00689435  0.99310565  0.80000000  1
  V  V5  1  0.55032965  0.44967035  0.10031553  1
  V  V6  1  0.55032965  0.44967035  0.49968447  1
  V  V7  1  0.45639019  0.54360981  0.69945861  1
  V  V8  1  0.45639019  0.54360981  0.90054139  1
  V  V9  1  0.45175677  0.54824323  0.30000000  1
  O  O10  1  0.19895143  0.80104857  0.90030535  1
  O  O11  1  0.19895143  0.80104857  0.69969465  1
  O  O12  1  0.19486369  0.80513631  0.30000000  1
  O  O13  1  0.31083623  0.30501367  0.00036300  1
  O  O14  1  0.30889844  0.30771620  0.20007324  1
  O  O15  1  0.30889844  0.30771620  0.39992676  1
  O  O16  1  0.31083623  0.30501367  0.59963700  1
  O  O17  1  0.30419568  0.31028146  0.80000000  1
  O  O18  1  0.69498633  0.68916377  0.00036300  1
  O  O19  1  0.69228380  0.69110156  0.20007324  1
  O  O20  1  0.69228380  0.69110156  0.39992676  1
  O  O21  1  0.69498633  0.68916377  0.59963700  1
  O  O22  1  0.68971854  0.69580432  0.80000000  1
  O  O23  1  0.80686226  0.19313774  0.09980965  1
  O  O24  1  0.80686226  0.19313774  0.50019035  1
  F  F25  1  0.19966362  0.80033638  0.09987022  1
  F  F26  1  0.19966362  0.80033638  0.50012978  1
  F  F27  1  0.80189934  0.19810066  0.30000000  1
  F  F28  1  0.80317235  0.19682765  0.89951129  1
  F  F29  1  0.80317235  0.19682765  0.70048871  1
