# generated using pymatgen
data_Li9Mn21O40
_symmetry_space_group_name_H-M   'P 1'
_cell_length_a   6.05085689
_cell_length_b   6.04945081
_cell_length_c   21.11240027
_cell_angle_alpha   97.99473414
_cell_angle_beta   82.34047769
_cell_angle_gamma   86.06628514
_symmetry_Int_Tables_number   1
_chemical_formula_structural   Li9Mn21O40
_chemical_formula_sum   'Li9 Mn21 O40'
_cell_volume   755.47115586
_cell_formula_units_Z   1
loop_
 _symmetry_equiv_pos_site_id
 _symmetry_equiv_pos_as_xyz
  1  'x, y, z'
loop_
 _atom_site_type_symbol
 _atom_site_label
 _atom_site_symmetry_multiplicity
 _atom_site_fract_x
 _atom_site_fract_y
 _atom_site_fract_z
 _atom_site_occupancy
  Li  Li0  1  0.98159812  0.77776497  0.04853513  1
  Li  Li1  1  0.36403740  0.37115243  0.25274310  1
  Li  Li2  1  0.82343939  0.42518949  0.35158797  1
  Li  Li3  1  0.77978259  0.98576551  0.45185306  1
  Li  Li4  1  0.21369787  0.01184486  0.55075650  1
  Li  Li5  1  0.58780779  0.18725559  0.84875652  1
  Li  Li6  1  0.18712443  0.58577672  0.65019863  1
  Li  Li7  1  0.61286118  0.61378737  0.74958432  1
  Li  Li8  1  0.01540473  0.21273066  0.94792297  1
  Mn  Mn9  1  0.50369033  0.00148841  0.99550600  1
  Mn  Mn10  1  0.89914671  0.10769306  0.20168501  1
  Mn  Mn11  1  0.50649633  0.49939969  0.99811448  1
  Mn  Mn12  1  0.70074407  0.29337588  0.10052896  1
  Mn  Mn13  1  0.19337902  0.29412248  0.09661016  1
  Mn  Mn14  1  0.90617641  0.59761624  0.20097283  1
  Mn  Mn15  1  0.43503569  0.82825517  0.14963294  1
  Mn  Mn16  1  0.29191497  0.19721686  0.40310948  1
  Mn  Mn17  1  0.60373926  0.90814825  0.30431175  1
  Mn  Mn18  1  0.90034980  0.09983869  0.69962163  1
  Mn  Mn19  1  0.69891788  0.30004566  0.60036109  1
  Mn  Mn20  1  0.29184549  0.69443356  0.40008022  1
  Mn  Mn21  1  0.50074991  0.49963643  0.49989343  1
  Mn  Mn22  1  0.10141249  0.90831892  0.30225021  1
  Mn  Mn23  1  0.69899126  0.80032781  0.60045760  1
  Mn  Mn24  1  0.39967313  0.10037710  0.69979638  1
  Mn  Mn25  1  0.99866515  0.50060532  0.50165479  1
  Mn  Mn26  1  0.80096862  0.69904425  0.89776114  1
  Mn  Mn27  1  0.09965056  0.39936996  0.79895699  1
  Mn  Mn28  1  0.10043715  0.89901803  0.79908339  1
  Mn  Mn29  1  0.30043704  0.69747315  0.89855362  1
  O  O30  1  0.92970915  0.06401021  0.10871845  1
  O  O31  1  0.71140704  0.23642350  0.00289900  1
  O  O32  1  0.95684038  0.53504146  0.10664196  1
  O  O33  1  0.26687071  0.23958437  0.00122509  1
  O  O34  1  0.43923542  0.06107880  0.09001540  1
  O  O35  1  0.86992470  0.13617673  0.29497694  1
  O  O36  1  0.46553042  0.52417095  0.09404884  1
  O  O37  1  0.66728286  0.33567199  0.19748624  1
  O  O38  1  0.11715412  0.33068203  0.19544981  1
  O  O39  1  0.68470603  0.86683877  0.20753083  1
  O  O40  1  0.33480595  0.12159078  0.30803575  1
  O  O41  1  0.87061072  0.69139526  0.29795241  1
  O  O42  1  0.33197963  0.67515562  0.30644999  1
  O  O43  1  0.13424675  0.87000402  0.20842668  1
  O  O44  1  0.50456858  0.43139014  0.40431846  1
  O  O45  1  0.76128518  0.29206655  0.50571039  1
  O  O46  1  0.90722528  0.03755594  0.60480103  1
  O  O47  1  0.93932219  0.56432735  0.59482940  1
  O  O48  1  0.53036329  0.96131988  0.39768470  1
  O  O49  1  0.76198115  0.73772070  0.50643691  1
  O  O50  1  0.05664588  0.43472588  0.40853547  1
  O  O51  1  0.46021978  0.03600329  0.60588171  1
  O  O52  1  0.23647703  0.26078639  0.49574566  1
  O  O53  1  0.89229427  0.16138397  0.79406261  1
  O  O54  1  0.49179898  0.56223281  0.59523464  1
  O  O55  1  0.08257069  0.96076244  0.39675666  1
  O  O56  1  0.23867807  0.70683787  0.49516381  1
  O  O57  1  0.63742792  0.30832224  0.69480495  1
  O  O58  1  0.86097101  0.63541791  0.80413734  1
  O  O59  1  0.33954350  0.16360220  0.79326471  1
  O  O60  1  0.63761938  0.86144076  0.69393123  1
  O  O61  1  0.16254017  0.33802432  0.70507999  1
  O  O62  1  0.56377033  0.49107495  0.90281083  1
  O  O63  1  0.16311873  0.89155038  0.70442672  1
  O  O64  1  0.30756458  0.63640584  0.80367626  1
  O  O65  1  0.03727059  0.46021383  0.89237489  1
  O  O66  1  0.74198502  0.76384478  0.99099646  1
  O  O67  1  0.56462661  0.93752780  0.90260124  1
  O  O68  1  0.29488284  0.76139202  0.99317422  1
  O  O69  1  0.03860232  0.90703076  0.89345599  1
