# generated using pymatgen
data_Li24Ti11CrO36
_symmetry_space_group_name_H-M   'P 1'
_cell_length_a   8.85234381
_cell_length_b   8.81933752
_cell_length_c   10.69775329
_cell_angle_alpha   114.34343420
_cell_angle_beta   97.48248969
_cell_angle_gamma   60.12326144
_symmetry_Int_Tables_number   1
_chemical_formula_structural   Li24Ti11CrO36
_chemical_formula_sum   'Li24 Ti11 Cr1 O36'
_cell_volume   656.81865774
_cell_formula_units_Z   1
loop_
 _symmetry_equiv_pos_site_id
 _symmetry_equiv_pos_as_xyz
  1  'x, y, z'
loop_
 _atom_site_type_symbol
 _atom_site_label
 _atom_site_symmetry_multiplicity
 _atom_site_fract_x
 _atom_site_fract_y
 _atom_site_fract_z
 _atom_site_occupancy
  Li  Li0  1  0.16625515  0.00413902  0.99895410  1
  Li  Li1  1  0.08330549  0.08337490  0.74992444  1
  Li  Li2  1  0.00024655  0.50047386  0.49875125  1
  Li  Li3  1  0.33452553  0.17107792  0.50008248  1
  Li  Li4  1  0.24895100  0.25132885  0.25047288  1
  Li  Li5  1  0.49880847  0.33885298  0.99991752  1
  Li  Li6  1  0.16654388  0.32865032  0.00100447  1
  Li  Li7  1  0.50002428  0.00013554  0.99988702  1
  Li  Li8  1  0.41666700  0.41669233  0.75000000  1
  Li  Li9  1  0.33273916  0.49465118  0.49993397  1
  Li  Li10  1  0.66602438  0.16850200  0.50084112  1
  Li  Li11  1  0.00065702  0.83671735  0.49962613  1
  Li  Li12  1  0.16730962  0.66701726  0.99915888  1
  Li  Li13  1  0.99889902  0.16211567  0.49927598  1
  Li  Li14  1  0.33330972  0.83360480  0.50011298  1
  Li  Li15  1  0.66707785  0.50477308  0.50104590  1
  Li  Li16  1  0.58438200  0.58313998  0.24952712  1
  Li  Li17  1  0.83267698  0.67108124  0.00037387  1
  Li  Li18  1  0.50059484  0.66078936  0.00006603  1
  Li  Li19  1  0.83308645  0.33530217  0.00124875  1
  Li  Li20  1  0.75002751  0.75008895  0.75007556  1
  Li  Li21  1  0.66678912  0.82752374  0.49899553  1
  Li  Li22  1  0.91666700  0.91655910  0.25000000  1
  Li  Li23  1  0.83443398  0.99507270  0.00072402  1
  Ti  Ti24  1  0.08328693  0.41565829  0.74979833  1
  Ti  Ti25  1  0.41666700  0.08416065  0.75000000  1
  Ti  Ti26  1  0.08312059  0.75078435  0.74979071  1
  Ti  Ti27  1  0.75004607  0.08248088  0.75020167  1
  Ti  Ti28  1  0.25072028  0.58118469  0.25295809  1
  Ti  Ti29  1  0.58446637  0.24912187  0.24982478  1
  Ti  Ti30  1  0.41666700  0.74881106  0.75000000  1
  Ti  Ti31  1  0.75021341  0.41744723  0.75020929  1
  Ti  Ti32  1  0.24886763  0.91709647  0.25017522  1
  Ti  Ti33  1  0.91666700  0.25241098  0.25000000  1
  Ti  Ti34  1  0.58261272  0.91228088  0.24704191  1
  Cr  Cr35  1  0.91666700  0.58759189  0.25000000  1
  O  O36  1  0.30858505  0.02827592  0.86539915  1
  O  O37  1  0.21554875  0.13905125  0.63719303  1
  O  O38  1  0.11786564  0.19417300  0.36287626  1
  O  O39  1  0.28437842  0.36105458  0.86318989  1
  O  O40  1  0.02434458  0.30920240  0.13668496  1
  O  O41  1  0.61778525  0.05074097  0.86280697  1
  O  O42  1  0.19134409  0.47166482  0.63470163  1
  O  O43  1  0.54895458  0.11557711  0.63681011  1
  O  O44  1  0.11989968  0.54955860  0.36297000  1
  O  O45  1  0.47765876  0.19350683  0.36547493  1
  O  O46  1  0.95146915  0.02771239  0.86304459  1
  O  O47  1  0.04409797  0.61527875  0.13849028  1
  O  O48  1  0.28463469  0.71731251  0.86289520  1
  O  O49  1  0.64198891  0.36164229  0.86529837  1
  O  O50  1  0.38209089  0.30570607  0.13701361  1
  O  O51  1  0.21546472  0.78241796  0.63697931  1
  O  O52  1  0.85769826  0.13834726  0.63454051  1
  O  O53  1  0.54869931  0.47238500  0.63710480  1
  O  O54  1  0.45019648  0.52826747  0.36331972  1
  O  O55  1  0.14115295  0.86226349  0.36531765  1
  O  O56  1  0.78462304  0.21884308  0.36321523  1
  O  O57  1  0.61786828  0.69423637  0.86302069  1
  O  O58  1  0.35567524  0.63902266  0.13452507  1
  O  O59  1  0.71546836  0.28249539  0.13712374  1
  O  O60  1  0.95115828  0.38386168  0.86260210  1
  O  O61  1  0.04871096  0.97358389  0.13678477  1
  O  O62  1  0.52474795  0.80479582  0.63460085  1
  O  O63  1  0.88186485  0.44946995  0.63695541  1
  O  O64  1  0.45124311  0.88411634  0.36298639  1
  O  O65  1  0.80898842  0.53019602  0.36331504  1
  O  O66  1  0.38313652  0.94847823  0.13668028  1
  O  O67  1  0.97563474  0.69483901  0.86545949  1
  O  O68  1  0.71343332  0.63982229  0.13703000  1
  O  O69  1  0.88217472  0.80575186  0.63739790  1
  O  O70  1  0.78923503  0.85422043  0.36150972  1
  O  O71  1  0.69218005  0.97143280  0.13468235  1
