# generated using pymatgen
data_Li9Mn2Co5O16
_symmetry_space_group_name_H-M   'P 1'
_cell_length_a   2.98510803
_cell_length_b   19.59639577
_cell_length_c   5.11111694
_cell_angle_alpha   91.65767545
_cell_angle_beta   74.95293217
_cell_angle_gamma   86.83909121
_symmetry_Int_Tables_number   1
_chemical_formula_structural   Li9Mn2Co5O16
_chemical_formula_sum   'Li9 Mn2 Co5 O16'
_cell_volume   288.00610801
_cell_formula_units_Z   1
loop_
 _symmetry_equiv_pos_site_id
 _symmetry_equiv_pos_as_xyz
  1  'x, y, z'
loop_
 _atom_site_type_symbol
 _atom_site_label
 _atom_site_symmetry_multiplicity
 _atom_site_fract_x
 _atom_site_fract_y
 _atom_site_fract_z
 _atom_site_occupancy
  Li  Li0  1  0.67228158  0.06459717  0.57074472  1
  Li  Li1  1  0.06488297  0.18840501  0.68888844  1
  Li  Li2  1  0.43715062  0.31308774  0.81122697  1
  Li  Li3  1  0.81173919  0.43761943  0.93783502  1
  Li  Li4  1  0.18712408  0.56129954  0.06529252  1
  Li  Li5  1  0.55531878  0.68966660  0.18444857  1
  Li  Li6  1  0.94154958  0.81341935  0.30268113  1
  Li  Li7  1  0.34038912  0.93026610  0.42847701  1
  Li  Li8  1  0.60652846  0.87484661  0.89265445  1
  Mn  Mn9  1  0.00707161  0.99697536  0.00118997  1
  Mn  Mn10  1  0.87853468  0.62648183  0.62676338  1
  Co  Co11  1  0.38130484  0.12554231  0.11762595  1
  Co  Co12  1  0.74764455  0.24929594  0.24711766  1
  Co  Co13  1  0.12419452  0.37441268  0.37575929  1
  Co  Co14  1  0.50304779  0.49960209  0.50102084  1
  Co  Co15  1  0.23379791  0.75595047  0.75316931  1
  O  O16  1  0.37883834  0.03301202  0.24317589  1
  O  O17  1  0.69207027  0.15713813  0.38328623  1
  O  O18  1  0.10555074  0.28314439  0.51485899  1
  O  O19  1  0.48641192  0.40852496  0.64003610  1
  O  O20  1  0.86725799  0.53371449  0.76450378  1
  O  O21  1  0.19440397  0.66281653  0.88763807  1
  O  O22  1  0.56638440  0.77859329  0.00418290  1
  O  O23  1  0.96237560  0.91431903  0.16009074  1
  O  O24  1  0.05656380  0.09271644  0.86426828  1
  O  O25  1  0.38444688  0.21555084  0.98679046  1
  O  O26  1  0.76402104  0.33985328  0.10966836  1
  O  O27  1  0.14511255  0.46462610  0.23488907  1
  O  O28  1  0.56844301  0.58965900  0.35439027  1
  O  O29  1  0.92363692  0.71696389  0.48809062  1
  O  O30  1  0.28356645  0.83431569  0.59937748  1
  O  O31  1  0.62835785  0.97358669  0.75985751  1
