# generated using pymatgen
data_Li2MnFe(BO3)2
_symmetry_space_group_name_H-M   'P 1'
_cell_length_a   5.24291010
_cell_length_b   5.23562557
_cell_length_c   20.84927905
_cell_angle_alpha   89.12477002
_cell_angle_beta   91.18976384
_cell_angle_gamma   59.98708107
_symmetry_Int_Tables_number   1
_chemical_formula_structural   Li2MnFe(BO3)2
_chemical_formula_sum   'Li8 Mn4 Fe4 B8 O24'
_cell_volume   495.24671762
_cell_formula_units_Z   4
loop_
 _symmetry_equiv_pos_site_id
 _symmetry_equiv_pos_as_xyz
  1  'x, y, z'
loop_
 _atom_site_type_symbol
 _atom_site_label
 _atom_site_symmetry_multiplicity
 _atom_site_fract_x
 _atom_site_fract_y
 _atom_site_fract_z
 _atom_site_occupancy
  Li  Li0  1  0.32599622  0.66018225  0.66586719  1
  Li  Li1  1  0.34755257  0.67583016  0.91556494  1
  Li  Li2  1  0.31941752  0.65545868  0.16783639  1
  Li  Li3  1  0.35183336  0.67008162  0.41552653  1
  Li  Li4  1  0.65213870  0.32739709  0.79229947  1
  Li  Li5  1  0.66501205  0.34645094  0.54188093  1
  Li  Li6  1  0.63712283  0.34837497  0.29198051  1
  Li  Li7  1  0.66396361  0.34730947  0.04113984  1
  Mn  Mn8  1  0.33093278  0.00811307  0.55827266  1
  Mn  Mn9  1  0.33191853  0.00351717  0.05847557  1
  Mn  Mn10  1  0.67856951  0.99807701  0.93134107  1
  Mn  Mn11  1  0.99524105  0.32876902  0.18426642  1
  Fe  Fe12  1  0.68619598  0.99729301  0.43449214  1
  Fe  Fe13  1  0.99341319  0.32754584  0.68359418  1
  Fe  Fe14  1  0.00404330  0.66167465  0.80706697  1
  Fe  Fe15  1  0.98361972  0.67266985  0.31009193  1
  B  B16  1  0.00460324  0.33780799  0.93532193  1
  B  B17  1  0.00864625  0.33135474  0.43605725  1
  B  B18  1  0.32931274  0.99880372  0.81008531  1
  B  B19  1  0.32535533  0.01155997  0.31388696  1
  B  B20  1  0.66528837  0.00224324  0.68776343  1
  B  B21  1  0.65844419  0.00048089  0.18877058  1
  B  B22  1  0.99762028  0.66714663  0.56229915  1
  B  B23  1  0.99692837  0.66611290  0.06198602  1
  O  O24  1  0.06333426  0.24888757  0.79139610  1
  O  O25  1  0.06052600  0.26188420  0.29341258  1
  O  O26  1  0.25571879  0.06568475  0.95120594  1
  O  O27  1  0.03520396  0.57501845  0.91440791  1
  O  O28  1  0.26352158  0.06211481  0.45112480  1
  O  O29  1  0.02679261  0.57832507  0.41752690  1
  O  O30  1  0.58013399  0.01962450  0.82411105  1
  O  O31  1  0.27242495  0.64245434  0.56949738  1
  O  O32  1  0.57534988  0.03655213  0.32795941  1
  O  O33  1  0.27170685  0.64034113  0.06973088  1
  O  O34  1  0.34815018  0.72586889  0.81748253  1
  O  O35  1  0.33863624  0.74278797  0.32061508  1
  O  O36  1  0.64101142  0.27795607  0.69407723  1
  O  O37  1  0.62785066  0.27704129  0.19537472  1
  O  O38  1  0.72853213  0.36830957  0.94253841  1
  O  O39  1  0.41896986  0.98410886  0.66837415  1
  O  O40  1  0.73434207  0.35345589  0.44235044  1
  O  O41  1  0.42072862  0.96941874  0.16764920  1
  O  O42  1  0.96351084  0.42448848  0.57788322  1
  O  O43  1  0.96266008  0.42352588  0.07781089  1
  O  O44  1  0.75430485  0.93161854  0.54057729  1
  O  O45  1  0.75427846  0.93073550  0.03984061  1
  O  O46  1  0.93670136  0.74660060  0.70126583  1
  O  O47  1  0.93123963  0.75013992  0.20412208  1
