# generated using pymatgen
data_Li2MnFe(BO3)2
_symmetry_space_group_name_H-M   'P 1'
_cell_length_a   5.21556730
_cell_length_b   5.23788580
_cell_length_c   10.48582523
_cell_angle_alpha   89.12954067
_cell_angle_beta   90.99526976
_cell_angle_gamma   60.25051633
_symmetry_Int_Tables_number   1
_chemical_formula_structural   Li2MnFe(BO3)2
_chemical_formula_sum   'Li4 Mn2 Fe2 B4 O12'
_cell_volume   248.57225641
_cell_formula_units_Z   2
loop_
 _symmetry_equiv_pos_site_id
 _symmetry_equiv_pos_as_xyz
  1  'x, y, z'
loop_
 _atom_site_type_symbol
 _atom_site_label
 _atom_site_symmetry_multiplicity
 _atom_site_fract_x
 _atom_site_fract_y
 _atom_site_fract_z
 _atom_site_occupancy
  Li  Li0  1  0.32263115  0.65205935  0.33346141  1
  Li  Li1  1  0.34756750  0.67515841  0.83056358  1
  Li  Li2  1  0.64739060  0.34181017  0.58313667  1
  Li  Li3  1  0.66399695  0.34519704  0.08271505  1
  Mn  Mn4  1  0.33166888  0.00388435  0.11457180  1
  Mn  Mn5  1  0.99832219  0.32693276  0.36780406  1
  Fe  Fe6  1  0.68440267  0.00175229  0.86726792  1
  Fe  Fe7  1  0.98167357  0.67453013  0.62053956  1
  B  B8  1  0.00411126  0.33662449  0.87184213  1
  B  B9  1  0.33126869  0.00580550  0.62600037  1
  B  B10  1  0.65991452  0.99791116  0.37580376  1
  B  B11  1  0.99827631  0.66520390  0.12233711  1
  O  O12  1  0.07078532  0.25666148  0.58546947  1
  O  O13  1  0.25933445  0.06783280  0.90051809  1
  O  O14  1  0.02374749  0.58175751  0.83429926  1
  O  O15  1  0.58289154  0.03051080  0.65497926  1
  O  O16  1  0.27304451  0.64075447  0.13848873  1
  O  O17  1  0.34648843  0.73641720  0.63925835  1
  O  O18  1  0.63015952  0.27340206  0.39038489  1
  O  O19  1  0.72921541  0.35865378  0.88537486  1
  O  O20  1  0.42137321  0.96815074  0.33294838  1
  O  O21  1  0.96355971  0.42281143  0.15306855  1
  O  O22  1  0.75612480  0.92892671  0.07892704  1
  O  O23  1  0.93145131  0.74785250  0.40643768  1
