# generated using pymatgen
data_Zr2N2O
_symmetry_space_group_name_H-M   'P 1'
_cell_length_a   8.89195739
_cell_length_b   8.87131987
_cell_length_c   8.85125480
_cell_angle_alpha   109.32674502
_cell_angle_beta   109.33021017
_cell_angle_gamma   109.58615852
_symmetry_Int_Tables_number   1
_chemical_formula_structural   Zr2N2O
_chemical_formula_sum   'Zr16 N16 O8'
_cell_volume   538.61334396
_cell_formula_units_Z   8
loop_
 _symmetry_equiv_pos_site_id
 _symmetry_equiv_pos_as_xyz
  1  'x, y, z'
loop_
 _atom_site_type_symbol
 _atom_site_label
 _atom_site_symmetry_multiplicity
 _atom_site_fract_x
 _atom_site_fract_y
 _atom_site_fract_z
 _atom_site_occupancy
  Zr  Zr0  1  0.50013026  0.99984496  0.98765051  1
  Zr  Zr1  1  0.74841112  0.29305378  0.53515861  1
  Zr  Zr2  1  0.21642762  0.96153589  0.24876346  1
  Zr  Zr3  1  0.71910471  0.47121989  0.24766397  1
  Zr  Zr4  1  0.24244640  0.21092344  0.95377873  1
  Zr  Zr5  1  0.01022941  0.51023543  0.00639560  1
  Zr  Zr6  1  0.53504722  0.74954520  0.29374749  1
  Zr  Zr7  1  0.99710971  0.99671434  0.50543022  1
  Zr  Zr8  1  0.50224497  0.49974858  0.50959861  1
  Zr  Zr9  1  0.97047558  0.25938828  0.21284343  1
  Zr  Zr10  1  0.46140117  0.25659269  0.71798770  1
  Zr  Zr11  1  0.02868892  0.73923062  0.77749000  1
  Zr  Zr12  1  0.75243641  0.78279028  0.03418830  1
  Zr  Zr13  1  0.78979427  0.03379286  0.76023108  1
  Zr  Zr14  1  0.28113814  0.53417081  0.74575068  1
  Zr  Zr15  1  0.25172357  0.70662350  0.46624827  1
  N  N16  1  0.72835232  0.99044290  0.95994038  1
  N  N17  1  0.51362953  0.23766418  0.96747879  1
  N  N18  1  0.77026938  0.54225651  0.52802499  1
  N  N19  1  0.76932194  0.73080705  0.26247081  1
  N  N20  1  0.46414112  0.22448711  0.45528601  1
  N  N21  1  0.04929435  0.27555426  0.01393223  1
  N  N22  1  0.95751743  0.73189031  0.99105054  1
  N  N23  1  0.96396030  0.50832525  0.23795398  1
  N  N24  1  0.27542412  0.74248967  0.22642292  1
  N  N25  1  0.53705260  0.77247766  0.54307679  1
  N  N26  1  0.22742461  0.45238080  0.46606525  1
  N  N27  1  0.54600922  0.53444470  0.77589285  1
  N  N28  1  0.98808552  0.95521150  0.72634210  1
  N  N29  1  0.22527674  0.26748382  0.73428176  1
  N  N30  1  0.03015215  0.48400659  0.75818581  1
  N  N31  1  0.26660514  0.77880080  0.73051058  1
  O  O32  1  0.76426546  0.03791728  0.48809342  1
  O  O33  1  0.27494954  0.01205448  0.04759548  1
  O  O34  1  0.73526370  0.22039959  0.27492260  1
  O  O35  1  0.45097502  0.46698153  0.22382407  1
  O  O36  1  0.22749367  0.96089082  0.50372075  1
  O  O37  1  0.72581415  0.25570222  0.76790141  1
  O  O38  1  0.01434601  0.04747932  0.27725524  1
  O  O39  1  0.48756751  0.76444308  0.03684156  1
