# generated using pymatgen
data_Li9Mn2Co5O16
_symmetry_space_group_name_H-M   'P 1'
_cell_length_a   2.96651776
_cell_length_b   15.54438953
_cell_length_c   6.45753314
_cell_angle_alpha   89.19278919
_cell_angle_beta   76.96147437
_cell_angle_gamma   82.01976676
_symmetry_Int_Tables_number   1
_chemical_formula_structural   Li9Mn2Co5O16
_chemical_formula_sum   'Li9 Mn2 Co5 O16'
_cell_volume   287.24216474
_cell_formula_units_Z   1
loop_
 _symmetry_equiv_pos_site_id
 _symmetry_equiv_pos_as_xyz
  1  'x, y, z'
loop_
 _atom_site_type_symbol
 _atom_site_label
 _atom_site_symmetry_multiplicity
 _atom_site_fract_x
 _atom_site_fract_y
 _atom_site_fract_z
 _atom_site_occupancy
  Li  Li0  1  0.73093261  0.19357134  0.12720264  1
  Li  Li1  1  0.74067519  0.43922217  0.62066236  1
  Li  Li2  1  0.75407134  0.68603406  0.12208180  1
  Li  Li3  1  0.24030630  0.31480440  0.89130118  1
  Li  Li4  1  0.25956731  0.56328352  0.36976438  1
  Li  Li5  1  0.25288295  0.81139952  0.87875396  1
  Li  Li6  1  0.75782747  0.93586583  0.61922656  1
  Li  Li7  1  0.25892142  0.06038887  0.37469071  1
  Li  Li8  1  0.52727256  0.37119625  0.23937690  1
  Mn  Mn9  1  0.99220991  0.99829001  0.00160464  1
  Mn  Mn10  1  0.00152307  0.25485389  0.48712466  1
  Co  Co11  1  0.00928138  0.49555826  0.00907869  1
  Co  Co12  1  0.99478634  0.74927311  0.50355408  1
  Co  Co13  1  0.49904884  0.62378620  0.74953302  1
  Co  Co14  1  0.50873748  0.87267694  0.25382567  1
  Co  Co15  1  0.48212757  0.12745023  0.75764826  1
  O  O16  1  0.33102043  0.08995015  0.05617895  1
  O  O17  1  0.41115549  0.33287612  0.55486222  1
  O  O18  1  0.36382009  0.59063382  0.03900425  1
  O  O19  1  0.87548454  0.21451055  0.79484418  1
  O  O20  1  0.88574290  0.47597389  0.28024144  1
  O  O21  1  0.85048327  0.71544798  0.79747091  1
  O  O22  1  0.40274532  0.84043936  0.54720668  1
  O  O23  1  0.85394199  0.96375121  0.30281392  1
  O  O24  1  0.12342773  0.27950950  0.20481064  1
  O  O25  1  0.14177615  0.53388799  0.71151336  1
  O  O26  1  0.15498268  0.78243113  0.20595633  1
  O  O27  1  0.65632550  0.41554548  0.93626865  1
  O  O28  1  0.60033788  0.65766738  0.45703298  1
  O  O29  1  0.64704051  0.90489297  0.95471626  1
  O  O30  1  0.10737866  0.03681636  0.69990212  1
  O  O31  1  0.58416512  0.16801450  0.45174760  1
