# generated using pymatgen
data_Li24Ti11CrO36
_symmetry_space_group_name_H-M   'P 1'
_cell_length_a   5.10492350
_cell_length_b   13.20071408
_cell_length_c   10.68642757
_cell_angle_alpha   67.78095163
_cell_angle_beta   85.26471133
_cell_angle_gamma   97.15736512
_symmetry_Int_Tables_number   1
_chemical_formula_structural   Li24Ti11CrO36
_chemical_formula_sum   'Li24 Ti11 Cr1 O36'
_cell_volume   654.85025543
_cell_formula_units_Z   1
loop_
 _symmetry_equiv_pos_site_id
 _symmetry_equiv_pos_as_xyz
  1  'x, y, z'
loop_
 _atom_site_type_symbol
 _atom_site_label
 _atom_site_symmetry_multiplicity
 _atom_site_fract_x
 _atom_site_fract_y
 _atom_site_fract_z
 _atom_site_occupancy
  Li  Li0  1  0.78421289  0.05886732  0.94157263  1
  Li  Li1  1  0.66508561  0.08296281  0.66667892  1
  Li  Li2  1  0.88498791  0.27473139  0.72523065  1
  Li  Li3  1  0.33304020  0.16576481  0.83358007  1
  Li  Li4  1  0.55633709  0.10768079  0.39249405  1
  Li  Li5  1  0.00002901  0.25002096  0.99998686  1
  Li  Li6  1  0.00096619  0.99983307  0.50086110  1
  Li  Li7  1  0.77787163  0.55882562  0.94071224  1
  Li  Li8  1  0.44698305  0.39212656  0.60808245  1
  Li  Li9  1  0.66671533  0.58342274  0.66662326  1
  Li  Li10  1  0.66675123  0.33327091  0.16677711  1
  Li  Li11  1  0.11099773  0.22541923  0.27410894  1
  Li  Li12  1  0.89030642  0.77508922  0.72612389  1
  Li  Li13  1  0.33370503  0.66620536  0.83342170  1
  Li  Li14  1  0.33323092  0.41639250  0.33372989  1
  Li  Li15  1  0.55239816  0.60757436  0.39181627  1
  Li  Li16  1  0.00000936  0.49996230  0.50005432  1
  Li  Li17  1  0.22205994  0.44121485  0.05921331  1
  Li  Li18  1  0.44074979  0.89269485  0.60716784  1
  Li  Li19  1  0.66722426  0.83328890  0.16696747  1
  Li  Li20  1  0.11426651  0.72578252  0.27480143  1
  Li  Li21  1  0.33330834  0.91670734  0.33323549  1
  Li  Li22  1  0.99976777  0.75125257  0.99899677  1
  Li  Li23  1  0.21670549  0.94107046  0.05720312  1
  Ti  Ti24  1  0.88935107  0.02810527  0.22195478  1
  Ti  Ti25  1  0.55572806  0.36133751  0.88856118  1
  Ti  Ti26  1  0.78043130  0.30525583  0.44618362  1
  Ti  Ti27  1  0.22647534  0.19275275  0.55354132  1
  Ti  Ti28  1  0.44400627  0.13806334  0.11174149  1
  Ti  Ti29  1  0.11054487  0.47156748  0.77840041  1
  Ti  Ti30  1  0.88980669  0.52851558  0.22171419  1
  Ti  Ti31  1  0.55484197  0.86316507  0.89066882  1
  Ti  Ti32  1  0.77724688  0.80508034  0.44526934  1
  Ti  Ti33  1  0.22258283  0.69485881  0.55511961  1
  Ti  Ti34  1  0.44487844  0.63839240  0.11076282  1
  Cr  Cr35  1  0.10636328  0.97241963  0.77672334  1
  O  O36  1  0.42449855  0.00276314  0.85831917  1
  O  O37  1  0.64298179  0.21137087  0.92311656  1
  O  O38  1  0.90438358  0.16395807  0.47279529  1
  O  O39  1  0.31347203  0.04557745  0.58842915  1
  O  O40  1  0.88078692  0.40649232  0.95654561  1
  O  O41  1  0.02397202  0.11796602  0.74573175  1
  O  O42  1  0.54746781  0.23976588  0.62366216  1
  O  O43  1  0.78552714  0.42679661  0.71008486  1
  O  O44  1  0.76203108  0.16894052  0.19436161  1
  O  O45  1  0.23773961  0.33086525  0.80580051  1
  O  O46  1  0.21441332  0.07317871  0.28980559  1
  O  O47  1  0.45167314  0.25955678  0.37721174  1
  O  O48  1  0.42848256  0.50218866  0.86099317  1
  O  O49  1  0.97612920  0.37804144  0.25686326  1
  O  O50  1  0.11903289  0.09345134  0.04344436  1
  O  O51  1  0.69030973  0.45521763  0.41001627  1
  O  O52  1  0.09376574  0.33465137  0.52868225  1
  O  O53  1  0.64038102  0.71202839  0.92240110  1
  O  O54  1  0.35719556  0.28848082  0.07673652  1
  O  O55  1  0.90479809  0.66437827  0.47253416  1
  O  O56  1  0.30953673  0.54478120  0.58997374  1
  O  O57  1  0.87703033  0.90595501  0.95750909  1
  O  O58  1  0.02394960  0.62190812  0.74354909  1
  O  O59  1  0.57123514  0.49782392  0.13881803  1
  O  O60  1  0.54743994  0.74021748  0.62336480  1
  O  O61  1  0.79616634  0.92860208  0.70985968  1
  O  O62  1  0.76174448  0.66894084  0.19409214  1
  O  O63  1  0.23675379  0.83371586  0.80491339  1
  O  O64  1  0.21438106  0.57331089  0.28974422  1
  O  O65  1  0.45226530  0.76005338  0.37684506  1
  O  O66  1  0.97607673  0.87810251  0.25675006  1
  O  O67  1  0.11893017  0.59358442  0.04334671  1
  O  O68  1  0.69056002  0.95519374  0.41016234  1
  O  O69  1  0.09533671  0.83559859  0.52762077  1
  O  O70  1  0.35792667  0.78907494  0.07693229  1
  O  O71  1  0.57166133  0.99779103  0.13890077  1
