# generated using pymatgen
data_Li8Mn5Fe3(BO3)8
_symmetry_space_group_name_H-M   'P 1'
_cell_length_a   5.24903265
_cell_length_b   5.23662986
_cell_length_c   20.89175224
_cell_angle_alpha   89.53754274
_cell_angle_beta   91.10549501
_cell_angle_gamma   60.07779306
_symmetry_Int_Tables_number   1
_chemical_formula_structural   Li8Mn5Fe3(BO3)8
_chemical_formula_sum   'Li8 Mn5 Fe3 B8 O24'
_cell_volume   497.51381514
_cell_formula_units_Z   1
loop_
 _symmetry_equiv_pos_site_id
 _symmetry_equiv_pos_as_xyz
  1  'x, y, z'
loop_
 _atom_site_type_symbol
 _atom_site_label
 _atom_site_symmetry_multiplicity
 _atom_site_fract_x
 _atom_site_fract_y
 _atom_site_fract_z
 _atom_site_occupancy
  Li  Li0  1  0.32402569  0.65371226  0.66612128  1
  Li  Li1  1  0.34675254  0.67790263  0.91577310  1
  Li  Li2  1  0.32257814  0.65185946  0.16600586  1
  Li  Li3  1  0.34851190  0.67878613  0.41603014  1
  Li  Li4  1  0.65148258  0.33280913  0.79178485  1
  Li  Li5  1  0.66287589  0.34918197  0.54187499  1
  Li  Li6  1  0.65444164  0.33625426  0.29181745  1
  Li  Li7  1  0.66242458  0.34883813  0.04131260  1
  Mn  Mn8  1  0.32598563  0.00692232  0.55964896  1
  Mn  Mn9  1  0.32678425  0.00619667  0.05875786  1
  Mn  Mn10  1  0.67855999  0.99988807  0.93251729  1
  Mn  Mn11  1  0.67638705  0.00281227  0.43368101  1
  Mn  Mn12  1  0.99725473  0.66810662  0.30719471  1
  Fe  Fe13  1  0.99256730  0.32443039  0.68495611  1
  Fe  Fe14  1  0.99473993  0.31845857  0.18363881  1
  Fe  Fe15  1  0.00412006  0.66358937  0.80689055  1
  B  B16  1  0.00334843  0.34088692  0.93624559  1
  B  B17  1  0.00236441  0.34216631  0.43717956  1
  B  B18  1  0.33137398  0.00241517  0.81088349  1
  B  B19  1  0.33472870  0.00287889  0.31134489  1
  B  B20  1  0.66289880  0.99902137  0.68786223  1
  B  B21  1  0.66094685  0.99702897  0.18674698  1
  B  B22  1  0.99374467  0.66719385  0.56337399  1
  B  B23  1  0.99356003  0.66720369  0.06289502  1
  O  O24  1  0.06633088  0.25172860  0.79193957  1
  O  O25  1  0.07057940  0.24480207  0.28995008  1
  O  O26  1  0.25425986  0.06977330  0.95171022  1
  O  O27  1  0.03400360  0.57736202  0.91532119  1
  O  O28  1  0.25302430  0.07096706  0.45258858  1
  O  O29  1  0.03320011  0.57852586  0.41595135  1
  O  O30  1  0.58132432  0.02387618  0.82480175  1
  O  O31  1  0.26828345  0.64247999  0.57018405  1
  O  O32  1  0.57779987  0.03704121  0.32661176  1
  O  O33  1  0.26793527  0.64246646  0.06984177  1
  O  O34  1  0.34622172  0.73159685  0.81798357  1
  O  O35  1  0.35885320  0.72943480  0.31925609  1
  O  O36  1  0.64096601  0.27380110  0.69416909  1
  O  O37  1  0.63931032  0.27147322  0.19369540  1
  O  O38  1  0.72773427  0.37076663  0.94358486  1
  O  O39  1  0.41680841  0.98015220  0.66928267  1
  O  O40  1  0.72708557  0.37231855  0.44474018  1
  O  O41  1  0.41551825  0.97730303  0.16768446  1
  O  O42  1  0.96086122  0.42458210  0.57921502  1
  O  O43  1  0.96072374  0.42417382  0.07838663  1
  O  O44  1  0.75100993  0.93045135  0.54164409  1
  O  O45  1  0.75115409  0.93083108  0.04116920  1
  O  O46  1  0.93351533  0.74430549  0.70133619  1
  O  O47  1  0.92983811  0.74244464  0.20061589  1
