# generated using pymatgen
data_Li2MnFe(BO3)2
_symmetry_space_group_name_H-M   'P 1'
_cell_length_a   5.25606289
_cell_length_b   5.23406347
_cell_length_c   20.80806765
_cell_angle_alpha   89.31154441
_cell_angle_beta   91.06690068
_cell_angle_gamma   60.03799394
_symmetry_Int_Tables_number   1
_chemical_formula_structural   Li2MnFe(BO3)2
_chemical_formula_sum   'Li8 Mn4 Fe4 B8 O24'
_cell_volume   495.70265284
_cell_formula_units_Z   4
loop_
 _symmetry_equiv_pos_site_id
 _symmetry_equiv_pos_as_xyz
  1  'x, y, z'
loop_
 _atom_site_type_symbol
 _atom_site_label
 _atom_site_symmetry_multiplicity
 _atom_site_fract_x
 _atom_site_fract_y
 _atom_site_fract_z
 _atom_site_occupancy
  Li  Li0  1  0.32594246  0.65339174  0.66621027  1
  Li  Li1  1  0.34573531  0.67660982  0.91687984  1
  Li  Li2  1  0.32318217  0.65290650  0.16606776  1
  Li  Li3  1  0.34839418  0.67738272  0.41650273  1
  Li  Li4  1  0.65114648  0.33216600  0.79275792  1
  Li  Li5  1  0.66318037  0.34908136  0.54174798  1
  Li  Li6  1  0.65133190  0.33408741  0.29141900  1
  Li  Li7  1  0.66059976  0.35129435  0.04134652  1
  Mn  Mn8  1  0.32656401  0.00792938  0.55938675  1
  Mn  Mn9  1  0.67576433  0.99967967  0.93193014  1
  Mn  Mn10  1  0.67758046  0.00076718  0.43252745  1
  Mn  Mn11  1  0.99859236  0.32568312  0.18374764  1
  Fe  Fe12  1  0.33687605  0.01157279  0.05868021  1
  Fe  Fe13  1  0.99273382  0.32311260  0.68478765  1
  Fe  Fe14  1  0.00201030  0.66896761  0.80737648  1
  Fe  Fe15  1  0.00439583  0.66809379  0.30747586  1
  B  B16  1  0.00357055  0.33785159  0.93673009  1
  B  B17  1  0.00447819  0.34060337  0.43635316  1
  B  B18  1  0.32831851  0.00316154  0.81104696  1
  B  B19  1  0.33019318  0.00671040  0.31167567  1
  B  B20  1  0.66344602  0.99855756  0.68807798  1
  B  B21  1  0.66022590  0.99684035  0.18733225  1
  B  B22  1  0.99353704  0.66845006  0.56320871  1
  B  B23  1  0.99589836  0.66562061  0.06191079  1
  O  O24  1  0.06363035  0.25287264  0.79242499  1
  O  O25  1  0.06487875  0.25362814  0.29216620  1
  O  O26  1  0.25414592  0.06603736  0.95190929  1
  O  O27  1  0.03309150  0.57643011  0.91627862  1
  O  O28  1  0.25475534  0.06873883  0.45201661  1
  O  O29  1  0.03563655  0.57770003  0.41566085  1
  O  O30  1  0.57875501  0.02358561  0.82512498  1
  O  O31  1  0.26817718  0.64311479  0.57004648  1
  O  O32  1  0.57919658  0.02911790  0.32593286  1
  O  O33  1  0.26515822  0.65217184  0.06866929  1
  O  O34  1  0.34681296  0.73002177  0.81800461  1
  O  O35  1  0.34732271  0.73373240  0.31809205  1
  O  O36  1  0.64024101  0.27380780  0.69446310  1
  O  O37  1  0.63105419  0.27319249  0.19376093  1
  O  O38  1  0.72783643  0.36756921  0.94355945  1
  O  O39  1  0.41779350  0.97916295  0.66929740  1
  O  O40  1  0.72911553  0.37060069  0.44355364  1
  O  O41  1  0.42348818  0.96491384  0.16690729  1
  O  O42  1  0.96061696  0.42541629  0.57904177  1
  O  O43  1  0.96901653  0.41664297  0.07621367  1
  O  O44  1  0.75071821  0.93249136  0.54145176  1
  O  O45  1  0.74675363  0.92916904  0.04204695  1
  O  O46  1  0.93403905  0.74387084  0.70171054  1
  O  O47  1  0.93287120  0.74669063  0.20268887  1
