# generated using pymatgen
data_Li4MnV3(P2O7)4
_symmetry_space_group_name_H-M   'P 1'
_cell_length_a   4.85730641
_cell_length_b   8.29021044
_cell_length_c   26.66624780
_cell_angle_alpha   89.99973707
_cell_angle_beta   88.53806283
_cell_angle_gamma   89.99997843
_symmetry_Int_Tables_number   1
_chemical_formula_structural   Li4MnV3(P2O7)4
_chemical_formula_sum   'Li8 Mn2 V6 P16 O56'
_cell_volume   1073.44940029
_cell_formula_units_Z   2
loop_
 _symmetry_equiv_pos_site_id
 _symmetry_equiv_pos_as_xyz
  1  'x, y, z'
loop_
 _atom_site_type_symbol
 _atom_site_label
 _atom_site_symmetry_multiplicity
 _atom_site_fract_x
 _atom_site_fract_y
 _atom_site_fract_z
 _atom_site_occupancy
  Li  Li0  1  0.15985850  0.36123116  0.33146572  1
  Li  Li1  1  0.16362395  0.35982990  0.83166588  1
  Li  Li2  1  0.34014264  0.86123509  0.41853148  1
  Li  Li3  1  0.33637555  0.85982798  0.91833715  1
  Li  Li4  1  0.66009896  0.36157320  0.08121204  1
  Li  Li5  1  0.66004998  0.36119732  0.58164040  1
  Li  Li6  1  0.83995185  0.86119812  0.16835908  1
  Li  Li7  1  0.83990017  0.86157147  0.66878924  1
  Mn  Mn8  1  0.15057412  0.99724320  0.81772512  1
  Mn  Mn9  1  0.34940623  0.49723728  0.93228343  1
  V  V10  1  0.14840447  0.99957526  0.31786288  1
  V  V11  1  0.35160999  0.49956997  0.43213089  1
  V  V12  1  0.64930740  0.00073115  0.06756081  1
  V  V13  1  0.64832855  -0.00022020  0.56800114  1
  V  V14  1  0.85167552  0.49977983  0.18199551  1
  V  V15  1  0.85069414  0.50073189  0.68244127  1
  P  P16  1  0.13918565  0.18016468  0.13050780  1
  P  P17  1  0.16852220  0.78675940  0.02155761  1
  P  P18  1  0.13849141  0.18104804  0.63087146  1
  P  P19  1  0.17006927  0.78427270  0.52153134  1
  P  P20  1  0.32993160  0.28426864  0.22846800  1
  P  P21  1  0.36150589  0.68104345  0.11912957  1
  P  P22  1  0.33147723  0.28676775  0.72844162  1
  P  P23  1  0.36080983  0.68015540  0.61949304  1
  P  P24  1  0.63855147  0.18028421  0.38060057  1
  P  P25  1  0.66998999  0.78411966  0.27145751  1
  P  P26  1  0.64133021  0.17649306  0.87888435  1
  P  P27  1  0.66901277  0.78525089  0.77237816  1
  P  P28  1  0.83000701  0.28409782  0.47853933  1
  P  P29  1  0.86144944  0.68030085  0.36939130  1
  P  P30  1  0.83098977  0.28526002  0.97762373  1
  P  P31  1  0.85867111  0.67649149  0.87112012  1
  O  O32  1  0.00626113  0.84340136  0.37354861  1
  O  O33  1  0.05491071  0.53808057  0.37944038  1
  O  O34  1  0.09354243  0.67739363  0.15128826  1
  O  O35  1  0.99780317  0.83957981  0.87679953  1
  O  O36  1  0.05197841  0.53255413  0.87951700  1
  O  O37  1  0.14331808  0.43407284  0.22896530  1
  O  O38  1  0.09278582  0.67773768  0.65114557  1
  O  O39  1  0.12550161  0.32414453  0.46260917  1
  O  O40  1  0.21831584  0.15341191  0.18835094  1
  O  O41  1  0.14389850  0.43624166  0.72806951  1
  O  O42  1  0.19031600  0.69697448  0.47131656  1
  O  O43  1  0.13086616  0.32640704  0.96355256  1
  O  O44  1  0.28084864  0.65434293  0.06158861  1
  O  O45  1  0.21915348  0.15434471  0.68840962  1
  O  O46  1  0.18336134  0.70305341  0.97131394  1
  O  O47  1  0.30968064  0.19697130  0.27868505  1
  O  O48  1  0.35610015  0.93624493  0.02192635  1
  O  O49  1  0.28168346  0.65341360  0.56165107  1
  O  O50  1  0.37450648  0.82414293  0.28739211  1
  O  O51  1  0.31664157  0.20305460  0.77868526  1
  O  O52  1  0.40721629  0.17774411  0.09885459  1
  O  O53  1  0.35668348  0.93407398  0.52103700  1
  O  O54  1  0.36913474  0.82640729  0.78644539  1
  O  O55  1  0.40646080  0.17739179  0.59871218  1
  O  O56  1  0.44510723  0.03808654  0.37056287  1
  O  O57  1  0.50597520  0.84397075  0.12341478  1
  O  O58  1  0.49373400  0.34340464  0.37645291  1
  O  O59  1  0.44801749  0.03255350  0.87047991  1
  O  O60  1  0.55481880  0.53852403  0.12940727  1
  O  O61  1  0.50608652  0.84379046  0.62345637  1
  O  O62  1  0.50219882  0.33957777  0.87319719  1
  O  O63  1  0.55482783  0.53878349  0.62943861  1
  O  O64  1  0.59334066  0.67747273  0.40123519  1
  O  O65  1  0.62553685  0.32453156  0.21266891  1
  O  O66  1  0.64357819  0.43411612  0.47892732  1
  O  O67  1  0.58778233  0.67049970  0.90265667  1
  O  O68  1  0.69051175  0.69682428  0.22134572  1
  O  O69  1  0.62602281  0.32632971  0.71134664  1
  O  O70  1  0.71805244  0.15324717  0.43832231  1
  O  O71  1  0.64402566  0.43472720  0.97867806  1
  O  O72  1  0.68763036  0.69658866  0.72212710  1
  O  O73  1  0.81237443  0.19659257  0.02787132  1
  O  O74  1  0.78195449  0.65324633  0.31168191  1
  O  O75  1  0.72223534  0.15481986  0.93725328  1
  O  O76  1  0.87397362  0.82632062  0.03865183  1
  O  O77  1  0.80948370  0.19681975  0.52865739  1
  O  O78  1  0.85640331  0.93410663  0.27107330  1
  O  O79  1  0.77776345  0.65482145  0.81274365  1
  O  O80  1  0.87446023  0.82453581  0.53733338  1
  O  O81  1  0.90664626  0.17747336  0.34876792  1
  O  O82  1  0.85597625  0.93472790  0.77131962  1
  O  O83  1  0.94517339  0.03877853  0.12056324  1
  O  O84  1  0.99391739  0.34378389  0.12654318  1
  O  O85  1  0.91222009  0.17049821  0.84734092  1
  O  O86  1  0.94517954  0.03852364  0.62059268  1
  O  O87  1  0.99402578  0.34397128  0.62658740  1
