# generated using pymatgen
data_Li2MnFe(BO3)2
_symmetry_space_group_name_H-M   'P 1'
_cell_length_a   8.26888469
_cell_length_b   8.26978026
_cell_length_c   6.31255743
_cell_angle_alpha   90.00000000
_cell_angle_beta   90.00000000
_cell_angle_gamma   120.06880193
_symmetry_Int_Tables_number   1
_chemical_formula_structural   Li2MnFe(BO3)2
_chemical_formula_sum   'Li6 Mn3 Fe3 B6 O18'
_cell_volume   373.57290364
_cell_formula_units_Z   3
loop_
 _symmetry_equiv_pos_site_id
 _symmetry_equiv_pos_as_xyz
  1  'x, y, z'
loop_
 _atom_site_type_symbol
 _atom_site_label
 _atom_site_symmetry_multiplicity
 _atom_site_fract_x
 _atom_site_fract_y
 _atom_site_fract_z
 _atom_site_occupancy
  Li  Li0  1  0.28470216  0.98276910  0.25019812  1
  Li  Li1  1  0.28470216  0.98276910  0.74980288  1
  Li  Li2  1  0.01703899  0.30178887  0.25086842  1
  Li  Li3  1  0.01703899  0.30178887  0.74913158  1
  Li  Li4  1  0.69832844  0.71515932  0.75006539  1
  Li  Li5  1  0.69832844  0.71515932  0.24993461  1
  Mn  Mn6  1  0.37325855  0.36055453  0.50000000  1
  Mn  Mn7  1  0.64085958  0.01265063  0.00000000  1
  Mn  Mn8  1  0.98758504  0.62813276  0.00000000  1
  Fe  Fe9  1  0.36652350  0.35928387  0.00000000  1
  Fe  Fe10  1  0.64005617  0.00730978  0.50000000  1
  Fe  Fe11  1  0.99248408  0.63248205  0.50000000  1
  B  B12  1  0.00274204  0.00008258  0.00000000  1
  B  B13  1  0.99720980  0.99975748  0.50000000  1
  B  B14  1  0.33326880  0.66666247  0.25192453  1
  B  B15  1  0.33326880  0.66666247  0.74807547  1
  B  B16  1  0.66667766  0.33339500  0.25145756  1
  B  B17  1  0.66667766  0.33339500  0.74854244  1
  O  O18  1  0.10684859  0.91486690  0.50000000  1
  O  O19  1  0.11658428  0.92106121  0.00000000  1
  O  O20  1  0.13959987  0.58064004  0.25449677  1
  O  O21  1  0.13959987  0.58064004  0.74550323  1
  O  O22  1  0.08400680  0.19507316  0.00000000  1
  O  O23  1  0.08017347  0.19279513  0.50000000  1
  O  O24  1  0.44118450  0.86038959  0.25376820  1
  O  O25  1  0.44118450  0.86038959  0.74623180  1
  O  O26  1  0.41915034  0.55902401  0.24601542  1
  O  O27  1  0.41915034  0.55902401  0.75398458  1
  O  O28  1  0.47292836  0.25246101  0.24801130  1
  O  O29  1  0.47292836  0.25246101  0.75198870  1
  O  O30  1  0.80921612  0.88756699  0.00000000  1
  O  O31  1  0.80261425  0.88823477  0.50000000  1
  O  O32  1  0.77955377  0.52712838  0.25228362  1
  O  O33  1  0.77955377  0.52712838  0.74771638  1
  O  O34  1  0.74748548  0.22065879  0.74680355  1
  O  O35  1  0.74748548  0.22065879  0.25319645  1
