# generated using pymatgen
data_Sm3NbO7
_symmetry_space_group_name_H-M   'P 1'
_cell_length_a   7.60380019
_cell_length_b   10.83230501
_cell_length_c   7.72281382
_cell_angle_alpha   90.00000000
_cell_angle_beta   90.00000000
_cell_angle_gamma   90.00000000
_symmetry_Int_Tables_number   1
_chemical_formula_structural   Sm3NbO7
_chemical_formula_sum   'Sm12 Nb4 O28'
_cell_volume   636.10255695
_cell_formula_units_Z   4
loop_
 _symmetry_equiv_pos_site_id
 _symmetry_equiv_pos_as_xyz
  1  'x, y, z'
loop_
 _atom_site_type_symbol
 _atom_site_label
 _atom_site_symmetry_multiplicity
 _atom_site_fract_x
 _atom_site_fract_y
 _atom_site_fract_z
 _atom_site_occupancy
  Sm  Sm0  1  0.01475463  0.25000000  0.79825171  1
  Sm  Sm1  1  0.24993964  0.52274700  0.96272195  1
  Sm  Sm2  1  0.24993964  0.97725300  0.96272195  1
  Sm  Sm3  1  0.25006036  0.02274700  0.46272195  1
  Sm  Sm4  1  0.25006036  0.47725300  0.46272195  1
  Sm  Sm5  1  0.48524537  0.75000000  0.29825171  1
  Sm  Sm6  1  0.51475463  0.25000000  0.70174829  1
  Sm  Sm7  1  0.74993964  0.52274700  0.53727805  1
  Sm  Sm8  1  0.74993964  0.97725300  0.53727805  1
  Sm  Sm9  1  0.75006036  0.02274700  0.03727805  1
  Sm  Sm10  1  0.75006036  0.47725300  0.03727805  1
  Sm  Sm11  1  0.98524537  0.75000000  0.20174829  1
  Nb  Nb12  1  0.99574824  0.75000000  0.74636527  1
  Nb  Nb13  1  0.50425176  0.25000000  0.24636527  1
  Nb  Nb14  1  0.49574824  0.75000000  0.75363473  1
  Nb  Nb15  1  0.00425176  0.25000000  0.25363473  1
  O  O16  1  0.03623537  0.12575792  0.04878950  1
  O  O17  1  0.03623537  0.37424208  0.04878950  1
  O  O18  1  0.04084083  0.61183236  0.59167949  1
  O  O19  1  0.04084083  0.88816764  0.59167949  1
  O  O20  1  0.24832524  0.25000000  0.33179827  1
  O  O21  1  0.25688525  0.11659306  0.73161234  1
  O  O22  1  0.25688525  0.38340694  0.73161234  1
  O  O23  1  0.24311475  0.61659306  0.23161234  1
  O  O24  1  0.24311475  0.88340694  0.23161234  1
  O  O25  1  0.25167476  0.75000000  0.83179827  1
  O  O26  1  0.45915917  0.11183236  0.09167949  1
  O  O27  1  0.45915917  0.38816764  0.09167949  1
  O  O28  1  0.46376463  0.62575792  0.54878950  1
  O  O29  1  0.46376463  0.87424208  0.54878950  1
  O  O30  1  0.53623537  0.12575792  0.45121050  1
  O  O31  1  0.53623537  0.37424208  0.45121050  1
  O  O32  1  0.54084083  0.61183236  0.90832051  1
  O  O33  1  0.54084083  0.88816764  0.90832051  1
  O  O34  1  0.74832524  0.25000000  0.16820173  1
  O  O35  1  0.75688525  0.11659306  0.76838766  1
  O  O36  1  0.75688525  0.38340694  0.76838766  1
  O  O37  1  0.74311475  0.61659306  0.26838766  1
  O  O38  1  0.74311475  0.88340694  0.26838766  1
  O  O39  1  0.75167476  0.75000000  0.66820173  1
  O  O40  1  0.95915917  0.11183236  0.40832051  1
  O  O41  1  0.95915917  0.38816764  0.40832051  1
  O  O42  1  0.96376463  0.62575792  0.95121050  1
  O  O43  1  0.96376463  0.87424208  0.95121050  1
