# generated using pymatgen
data_Ti(SO4)2
_symmetry_space_group_name_H-M   'P 1'
_cell_length_a   9.18215834
_cell_length_b   9.12525569
_cell_length_c   13.53200246
_cell_angle_alpha   90.00000000
_cell_angle_beta   90.00000000
_cell_angle_gamma   90.00000000
_symmetry_Int_Tables_number   1
_chemical_formula_structural   Ti(SO4)2
_chemical_formula_sum   'Ti8 S16 O64'
_cell_volume   1133.84029711
_cell_formula_units_Z   8
loop_
 _symmetry_equiv_pos_site_id
 _symmetry_equiv_pos_as_xyz
  1  'x, y, z'
loop_
 _atom_site_type_symbol
 _atom_site_label
 _atom_site_symmetry_multiplicity
 _atom_site_fract_x
 _atom_site_fract_y
 _atom_site_fract_z
 _atom_site_occupancy
  Ti  Ti0  1  0.14442109  0.10862511  0.12669055  1
  Ti  Ti1  1  0.14442109  0.39137489  0.62669055  1
  Ti  Ti2  1  0.35557891  0.60862511  0.12669055  1
  Ti  Ti3  1  0.35557891  0.89137489  0.62669055  1
  Ti  Ti4  1  0.64442109  0.10862511  0.37330945  1
  Ti  Ti5  1  0.64442109  0.39137489  0.87330945  1
  Ti  Ti6  1  0.85557891  0.60862511  0.37330945  1
  Ti  Ti7  1  0.85557891  0.89137489  0.87330945  1
  S  S8  1  0.07290764  0.06281448  0.71711318  1
  S  S9  1  0.07290764  0.43718552  0.21711318  1
  S  S10  1  0.15903443  0.68535905  0.48449251  1
  S  S11  1  0.15903443  0.81464095  0.98449251  1
  S  S12  1  0.34096557  0.18535905  0.48449251  1
  S  S13  1  0.34096557  0.31464095  0.98449251  1
  S  S14  1  0.42709236  0.93718552  0.21711318  1
  S  S15  1  0.42709236  0.56281448  0.71711318  1
  S  S16  1  0.57290764  0.43718552  0.28288682  1
  S  S17  1  0.57290764  0.06281448  0.78288682  1
  S  S18  1  0.65903443  0.68535905  0.01550749  1
  S  S19  1  0.65903443  0.81464095  0.51550749  1
  S  S20  1  0.84096557  0.18535905  0.01550749  1
  S  S21  1  0.84096557  0.31464095  0.51550749  1
  S  S22  1  0.92709236  0.56281448  0.78288682  1
  S  S23  1  0.92709236  0.93718552  0.28288682  1
  O  O24  1  0.99654383  0.69440054  0.46829618  1
  O  O25  1  0.99654383  0.80559946  0.96829618  1
  O  O26  1  0.01636184  0.98283840  0.36320869  1
  O  O27  1  0.01636184  0.51716160  0.86320869  1
  O  O28  1  0.01522859  0.48119633  0.31748844  1
  O  O29  1  0.01522859  0.01880367  0.81748844  1
  O  O30  1  0.09726800  0.22700767  0.71995330  1
  O  O31  1  0.09726800  0.27299233  0.21995330  1
  O  O32  1  0.19050178  0.71721640  0.07320326  1
  O  O33  1  0.19050178  0.78278360  0.57320326  1
  O  O34  1  0.18918968  0.96739948  0.02080233  1
  O  O35  1  0.18918968  0.53260052  0.52080233  1
  O  O36  1  0.22471395  0.99499256  0.71401578  1
  O  O37  1  0.22471395  0.50500744  0.21401578  1
  O  O38  1  0.24231484  0.72289069  0.39944424  1
  O  O39  1  0.24231484  0.77710931  0.89944424  1
  O  O40  1  0.25768516  0.22289069  0.39944424  1
  O  O41  1  0.25768516  0.27710931  0.89944424  1
  O  O42  1  0.27528605  0.00500744  0.21401578  1
  O  O43  1  0.27528605  0.49499256  0.71401578  1
  O  O44  1  0.31081032  0.03260052  0.52080233  1
  O  O45  1  0.31081032  0.46739948  0.02080233  1
  O  O46  1  0.30949822  0.21721640  0.07320326  1
  O  O47  1  0.30949822  0.28278360  0.57320326  1
  O  O48  1  0.40273200  0.77299233  0.21995330  1
  O  O49  1  0.40273200  0.72700767  0.71995330  1
  O  O50  1  0.48477141  0.51880367  0.81748844  1
  O  O51  1  0.48477141  0.98119633  0.31748844  1
  O  O52  1  0.48363816  0.48283840  0.36320869  1
  O  O53  1  0.48363816  0.01716160  0.86320869  1
  O  O54  1  0.50345617  0.19440054  0.46829618  1
  O  O55  1  0.50345617  0.30559946  0.96829618  1
  O  O56  1  0.49654383  0.69440054  0.03170382  1
  O  O57  1  0.49654383  0.80559946  0.53170382  1
  O  O58  1  0.51636184  0.51716160  0.63679131  1
  O  O59  1  0.51636184  0.98283840  0.13679031  1
  O  O60  1  0.51522859  0.48119633  0.18251156  1
  O  O61  1  0.51522859  0.01880367  0.68251156  1
  O  O62  1  0.59726800  0.27299233  0.28004670  1
  O  O63  1  0.59726800  0.22700767  0.78004670  1
  O  O64  1  0.69050178  0.71721640  0.42679674  1
  O  O65  1  0.69050178  0.78278360  0.92679674  1
  O  O66  1  0.68918968  0.53260052  0.97919767  1
  O  O67  1  0.68918968  0.96739948  0.47919767  1
  O  O68  1  0.72471395  0.50500744  0.28598422  1
  O  O69  1  0.72471395  0.99499256  0.78598422  1
  O  O70  1  0.74231484  0.72289069  0.10055576  1
  O  O71  1  0.74231484  0.77710931  0.60055576  1
  O  O72  1  0.75768516  0.22289069  0.10055576  1
  O  O73  1  0.75768516  0.27710931  0.60055576  1
  O  O74  1  0.77528605  0.49499256  0.78598422  1
  O  O75  1  0.77528605  0.00500744  0.28598422  1
  O  O76  1  0.81081032  0.46739948  0.47919767  1
  O  O77  1  0.81081032  0.03260052  0.97919767  1
  O  O78  1  0.80949822  0.21721640  0.42679674  1
  O  O79  1  0.80949822  0.28278360  0.92679674  1
  O  O80  1  0.90273200  0.72700767  0.78004670  1
  O  O81  1  0.90273200  0.77299233  0.28004670  1
  O  O82  1  0.98477141  0.51880367  0.68251156  1
  O  O83  1  0.98477141  0.98119633  0.18251156  1
  O  O84  1  0.98363816  0.01716160  0.63679131  1
  O  O85  1  0.98363816  0.48283840  0.13679031  1
  O  O86  1  0.00345617  0.19440054  0.03170382  1
  O  O87  1  0.00345617  0.30559946  0.53170382  1
