# generated using pymatgen
data_Li2MnFe(BO3)2
_symmetry_space_group_name_H-M   'P 1'
_cell_length_a   8.25655425
_cell_length_b   8.26614999
_cell_length_c   6.32669338
_cell_angle_alpha   90.00000000
_cell_angle_beta   90.00000000
_cell_angle_gamma   120.07324616
_symmetry_Int_Tables_number   1
_chemical_formula_structural   Li2MnFe(BO3)2
_chemical_formula_sum   'Li6 Mn3 Fe3 B6 O18'
_cell_volume   373.67025020
_cell_formula_units_Z   3
loop_
 _symmetry_equiv_pos_site_id
 _symmetry_equiv_pos_as_xyz
  1  'x, y, z'
loop_
 _atom_site_type_symbol
 _atom_site_label
 _atom_site_symmetry_multiplicity
 _atom_site_fract_x
 _atom_site_fract_y
 _atom_site_fract_z
 _atom_site_occupancy
  Li  Li0  1  0.28394517  0.98231108  0.25063286  1
  Li  Li1  1  0.28394517  0.98231108  0.74936714  1
  Li  Li2  1  0.01813853  0.30194983  0.24918967  1
  Li  Li3  1  0.01813853  0.30194983  0.75081033  1
  Li  Li4  1  0.69889848  0.71480714  0.74933016  1
  Li  Li5  1  0.69889848  0.71480714  0.25066984  1
  Mn  Mn6  1  0.37243571  0.35965732  0.00000000  1
  Mn  Mn7  1  0.64065836  0.01209622  0.00000000  1
  Mn  Mn8  1  0.63929618  0.01241714  0.50000000  1
  Fe  Fe9  1  0.36570496  0.35892962  0.50000000  1
  Fe  Fe10  1  0.99191867  0.63295596  0.00000000  1
  Fe  Fe11  1  0.99173484  0.63178366  0.50000000  1
  B  B12  1  0.99816608  0.99735867  0.00000000  1
  B  B13  1  0.00023765  0.99760351  0.50000000  1
  B  B14  1  0.33125485  0.66601122  0.25162889  1
  B  B15  1  0.33125485  0.66601122  0.74837111  1
  B  B16  1  0.66869147  0.33586407  0.25161641  1
  B  B17  1  0.66869147  0.33586407  0.74838359  1
  O  O18  1  0.11155035  0.91536599  0.50000000  1
  O  O19  1  0.11174181  0.91673155  0.00000000  1
  O  O20  1  0.13703685  0.58023169  0.25004931  1
  O  O21  1  0.13703685  0.58023169  0.74995069  1
  O  O22  1  0.07864955  0.19118662  0.00000000  1
  O  O23  1  0.08425507  0.19295062  0.50000000  1
  O  O24  1  0.43944328  0.85972379  0.24994892  1
  O  O25  1  0.43944328  0.85972379  0.75005108  1
  O  O26  1  0.41712634  0.55801569  0.25353741  1
  O  O27  1  0.41712634  0.55801569  0.74646259  1
  O  O28  1  0.47443557  0.25377608  0.25362500  1
  O  O29  1  0.47443557  0.25377608  0.74637500  1
  O  O30  1  0.80452036  0.88320274  0.00000000  1
  O  O31  1  0.80679615  0.88719632  0.50000000  1
  O  O32  1  0.78227351  0.52943049  0.25036488  1
  O  O33  1  0.78227351  0.52943049  0.74963512  1
  O  O34  1  0.74992408  0.22316045  0.74996520  1
  O  O35  1  0.74992408  0.22316045  0.25003480  1
