# generated using pymatgen
data_Li24Ti11CrO36
_symmetry_space_group_name_H-M   'P 1'
_cell_length_a   8.84540115
_cell_length_b   8.81666152
_cell_length_c   9.82405443
_cell_angle_alpha   90.00000044
_cell_angle_beta   98.29434208
_cell_angle_gamma   60.10742255
_symmetry_Int_Tables_number   1
_chemical_formula_structural   Li24Ti11CrO36
_chemical_formula_sum   'Li24 Ti11 Cr1 O36'
_cell_volume   654.96052374
_cell_formula_units_Z   1
loop_
 _symmetry_equiv_pos_site_id
 _symmetry_equiv_pos_as_xyz
  1  'x, y, z'
loop_
 _atom_site_type_symbol
 _atom_site_label
 _atom_site_symmetry_multiplicity
 _atom_site_fract_x
 _atom_site_fract_y
 _atom_site_fract_z
 _atom_site_occupancy
  Li  Li0  1  0.16615398  0.00502763  0.99893430  1
  Li  Li1  1  0.00000000  0.25002803  0.75000000  1
  Li  Li2  1  0.16652021  0.16816088  0.49870868  1
  Li  Li3  1  0.33246645  0.08438567  0.25048331  1
  Li  Li4  1  0.16667974  0.32782538  0.00107757  1
  Li  Li5  1  0.49998670  0.00017070  0.99991116  1
  Li  Li6  1  0.49960332  0.16094995  0.50009243  1
  Li  Li7  1  0.16700944  0.50387331  0.49950228  1
  Li  Li8  1  0.00000000  0.74983060  0.25000000  1
  Li  Li9  1  0.49885972  0.33913118  -0.00002482  1
  Li  Li10  1  0.16699614  0.66761801  0.99906842  1
  Li  Li11  1  0.33332002  0.58334158  0.74987451  1
  Li  Li12  1  0.16542753  0.82893666  0.49932609  1
  Li  Li13  1  0.50001330  0.50015840  0.50008884  1
  Li  Li14  1  0.83384602  0.17118161  0.50106570  1
  Li  Li15  1  0.66753355  0.41685312  0.24951669  1
  Li  Li16  1  0.50039668  0.66055227  0.99990757  1
  Li  Li17  1  0.83347979  0.33468209  0.00129132  1
  Li  Li18  1  0.83332026  0.49450512  0.49892243  1
  Li  Li19  1  0.50114028  0.83799090  0.50002482  1
  Li  Li20  1  0.83299056  0.67088375  0.00049772  1
  Li  Li21  1  0.66667998  0.91666160  0.75012549  1
  Li  Li22  1  0.83300386  0.83461315  0.50093158  1
  Li  Li23  1  0.83457247  0.99436418  0.00067391  1
  Ti  Ti24  1  0.00000000  0.08573133  0.25000000  1
  Ti  Ti25  1  0.00000000  0.58228093  0.75000000  1
  Ti  Ti26  1  0.33318121  0.25086586  0.75007726  1
  Ti  Ti27  1  0.33455886  0.41282351  0.25259998  1
  Ti  Ti28  1  0.66771241  0.08279358  0.24981966  1
  Ti  Ti29  1  0.00000000  0.91737429  0.75000000  1
  Ti  Ti30  1  0.66664737  0.24902127  0.75034735  1
  Ti  Ti31  1  0.33228759  0.75050599  0.25018034  1
  Ti  Ti32  1  0.33335263  0.91566964  0.74965265  1
  Ti  Ti33  1  0.66681879  0.58404707  0.74992274  1
  Ti  Ti34  1  0.66544114  0.74738237  0.24740002  1
  Cr  Cr35  1  0.00000000  0.42031005  0.25000000  1
  O  O36  1  0.09403631  0.02481774  0.63677799  1
  O  O37  1  0.07015984  0.21797746  0.13640077  1
  O  O38  1  0.26348836  0.11809003  0.86554080  1
  O  O39  1  0.40293016  0.04851687  0.63460052  1
  O  O40  1  0.09441944  0.38093258  0.63715190  1
  O  O41  1  0.24023699  0.30749864  0.36293562  1
  O  O42  1  0.23899272  0.45237857  0.86347842  1
  O  O43  1  0.09018552  0.52345229  0.13833135  1
  O  O44  1  0.57230612  0.14193431  0.86308986  1
  O  O45  1  0.42764854  0.21425413  0.13690005  1
  O  O46  1  0.06947850  0.71520185  0.63442552  1
  O  O47  1  0.42761244  0.35787721  0.63690627  1
  O  O48  1  0.76094179  0.04753462  0.63697520  1
  O  O49  1  0.57125375  0.28600122  0.36347413  1
  O  O50  1  0.26272189  0.61884539  0.36539630  1
  O  O51  1  0.90596369  0.11885505  0.86322201  1
  O  O52  1  0.40056154  0.54921146  0.13432538  1
  O  O53  1  0.76099360  0.19143805  0.13692561  1
  O  O54  1  0.23905821  0.80847642  0.86302480  1
  O  O55  1  0.59706984  0.45144704  0.86539948  1
  O  O56  1  0.09410658  0.88273520  0.13654113  1
  O  O57  1  0.73651164  0.38157739  0.63445920  1
  O  O58  1  0.42769388  0.71424043  0.63691014  1
  O  O59  1  0.23900640  0.95243166  0.36307439  1
  O  O60  1  0.57235146  0.64190267  0.36309995  1
  O  O61  1  0.92984016  0.28813730  0.36359923  1
  O  O62  1  0.57238756  0.78549064  0.86309373  1
  O  O63  1  0.42874625  0.85725497  0.13652587  1
  O  O64  1  0.90558056  0.47535202  0.86284810  1
  O  O65  1  0.75976301  0.54773563  0.13706438  1
  O  O66  1  0.76100728  0.69137129  0.63652158  1
  O  O67  1  0.90981448  0.61363781  0.36166865  1
  O  O68  1  0.59943846  0.94977299  0.36567462  1
  O  O69  1  0.73727811  0.88156727  0.13460370  1
  O  O70  1  0.93052150  0.78468035  0.86557448  1
  O  O71  1  0.90589342  0.97684079  0.36345887  1
