# generated using pymatgen
data_Li24Ti11CrO36
_symmetry_space_group_name_H-M   'P 1'
_cell_length_a   8.84157664
_cell_length_b   8.81475354
_cell_length_c   10.28269447
_cell_angle_alpha   90.00000127
_cell_angle_beta   72.98463256
_cell_angle_gamma   60.10030242
_symmetry_Int_Tables_number   1
_chemical_formula_structural   Li24Ti11CrO36
_chemical_formula_sum   'Li24 Ti11 Cr1 O36'
_cell_volume   653.95200266
_cell_formula_units_Z   1
loop_
 _symmetry_equiv_pos_site_id
 _symmetry_equiv_pos_as_xyz
  1  'x, y, z'
loop_
 _atom_site_type_symbol
 _atom_site_label
 _atom_site_symmetry_multiplicity
 _atom_site_fract_x
 _atom_site_fract_y
 _atom_site_fract_z
 _atom_site_occupancy
  Li  Li0  1  0.16770148  0.00450855  0.50017563  1
  Li  Li1  1  0.16563887  0.16768575  0.25037573  1
  Li  Li2  1  0.16666175  0.00464061  0.99896178  1
  Li  Li3  1  0.16617430  0.32833908  0.00099089  1
  Li  Li4  1  0.50001593  0.00006756  0.00002088  1
  Li  Li5  1  0.16664962  0.16672733  0.75003158  1
  Li  Li6  1  0.16613038  0.32802268  0.49993443  1
  Li  Li7  1  0.49924970  0.00133773  0.50080491  1
  Li  Li8  1  0.16741730  0.66725343  0.99919509  1
  Li  Li9  1  0.16665107  0.66674949  0.49997912  1
  Li  Li10  1  0.50000425  0.33796936  0.50103822  1
  Li  Li11  1  0.50102713  0.49999162  0.24962427  1
  Li  Li12  1  0.49896552  0.33887603  0.99982437  1
  Li  Li13  1  0.50053562  0.66082006  0.00006557  1
  Li  Li14  1  0.83281956  0.33480916  0.00108826  1
  Li  Li15  1  0.50001638  0.50004395  0.74996842  1
  Li  Li16  1  0.50049270  0.66117938  0.49900911  1
  Li  Li17  1  0.83384744  0.33429472  0.49891174  1
  Li  Li18  1  0.83408884  0.67026844  0.49957475  1
  Li  Li19  1  0.83333300  0.83309357  0.25000000  1
  Li  Li20  1  0.83257816  0.67102328  0.00042525  1
  Li  Li21  1  0.83414701  0.99474445  0.00066080  1
  Li  Li22  1  0.83333300  0.83336354  0.75000000  1
  Li  Li23  1  0.83251999  0.99555845  0.49933920  1
  Ti  Ti24  1  0.16577613  0.49770775  0.25219222  1
  Ti  Ti25  1  0.50070188  0.16659400  0.24980145  1
  Ti  Ti26  1  0.16642708  0.49902555  0.75008617  1
  Ti  Ti27  1  0.49997951  0.16741810  0.75024040  1
  Ti  Ti28  1  0.16596412  0.83396288  0.25019855  1
  Ti  Ti29  1  0.83333300  0.16855957  0.25000000  1
  Ti  Ti30  1  0.16668649  0.83406461  0.74975960  1
  Ti  Ti31  1  0.83333300  0.16590266  0.75000000  1
  Ti  Ti32  1  0.50089087  0.83014988  0.24780778  1
  Ti  Ti33  1  0.50023992  0.83211962  0.74991383  1
  Ti  Ti34  1  0.83333300  0.50066939  0.75000000  1
  Cr  Cr35  1  0.83333300  0.50317272  0.25000000  1
  O  O36  1  0.35502711  0.07201242  0.36577447  1
  O  O37  1  0.99820712  0.56979360  0.13816314  1
  O  O38  1  0.35297650  0.07339805  0.86570101  1
  O  O39  1  0.33621790  0.25981431  0.13663513  1
  O  O40  1  0.00291007  0.57042375  0.63656639  1
  O  O41  1  0.33628085  0.25980957  0.63676035  1
  O  O42  1  0.32914938  0.40710667  0.36359712  1
  O  O43  1  0.01918574  0.74061568  0.36552714  1
  O  O44  1  0.66376739  0.09753897  0.36358287  1
  O  O45  1  0.33011621  0.40689146  0.86357455  1
  O  O46  1  0.31163989  0.59370654  0.13422553  1
  O  O47  1  0.66953358  0.23722428  0.13677038  1
  O  O48  1  0.01996612  0.73995060  0.86556131  1
  O  O49  1  0.66375539  0.09609581  0.86314550  1
  O  O50  1  0.00289961  0.92797335  0.13641713  1
  O  O51  1  0.31368950  0.59304154  0.63429899  1
  O  O52  1  0.66931450  0.23741132  0.63668703  1
  O  O53  1  0.00291161  0.92651721  0.63685450  1
  O  O54  1  0.99713242  0.07342486  0.36322962  1
  O  O55  1  0.33044910  0.76269921  0.36336487  1
  O  O56  1  0.68734425  0.40926951  0.36374796  1
  O  O57  1  0.99735150  0.07339283  0.86331297  1
  O  O58  1  0.33751662  0.90292306  0.13640288  1
  O  O59  1  0.97932275  0.26327976  0.13625204  1
  O  O60  1  0.33038515  0.76275741  0.86323965  1
  O  O61  1  0.68643776  0.40673858  0.86554918  1
  O  O62  1  0.66857719  0.59323345  0.13715334  1
  O  O63  1  0.33655079  0.90367467  0.63642545  1
  O  O64  1  0.98022924  0.25984333  0.63445082  1
  O  O65  1  0.66943447  0.59321175  0.63696867  1
  O  O66  1  0.66845988  0.73466672  0.36183686  1
  O  O67  1  0.99808981  0.42847664  0.36284666  1
  O  O68  1  0.66375693  0.73999982  0.86343361  1
  O  O69  1  0.64748126  0.92646843  0.13447286  1
  O  O70  1  0.99723253  0.42931322  0.86303133  1
  O  O71  1  0.64670088  0.92658273  0.63443869  1
