# generated using pymatgen
data_CaMgB6H12O17
_symmetry_space_group_name_H-M   'P 1'
_cell_length_a   11.80535636
_cell_length_b   6.70067825
_cell_length_c   8.33751949
_cell_angle_alpha   90.00000000
_cell_angle_beta   102.11185436
_cell_angle_gamma   90.00000000
_symmetry_Int_Tables_number   1
_chemical_formula_structural   CaMgB6H12O17
_chemical_formula_sum   'Ca2 Mg2 B12 H24 O34'
_cell_volume   644.84901773
_cell_formula_units_Z   2
loop_
 _symmetry_equiv_pos_site_id
 _symmetry_equiv_pos_as_xyz
  1  'x, y, z'
loop_
 _atom_site_type_symbol
 _atom_site_label
 _atom_site_symmetry_multiplicity
 _atom_site_fract_x
 _atom_site_fract_y
 _atom_site_fract_z
 _atom_site_occupancy
  Ca  Ca0  1  0.50000000  0.52088964  0.75000000  1
  Ca  Ca1  1  0.50000000  0.47911036  0.25000000  1
  Mg  Mg2  1  0.00000000  0.00000000  0.50000000  1
  Mg  Mg3  1  0.00000000  0.00000000  0.00000000  1
  B  B4  1  0.23139159  0.49377428  0.84493256  1
  B  B5  1  0.22422201  0.71098535  0.59372587  1
  B  B6  1  0.23139159  0.50622572  0.34493256  1
  B  B7  1  0.22422201  0.28901465  0.09372587  1
  B  B8  1  0.38418778  0.23521344  0.95084792  1
  B  B9  1  0.38418778  0.76478656  0.45084792  1
  B  B10  1  0.61581222  0.23521344  0.54915208  1
  B  B11  1  0.61581222  0.76478656  0.04915208  1
  B  B12  1  0.77577799  0.71098535  0.90627413  1
  B  B13  1  0.76860841  0.49377428  0.65506744  1
  B  B14  1  0.77577799  0.28901465  0.40627413  1
  B  B15  1  0.76860841  0.50622572  0.15506744  1
  H  H16  1  0.02645282  0.34901071  0.90932349  1
  H  H17  1  0.06958158  0.78982630  0.76056231  1
  H  H18  1  0.02645282  0.65098929  0.40932349  1
  H  H19  1  0.09914343  0.37066647  0.54821271  1
  H  H20  1  0.06958158  0.21017370  0.26056231  1
  H  H21  1  0.22079634  0.02812640  0.97536988  1
  H  H22  1  0.09914343  0.62933353  0.04821271  1
  H  H23  1  0.22079634  0.97187360  0.47536988  1
  H  H24  1  0.34981524  0.98786677  0.79088148  1
  H  H25  1  0.44034037  0.83665909  0.99614553  1
  H  H26  1  0.34981524  0.01213323  0.29088148  1
  H  H27  1  0.44034037  0.16334091  0.49614553  1
  H  H28  1  0.55965963  0.83665909  0.50385447  1
  H  H29  1  0.65018476  0.98786677  0.70911852  1
  H  H30  1  0.55965963  0.16334091  0.00385447  1
  H  H31  1  0.65018476  0.01213323  0.20911852  1
  H  H32  1  0.77920366  0.02812640  0.52463012  1
  H  H33  1  0.90085657  0.37066647  0.95178729  1
  H  H34  1  0.77920366  0.97187360  0.02463012  1
  H  H35  1  0.93041842  0.78982630  0.73943769  1
  H  H36  1  0.90085657  0.62933353  0.45178729  1
  H  H37  1  0.97354718  0.34901071  0.59067651  1
  H  H38  1  0.93041842  0.21017370  0.23943769  1
  H  H39  1  0.97354718  0.65098929  0.09067651  1
  O  O40  1  0.00000000  0.87999927  0.75000000  1
  O  O41  1  0.04671560  0.27708931  0.59138740  1
  O  O42  1  0.00000000  0.12000073  0.25000000  1
  O  O43  1  0.17551840  0.45169121  0.97137902  1
  O  O44  1  0.04671560  0.72291069  0.09138740  1
  O  O45  1  0.19084841  0.65673353  0.74833405  1
  O  O46  1  0.16772795  0.90436808  0.53614998  1
  O  O47  1  0.17551840  0.54830879  0.47137902  1
  O  O48  1  0.19084841  0.34326647  0.24833405  1
  O  O49  1  0.16772795  0.09563192  0.03614998  1
  O  O50  1  0.32414745  0.38017589  0.82195458  1
  O  O51  1  0.35484830  0.02372774  0.90521902  1
  O  O52  1  0.34904486  0.72830799  0.60793763  1
  O  O53  1  0.32414745  0.61982411  0.32195358  1
  O  O54  1  0.35484830  0.97627226  0.40521902  1
  O  O55  1  0.34904486  0.27169201  0.10793763  1
  O  O56  1  0.50851104  0.28148801  0.96882144  1
  O  O57  1  0.49148896  0.28148801  0.53117856  1
  O  O58  1  0.50851104  0.71851199  0.46882144  1
  O  O59  1  0.49148896  0.71851199  0.03117856  1
  O  O60  1  0.65095514  0.72830799  0.89206237  1
  O  O61  1  0.64515170  0.02372774  0.59478098  1
  O  O62  1  0.67585255  0.38017589  0.67804542  1
  O  O63  1  0.65095514  0.27169201  0.39206237  1
  O  O64  1  0.64515170  0.97627226  0.09478098  1
  O  O65  1  0.67585255  0.61982411  0.17804542  1
  O  O66  1  0.83227205  0.90436808  0.96385002  1
  O  O67  1  0.80915159  0.65673353  0.75166595  1
  O  O68  1  0.82448160  0.45169121  0.52862098  1
  O  O69  1  0.83227205  0.09563192  0.46385002  1
  O  O70  1  0.80915159  0.34326647  0.25166595  1
  O  O71  1  0.95328440  0.27708931  0.90861260  1
  O  O72  1  0.82448160  0.54830879  0.02862098  1
  O  O73  1  0.95328440  0.72291069  0.40861260  1
