# generated using pymatgen
data_V2OF5
_symmetry_space_group_name_H-M   'P 1'
_cell_length_a   5.23900439
_cell_length_b   11.88483181
_cell_length_c   5.41388255
_cell_angle_alpha   79.55186849
_cell_angle_beta   90.28113736
_cell_angle_gamma   102.94855786
_symmetry_Int_Tables_number   1
_chemical_formula_structural   V2OF5
_chemical_formula_sum   'V6 O3 F15'
_cell_volume   322.85032520
_cell_formula_units_Z   3
loop_
 _symmetry_equiv_pos_site_id
 _symmetry_equiv_pos_as_xyz
  1  'x, y, z'
loop_
 _atom_site_type_symbol
 _atom_site_label
 _atom_site_symmetry_multiplicity
 _atom_site_fract_x
 _atom_site_fract_y
 _atom_site_fract_z
 _atom_site_occupancy
  V  V0  1  0.83396297  0.66562730  0.16876790  1
  V  V1  1  0.64866946  0.32961681  0.31196232  1
  V  V2  1  0.51604546  0.99667008  0.47691206  1
  V  V3  1  0.31649487  0.66428174  0.64353800  1
  V  V4  1  -0.00029251  0.99980603  0.00049809  1
  V  V5  1  0.16867677  0.33377227  0.83406866  1
  O  O6  1  0.45483745  0.30792089  0.06713508  1
  O  O7  1  0.68521623  0.97545520  0.23357574  1
  O  O8  1  0.12141350  0.64220038  0.39910246  1
  F  F9  1  0.98563789  0.16693293  0.91455806  1
  F  F10  1  0.98303987  0.36653085  0.11859242  1
  F  F11  1  0.87991081  0.36314099  0.60356854  1
  F  F12  1  0.68171846  0.16680254  0.42836190  1
  F  F13  1  0.65483778  0.49920248  0.26368689  1
  F  F14  1  0.77830472  0.96406910  0.72259824  1
  F  F15  1  0.65001315  0.70236072  0.45071751  1
  F  F16  1  0.31686000  0.02818715  0.77103590  1
  F  F17  1  0.21801040  0.03534467  0.28535661  1
  F  F18  1  0.54508486  0.69420308  0.93818517  1
  F  F19  1  0.35462063  0.29860610  0.55646142  1
  F  F20  1  0.35148473  0.50103165  0.74506218  1
  F  F21  1  0.31973062  0.83403267  0.59248226  1
  F  F22  1  0.02158225  0.63087701  0.89006719  1
  F  F23  1  0.01413760  0.83332835  0.08370442  1
