# generated using pymatgen
data_V2OF5
_symmetry_space_group_name_H-M   'P 1'
_cell_length_a   5.27511758
_cell_length_b   5.43831784
_cell_length_c   17.36666375
_cell_angle_alpha   91.11909648
_cell_angle_beta   98.17072652
_cell_angle_gamma   61.21689174
_symmetry_Int_Tables_number   1
_chemical_formula_structural   V2OF5
_chemical_formula_sum   'V8 O4 F20'
_cell_volume   431.53649612
_cell_formula_units_Z   4
loop_
 _symmetry_equiv_pos_site_id
 _symmetry_equiv_pos_as_xyz
  1  'x, y, z'
loop_
 _atom_site_type_symbol
 _atom_site_label
 _atom_site_symmetry_multiplicity
 _atom_site_fract_x
 _atom_site_fract_y
 _atom_site_fract_z
 _atom_site_occupancy
  V  V0  1  0.75474029  0.62266759  0.12382668  1
  V  V1  1  0.75133458  0.12361080  0.62450371  1
  V  V2  1  0.49924519  0.25271824  0.25171755  1
  V  V3  1  0.49481490  0.74308318  0.75694467  1
  V  V4  1  0.26530916  0.84299318  0.37097855  1
  V  V5  1  0.25197477  0.39069957  0.87494070  1
  V  V6  1  0.00054999  0.03414521  0.00497454  1
  V  V7  1  0.99425673  0.47595852  0.50597077  1
  O  O8  1  0.95747684  0.30740451  0.05844609  1
  O  O9  1  0.91909579  0.32953028  0.57709906  1
  O  O10  1  0.44287331  0.56832535  0.31622506  1
  O  O11  1  0.41979078  0.59612596  0.82962177  1
  F  F12  1  0.93184898  0.83591817  0.08730383  1
  F  F13  1  0.97811679  0.79884355  0.56394151  1
  F  F14  1  0.53103139  0.94085024  0.18826572  1
  F  F15  1  0.92738153  0.03786269  0.28855936  1
  F  F16  1  0.92299950  0.54221886  0.78745559  1
  F  F17  1  0.42566158  0.79788717  0.03701985  1
  F  F18  1  0.56872912  0.42132899  0.16251465  1
  F  F19  1  0.58033868  0.90733043  0.66797108  1
  F  F20  1  0.57634864  0.71322004  0.46154730  1
  F  F21  1  0.52321429  0.44656486  0.68476408  1
  F  F22  1  0.43095826  0.07162216  0.33789455  1
  F  F23  1  0.42304215  0.27906144  0.53704865  1
  F  F24  1  0.57893082  0.20972204  0.96148548  1
  F  F25  1  0.07173381  0.66417441  0.41869049  1
  F  F26  1  0.07022535  0.45509993  0.21154096  1
  F  F27  1  0.07793541  0.97438024  0.71146734  1
  F  F28  1  0.48016308  0.06618799  0.81276606  1
  F  F29  1  0.03410780  0.70257284  0.94029453  1
  F  F30  1  0.03714973  0.18126206  0.43217749  1
  F  F31  1  0.07862276  0.16662748  0.91204036  1
