# generated using pymatgen
data_Li10Mg12Fe(PO4)12
_symmetry_space_group_name_H-M   'P 1'
_cell_length_a   10.25419646
_cell_length_b   5.96716900
_cell_length_c   14.26189498
_cell_angle_alpha   89.71685805
_cell_angle_beta   90.02983669
_cell_angle_gamma   90.10631451
_symmetry_Int_Tables_number   1
_chemical_formula_structural   Li10Mg12Fe(PO4)12
_chemical_formula_sum   'Li10 Mg12 Fe1 P12 O48'
_cell_volume   872.65201914
_cell_formula_units_Z   1
loop_
 _symmetry_equiv_pos_site_id
 _symmetry_equiv_pos_as_xyz
  1  'x, y, z'
loop_
 _atom_site_type_symbol
 _atom_site_label
 _atom_site_symmetry_multiplicity
 _atom_site_fract_x
 _atom_site_fract_y
 _atom_site_fract_z
 _atom_site_occupancy
  Li  Li0  1  0.99998222  0.50011251  0.66671352  1
  Li  Li1  1  0.00015650  0.99993133  0.99994256  1
  Li  Li2  1  0.00001778  0.49988749  0.99995348  1
  Li  Li3  1  0.00000000  0.00000000  0.33333300  1
  Li  Li4  1  0.00000000  0.50000000  0.33333300  1
  Li  Li5  1  0.99984350  0.00006867  0.66672444  1
  Li  Li6  1  0.50020801  0.00023659  0.49980406  1
  Li  Li7  1  0.49979199  0.99976341  0.16686294  1
  Li  Li8  1  0.50001759  0.49945927  0.49994775  1
  Li  Li9  1  0.49998241  0.50054073  0.16671925  1
  Mg  Mg10  1  0.22208043  0.75006182  0.16070557  1
  Mg  Mg11  1  0.22182402  0.74945947  0.49385997  1
  Mg  Mg12  1  0.22195688  0.75586499  0.82761107  1
  Mg  Mg13  1  0.27788885  0.24974494  0.32739767  1
  Mg  Mg14  1  0.27709642  0.24925234  0.66058082  1
  Mg  Mg15  1  0.27761046  0.24744240  0.99394897  1
  Mg  Mg16  1  0.72290358  0.75074766  0.00608618  1
  Mg  Mg17  1  0.72211115  0.75025506  0.33926933  1
  Mg  Mg18  1  0.72238954  0.75255760  0.67271803  1
  Mg  Mg19  1  0.77791957  0.24993818  0.50596143  1
  Mg  Mg20  1  0.77817598  0.25054053  0.17280603  1
  Mg  Mg21  1  0.77804312  0.24413501  0.83905593  1
  Fe  Fe22  1  0.50000000  0.50000000  0.83333300  1
  P  P23  1  0.09541334  0.25014300  0.13925980  1
  P  P24  1  0.09540354  0.24995774  0.47270064  1
  P  P25  1  0.09542748  0.25062337  0.80600920  1
  P  P26  1  0.40454578  0.75004828  0.30601823  1
  P  P27  1  0.40427736  0.74778837  0.63862313  1
  P  P28  1  0.40379338  0.75758751  0.97334469  1
  P  P29  1  0.59545422  0.24995172  0.36064777  1
  P  P30  1  0.59572264  0.25221163  0.02804387  1
  P  P31  1  0.59620662  0.24241249  0.69332231  1
  P  P32  1  0.90459646  0.75004226  0.19396636  1
  P  P33  1  0.90458666  0.74985700  0.52740720  1
  P  P34  1  0.90457252  0.74937663  0.86065680  1
  O  O35  1  0.04639047  0.74979164  0.56563690  1
  O  O36  1  0.04638977  0.75007635  0.23236577  1
  O  O37  1  0.04633195  0.74949547  0.89901104  1
  O  O38  1  0.10206012  0.24997764  0.24723880  1
  O  O39  1  0.10206425  0.24958403  0.58037944  1
  O  O40  1  0.10200977  0.24992029  0.91377590  1
  O  O41  1  0.16619239  0.04461066  0.09387825  1
  O  O42  1  0.16679555  0.45608566  0.09323892  1
  O  O43  1  0.16656630  0.04449768  0.42696104  1
  O  O44  1  0.16591503  0.04511377  0.75983616  1
  O  O45  1  0.16658470  0.45603682  0.42657060  1
  O  O46  1  0.16709856  0.45667687  0.76030641  1
  O  O47  1  0.33285791  0.54393407  0.59180488  1
  O  O48  1  0.33362702  0.95563984  0.59428954  1
  O  O49  1  0.33339385  0.54441569  0.26024686  1
  O  O50  1  0.33452628  0.54510589  0.92694062  1
  O  O51  1  0.33344099  0.95604891  0.26012578  1
  O  O52  1  0.32796076  0.95468441  0.92934611  1
  O  O53  1  0.39792391  0.74994052  0.41381668  1
  O  O54  1  0.39768245  0.75108332  0.08142329  1
  O  O55  1  0.39616565  0.73963121  0.74630417  1
  O  O56  1  0.45364248  0.24980140  0.39896063  1
  O  O57  1  0.45365000  0.25036133  0.06557162  1
  O  O58  1  0.45337404  0.25637628  0.72916721  1
  O  O59  1  0.54635752  0.75019860  0.26770537  1
  O  O60  1  0.54662596  0.74362372  0.93749979  1
  O  O61  1  0.54635000  0.74963867  0.60109538  1
  O  O62  1  0.60207609  0.25005948  0.25285032  1
  O  O63  1  0.60383435  0.26036879  0.92036183  1
  O  O64  1  0.60231755  0.24891668  0.58524371  1
  O  O65  1  0.66637298  0.04436016  0.07237746  1
  O  O66  1  0.66655901  0.04395109  0.40654122  1
  O  O67  1  0.66714209  0.45606593  0.07486212  1
  O  O68  1  0.66660615  0.45558431  0.40642014  1
  O  O69  1  0.67203924  0.04531559  0.73731989  1
  O  O70  1  0.66547372  0.45489411  0.73972638  1
  O  O71  1  0.83290144  0.54332313  0.90636059  1
  O  O72  1  0.83408497  0.95488623  0.90683084  1
  O  O73  1  0.83320445  0.54391434  0.57342808  1
  O  O74  1  0.83341530  0.54396318  0.24009640  1
  O  O75  1  0.83343370  0.95550232  0.23970496  1
  O  O76  1  0.83380761  0.95538934  0.57278775  1
  O  O77  1  0.89799023  0.75007971  0.75289010  1
  O  O78  1  0.89793988  0.75002236  0.41942720  1
  O  O79  1  0.89793575  0.75041597  0.08628756  1
  O  O80  1  0.95366805  0.25050453  0.76765596  1
  O  O81  1  0.95360953  0.25020836  0.10103010  1
  O  O82  1  0.95361023  0.24992365  0.43430123  1
