# generated using pymatgen
data_K2LiNb6(PO8)3
_symmetry_space_group_name_H-M   'P 1'
_cell_length_a   8.53040034
_cell_length_b   13.45962208
_cell_length_c   10.49637229
_cell_angle_alpha   89.95714073
_cell_angle_beta   113.37710688
_cell_angle_gamma   89.98248704
_symmetry_Int_Tables_number   1
_chemical_formula_structural   K2LiNb6(PO8)3
_chemical_formula_sum   'K4 Li2 Nb12 P6 O48'
_cell_volume   1106.22360946
_cell_formula_units_Z   2
loop_
 _symmetry_equiv_pos_site_id
 _symmetry_equiv_pos_as_xyz
  1  'x, y, z'
loop_
 _atom_site_type_symbol
 _atom_site_label
 _atom_site_symmetry_multiplicity
 _atom_site_fract_x
 _atom_site_fract_y
 _atom_site_fract_z
 _atom_site_occupancy
  K  K0  1  0.59419007  0.80318567  0.10799771  1
  K  K1  1  0.69583558  0.34129035  0.74721670  1
  K  K2  1  0.30477338  0.34139461  0.25254504  1
  K  K3  1  0.08920379  0.85553296  0.55040145  1
  Li  Li4  1  0.57889718  0.00040235  0.57786947  1
  Li  Li5  1  0.42035885  0.50010355  0.92136855  1
  Nb  Nb6  1  0.96234820  0.59601536  0.24157366  1
  Nb  Nb7  1  0.83852154  0.34073924  0.30335295  1
  Nb  Nb8  1  0.97155899  0.09718615  0.75030826  1
  Nb  Nb9  1  0.64812915  0.56197723  0.40273702  1
  Nb  Nb10  1  0.84584149  0.84049127  0.81105594  1
  Nb  Nb11  1  0.35406104  0.06102751  0.10016046  1
  Nb  Nb12  1  0.65109813  0.06179780  0.90862246  1
  Nb  Nb13  1  0.15886751  0.84119819  0.19547895  1
  Nb  Nb14  1  0.34769148  0.56311455  0.59068387  1
  Nb  Nb15  1  0.03590551  0.09749587  0.25738222  1
  Nb  Nb16  1  0.15353502  0.34063148  0.68734107  1
  Nb  Nb17  1  0.03071410  0.59667144  0.75235800  1
  P  P18  1  0.72365018  0.11197031  0.38771592  1
  P  P19  1  0.50010169  0.27621875  0.00023040  1
  P  P20  1  0.72405306  0.61213371  0.88832096  1
  P  P21  1  0.50024187  0.77606652  0.49966335  1
  P  P22  1  0.27625870  0.61167167  0.11228612  1
  P  P23  1  0.27657098  0.11240136  0.61144410  1
  O  O24  1  0.97560263  0.23710604  0.26487218  1
  O  O25  1  0.93589374  0.44661637  0.24238440  1
  O  O26  1  0.84701532  0.07620489  0.07740073  1
  O  O27  1  0.76229109  0.59790924  0.04470429  1
  O  O28  1  0.86861061  0.06440421  0.35527424  1
  O  O29  1  0.79295633  0.62461888  0.30876095  1
  O  O30  1  0.97243556  0.73701664  0.76121160  1
  O  O31  1  0.64038753  0.34222138  0.10652099  1
  O  O32  1  0.92882244  0.94641723  0.73692921  1
  O  O33  1  0.84665330  0.57651340  0.57614473  1
  O  O34  1  0.71056278  0.22483369  0.35810847  1
  O  O35  1  0.68547112  0.42985342  0.36329468  1
  O  O36  1  0.50036328  0.02651768  0.00138518  1
  O  O37  1  0.75432922  0.09194282  0.54200035  1
  O  O38  1  0.86534535  0.56323505  0.85255477  1
  O  O39  1  0.55166262  0.06193495  0.29692601  1
  O  O40  1  0.79029220  0.12264637  0.80641368  1
  O  O41  1  0.41608556  0.21256343  0.07793005  1
  O  O42  1  0.58294847  0.71171451  0.42164424  1
  O  O43  1  0.44771865  0.56024996  0.20204676  1
  O  O44  1  0.63424275  0.84765839  0.60218301  1
  O  O45  1  0.70872904  0.72467024  0.85711598  1
  O  O46  1  0.68664458  0.93128381  0.86179933  1
  O  O47  1  0.50115801  0.52572810  0.50032746  1
  O  O48  1  0.31460543  0.92884151  0.13614618  1
  O  O49  1  0.29151949  0.72462183  0.14087886  1
  O  O50  1  0.35746041  0.84193155  0.39500470  1
  O  O51  1  0.55135450  0.55833641  0.80628404  1
  O  O52  1  0.41855927  0.71125298  0.57925482  1
  O  O53  1  0.58080285  0.21225799  0.91940491  1
  O  O54  1  0.20650412  0.12442170  0.19000997  1
  O  O55  1  0.45041846  0.06014434  0.69405429  1
  O  O56  1  0.13252299  0.56393289  0.14559205  1
  O  O57  1  0.23588049  0.09609047  0.45556141  1
  O  O58  1  0.31736509  0.43148648  0.64114892  1
  O  O59  1  0.99994674  0.84655892  0.00057936  1
  O  O60  1  0.29177309  0.22473002  0.64474475  1
  O  O61  1  0.15293765  0.57653461  0.42262360  1
  O  O62  1  0.06619306  0.94593239  0.26091662  1
  O  O63  1  0.36713077  0.34870626  0.89763572  1
  O  O64  1  0.02655399  0.73669125  0.23685429  1
  O  O65  1  0.20723599  0.62179271  0.69164504  1
  O  O66  1  0.13406089  0.06314338  0.64646284  1
  O  O67  1  0.24565653  0.59203586  0.95775554  1
  O  O68  1  0.99932329  0.34708013  0.49950968  1
  O  O69  1  0.15359782  0.07673377  0.92414398  1
  O  O70  1  0.07006280  0.44703321  0.76014020  1
  O  O71  1  0.02384460  0.23718272  0.73538930  1
