# generated using pymatgen
data_Li9Mn2Co5O16
_symmetry_space_group_name_H-M   'P 1'
_cell_length_a   2.98226055
_cell_length_b   7.82500493
_cell_length_c   12.58352243
_cell_angle_alpha   90.83430025
_cell_angle_beta   90.28730628
_cell_angle_gamma   81.32106492
_symmetry_Int_Tables_number   1
_chemical_formula_structural   Li9Mn2Co5O16
_chemical_formula_sum   'Li9 Mn2 Co5 O16'
_cell_volume   290.25720831
_cell_formula_units_Z   1
loop_
 _symmetry_equiv_pos_site_id
 _symmetry_equiv_pos_as_xyz
  1  'x, y, z'
loop_
 _atom_site_type_symbol
 _atom_site_label
 _atom_site_symmetry_multiplicity
 _atom_site_fract_x
 _atom_site_fract_y
 _atom_site_fract_z
 _atom_site_occupancy
  Li  Li0  1  0.80217441  0.37810805  0.05804687  1
  Li  Li1  1  0.06056848  0.87467456  0.31307374  1
  Li  Li2  1  0.31299594  0.37548771  0.56550865  1
  Li  Li3  1  0.20449781  0.61871395  0.93250445  1
  Li  Li4  1  0.44507458  0.12270251  0.18795180  1
  Li  Li5  1  0.68539850  0.62477266  0.43878837  1
  Li  Li6  1  0.55174281  0.88656268  0.81146433  1
  Li  Li7  1  0.93409854  0.12850677  0.69491497  1
  Li  Li8  1  0.39059407  0.24149406  0.87021769  1
  Mn  Mn9  1  0.99149064  0.00704993  0.99626295  1
  Mn  Mn10  1  0.87619975  0.25002991  0.37569579  1
  Co  Co11  1  0.24932972  0.50232744  0.24780185  1
  Co  Co12  1  0.50729462  0.99744329  0.50279393  1
  Co  Co13  1  0.75548315  0.48986332  0.75503209  1
  Co  Co14  1  0.61567111  0.75350914  0.12458883  1
  Co  Co15  1  0.12513891  0.74714018  0.62788140  1
  O  O16  1  0.42739868  0.16453489  0.02727718  1
  O  O17  1  0.66461940  0.68037884  0.26938576  1
  O  O18  1  0.92763468  0.17972134  0.52404877  1
  O  O19  1  0.77465039  0.45054088  0.89184084  1
  O  O20  1  0.99858709  0.92751964  0.14749055  1
  O  O21  1  0.23925390  0.43685167  0.39950576  1
  O  O22  1  0.12058683  0.67922196  0.77346351  1
  O  O23  1  0.53727409  0.93281803  0.64958484  1
  O  O24  1  0.25087809  0.57268003  0.09689528  1
  O  O25  1  0.51061110  0.06225005  0.35154392  1
  O  O26  1  0.70618832  0.56563141  0.60823588  1
  O  O27  1  0.56070732  0.83451083  0.97943291  1
  O  O28  1  0.84003600  0.31972751  0.22487585  1
  O  O29  1  0.08881654  0.81256665  0.47826002  1
  O  O30  1  0.97781591  0.05342711  0.85422823  1
  O  O31  1  0.36718862  0.32923299  0.72140096  1
