# generated using pymatgen
data_NbBO4
_symmetry_space_group_name_H-M   'P 1'
_cell_length_a   5.26049723
_cell_length_b   5.26049723
_cell_length_c   5.26049723
_cell_angle_alpha   106.05483175
_cell_angle_beta   106.05483169
_cell_angle_gamma   116.54404830
_symmetry_Int_Tables_number   1
_chemical_formula_structural   NbBO4
_chemical_formula_sum   'Nb2 B2 O8'
_cell_volume   110.76614973
_cell_formula_units_Z   2
loop_
 _symmetry_equiv_pos_site_id
 _symmetry_equiv_pos_as_xyz
  1  'x, y, z'
loop_
 _atom_site_type_symbol
 _atom_site_label
 _atom_site_symmetry_multiplicity
 _atom_site_fract_x
 _atom_site_fract_y
 _atom_site_fract_z
 _atom_site_occupancy
  B  B0  1  0.62500000  0.37500000  0.25000000  1
  B  B1  1  0.37500000  0.62500000  0.75000000  1
  O  O2  1  0.80005258  0.37322725  0.07317467  1
  O  O3  1  0.72687791  0.80005258  0.92682533  1
  O  O4  1  0.27312209  0.19994742  0.07317467  1
  O  O5  1  0.19994742  0.62677275  0.92682533  1
  O  O6  1  0.19994742  0.27312209  0.57317467  1
  O  O7  1  0.62677275  0.19994742  0.42682533  1
  O  O8  1  0.80005258  0.72687791  0.42682533  1
  O  O9  1  0.37322725  0.80005258  0.57317467  1
  Nb  Nb10  1  0.12500000  0.87500000  0.25000000  1
  Nb  Nb11  1  0.87500000  0.12500000  0.75000000  1
