# generated using pymatgen
data_Li2MnV(P2O7)2
_symmetry_space_group_name_H-M   'P 1'
_cell_length_a   4.86000713
_cell_length_b   8.33303638
_cell_length_c   7.08394961
_cell_angle_alpha   91.66759197
_cell_angle_beta   108.63325184
_cell_angle_gamma   89.45673359
_symmetry_Int_Tables_number   1
_chemical_formula_structural   Li2MnV(P2O7)2
_chemical_formula_sum   'Li2 Mn1 V1 P4 O14'
_cell_volume   271.73713620
_cell_formula_units_Z   1
loop_
 _symmetry_equiv_pos_site_id
 _symmetry_equiv_pos_as_xyz
  1  'x, y, z'
loop_
 _atom_site_type_symbol
 _atom_site_label
 _atom_site_symmetry_multiplicity
 _atom_site_fract_x
 _atom_site_fract_y
 _atom_site_fract_z
 _atom_site_occupancy
  Li  Li0  1  0.17293228  0.85912914  0.67052885  1
  Li  Li1  1  0.82595950  0.35638478  0.33107796  1
  Mn  Mn2  1  0.79054412  0.99881489  0.27092604  1
  V  V3  1  0.21035145  0.49906083  0.72454750  1
  P  P4  1  0.40362485  0.17514647  0.52310199  1
  P  P5  1  0.21959557  0.78533714  0.09124529  1
  P  P6  1  0.78438260  0.28957072  0.91305610  1
  P  P7  1  0.60034734  0.68140056  0.48061067  1
  O  O8  1  0.04201679  0.32724250  0.84327166  1
  O  O9  1  0.14298933  0.69763510  0.88939644  1
  O  O10  1  0.18966285  0.03340097  0.47841001  1
  O  O11  1  0.24808122  0.33730377  0.50520665  1
  O  O12  1  0.38821342  0.67543086  0.60110669  1
  O  O13  1  0.59381645  0.43866211  0.91002383  1
  O  O14  1  0.59392233  0.15353375  0.75319602  1
  O  O15  1  0.40652982  0.65717382  0.24823439  1
  O  O16  1  0.40507875  0.93453346  0.09561498  1
  O  O17  1  0.60904035  0.17163310  0.39650943  1
  O  O18  1  0.75553262  0.84186548  0.50567211  1
  O  O19  1  0.80846162  0.53708107  0.51301561  1
  O  O20  1  0.86558722  0.20876105  0.11270910  1
  O  O21  1  0.94332951  0.82647941  0.14253970  1
