# generated using pymatgen
data_Ca2SiB5H5O14
_symmetry_space_group_name_H-M   'P 1'
_cell_length_a   12.91378498
_cell_length_b   9.45158156
_cell_length_c   8.68346102
_cell_angle_alpha   90.00000000
_cell_angle_beta   105.15804925
_cell_angle_gamma   90.00000000
_symmetry_Int_Tables_number   1
_chemical_formula_structural   Ca2SiB5H5O14
_chemical_formula_sum   'Ca8 Si4 B20 H20 O56'
_cell_volume   1022.99120863
_cell_formula_units_Z   4
loop_
 _symmetry_equiv_pos_site_id
 _symmetry_equiv_pos_as_xyz
  1  'x, y, z'
loop_
 _atom_site_type_symbol
 _atom_site_label
 _atom_site_symmetry_multiplicity
 _atom_site_fract_x
 _atom_site_fract_y
 _atom_site_fract_z
 _atom_site_occupancy
  Ca  Ca0  1  0.11808347  0.31674089  0.64897626  1
  Ca  Ca1  1  0.11808347  0.18325911  0.14897626  1
  Ca  Ca2  1  0.41310337  0.82256405  0.52454104  1
  Ca  Ca3  1  0.41310337  0.67743595  0.02454104  1
  Ca  Ca4  1  0.58689663  0.32256405  0.97545896  1
  Ca  Ca5  1  0.58689663  0.17743595  0.47545896  1
  Ca  Ca6  1  0.88191653  0.81674089  0.85102374  1
  Ca  Ca7  1  0.88191653  0.68325911  0.35102374  1
  Si  Si8  1  0.14095984  0.94428422  0.51068874  1
  Si  Si9  1  0.14095984  0.55571578  0.01068874  1
  Si  Si10  1  0.85904016  0.44428422  0.98931126  1
  Si  Si11  1  0.85904016  0.05571578  0.48931126  1
  B  B12  1  0.03794384  0.02622486  0.75629060  1
  B  B13  1  0.15810169  0.85102940  0.97092307  1
  B  B14  1  0.03794384  0.47377514  0.25629060  1
  B  B15  1  0.15810169  0.64897060  0.47092307  1
  B  B16  1  0.34190333  0.23667587  0.78598477  1
  B  B17  1  0.32205578  0.11727623  0.52628493  1
  B  B18  1  0.34190333  0.26332413  0.28598477  1
  B  B19  1  0.32205578  0.38272377  0.02628493  1
  B  B20  1  0.49245319  0.08104174  0.74964942  1
  B  B21  1  0.50754681  0.58104174  0.75035058  1
  B  B22  1  0.49245319  0.41895826  0.24964942  1
  B  B23  1  0.50754681  0.91895826  0.25035058  1
  B  B24  1  0.67794422  0.61727623  0.97371507  1
  B  B25  1  0.65809667  0.73667587  0.71401523  1
  B  B26  1  0.67794422  0.88272377  0.47371507  1
  B  B27  1  0.65809667  0.76332413  0.21401523  1
  B  B28  1  0.84189831  0.35102940  0.52907693  1
  B  B29  1  0.96205616  0.52622486  0.74370940  1
  B  B30  1  0.84189831  0.14897060  0.02907693  1
  B  B31  1  0.96205616  0.97377514  0.24370940  1
  H  H32  1  0.01281953  0.71014038  0.65567867  1
  H  H33  1  0.01281953  0.78985962  0.15567867  1
  H  H34  1  0.18083299  0.57475226  0.69755173  1
  H  H35  1  0.22370727  0.81246420  0.78542670  1
  H  H36  1  0.18083299  0.92524774  0.19755173  1
  H  H37  1  0.22370727  0.68753580  0.28542670  1
  H  H38  1  0.33674034  0.58663244  0.67526683  1
  H  H39  1  0.33674034  0.91336756  0.17526683  1
  H  H40  1  0.46256464  0.40607987  0.60315435  1
  H  H41  1  0.53743536  0.90607987  0.89684565  1
  H  H42  1  0.46256464  0.09392013  0.10315435  1
  H  H43  1  0.53743536  0.59392013  0.39684565  1
  H  H44  1  0.66325966  0.08663244  0.82473317  1
  H  H45  1  0.66325966  0.41336756  0.32473317  1
  H  H46  1  0.77629273  0.31246420  0.71457330  1
  H  H47  1  0.81916701  0.07475226  0.80244827  1
  H  H48  1  0.77629273  0.18753580  0.21457330  1
  H  H49  1  0.81916701  0.42524774  0.30244827  1
  H  H50  1  0.98718047  0.21014038  0.84432133  1
  H  H51  1  0.98718047  0.28985962  0.34432133  1
  O  O52  1  0.05653895  0.16239508  0.85257594  1
  O  O53  1  0.06232332  0.89964153  0.85308830  1
  O  O54  1  0.07982613  0.51467274  0.82437329  1
  O  O55  1  0.09866103  0.04638220  0.63443652  1
  O  O56  1  0.05653895  0.33760492  0.35257594  1
  O  O57  1  0.06232332  0.60035847  0.35308830  1
  O  O58  1  0.07982613  0.98532726  0.32437329  1
  O  O59  1  0.12581711  0.77779053  0.55275616  1
  O  O60  1  0.09866103  0.45361780  0.13443652  1
  O  O61  1  0.24832637  0.81519539  0.90206205  1
  O  O62  1  0.20004294  0.54307183  0.60073145  1
  O  O63  1  0.12581711  0.72220947  0.05275616  1
  O  O64  1  0.29054338  0.32890101  0.86292042  1
  O  O65  1  0.26838798  0.97725169  0.52913405  1
  O  O66  1  0.28632691  0.21856367  0.62892991  1
  O  O67  1  0.24832637  0.68480461  0.40206205  1
  O  O68  1  0.20004294  0.95692817  0.10073145  1
  O  O69  1  0.29054338  0.17109899  0.36292042  1
  O  O70  1  0.26838798  0.52274831  0.02913405  1
  O  O71  1  0.28632691  0.28143633  0.12892991  1
  O  O72  1  0.39962815  0.64662666  0.72797500  1
  O  O73  1  0.43668566  0.16632570  0.85367808  1
  O  O74  1  0.43773413  0.09348519  0.57929209  1
  O  O75  1  0.39962815  0.85337334  0.22797500  1
  O  O76  1  0.49626989  0.93077244  0.78913995  1
  O  O77  1  0.43668566  0.33367430  0.35367808  1
  O  O78  1  0.50373011  0.43077244  0.71086005  1
  O  O79  1  0.56226587  0.59348519  0.92070791  1
  O  O80  1  0.43773413  0.40651481  0.07929209  1
  O  O81  1  0.49626989  0.56922756  0.28913995  1
  O  O82  1  0.56331434  0.66632570  0.64632192  1
  O  O83  1  0.50373011  0.06922756  0.21086005  1
  O  O84  1  0.60037185  0.14662666  0.77202500  1
  O  O85  1  0.56226587  0.90651481  0.42070791  1
  O  O86  1  0.56331434  0.83367430  0.14632192  1
  O  O87  1  0.60037185  0.35337334  0.27202500  1
  O  O88  1  0.71367309  0.71856367  0.87107009  1
  O  O89  1  0.73161202  0.47725169  0.97086595  1
  O  O90  1  0.70945662  0.82890101  0.63707958  1
  O  O91  1  0.79995706  0.04307183  0.89926855  1
  O  O92  1  0.75167363  0.31519539  0.59793795  1
  O  O93  1  0.71367309  0.78143633  0.37107009  1
  O  O94  1  0.73161202  0.02274831  0.47086595  1
  O  O95  1  0.70945662  0.67109899  0.13707958  1
  O  O96  1  0.87418289  0.27779053  0.94724384  1
  O  O97  1  0.79995706  0.45692817  0.39926855  1
  O  O98  1  0.75167363  0.18480461  0.09793795  1
  O  O99  1  0.90133897  0.54638220  0.86556348  1
  O  O100  1  0.87418289  0.22220947  0.44724384  1
  O  O101  1  0.92017387  0.01467274  0.67562671  1
  O  O102  1  0.93767668  0.39964153  0.64691170  1
  O  O103  1  0.94346105  0.66239508  0.64742406  1
  O  O104  1  0.90133897  0.95361780  0.36556348  1
  O  O105  1  0.92017387  0.48532726  0.17562671  1
  O  O106  1  0.93767668  0.10035847  0.14691170  1
  O  O107  1  0.94346105  0.83760492  0.14742406  1
