# generated using pymatgen
data_Li3V2(PO4)3
_symmetry_space_group_name_H-M   'P 1'
_cell_length_a   9.03830173
_cell_length_b   8.48471603
_cell_length_c   8.48471611
_cell_angle_alpha   120.00000123
_cell_angle_beta   89.99999821
_cell_angle_gamma   62.00623108
_symmetry_Int_Tables_number   1
_chemical_formula_structural   Li3V2(PO4)3
_chemical_formula_sum   'Li6 V4 P6 O24'
_cell_volume   473.55556520
_cell_formula_units_Z   2
loop_
 _symmetry_equiv_pos_site_id
 _symmetry_equiv_pos_as_xyz
  1  'x, y, z'
loop_
 _atom_site_type_symbol
 _atom_site_label
 _atom_site_symmetry_multiplicity
 _atom_site_fract_x
 _atom_site_fract_y
 _atom_site_fract_z
 _atom_site_occupancy
  Li  Li0  1  0.14729121  0.18657065  0.91984261  1
  Li  Li1  1  0.14729121  0.58598075  0.66613814  1
  Li  Li2  1  0.14729121  0.93286519  0.26672804  1
  Li  Li3  1  0.85270879  0.06713481  0.73327196  1
  Li  Li4  1  0.85270879  0.41401925  0.33386186  1
  Li  Li5  1  0.85270879  0.81342935  0.08015739  1
  V  V6  1  0.05112454  0.29925031  0.64962515  1
  V  V7  1  0.56549309  0.28967161  0.14483530  1
  V  V8  1  0.43450691  0.71032839  0.85516470  1
  V  V9  1  0.94887546  0.70074969  0.35037485  1
  P  P10  1  0.24960745  0.20867727  0.24753797  1
  P  P11  1  0.24960745  0.50285558  0.96113930  1
  P  P12  1  0.24960745  0.78925325  0.54171528  1
  P  P13  1  0.75039255  0.21074675  0.45828472  1
  P  P14  1  0.75039255  0.49714442  0.03886070  1
  P  P15  1  0.75039255  0.79132273  0.75246203  1
  O  O16  1  0.09215262  0.36434389  0.20996044  1
  O  O17  1  0.19725521  0.29664251  0.46285410  1
  O  O18  1  0.19725521  0.33989070  0.83378841  1
  O  O19  1  0.09215262  0.69788694  0.15438345  1
  O  O20  1  0.09215262  0.75346392  0.54350348  1
  O  O21  1  0.41640646  0.19255040  0.18833564  1
  O  O22  1  0.26801045  0.60708946  0.86163781  1
  O  O23  1  0.41640646  0.39525790  0.00421375  1
  O  O24  1  0.19725521  0.96895638  0.50610229  1
  O  O25  1  0.26801045  0.87035175  0.74545165  1
  O  O26  1  0.41640646  0.57937979  0.39104314  1
  O  O27  1  0.26801045  0.98653891  0.12490010  1
  O  O28  1  0.73198955  0.01346109  0.87509990  1
  O  O29  1  0.58359354  0.42062021  0.60895686  1
  O  O30  1  0.73198955  0.12964825  0.25454835  1
  O  O31  1  0.80274479  0.03104362  0.49389771  1
  O  O32  1  0.58359354  0.60474210  0.99578625  1
  O  O33  1  0.73198955  0.39291054  0.13836219  1
  O  O34  1  0.58359354  0.80744960  0.81166436  1
  O  O35  1  0.90784738  0.24653608  0.45649652  1
  O  O36  1  0.90784738  0.30211306  0.84561655  1
  O  O37  1  0.80274479  0.66010930  0.16621159  1
  O  O38  1  0.80274479  0.70335749  0.53714590  1
  O  O39  1  0.90784738  0.63565611  0.79003956  1
