# generated using pymatgen
data_Li2MnFe(BO3)2
_symmetry_space_group_name_H-M   'P 1'
_cell_length_a   8.27646794
_cell_length_b   8.26418725
_cell_length_c   6.32313968
_cell_angle_alpha   90.00000000
_cell_angle_beta   90.00000000
_cell_angle_gamma   120.11758191
_symmetry_Int_Tables_number   1
_chemical_formula_structural   Li2MnFe(BO3)2
_chemical_formula_sum   'Li6 Mn3 Fe3 B6 O18'
_cell_volume   374.10439196
_cell_formula_units_Z   3
loop_
 _symmetry_equiv_pos_site_id
 _symmetry_equiv_pos_as_xyz
  1  'x, y, z'
loop_
 _atom_site_type_symbol
 _atom_site_label
 _atom_site_symmetry_multiplicity
 _atom_site_fract_x
 _atom_site_fract_y
 _atom_site_fract_z
 _atom_site_occupancy
  Li  Li0  1  0.28316813  0.98152399  0.25055744  1
  Li  Li1  1  0.28316813  0.98152399  0.74944256  1
  Li  Li2  1  0.01683775  0.30138643  0.25043061  1
  Li  Li3  1  0.01683775  0.30138643  0.74956939  1
  Li  Li4  1  0.69873651  0.71468076  0.75035198  1
  Li  Li5  1  0.69873651  0.71468076  0.24964802  1
  Mn  Mn6  1  0.37184609  0.36000853  0.00000000  1
  Mn  Mn7  1  0.37323282  0.36120864  0.50000000  1
  Mn  Mn8  1  0.64063532  0.01237405  0.00000000  1
  Fe  Fe9  1  0.64079283  0.00702578  0.50000000  1
  Fe  Fe10  1  0.99202514  0.63299246  0.00000000  1
  Fe  Fe11  1  0.99186730  0.63225222  0.50000000  1
  B  B12  1  0.99820673  0.99738586  0.00000000  1
  B  B13  1  0.99824205  -0.00006005  0.50000000  1
  B  B14  1  0.33210342  0.66804265  0.25184243  1
  B  B15  1  0.33210342  0.66804265  0.74815757  1
  B  B16  1  0.66938065  0.33388340  0.25149131  1
  B  B17  1  0.66938065  0.33388340  0.74850869  1
  O  O18  1  0.10729061  0.91533123  0.50000000  1
  O  O19  1  0.11121778  0.91638974  0.00000000  1
  O  O20  1  0.13811833  0.58185397  0.25015971  1
  O  O21  1  0.13811833  0.58185397  0.74984029  1
  O  O22  1  0.07908445  0.19129057  0.00000000  1
  O  O23  1  0.08099640  0.19333018  0.50000000  1
  O  O24  1  0.44036394  0.86164332  0.25403869  1
  O  O25  1  0.44036394  0.86164332  0.74596131  1
  O  O26  1  0.41792188  0.56044720  0.24989401  1
  O  O27  1  0.41792188  0.56044720  0.75010599  1
  O  O28  1  0.47505962  0.25230417  0.25045690  1
  O  O29  1  0.47505962  0.25230417  0.74954310  1
  O  O30  1  0.80512916  0.88369673  0.00000000  1
  O  O31  1  0.80358510  0.88862074  0.50000000  1
  O  O32  1  0.78236833  0.52781534  0.25020884  1
  O  O33  1  0.78236833  0.52781534  0.74979116  1
  O  O34  1  0.74886405  0.22049495  0.74694282  1
  O  O35  1  0.74886405  0.22049495  0.25305718  1
