# generated using pymatgen
data_Li2FeP2O7
_symmetry_space_group_name_H-M   'P 1'
_cell_length_a   9.94424078
_cell_length_b   9.87767123
_cell_length_c   11.23003092
_cell_angle_alpha   90.20754619
_cell_angle_beta   102.07152841
_cell_angle_gamma   89.73006943
_symmetry_Int_Tables_number   1
_chemical_formula_structural   Li2FeP2O7
_chemical_formula_sum   'Li16 Fe8 P16 O56'
_cell_volume   1078.67235560
_cell_formula_units_Z   8
loop_
 _symmetry_equiv_pos_site_id
 _symmetry_equiv_pos_as_xyz
  1  'x, y, z'
loop_
 _atom_site_type_symbol
 _atom_site_label
 _atom_site_symmetry_multiplicity
 _atom_site_fract_x
 _atom_site_fract_y
 _atom_site_fract_z
 _atom_site_occupancy
  Li  Li0  1  0.11097249  0.72070369  0.44643709  1
  Li  Li1  1  0.16793911  0.42389386  0.54384594  1
  Li  Li2  1  0.08589272  0.10693014  0.02801408  1
  Li  Li3  1  0.34410819  0.90977762  0.95729906  1
  Li  Li4  1  0.15399778  0.41001031  0.04342411  1
  Li  Li5  1  0.41529641  0.60899396  0.97179358  1
  Li  Li6  1  0.33187818  0.92234198  0.45691960  1
  Li  Li7  1  0.38924394  0.22094944  0.55243288  1
  Li  Li8  1  0.61075606  0.77905056  0.44756712  1
  Li  Li9  1  0.66812182  0.07765802  0.54308040  1
  Li  Li10  1  0.58470359  0.39100604  0.02820642  1
  Li  Li11  1  0.84600222  0.58998969  0.95657589  1
  Li  Li12  1  0.65589181  0.09022238  0.04270094  1
  Li  Li13  1  0.91410728  0.89306986  0.97198592  1
  Li  Li14  1  0.83206089  0.57610614  0.45615406  1
  Li  Li15  1  0.88902751  0.27929631  0.55356291  1
  Fe  Fe16  1  0.20079346  0.92433982  0.67591038  1
  Fe  Fe17  1  0.25365718  0.21190981  0.82141098  1
  Fe  Fe18  1  0.24623089  0.71328885  0.17739078  1
  Fe  Fe19  1  0.29902925  0.42515151  0.32403196  1
  Fe  Fe20  1  0.70097075  0.57484849  0.67596804  1
  Fe  Fe21  1  0.75376911  0.28671115  0.82260922  1
  Fe  Fe22  1  0.74634282  0.78809019  0.17858902  1
  Fe  Fe23  1  0.79920654  0.07566018  0.32408962  1
  P  P24  1  0.02599803  0.45330053  0.76132224  1
  P  P25  1  0.11917286  0.70426859  0.89193050  1
  P  P26  1  0.05892179  0.93151007  0.24321672  1
  P  P27  1  0.12268336  0.15015786  0.42725339  1
  P  P28  1  0.37695869  0.64990076  0.57251779  1
  P  P29  1  0.44132674  0.43215490  0.75634616  1
  P  P30  1  0.52572233  0.04667607  0.76097824  1
  P  P31  1  0.38090687  0.20381195  0.10805472  1
  P  P32  1  0.61909313  0.79618805  0.89194528  1
  P  P33  1  0.47427767  0.95332393  0.23902176  1
  P  P34  1  0.55867326  0.56784510  0.24365384  1
  P  P35  1  0.62304131  0.35009924  0.42748221  1
  P  P36  1  0.87731664  0.84984214  0.57274661  1
  P  P37  1  0.94107821  0.06848993  0.75678328  1
  P  P38  1  0.88082714  0.29573141  0.10806950  1
  P  P39  1  0.97400197  0.54669947  0.23867776  1
  O  O40  1  0.02292348  0.41496624  0.62970047  1
  O  O41  1  0.02395326  0.83962390  0.55227970  1
  O  O42  1  0.08611975  0.08724857  0.73013335  1
  O  O43  1  0.11865788  0.36347433  0.85601218  1
  O  O44  1  0.09593231  0.60187211  0.77587957  1
  O  O45  1  0.18351529  0.82900820  0.84580088  1
  O  O46  1  0.22266860  0.63429772  0.99850844  1
  O  O47  1  0.01882424  0.27591021  0.07471087  1
  O  O48  1  0.11297167  0.07887021  0.29546193  1
  O  O49  1  0.06319858  0.93505045  0.11008931  1
  O  O50  1  0.12040176  0.53363931  0.21040741  1
  O  O51  1  0.18858927  0.28909266  0.41726619  1
  O  O52  1  0.16375522  0.82584935  0.31127000  1
  O  O53  1  0.22315201  0.06295897  0.51912873  1
  O  O54  1  0.27583337  0.56319220  0.48093535  1
  O  O55  1  0.33663540  0.32718102  0.68809300  1
  O  O56  1  0.31155050  0.78931999  0.58226208  1
  O  O57  1  0.37866707  0.03527063  0.78838745  1
  O  O58  1  0.38723465  0.57955520  0.70468887  1
  O  O59  1  0.43802857  0.43633974  0.88970903  1
  O  O60  1  0.48116549  0.77746570  0.92502609  1
  O  O61  1  0.27784018  0.13324590  0.00159168  1
  O  O62  1  0.31592070  0.32933664  0.15380285  1
  O  O63  1  0.40465147  0.10235116  0.22450228  1
  O  O64  1  0.41296065  0.58774226  0.27039115  1
  O  O65  1  0.38219448  0.86347933  0.14395962  1
  O  O66  1  0.52284596  0.08436393  0.62950018  1
  O  O67  1  0.47669471  0.34173533  0.44824576  1
  O  O68  1  0.52330529  0.65826467  0.55175424  1
  O  O69  1  0.47715404  0.91563607  0.37049982  1
  O  O70  1  0.61780552  0.13652067  0.85604038  1
  O  O71  1  0.58703935  0.41225774  0.72960885  1
  O  O72  1  0.59534853  0.89764884  0.77549772  1
  O  O73  1  0.68407930  0.67066336  0.84619715  1
  O  O74  1  0.72215982  0.86675410  0.99840832  1
  O  O75  1  0.51883451  0.22253430  0.07497391  1
  O  O76  1  0.56197143  0.56366026  0.11029097  1
  O  O77  1  0.61276535  0.42044480  0.29531113  1
  O  O78  1  0.62133293  0.96472937  0.21161255  1
  O  O79  1  0.68844950  0.21068001  0.41773792  1
  O  O80  1  0.66336460  0.67281898  0.31190700  1
  O  O81  1  0.72416663  0.43680780  0.51906465  1
  O  O82  1  0.77684799  0.93704103  0.48087127  1
  O  O83  1  0.83624478  0.17415065  0.68873000  1
  O  O84  1  0.81141073  0.71090734  0.58273381  1
  O  O85  1  0.87959824  0.46636069  0.78959259  1
  O  O86  1  0.93680142  0.06494955  0.88991069  1
  O  O87  1  0.88702833  0.92112979  0.70453807  1
  O  O88  1  0.98117576  0.72408979  0.92528913  1
  O  O89  1  0.77733140  0.36570228  0.00149156  1
  O  O90  1  0.81648471  0.17099180  0.15419912  1
  O  O91  1  0.90406769  0.39812789  0.22412043  1
  O  O92  1  0.88134212  0.63652567  0.14398782  1
  O  O93  1  0.91388025  0.91275143  0.26986665  1
  O  O94  1  0.97604674  0.16037610  0.44772030  1
  O  O95  1  0.97707652  0.58503376  0.37029953  1
