# generated using pymatgen
data_V2OF5
_symmetry_space_group_name_H-M   'P 1'
_cell_length_a   5.23182148
_cell_length_b   13.55057306
_cell_length_c   5.28023990
_cell_angle_alpha   89.69326275
_cell_angle_beta   120.07889397
_cell_angle_gamma   89.67542892
_symmetry_Int_Tables_number   1
_chemical_formula_structural   V2OF5
_chemical_formula_sum   'V6 O3 F15'
_cell_volume   323.90870708
_cell_formula_units_Z   3
loop_
 _symmetry_equiv_pos_site_id
 _symmetry_equiv_pos_as_xyz
  1  'x, y, z'
loop_
 _atom_site_type_symbol
 _atom_site_label
 _atom_site_symmetry_multiplicity
 _atom_site_fract_x
 _atom_site_fract_y
 _atom_site_fract_z
 _atom_site_occupancy
  V  V0  1  0.98333695  0.50239432  0.99653946  1
  V  V1  1  0.01799980  0.99890696  0.00478533  1
  V  V2  1  0.65180572  0.83907139  0.33250710  1
  V  V3  1  0.35067949  0.66161887  0.68540902  1
  V  V4  1  0.65651381  0.33132411  0.33482706  1
  V  V5  1  0.34025593  0.17258625  0.64628174  1
  O  O6  1  0.36177442  0.91590816  0.24839664  1
  O  O7  1  0.41432854  0.24609037  0.43260139  1
  O  O8  1  0.64045484  0.58606692  0.89586234  1
  F  F9  1  0.00137008  0.75019628  0.42286652  1
  F  F10  1  0.40879625  0.74708824  0.01016859  1
  F  F11  1  0.32320476  0.41815244  0.06756582  1
  F  F12  1  0.07147290  0.08326931  0.33601969  1
  F  F13  1  0.24575253  0.58901393  0.32222916  1
  F  F14  1  0.59857307  0.24589923  0.00946973  1
  F  F15  1  0.00377270  0.24903235  0.60622496  1
  F  F16  1  0.75945280  0.91009880  0.07247203  1
  F  F17  1  0.05772906  0.58491373  0.72522798  1
  F  F18  1  0.59225131  0.75371462  0.60034035  1
  F  F19  1  0.92348015  0.41601192  0.26556299  1
  F  F20  1  0.26267742  0.08754128  0.91754172  1
  F  F21  1  0.72671970  0.41643007  0.66519717  1
  F  F22  1  0.66432316  0.07867463  0.73943737  1
  F  F23  1  0.94327362  0.91599680  0.66246584  1
