# generated using pymatgen
data_Na4MnO4
_symmetry_space_group_name_H-M   'P 1'
_cell_length_a   8.66543638
_cell_length_b   5.90363565
_cell_length_c   5.65947284
_cell_angle_alpha   68.31538015
_cell_angle_beta   108.98900885
_cell_angle_gamma   101.01142817
_symmetry_Int_Tables_number   1
_chemical_formula_structural   Na4MnO4
_chemical_formula_sum   'Na8 Mn2 O8'
_cell_volume   253.56850198
_cell_formula_units_Z   2
loop_
 _symmetry_equiv_pos_site_id
 _symmetry_equiv_pos_as_xyz
  1  'x, y, z'
loop_
 _atom_site_type_symbol
 _atom_site_label
 _atom_site_symmetry_multiplicity
 _atom_site_fract_x
 _atom_site_fract_y
 _atom_site_fract_z
 _atom_site_occupancy
  Na  Na0  1  0.17869402  0.01109599  0.63743236  1
  Na  Na1  1  0.14156265  0.51679142  0.11025991  1
  Na  Na2  1  0.31460543  0.54934111  0.67761221  1
  Na  Na3  1  0.35279955  0.03797392  0.20779832  1
  Na  Na4  1  0.57093956  0.02775131  0.75314399  1
  Na  Na5  1  0.72912908  0.52521165  0.91904673  1
  Na  Na6  1  0.76427011  0.02702380  0.39693158  1
  Na  Na7  1  0.92490099  0.52381303  0.56852438  1
  Mn  Mn8  1  0.50475660  0.55975192  0.31167477  1
  Mn  Mn9  1  0.99076326  0.99527624  0.00627055  1
  O  O10  1  0.12320513  0.25397549  0.86242759  1
  O  O11  1  0.10485942  0.78883664  0.32004277  1
  O  O12  1  0.39016404  0.76592641  0.99811601  1
  O  O13  1  0.37325022  0.30050513  0.45621351  1
  O  O14  1  0.54664636  0.75756332  0.51315186  1
  O  O15  1  0.66763833  0.40214550  0.32080413  1
  O  O16  1  0.94719432  0.79742260  0.80460743  1
  O  O17  1  0.82974892  0.15557253  0.99798490  1
