# generated using pymatgen
data_Li9Mn2Co5O16
_symmetry_space_group_name_H-M   'P 1'
_cell_length_a   2.98331530
_cell_length_b   19.68697249
_cell_length_c   5.10664652
_cell_angle_alpha   91.59612343
_cell_angle_beta   75.22740718
_cell_angle_gamma   86.78029037
_symmetry_Int_Tables_number   1
_chemical_formula_structural   Li9Mn2Co5O16
_chemical_formula_sum   'Li9 Mn2 Co5 O16'
_cell_volume   289.27771910
_cell_formula_units_Z   1
loop_
 _symmetry_equiv_pos_site_id
 _symmetry_equiv_pos_as_xyz
  1  'x, y, z'
loop_
 _atom_site_type_symbol
 _atom_site_label
 _atom_site_symmetry_multiplicity
 _atom_site_fract_x
 _atom_site_fract_y
 _atom_site_fract_z
 _atom_site_occupancy
  Li  Li0  1  0.67094206  0.06395869  0.57352147  1
  Li  Li1  1  0.06336810  0.18718274  0.68699450  1
  Li  Li2  1  0.43782373  0.31395779  0.81209302  1
  Li  Li3  1  0.81021388  0.43884267  0.93604939  1
  Li  Li4  1  0.18712493  0.56333203  0.06567184  1
  Li  Li5  1  0.55717731  0.68869149  0.18344406  1
  Li  Li6  1  0.94033888  0.81281424  0.30197780  1
  Li  Li7  1  0.34356466  0.93036113  0.42738520  1
  Li  Li8  1  0.60623903  0.87355944  0.89173923  1
  Mn  Mn9  1  0.99896505  0.99498689  0.00183720  1
  Mn  Mn10  1  0.75034888  0.25071392  0.25267955  1
  Co  Co11  1  0.38688391  0.12514658  0.11580840  1
  Co  Co12  1  0.12218642  0.37781583  0.37729747  1
  Co  Co13  1  0.49753353  0.50149347  0.50159952  1
  Co  Co14  1  0.86962121  0.62650865  0.62206059  1
  Co  Co15  1  0.24259826  0.75426765  0.75341588  1
  O  O16  1  0.37535608  0.03064095  0.24490328  1
  O  O17  1  0.74521298  0.15710026  0.38492417  1
  O  O18  1  0.05996431  0.28511758  0.52024475  1
  O  O19  1  0.48219205  0.41094392  0.63702276  1
  O  O20  1  0.81696411  0.53446309  0.76106288  1
  O  O21  1  0.23121091  0.66147860  0.88217814  1
  O  O22  1  0.57714501  0.77738724  0.00512673  1
  O  O23  1  0.96283806  0.91246874  0.15879133  1
  O  O24  1  0.02423283  0.09051365  0.86174850  1
  O  O25  1  0.44497952  0.21566172  0.97997548  1
  O  O26  1  0.76841122  0.34232072  0.11252099  1
  O  O27  1  0.18344658  0.46788192  0.23898066  1
  O  O28  1  0.51518870  0.59052541  0.36083009  1
  O  O29  1  0.93062363  0.71552897  0.48824873  1
  O  O30  1  0.28314924  0.83230007  0.60012258  1
  O  O31  1  0.61415693  0.97203696  0.75974382  1
