# generated using pymatgen
data_LaCd3
_symmetry_space_group_name_H-M   'P 1'
_cell_length_a   5.26394459
_cell_length_b   5.26396353
_cell_length_c   5.26394406
_cell_angle_alpha   59.99971285
_cell_angle_beta   60.00034309
_cell_angle_gamma   60.00022311
_symmetry_Int_Tables_number   1
_chemical_formula_structural   LaCd3
_chemical_formula_sum   'La1 Cd3'
_cell_volume   103.13863144
_cell_formula_units_Z   1
loop_
 _symmetry_equiv_pos_site_id
 _symmetry_equiv_pos_as_xyz
  1  'x, y, z'
loop_
 _atom_site_type_symbol
 _atom_site_label
 _atom_site_symmetry_multiplicity
 _atom_site_fract_x
 _atom_site_fract_y
 _atom_site_fract_z
 _atom_site_occupancy
  La  La0  1  0.74999939  0.74999917  0.74999892  1
  Cd  Cd1  1  0.99999940  0.99999998  -0.00000012  1
  Cd  Cd2  1  0.49999943  0.49999911  0.49999919  1
  Cd  Cd3  1  0.24999978  0.24999975  0.25000001  1
