# generated using pymatgen
data_Li9Mn2Co5O16
_symmetry_space_group_name_H-M   'P 1'
_cell_length_a   2.97866752
_cell_length_b   19.63100476
_cell_length_c   5.08635081
_cell_angle_alpha   91.74869392
_cell_angle_beta   75.58371053
_cell_angle_gamma   87.25907820
_symmetry_Int_Tables_number   1
_chemical_formula_structural   Li9Mn2Co5O16
_chemical_formula_sum   'Li9 Mn2 Co5 O16'
_cell_volume   287.44912186
_cell_formula_units_Z   1
loop_
 _symmetry_equiv_pos_site_id
 _symmetry_equiv_pos_as_xyz
  1  'x, y, z'
loop_
 _atom_site_type_symbol
 _atom_site_label
 _atom_site_symmetry_multiplicity
 _atom_site_fract_x
 _atom_site_fract_y
 _atom_site_fract_z
 _atom_site_occupancy
  Li  Li0  1  0.68745973  0.06461427  0.55772654  1
  Li  Li1  1  0.06226076  0.18801617  0.69044419  1
  Li  Li2  1  0.43672397  0.31371798  0.81040561  1
  Li  Li3  1  0.81245888  0.43799873  0.94031584  1
  Li  Li4  1  0.18304025  0.56353989  0.05975453  1
  Li  Li5  1  0.56441439  0.68793924  0.17728857  1
  Li  Li6  1  0.96675429  0.80551136  0.30248057  1
  Li  Li7  1  0.29925321  0.93815776  0.45075739  1
  Li  Li8  1  0.23496816  0.74807490  0.76424757  1
  Mn  Mn9  1  0.00884063  0.00094416  0.99540888  1
  Mn  Mn10  1  0.63189825  0.86995328  0.87458990  1
  Co  Co11  1  0.36813780  0.12629821  0.12530956  1
  Co  Co12  1  0.75362202  0.25153818  0.25190198  1
  Co  Co13  1  0.12412919  0.37569638  0.37605253  1
  Co  Co14  1  0.49515534  0.50105298  0.49756399  1
  Co  Co15  1  0.86809759  0.62926716  0.62888512  1
  O  O16  1  0.32081309  0.03501269  0.26583200  1
  O  O17  1  0.68608251  0.15914961  0.38557807  1
  O  O18  1  0.10872221  0.28535813  0.51424915  1
  O  O19  1  0.44490788  0.40903532  0.63642136  1
  O  O20  1  0.85611276  0.53645318  0.75827234  1
  O  O21  1  0.20465404  0.65243125  0.88099612  1
  O  O22  1  0.58592918  0.78764109  0.03345055  1
  O  O23  1  0.00999213  0.90592566  0.12021912  1
  O  O24  1  0.05201705  0.09323674  0.86188398  1
  O  O25  1  0.39093828  0.21591485  0.98799265  1
  O  O26  1  0.80620763  0.34216202  0.11315523  1
  O  O27  1  0.14243425  0.46492494  0.23519341  1
  O  O28  1  0.55374337  0.59052025  0.36381757  1
  O  O29  1  0.90919373  0.70757812  0.47550109  1
  O  O30  1  0.24275509  0.84656913  0.63339851  1
  O  O31  1  0.68828435  0.96576937  0.73090608  1
