# generated using pymatgen
data_Pu2HgBi
_symmetry_space_group_name_H-M   'P 1'
_cell_length_a   5.42936349
_cell_length_b   5.42943461
_cell_length_c   5.42934302
_cell_angle_alpha   60.00378352
_cell_angle_beta   60.00466611
_cell_angle_gamma   60.00341959
_symmetry_Int_Tables_number   1
_chemical_formula_structural   Pu2HgBi
_chemical_formula_sum   'Pu2 Hg1 Bi1'
_cell_volume   113.18132203
_cell_formula_units_Z   1
loop_
 _symmetry_equiv_pos_site_id
 _symmetry_equiv_pos_as_xyz
  1  'x, y, z'
loop_
 _atom_site_type_symbol
 _atom_site_label
 _atom_site_symmetry_multiplicity
 _atom_site_fract_x
 _atom_site_fract_y
 _atom_site_fract_z
 _atom_site_occupancy
  Pu  Pu0  1  0.99999953  0.99999743  0.00000183  1
  Pu  Pu1  1  0.50000205  0.50000358  0.49999879  1
  Hg  Hg2  1  0.74999974  0.75000020  0.74999992  1
  Bi  Bi3  1  0.24999968  0.24999979  0.25000046  1
