# generated using pymatgen
data_Li9Mn2Co5O16
_symmetry_space_group_name_H-M   'P 1'
_cell_length_a   2.95644283
_cell_length_b   19.30667495
_cell_length_c   5.10110551
_cell_angle_alpha   93.83847471
_cell_angle_beta   91.36877253
_cell_angle_gamma   84.51713185
_symmetry_Int_Tables_number   1
_chemical_formula_structural   Li9Mn2Co5O16
_chemical_formula_sum   'Li9 Mn2 Co5 O16'
_cell_volume   289.13925078
_cell_formula_units_Z   1
loop_
 _symmetry_equiv_pos_site_id
 _symmetry_equiv_pos_as_xyz
  1  'x, y, z'
loop_
 _atom_site_type_symbol
 _atom_site_label
 _atom_site_symmetry_multiplicity
 _atom_site_fract_x
 _atom_site_fract_y
 _atom_site_fract_z
 _atom_site_occupancy
  Li  Li0  1  0.86365615  0.12904438  0.38155146  1
  Li  Li1  1  0.24008641  0.25114840  0.26991237  1
  Li  Li2  1  0.63410753  0.37540874  0.12364925  1
  Li  Li3  1  0.00577753  0.49919158  0.99727009  1
  Li  Li4  1  0.37621706  0.62341260  0.87309185  1
  Li  Li5  1  0.74722229  0.74992980  0.75108314  1
  Li  Li6  1  0.12660482  0.87458451  0.62584788  1
  Li  Li7  1  0.50465081  0.99829666  0.49136934  1
  Li  Li8  1  0.76440979  0.24917899  0.73378593  1
  Mn  Mn9  1  0.99342994  0.99962455  0.00301898  1
  Mn  Mn10  1  0.36310701  0.12976589  0.86898305  1
  Co  Co11  1  0.13833161  0.37104881  0.62737423  1
  Co  Co12  1  0.49872750  0.49916619  0.50877329  1
  Co  Co13  1  0.86165747  0.62370886  0.38405344  1
  Co  Co14  1  0.24817836  0.74924598  0.24309866  1
  Co  Co15  1  0.63943693  0.87377272  0.12149508  1
  O  O16  1  0.39757261  0.06250706  0.16494156  1
  O  O17  1  0.83577407  0.18107708  0.03796274  1
  O  O18  1  0.17857345  0.32270868  0.90246066  1
  O  O19  1  0.54295009  0.43744164  0.78672246  1
  O  O20  1  0.90574676  0.55939347  0.67982169  1
  O  O21  1  0.29912319  0.68431392  0.54625173  1
  O  O22  1  0.69195165  0.81102274  0.40536915  1
  O  O23  1  0.03794621  0.93598340  0.29792870  1
  O  O24  1  0.32325084  0.18241440  0.58253019  1
  O  O25  1  0.71792928  0.31840632  0.44206044  1
  O  O26  1  0.09631121  0.43710282  0.34989012  1
  O  O27  1  0.43824237  0.56200719  0.21955189  1
  O  O28  1  0.80735094  0.69039820  0.08047419  1
  O  O29  1  0.22940917  0.81508706  0.94832388  1
  O  O30  1  0.59069578  0.93604578  0.83318758  1
  O  O31  1  0.90156319  0.06756355  0.71815996  1
