# generated using pymatgen
data_SF6
_symmetry_space_group_name_H-M   'P 1'
_cell_length_a   8.46569630
_cell_length_b   8.46569630
_cell_length_c   4.90114934
_cell_angle_alpha   90.00000000
_cell_angle_beta   90.00000000
_cell_angle_gamma   119.99999999
_symmetry_Int_Tables_number   1
_chemical_formula_structural   SF6
_chemical_formula_sum   'S3 F18'
_cell_volume   304.19630652
_cell_formula_units_Z   3
loop_
 _symmetry_equiv_pos_site_id
 _symmetry_equiv_pos_as_xyz
  1  'x, y, z'
loop_
 _atom_site_type_symbol
 _atom_site_label
 _atom_site_symmetry_multiplicity
 _atom_site_fract_x
 _atom_site_fract_y
 _atom_site_fract_z
 _atom_site_occupancy
  F  F0  1  0.24439890  0.75560110  0.36508679  1
  F  F1  1  0.24439890  0.48879781  0.36508679  1
  F  F2  1  0.51120219  0.75560110  0.36508679  1
  F  F3  1  0.08892164  0.91107836  0.81188408  1
  F  F4  1  0.08892164  0.17784327  0.81188408  1
  F  F5  1  0.82215673  0.91107836  0.81188408  1
  F  F6  1  0.17784327  0.08892164  0.18811592  1
  F  F7  1  0.91107836  0.82215673  0.18811592  1
  F  F8  1  0.91107836  0.08892164  0.18811592  1
  F  F9  1  0.42224534  0.57775466  0.74148384  1
  F  F10  1  0.42224534  0.84449069  0.74148384  1
  F  F11  1  0.15550931  0.57775466  0.74148384  1
  F  F12  1  0.84449069  0.42224534  0.25851616  1
  F  F13  1  0.57775466  0.15550931  0.25851616  1
  F  F14  1  0.57775466  0.42224534  0.25851616  1
  F  F15  1  0.75560110  0.24439890  0.63491321  1
  F  F16  1  0.75560110  0.51120219  0.63491321  1
  F  F17  1  0.48879781  0.24439890  0.63491321  1
  S  S18  1  0.66666667  0.33333333  0.44676698  1
  S  S19  1  0.33333333  0.66666667  0.55323302  1
  S  S20  1  0.00000000  0.00000000  0.00000000  1
