# generated using pymatgen
data_Li9Mn2Co5O16
_symmetry_space_group_name_H-M   'P 1'
_cell_length_a   2.95138477
_cell_length_b   19.91307291
_cell_length_c   5.08845113
_cell_angle_alpha   92.27296099
_cell_angle_beta   75.73835100
_cell_angle_gamma   87.38122017
_symmetry_Int_Tables_number   1
_chemical_formula_structural   Li9Mn2Co5O16
_chemical_formula_sum   'Li9 Mn2 Co5 O16'
_cell_volume   289.13412462
_cell_formula_units_Z   1
loop_
 _symmetry_equiv_pos_site_id
 _symmetry_equiv_pos_as_xyz
  1  'x, y, z'
loop_
 _atom_site_type_symbol
 _atom_site_label
 _atom_site_symmetry_multiplicity
 _atom_site_fract_x
 _atom_site_fract_y
 _atom_site_fract_z
 _atom_site_occupancy
  Li  Li0  1  0.67600257  0.06190345  0.57242514  1
  Li  Li1  1  0.06342394  0.18776852  0.68475316  1
  Li  Li2  1  0.43802948  0.31218862  0.81606863  1
  Li  Li3  1  0.81012206  0.43960198  0.93418862  1
  Li  Li4  1  0.18716005  0.56251839  0.06495623  1
  Li  Li5  1  0.55824206  0.68986950  0.18315934  1
  Li  Li6  1  0.93182159  0.81428288  0.30264240  1
  Li  Li7  1  0.34403294  0.93143581  0.42868656  1
  Li  Li8  1  0.60952412  0.87411873  0.89035895  1
  Mn  Mn9  1  0.00090414  0.99424154  0.00595154  1
  Mn  Mn10  1  0.13358214  0.37688288  0.37341254  1
  Co  Co11  1  0.38202872  0.12394570  0.12231966  1
  Co  Co12  1  0.75546732  0.25003112  0.24403771  1
  Co  Co13  1  0.48908434  0.50125763  0.50320187  1
  Co  Co14  1  0.86550893  0.62663984  0.62563852  1
  Co  Co15  1  0.24662856  0.75588774  0.74756692  1
  O  O16  1  0.38272714  0.02803497  0.25103723  1
  O  O17  1  0.72241033  0.15608866  0.38520318  1
  O  O18  1  0.10656598  0.28375599  0.50785192  1
  O  O19  1  0.45132834  0.41079652  0.64112875  1
  O  O20  1  0.81004239  0.53360882  0.76286265  1
  O  O21  1  0.22469739  0.66130150  0.87999935  1
  O  O22  1  0.57713268  0.77770538  0.00318684  1
  O  O23  1  0.96568348  0.91211603  0.15577686  1
  O  O24  1  0.03724015  0.09068369  0.86652899  1
  O  O25  1  0.40100443  0.21903654  0.98692616  1
  O  O26  1  0.81428094  0.34369445  0.10612892  1
  O  O27  1  0.17450556  0.46801099  0.23850630  1
  O  O28  1  0.51444908  0.59034025  0.36637202  1
  O  O29  1  0.92661075  0.71697806  0.49009283  1
  O  O30  1  0.28524722  0.83325306  0.59901850  1
  O  O31  1  0.61451317  0.97202375  0.76001168  1
