# generated using pymatgen
data_Cs2ZrCu3F12
_symmetry_space_group_name_H-M   'P 1'
_cell_length_a   8.19901032
_cell_length_b   8.19901032
_cell_length_c   8.19901033
_cell_angle_alpha   52.35971842
_cell_angle_beta   52.35971839
_cell_angle_gamma   52.35971839
_symmetry_Int_Tables_number   1
_chemical_formula_structural   Cs2ZrCu3F12
_chemical_formula_sum   'Cs2 Zr1 Cu3 F12'
_cell_volume   319.80129649
_cell_formula_units_Z   1
loop_
 _symmetry_equiv_pos_site_id
 _symmetry_equiv_pos_as_xyz
  1  'x, y, z'
loop_
 _atom_site_type_symbol
 _atom_site_label
 _atom_site_symmetry_multiplicity
 _atom_site_fract_x
 _atom_site_fract_y
 _atom_site_fract_z
 _atom_site_occupancy
  F  F0  1  0.41735496  0.41735496  0.82542657  1
  F  F1  1  0.41735496  0.82542657  0.41735496  1
  F  F2  1  0.82542657  0.41735496  0.41735496  1
  F  F3  1  0.17457343  0.58264504  0.58264504  1
  F  F4  1  0.58264504  0.58264504  0.17457343  1
  F  F5  1  0.58264504  0.17457343  0.58264504  1
  F  F6  1  0.19240998  0.57605465  0.19240998  1
  F  F7  1  0.19240998  0.19240998  0.57605465  1
  F  F8  1  0.57605465  0.19240998  0.19240998  1
  F  F9  1  0.42394535  0.80759002  0.80759002  1
  F  F10  1  0.80759002  0.42394535  0.80759002  1
  F  F11  1  0.80759002  0.80759002  0.42394535  1
  Cu  Cu12  1  0.50000000  0.00000000  0.50000000  1
  Cu  Cu13  1  0.00000000  0.50000000  0.50000000  1
  Cu  Cu14  1  0.50000000  0.50000000  0.00000000  1
  Zr  Zr15  1  0.50000000  0.50000000  0.50000000  1
  Cs  Cs16  1  0.89411619  0.89411619  0.89411619  1
  Cs  Cs17  1  0.10588381  0.10588381  0.10588381  1
