# generated using pymatgen
data_LiGdHg2
_symmetry_space_group_name_H-M   'P 1'
_cell_length_a   5.10251552
_cell_length_b   5.10257165
_cell_length_c   5.10267114
_cell_angle_alpha   59.98774151
_cell_angle_beta   59.98737703
_cell_angle_gamma   59.98595918
_symmetry_Int_Tables_number   1
_chemical_formula_structural   LiGdHg2
_chemical_formula_sum   'Li1 Gd1 Hg2'
_cell_volume   93.91354802
_cell_formula_units_Z   1
loop_
 _symmetry_equiv_pos_site_id
 _symmetry_equiv_pos_as_xyz
  1  'x, y, z'
loop_
 _atom_site_type_symbol
 _atom_site_label
 _atom_site_symmetry_multiplicity
 _atom_site_fract_x
 _atom_site_fract_y
 _atom_site_fract_z
 _atom_site_occupancy
  Li  Li0  1  0.74999911  0.74999912  0.74999896  1
  Gd  Gd1  1  0.24999967  0.24999987  0.24999998  1
  Hg  Hg2  1  0.99999294  0.99999216  -0.00000887  1
  Hg  Hg3  1  0.50000628  0.50000684  0.50000793  1
