# generated using pymatgen
data_Ba3TiS5
_symmetry_space_group_name_H-M   'P 1'
_cell_length_a   8.55994829
_cell_length_b   8.55994829
_cell_length_c   9.23675166
_cell_angle_alpha   117.60436586
_cell_angle_beta   117.60436585
_cell_angle_gamma   89.99999997
_symmetry_Int_Tables_number   1
_chemical_formula_structural   Ba3TiS5
_chemical_formula_sum   'Ba6 Ti2 S10'
_cell_volume   511.23788124
_cell_formula_units_Z   2
loop_
 _symmetry_equiv_pos_site_id
 _symmetry_equiv_pos_as_xyz
  1  'x, y, z'
loop_
 _atom_site_type_symbol
 _atom_site_label
 _atom_site_symmetry_multiplicity
 _atom_site_fract_x
 _atom_site_fract_y
 _atom_site_fract_z
 _atom_site_occupancy
  S  S0  1  0.00448167  0.50448167  0.30458950  1
  S  S1  1  0.69989217  0.19989217  0.69541050  1
  S  S2  1  0.99551833  0.49551833  0.69541050  1
  S  S3  1  0.19989217  0.99551833  0.69541050  1
  S  S4  1  0.49551833  0.69989217  0.69541050  1
  S  S5  1  0.80010783  0.00448167  0.30458950  1
  S  S6  1  0.50448167  0.30010783  0.30458950  1
  S  S7  1  0.30010783  0.80010783  0.30458950  1
  S  S8  1  0.00000000  0.00000000  0.00000000  1
  S  S9  1  0.50000000  0.50000000  0.00000000  1
  Ti  Ti10  1  0.75000000  0.25000000  0.50000000  1
  Ti  Ti11  1  0.25000000  0.75000000  0.50000000  1
  Ba  Ba12  1  0.66339026  0.16339026  0.00000000  1
  Ba  Ba13  1  0.83660974  0.66339026  0.00000000  1
  Ba  Ba14  1  0.16339026  0.33660974  0.00000000  1
  Ba  Ba15  1  0.33660974  0.83660974  0.00000000  1
  Ba  Ba16  1  0.75000000  0.75000000  0.50000000  1
  Ba  Ba17  1  0.25000000  0.25000000  0.50000000  1
