# generated using pymatgen
data_Li6PS5I
_symmetry_space_group_name_H-M   'P 1'
_cell_length_a   7.29061810
_cell_length_b   7.29061810
_cell_length_c   12.43561870
_cell_angle_alpha   89.71047656
_cell_angle_beta   107.35544614
_cell_angle_gamma   119.98746972
_symmetry_Int_Tables_number   1
_chemical_formula_structural   Li6PS5I
_chemical_formula_sum   'Li12 P2 S10 I2'
_cell_volume   538.08491170
_cell_formula_units_Z   2
loop_
 _symmetry_equiv_pos_site_id
 _symmetry_equiv_pos_as_xyz
  1  'x, y, z'
loop_
 _atom_site_type_symbol
 _atom_site_label
 _atom_site_symmetry_multiplicity
 _atom_site_fract_x
 _atom_site_fract_y
 _atom_site_fract_z
 _atom_site_occupancy
  Li  Li0  1  0.38777847  0.05341417  0.36590728  1
  Li  Li1  1  0.81249310  0.97812880  0.86590728  1
  Li  Li2  1  0.39873122  0.58097516  0.84675223  1
  Li  Li3  1  0.76577707  0.44802101  0.34675223  1
  Li  Li4  1  0.39696192  0.66959849  0.11066337  1
  Li  Li5  1  0.94106488  0.71370144  0.61066337  1
  Li  Li6  1  0.41248864  0.54854994  0.44135186  1
  Li  Li7  1  0.39280192  0.02886322  0.94135186  1
  Li  Li8  1  0.81863451  0.72434354  0.11140526  1
  Li  Li9  1  0.88706172  0.29277075  0.61140526  1
  Li  Li10  1  0.40687952  0.22512826  0.61856086  1
  Li  Li11  1  0.89343260  0.21168134  0.11856086  1
  P  P12  1  0.88118733  0.50738677  0.87907927  1
  P  P13  1  0.87169251  0.99789195  0.37907927  1
  S  S14  1  0.52459858  0.82615426  0.31829703  1
  S  S15  1  0.99214277  0.79369845  0.81829703  1
  S  S16  1  0.53342081  0.32965598  0.82542034  1
  S  S17  1  0.99576436  0.29199953  0.32542034  1
  S  S18  1  0.00336462  0.56331371  0.05540489  1
  S  S19  1  0.99209117  0.05204026  0.55540489  1
  S  S20  1  0.62385476  0.87629710  0.00104407  1
  S  S21  1  0.62474697  0.37718931  0.50104407  1
  S  S22  1  0.98276930  0.82158438  0.32084237  1
  S  S23  1  -0.00074201  0.33807307  0.82084237  1
  I  I24  1  0.39094758  0.26761552  0.13287117  1
  I  I25  1  0.36525566  0.74192359  0.63287117  1
