# generated using pymatgen
data_Li9Mn2Co5O16
_symmetry_space_group_name_H-M   'P 1'
_cell_length_a   2.95854112
_cell_length_b   10.18311616
_cell_length_c   10.09802206
_cell_angle_alpha   71.99459643
_cell_angle_beta   87.66995876
_cell_angle_gamma   91.20819050
_symmetry_Int_Tables_number   1
_chemical_formula_structural   Li9Mn2Co5O16
_chemical_formula_sum   'Li9 Mn2 Co5 O16'
_cell_volume   288.90556550
_cell_formula_units_Z   1
loop_
 _symmetry_equiv_pos_site_id
 _symmetry_equiv_pos_as_xyz
  1  'x, y, z'
loop_
 _atom_site_type_symbol
 _atom_site_label
 _atom_site_symmetry_multiplicity
 _atom_site_fract_x
 _atom_site_fract_y
 _atom_site_fract_z
 _atom_site_occupancy
  Li  Li0  1  0.99322959  0.24799407  0.74875519  1
  Li  Li1  1  0.51560809  0.75025894  0.50456117  1
  Li  Li2  1  0.01204484  0.24352926  0.25898689  1
  Li  Li3  1  0.50551582  0.24200914  0.49855407  1
  Li  Li4  1  0.00090120  0.75014474  0.24965425  1
  Li  Li5  1  0.48316134  0.25813370  0.99476547  1
  Li  Li6  1  0.49615383  0.74743678  0.99948870  1
  Li  Li7  1  0.99480147  0.75359156  0.75118704  1
  Li  Li8  1  0.98756494  0.00986292  0.49543234  1
  Mn  Mn9  1  0.00468825  0.99698165  0.99832269  1
  Mn  Mn10  1  0.50780864  0.00090035  0.25780161  1
  Co  Co11  1  0.50447936  0.49727092  0.74749168  1
  Co  Co12  1  0.49849121  0.50265031  0.25128047  1
  Co  Co13  1  0.00542337  0.50354620  0.50064541  1
  Co  Co14  1  0.99274227  0.49672372  0.99921261  1
  Co  Co15  1  0.48912247  0.99879088  0.73865773  1
  O  O16  1  0.47064920  0.11055432  0.87031979  1
  O  O17  1  0.01457266  0.61638045  0.62480811  1
  O  O18  1  0.49694342  0.11930909  0.36320859  1
  O  O19  1  0.96359948  0.11512290  0.63607669  1
  O  O20  1  0.46860777  0.61639278  0.38167160  1
  O  O21  1  0.02733784  0.10592958  0.13405300  1
  O  O22  1  0.98853363  0.61447599  0.13095723  1
  O  O23  1  0.48102039  0.61132082  0.87731760  1
  O  O24  1  0.54149144  0.38769418  0.62214063  1
  O  O25  1  0.98654522  0.89151473  0.36084445  1
  O  O26  1  0.50624534  0.38652157  0.11836576  1
  O  O27  1  0.00845673  0.39045722  0.37504690  1
  O  O28  1  0.53953036  0.88470137  0.12688353  1
  O  O29  1  0.98805717  0.38022224  0.86990231  1
  O  O30  1  0.02399074  0.88444331  0.87251836  1
  O  O31  1  0.50268190  0.88513428  0.64108812  1
