# generated using pymatgen
data_Ho3Lu
_symmetry_space_group_name_H-M   'P 1'
_cell_length_a   7.15896049
_cell_length_b   7.15895961
_cell_length_c   5.56879464
_cell_angle_alpha   90.00000000
_cell_angle_beta   90.00000000
_cell_angle_gamma   119.99999942
_symmetry_Int_Tables_number   1
_chemical_formula_structural   Ho3Lu
_chemical_formula_sum   'Ho6 Lu2'
_cell_volume   247.16769898
_cell_formula_units_Z   2
loop_
 _symmetry_equiv_pos_site_id
 _symmetry_equiv_pos_as_xyz
  1  'x, y, z'
loop_
 _atom_site_type_symbol
 _atom_site_label
 _atom_site_symmetry_multiplicity
 _atom_site_fract_x
 _atom_site_fract_y
 _atom_site_fract_z
 _atom_site_occupancy
  Ho  Ho0  1  0.16705583  0.33411167  0.25000100  1
  Ho  Ho1  1  0.83294517  0.16705483  0.75000200  1
  Ho  Ho2  1  0.33410967  0.16705483  0.75000200  1
  Ho  Ho3  1  0.83294417  0.66588933  0.75000200  1
  Ho  Ho4  1  0.16705383  0.83294417  0.25000100  1
  Ho  Ho5  1  0.66589033  0.83294417  0.25000100  1
  Lu  Lu6  1  0.66666600  0.33333100  0.25000100  1
  Lu  Lu7  1  0.33333300  0.66666600  0.75000200  1
