# generated using pymatgen
data_RbBeH3
_symmetry_space_group_name_H-M   'P 1'
_cell_length_a   7.35315259
_cell_length_b   5.89329802
_cell_length_c   9.40290439
_cell_angle_alpha   89.99994917
_cell_angle_beta   106.17612807
_cell_angle_gamma   90.00002119
_symmetry_Int_Tables_number   1
_chemical_formula_structural   RbBeH3
_chemical_formula_sum   'Rb4 Be4 H12'
_cell_volume   391.33672318
_cell_formula_units_Z   4
loop_
 _symmetry_equiv_pos_site_id
 _symmetry_equiv_pos_as_xyz
  1  'x, y, z'
loop_
 _atom_site_type_symbol
 _atom_site_label
 _atom_site_symmetry_multiplicity
 _atom_site_fract_x
 _atom_site_fract_y
 _atom_site_fract_z
 _atom_site_occupancy
  Rb  Rb0  1  0.24014402  0.74617290  0.22311652  1
  Rb  Rb1  1  0.75985576  0.24617210  0.27688234  1
  Rb  Rb2  1  0.24014311  0.75382761  0.72311623  1
  Rb  Rb3  1  0.75985618  0.25382774  0.77688357  1
  Be  Be4  1  0.74208507  0.74748795  0.00411505  1
  Be  Be5  1  0.25791534  0.24749038  0.49588355  1
  Be  Be6  1  0.74208572  0.75250951  0.50411792  1
  Be  Be7  1  0.25791353  0.25251144  0.99588374  1
  H  H8  1  0.76005890  0.98194202  0.02394307  1
  H  H9  1  0.85630338  0.60119223  0.10922099  1
  H  H10  1  0.38143793  0.34312114  0.12478001  1
  H  H11  1  0.61856144  0.84312046  0.37521964  1
  H  H12  1  0.14369671  0.10119243  0.39077924  1
  H  H13  1  0.23994173  0.48194154  0.47605676  1
  H  H14  1  0.76005966  0.51805876  0.52394319  1
  H  H15  1  0.85630272  0.89880731  0.60922090  1
  H  H16  1  0.38143815  0.15687971  0.62478042  1
  H  H17  1  0.61856228  0.65687909  0.87522036  1
  H  H18  1  0.14369687  0.39880752  0.89077886  1
  H  H19  1  0.23994053  0.01805816  0.97605664  1
