# generated using pymatgen
data_Li9Mn2Co5O16
_symmetry_space_group_name_H-M   'P 1'
_cell_length_a   2.89371671
_cell_length_b   19.45355574
_cell_length_c   5.17141044
_cell_angle_alpha   91.78682549
_cell_angle_beta   88.49182822
_cell_angle_gamma   87.06059087
_symmetry_Int_Tables_number   1
_chemical_formula_structural   Li9Mn2Co5O16
_chemical_formula_sum   'Li9 Mn2 Co5 O16'
_cell_volume   290.47655864
_cell_formula_units_Z   1
loop_
 _symmetry_equiv_pos_site_id
 _symmetry_equiv_pos_as_xyz
  1  'x, y, z'
loop_
 _atom_site_type_symbol
 _atom_site_label
 _atom_site_symmetry_multiplicity
 _atom_site_fract_x
 _atom_site_fract_y
 _atom_site_fract_z
 _atom_site_occupancy
  Li  Li0  1  0.91428744  0.14097955  0.72031129  1
  Li  Li1  1  0.32534780  0.37212852  0.55030800  1
  Li  Li2  1  0.68902370  0.62258812  0.43981533  1
  Li  Li3  1  0.06334696  0.87230174  0.31364800  1
  Li  Li4  1  0.42677879  0.13020892  0.19692804  1
  Li  Li5  1  0.81698341  0.36921863  0.03827085  1
  Li  Li6  1  0.18654893  0.62208288  0.93892423  1
  Li  Li7  1  0.55944818  0.87374424  0.81155234  1
  Li  Li8  1  0.37541291  0.25140585  0.87737195  1
  Mn  Mn9  1  0.99903225  0.99987403  -0.00022060  1
  Mn  Mn10  1  0.87742622  0.24990828  0.37425715  1
  Co  Co11  1  0.75207179  0.49880662  0.74740465  1
  Co  Co12  1  0.12522451  0.74981017  0.62590806  1
  Co  Co13  1  0.49756225  0.00069306  0.50117712  1
  Co  Co14  1  0.25242523  0.49918819  0.24715203  1
  Co  Co15  1  0.62447598  0.74949657  0.12538618  1
  O  O16  1  0.48530857  0.05605613  0.86748085  1
  O  O17  1  0.84727478  0.30741779  0.68128752  1
  O  O18  1  0.20708059  0.55790948  0.59806409  1
  O  O19  1  0.58092092  0.80905490  0.47556218  1
  O  O20  1  0.97655186  0.05181774  0.32276531  1
  O  O21  1  0.36379173  0.30495972  0.23141115  1
  O  O22  1  0.70634992  0.55806085  0.09579221  1
  O  O23  1  0.07754580  0.80818681  0.97628949  1
  O  O24  1  0.39291742  0.19326372  0.51935735  1
  O  O25  1  0.79663862  0.44331857  0.39834055  1
  O  O26  1  0.17074332  0.69282931  0.27772516  1
  O  O27  1  0.51459569  0.94268834  0.13250893  1
  O  O28  1  0.90791411  0.19174239  0.06473332  1
  O  O29  1  0.29807246  0.44156931  0.89973902  1
  O  O30  1  0.66634843  0.69328986  0.77636175  1
  O  O31  1  0.02254944  0.94539969  0.67438653  1
