# generated using pymatgen
data_BaSm2PtO5
_symmetry_space_group_name_H-M   'P 1'
_cell_length_a   5.97855145
_cell_length_b   6.74426368
_cell_length_c   6.74426368
_cell_angle_alpha   90.00000000
_cell_angle_beta   90.00000000
_cell_angle_gamma   90.00000000
_symmetry_Int_Tables_number   1
_chemical_formula_structural   BaSm2PtO5
_chemical_formula_sum   'Ba2 Sm4 Pt2 O10'
_cell_volume   271.93496623
_cell_formula_units_Z   2
loop_
 _symmetry_equiv_pos_site_id
 _symmetry_equiv_pos_as_xyz
  1  'x, y, z'
loop_
 _atom_site_type_symbol
 _atom_site_label
 _atom_site_symmetry_multiplicity
 _atom_site_fract_x
 _atom_site_fract_y
 _atom_site_fract_z
 _atom_site_occupancy
  O  O0  1  0.50000000  0.50000000  0.50000000  1
  O  O1  1  0.50000000  0.00000000  0.00000000  1
  O  O2  1  0.25724381  0.63919338  0.13919338  1
  O  O3  1  0.25724381  0.36080662  0.86080662  1
  O  O4  1  0.25724381  0.13919338  0.36080662  1
  O  O5  1  0.25724381  0.86080662  0.63919338  1
  O  O6  1  0.74275619  0.63919338  0.13919338  1
  O  O7  1  0.74275619  0.86080662  0.63919338  1
  O  O8  1  0.74275619  0.36080662  0.86080662  1
  O  O9  1  0.74275619  0.13919338  0.36080662  1
  Ba  Ba10  1  0.00000000  0.00000000  0.00000000  1
  Ba  Ba11  1  0.00000000  0.50000000  0.50000000  1
  Sm  Sm12  1  0.50000000  0.67447160  0.82552840  1
  Sm  Sm13  1  0.50000000  0.17447160  0.67447160  1
  Sm  Sm14  1  0.50000000  0.82552840  0.32552840  1
  Sm  Sm15  1  0.50000000  0.32552840  0.17447160  1
  Pt  Pt16  1  0.00000000  0.00000000  0.50000000  1
  Pt  Pt17  1  0.00000000  0.50000000  0.00000000  1
