# generated using pymatgen
data_Rb2CoP4(HO2)8
_symmetry_space_group_name_H-M   'P 1'
_cell_length_a   7.04254069
_cell_length_b   7.35180074
_cell_length_c   7.80320190
_cell_angle_alpha   82.19655155
_cell_angle_beta   68.71079589
_cell_angle_gamma   87.34907898
_symmetry_Int_Tables_number   1
_chemical_formula_structural   Rb2CoP4(HO2)8
_chemical_formula_sum   'Rb2 Co1 P4 H8 O16'
_cell_volume   372.95551018
_cell_formula_units_Z   1
loop_
 _symmetry_equiv_pos_site_id
 _symmetry_equiv_pos_as_xyz
  1  'x, y, z'
loop_
 _atom_site_type_symbol
 _atom_site_label
 _atom_site_symmetry_multiplicity
 _atom_site_fract_x
 _atom_site_fract_y
 _atom_site_fract_z
 _atom_site_occupancy
  Rb  Rb0  1  0.58372736  0.71594903  0.79534564  1
  Rb  Rb1  1  0.41627299  0.28405018  0.20465492  1
  Co  Co2  1  0.99999959  0.50000022  0.00000086  1
  P  P3  1  0.86696914  0.26530321  0.72058435  1
  P  P4  1  0.13303076  0.73469789  0.27941512  1
  P  P5  1  0.27857656  0.20882534  0.73557767  1
  P  P6  1  0.72142350  0.79117551  0.26442309  1
  H  H7  1  0.75874123  0.03192674  0.94268085  1
  H  H8  1  0.24125921  0.96807472  0.05731959  1
  H  H9  1  0.09587879  0.71156728  0.67058259  1
  H  H10  1  0.90412124  0.28843267  0.32941843  1
  H  H11  1  0.60489830  0.26464282  0.56261197  1
  H  H12  1  0.39510183  0.73535719  0.43738832  1
  H  H13  1  0.10905025  0.84272169  0.81692051  1
  H  H14  1  0.89094993  0.15727832  0.18308026  1
  O  O15  1  0.04352031  0.73157879  0.80352030  1
  O  O16  1  0.95647958  0.26842269  0.19647925  1
  O  O17  1  0.75464650  0.07503827  0.81312547  1
  O  O18  1  0.24535534  0.92496280  0.18687336  1
  O  O19  1  0.80738785  0.33303616  0.55559217  1
  O  O20  1  0.19261170  0.66696458  0.44440614  1
  O  O21  1  0.82444403  0.39229460  0.86838223  1
  O  O22  1  0.17555757  0.60770682  0.13161720  1
  O  O23  1  0.10884832  0.22066048  0.63608391  1
  O  O24  1  0.89115092  0.77934069  0.36391562  1
  O  O25  1  0.25016661  0.02216319  0.85429148  1
  O  O26  1  0.74983336  0.97783735  0.14570865  1
  O  O27  1  0.47407980  0.21482972  0.55386417  1
  O  O28  1  0.52592225  0.78517057  0.44613604  1
  O  O29  1  0.26800664  0.37516153  0.83401801  1
  O  O30  1  0.73199354  0.62483794  0.16598285  1
