# generated using pymatgen
data_Li9Mn2Co5O16
_symmetry_space_group_name_H-M   'P 1'
_cell_length_a   5.74444646
_cell_length_b   9.71678614
_cell_length_c   5.91159135
_cell_angle_alpha   97.65572087
_cell_angle_beta   60.93097191
_cell_angle_gamma   89.99999813
_symmetry_Int_Tables_number   1
_chemical_formula_structural   Li9Mn2Co5O16
_chemical_formula_sum   'Li9 Mn2 Co5 O16'
_cell_volume   285.03605938
_cell_formula_units_Z   1
loop_
 _symmetry_equiv_pos_site_id
 _symmetry_equiv_pos_as_xyz
  1  'x, y, z'
loop_
 _atom_site_type_symbol
 _atom_site_label
 _atom_site_symmetry_multiplicity
 _atom_site_fract_x
 _atom_site_fract_y
 _atom_site_fract_z
 _atom_site_occupancy
  Li  Li0  1  0.62321067  0.26547903  0.26266671  1
  Li  Li1  1  0.38587738  0.73452097  0.73733329  1
  Li  Li2  1  0.11412262  0.26547903  0.26266671  1
  Li  Li3  1  0.12369784  0.26190164  0.75260432  1
  Li  Li4  1  0.87314306  0.73647750  0.25371388  1
  Li  Li5  1  0.62685694  0.26352250  0.74628612  1
  Li  Li6  1  0.37630216  0.73809836  0.24739568  1
  Li  Li7  1  0.87678933  0.73452097  0.73733329  1
  Li  Li8  1  0.75000000  0.50000000  0.50000000  1
  Mn  Mn9  1  0.00004442  -0.00039957  -0.00008884  1
  Mn  Mn10  1  0.49995558  0.00039957  0.00008884  1
  Co  Co11  1  0.25000000  0.50000000  0.50000000  1
  Co  Co12  1  0.50052382  0.00000000  0.50000000  1
  Co  Co13  1  0.25000000  0.50000000  -0.00000000  1
  Co  Co14  1  0.99947618  1.00000000  0.50000000  1
  Co  Co15  1  0.75000000  0.50000000  -0.00000000  1
  O  O16  1  0.80162746  0.11556916  0.89323400  1
  O  O17  1  0.54680364  0.61218225  0.37288944  1
  O  O18  1  0.30513854  0.11556916  0.89323400  1
  O  O19  1  0.30892940  0.10755877  0.38214120  1
  O  O20  1  0.07751786  0.61270755  0.84496428  1
  O  O21  1  0.80805555  0.11158386  0.38388890  1
  O  O22  1  0.55458349  0.61306891  0.89083303  1
  O  O23  1  0.08030693  0.61218225  0.37288944  1
  O  O24  1  0.41969307  0.38781775  0.62711056  1
  O  O25  1  0.19486146  0.88443084  0.10676600  1
  O  O26  1  0.95319636  0.38781775  0.62711056  1
  O  O27  1  0.94541651  0.38693109  0.10916697  1
  O  O28  1  0.69194445  0.88841614  0.61611110  1
  O  O29  1  0.42248214  0.38729245  0.15503572  1
  O  O30  1  0.19107060  0.89244123  0.61785880  1
  O  O31  1  0.69837254  0.88443084  0.10676600  1
