# generated using pymatgen
data_Mn2Cr3Sb3O16
_symmetry_space_group_name_H-M   'P 1'
_cell_length_a   6.10163303
_cell_length_b   6.12448680
_cell_length_c   8.93898353
_cell_angle_alpha   89.99987589
_cell_angle_beta   89.58304716
_cell_angle_gamma   120.12437772
_symmetry_Int_Tables_number   1
_chemical_formula_structural   Mn2Cr3Sb3O16
_chemical_formula_sum   'Mn2 Cr3 Sb3 O16'
_cell_volume   288.91727366
_cell_formula_units_Z   1
loop_
 _symmetry_equiv_pos_site_id
 _symmetry_equiv_pos_as_xyz
  1  'x, y, z'
loop_
 _atom_site_type_symbol
 _atom_site_label
 _atom_site_symmetry_multiplicity
 _atom_site_fract_x
 _atom_site_fract_y
 _atom_site_fract_z
 _atom_site_occupancy
  Mn  Mn0  1  0.31652711  0.65826628  0.47817980  1
  Mn  Mn1  1  0.65406842  0.32704658  0.99527093  1
  Cr  Cr2  1  0.17268319  0.83277477  0.20790037  1
  Cr  Cr3  1  0.17266691  0.33991664  0.20789603  1
  Cr  Cr4  1  0.34085657  0.17043958  0.71104687  1
  Sb  Sb5  1  0.66868264  0.83434594  0.20509026  1
  Sb  Sb6  1  0.83705259  0.66699029  0.71009872  1
  Sb  Sb7  1  0.83705781  0.17008431  0.71009796  1
  O  O8  1  0.16554833  0.82955529  0.60186430  1
  O  O9  1  0.05008196  0.52504907  0.34110011  1
  O  O10  1  0.34136538  0.67069243  0.09683195  1
  O  O11  1  0.99676599  0.99839072  0.31049766  1
  O  O12  1  0.00046246  0.00023933  0.82109693  1
  O  O13  1  0.16555139  0.33601083  0.60186430  1
  O  O14  1  0.47229358  0.94621405  0.34730674  1
  O  O15  1  0.47228822  0.52609068  0.34730885  1
  O  O16  1  0.34017374  0.17009835  0.09651380  1
  O  O17  1  0.66303109  0.83152619  0.60322501  1
  O  O18  1  0.52761998  0.47622823  0.84263492  1
  O  O19  1  0.52762094  0.05140941  0.84263537  1
  O  O20  1  0.67266088  0.33633880  0.59264370  1
  O  O21  1  0.82458103  0.65289486  0.09886394  1
  O  O22  1  0.95578009  0.47790155  0.84689222  1
  O  O23  1  0.82457869  0.17169382  0.09886129  1
