# generated using pymatgen
data_DyP5
_symmetry_space_group_name_H-M   'P 1'
_cell_length_a   4.95273612
_cell_length_b   5.35742080
_cell_length_c   9.42952742
_cell_angle_alpha   90.00000000
_cell_angle_beta   90.00000000
_cell_angle_gamma   102.21745477
_symmetry_Int_Tables_number   1
_chemical_formula_structural   DyP5
_chemical_formula_sum   'Dy2 P10'
_cell_volume   244.53534864
_cell_formula_units_Z   2
loop_
 _symmetry_equiv_pos_site_id
 _symmetry_equiv_pos_as_xyz
  1  'x, y, z'
loop_
 _atom_site_type_symbol
 _atom_site_label
 _atom_site_symmetry_multiplicity
 _atom_site_fract_x
 _atom_site_fract_y
 _atom_site_fract_z
 _atom_site_occupancy
  P  P0  1  0.27589368  0.89309908  0.25000000  1
  P  P1  1  0.72410632  0.10690092  0.75000000  1
  P  P2  1  0.61618469  0.95543300  0.40737028  1
  P  P3  1  0.38381531  0.04456700  0.90737028  1
  P  P4  1  0.38381531  0.04456700  0.59262972  1
  P  P5  1  0.61618469  0.95543300  0.09262972  1
  P  P6  1  0.71426802  0.59501739  0.47127197  1
  P  P7  1  0.28573198  0.40498261  0.97127197  1
  P  P8  1  0.28573198  0.40498261  0.52872803  1
  P  P9  1  0.71426802  0.59501739  0.02872803  1
  Dy  Dy10  1  0.00408120  0.34673636  0.25000000  1
  Dy  Dy11  1  0.99591880  0.65326364  0.75000000  1
