# generated using pymatgen
data_Rb2Sr2(CO3)3
_symmetry_space_group_name_H-M   'P 1'
_cell_length_a   8.61223806
_cell_length_b   8.61223806
_cell_length_c   8.61223806
_cell_angle_alpha   109.47122063
_cell_angle_beta   109.47122063
_cell_angle_gamma   109.47122063
_symmetry_Int_Tables_number   1
_chemical_formula_structural   Rb2Sr2(CO3)3
_chemical_formula_sum   'Rb4 Sr4 C6 O18'
_cell_volume   491.72941347
_cell_formula_units_Z   2
loop_
 _symmetry_equiv_pos_site_id
 _symmetry_equiv_pos_as_xyz
  1  'x, y, z'
loop_
 _atom_site_type_symbol
 _atom_site_label
 _atom_site_symmetry_multiplicity
 _atom_site_fract_x
 _atom_site_fract_y
 _atom_site_fract_z
 _atom_site_occupancy
  Rb  Rb0  1  0.86956818  0.86956818  0.86956818  1
  Rb  Rb1  1  0.50000100  0.00000000  0.63043182  1
  Rb  Rb2  1  0.63043182  0.50000100  0.00000000  1
  Rb  Rb3  1  0.00000000  0.63043182  0.50000100  1
  Sr  Sr4  1  0.42377148  0.42377148  0.42377148  1
  Sr  Sr5  1  0.50000000  0.00000000  0.07622852  1
  Sr  Sr6  1  0.07622852  0.50000000  0.00000000  1
  Sr  Sr7  1  0.00000000  0.07622852  0.50000000  1
  C  C8  1  0.58351326  0.75000000  0.33351126  1
  C  C9  1  0.91648874  0.25000100  0.16648774  1
  C  C10  1  0.33351126  0.58351326  0.75000000  1
  C  C11  1  0.75000000  0.33351126  0.58351326  1
  C  C12  1  0.25000100  0.16648774  0.91648874  1
  C  C13  1  0.16648774  0.91648874  0.25000100  1
  O  O14  1  0.71583178  0.75000000  0.46582978  1
  O  O15  1  0.78416822  0.25000100  0.03416822  1
  O  O16  1  0.46582978  0.71583178  0.75000000  1
  O  O17  1  0.75000000  0.46582978  0.71583178  1
  O  O18  1  0.25000100  0.03416822  0.78416822  1
  O  O19  1  0.03416822  0.78416822  0.25000100  1
  O  O20  1  0.41055830  0.67075053  0.30104784  1
  O  O21  1  0.86970169  0.10951046  0.19895116  1
  O  O22  1  0.08944270  0.39049054  0.26019223  1
  O  O23  1  0.63029731  0.82924947  0.23980677  1
  O  O24  1  0.30104784  0.41055830  0.67075053  1
  O  O25  1  0.67075053  0.30104784  0.41055830  1
  O  O26  1  0.23980677  0.63029731  0.82924947  1
  O  O27  1  0.10951046  0.19895116  0.86970169  1
  O  O28  1  0.19895116  0.86970169  0.10951046  1
  O  O29  1  0.39049054  0.26019223  0.08944270  1
  O  O30  1  0.26019223  0.08944270  0.39049054  1
  O  O31  1  0.82924947  0.23980677  0.63029731  1
