# generated using pymatgen
data_BaTl3
_symmetry_space_group_name_H-M   'P 1'
_cell_length_a   7.79493605
_cell_length_b   7.79493782
_cell_length_c   5.26888845
_cell_angle_alpha   90.00000000
_cell_angle_beta   90.00000000
_cell_angle_gamma   119.99999781
_symmetry_Int_Tables_number   1
_chemical_formula_structural   BaTl3
_chemical_formula_sum   'Ba2 Tl6'
_cell_volume   277.25210825
_cell_formula_units_Z   2
loop_
 _symmetry_equiv_pos_site_id
 _symmetry_equiv_pos_as_xyz
  1  'x, y, z'
loop_
 _atom_site_type_symbol
 _atom_site_label
 _atom_site_symmetry_multiplicity
 _atom_site_fract_x
 _atom_site_fract_y
 _atom_site_fract_z
 _atom_site_occupancy
  Ba  Ba0  1  0.33333400  0.66666800  0.75000100  1
  Ba  Ba1  1  0.66666700  0.33333300  0.24999900  1
  Tl  Tl2  1  0.14988216  0.29976433  0.24999900  1
  Tl  Tl3  1  0.70023567  0.85011684  0.24999900  1
  Tl  Tl4  1  0.14988316  0.85011684  0.24999900  1
  Tl  Tl5  1  0.85011684  0.70023367  0.75000100  1
  Tl  Tl6  1  0.29976533  0.14988316  0.75000100  1
  Tl  Tl7  1  0.85011884  0.14988316  0.75000100  1
