# generated using pymatgen
data_EuInNi5
_symmetry_space_group_name_H-M   'P 1'
_cell_length_a   4.89178528
_cell_length_b   4.89178591
_cell_length_c   10.29146522
_cell_angle_alpha   103.74860717
_cell_angle_beta   76.25139250
_cell_angle_gamma   120.00000267
_symmetry_Int_Tables_number   1
_chemical_formula_structural   EuInNi5
_chemical_formula_sum   'Eu2 In2 Ni10'
_cell_volume   205.08810371
_cell_formula_units_Z   2
loop_
 _symmetry_equiv_pos_site_id
 _symmetry_equiv_pos_as_xyz
  1  'x, y, z'
loop_
 _atom_site_type_symbol
 _atom_site_label
 _atom_site_symmetry_multiplicity
 _atom_site_fract_x
 _atom_site_fract_y
 _atom_site_fract_z
 _atom_site_occupancy
  Eu  Eu0  1  -0.00000000  -0.00000000  -0.00000000  1
  Eu  Eu1  1  0.50000000  0.50000000  0.50000000  1
  In  In2  1  0.88937614  0.11062386  0.33187259  1
  In  In3  1  0.11062486  0.88937614  0.66812741  1
  Ni  Ni4  1  0.66617118  0.33382882  0.00148647  1
  Ni  Ni5  1  0.43308997  0.06930481  0.20312588  1
  Ni  Ni6  1  0.43308897  0.56691103  0.20312588  1
  Ni  Ni7  1  0.93069519  0.56691103  0.20312588  1
  Ni  Ni8  1  0.19903858  0.80096242  0.40288626  1
  Ni  Ni9  1  0.80096242  0.19903758  0.59711374  1
  Ni  Ni10  1  0.06930481  0.43308997  0.79687312  1
  Ni  Ni11  1  0.56691103  0.43308997  0.79687312  1
  Ni  Ni12  1  0.56691103  0.93069519  0.79687312  1
  Ni  Ni13  1  0.33382882  0.66617118  0.99851353  1
