# generated using pymatgen
data_LiCu2(C2O5)2
_symmetry_space_group_name_H-M   'P 1'
_cell_length_a   7.01124702
_cell_length_b   7.01124662
_cell_length_c   9.95802945
_cell_angle_alpha   72.14173481
_cell_angle_beta   107.85826427
_cell_angle_gamma   91.22392079
_symmetry_Int_Tables_number   1
_chemical_formula_structural   LiCu2(C2O5)2
_chemical_formula_sum   'Li2 Cu4 C8 O20'
_cell_volume   442.04818040
_cell_formula_units_Z   2
loop_
 _symmetry_equiv_pos_site_id
 _symmetry_equiv_pos_as_xyz
  1  'x, y, z'
loop_
 _atom_site_type_symbol
 _atom_site_label
 _atom_site_symmetry_multiplicity
 _atom_site_fract_x
 _atom_site_fract_y
 _atom_site_fract_z
 _atom_site_occupancy
  Li  Li0  1  0.63079498  0.03824927  0.86955193  1
  Li  Li1  1  0.96175073  0.36920502  0.36955193  1
  Cu  Cu2  1  0.15826625  0.14630261  0.76322341  1
  Cu  Cu3  1  0.69662434  0.69323025  0.74535175  1
  Cu  Cu4  1  0.30676975  0.30337566  0.24535175  1
  Cu  Cu5  1  0.85369739  0.84173375  0.26322341  1
  C  C6  1  0.25692248  0.41222814  0.94979151  1
  C  C7  1  0.23186322  0.79153103  0.88299704  1
  C  C8  1  0.20846897  0.76813678  0.38299704  1
  C  C9  1  0.41790335  0.25654560  0.54084884  1
  C  C10  1  0.58777186  0.74307752  0.44979151  1
  C  C11  1  0.78655738  0.22654343  0.62018514  1
  C  C12  1  0.77345657  0.21344262  0.12018514  1
  C  C13  1  0.74345440  0.58209665  0.04084884  1
  O  O14  1  0.12667722  0.84013239  0.74863669  1
  O  O15  1  0.20263419  0.40522718  0.82020140  1
  O  O16  1  0.30474869  0.92464826  0.94474331  1
  O  O17  1  0.07535174  0.69525131  0.44474331  1
  O  O18  1  0.26820951  0.31248420  0.42060708  1
  O  O19  1  0.15986761  0.87332278  0.24863669  1
  O  O20  1  0.41220816  0.19212015  0.66979602  1
  O  O21  1  0.40085496  0.72574770  0.47980320  1
  O  O22  1  0.68751580  0.73179049  0.92060708  1
  O  O23  1  0.72267182  0.39982639  0.00891551  1
  O  O24  1  0.27425230  0.59914504  0.97980320  1
  O  O25  1  0.30824247  0.26754458  0.07018910  1
  O  O26  1  0.60017361  0.27732818  0.50891551  1
  O  O27  1  0.59477282  0.79736581  0.32020140  1
  O  O28  1  0.80548287  0.14430843  0.75367601  1
  O  O29  1  0.73245542  0.69175753  0.57018910  1
  O  O30  1  0.93228338  0.27050968  0.56797805  1
  O  O31  1  0.72949032  0.06771662  0.06797805  1
  O  O32  1  0.80787985  0.58779184  0.16979602  1
  O  O33  1  0.85569157  0.19451713  0.25367601  1
