# generated using pymatgen
data_PdAuO2
_symmetry_space_group_name_H-M   'P 1'
_cell_length_a   3.09384743
_cell_length_b   6.30874201
_cell_length_c   6.48940759
_cell_angle_alpha   107.84504173
_cell_angle_beta   103.79075195
_cell_angle_gamma   89.99998912
_symmetry_Int_Tables_number   1
_chemical_formula_structural   PdAuO2
_chemical_formula_sum   'Pd2 Au2 O4'
_cell_volume   116.72645755
_cell_formula_units_Z   2
loop_
 _symmetry_equiv_pos_site_id
 _symmetry_equiv_pos_as_xyz
  1  'x, y, z'
loop_
 _atom_site_type_symbol
 _atom_site_label
 _atom_site_symmetry_multiplicity
 _atom_site_fract_x
 _atom_site_fract_y
 _atom_site_fract_z
 _atom_site_occupancy
  Pd  Pd0  1  -0.00000000  0.50000000  -0.00000000  1
  Pd  Pd1  1  0.50000000  0.00000000  -0.00000000  1
  Au  Au2  1  0.26515684  0.21064973  0.53031368  1
  Au  Au3  1  0.73484316  0.78935027  0.46968632  1
  O  O4  1  0.56136911  0.72220631  0.12273823  1
  O  O5  1  0.90160569  0.83212116  0.80321139  1
  O  O6  1  0.09839431  0.16787884  0.19678861  1
  O  O7  1  0.43863089  0.27779369  0.87726177  1
