# generated using pymatgen
data_Sr4Li2B12O23
_symmetry_space_group_name_H-M   'P 1'
_cell_length_a   6.53248447
_cell_length_b   8.62523381
_cell_length_c   15.50294916
_cell_angle_alpha   90.00000000
_cell_angle_beta   102.11941558
_cell_angle_gamma   90.00000000
_symmetry_Int_Tables_number   1
_chemical_formula_structural   Sr4Li2B12O23
_chemical_formula_sum   'Sr8 Li4 B24 O46'
_cell_volume   854.03289078
_cell_formula_units_Z   2
loop_
 _symmetry_equiv_pos_site_id
 _symmetry_equiv_pos_as_xyz
  1  'x, y, z'
loop_
 _atom_site_type_symbol
 _atom_site_label
 _atom_site_symmetry_multiplicity
 _atom_site_fract_x
 _atom_site_fract_y
 _atom_site_fract_z
 _atom_site_occupancy
  Sr  Sr0  1  0.03027961  0.17601395  0.22735648  1
  Sr  Sr1  1  0.96972039  0.67601395  0.27264352  1
  Sr  Sr2  1  0.96972039  0.82398605  0.77264352  1
  Sr  Sr3  1  0.03027961  0.32398605  0.72735648  1
  Sr  Sr4  1  0.60934800  0.01571410  0.38611670  1
  Sr  Sr5  1  0.39065200  0.51571410  0.11388330  1
  Sr  Sr6  1  0.39065200  0.98428590  0.61388330  1
  Sr  Sr7  1  0.60934800  0.48428590  0.88611670  1
  Li  Li8  1  0.65834334  0.19552042  0.02458878  1
  Li  Li9  1  0.34165666  0.69552042  0.47541122  1
  Li  Li10  1  0.34165666  0.80447958  0.97541122  1
  Li  Li11  1  0.65834334  0.30447958  0.52458878  1
  B  B12  1  0.93585487  0.34551533  0.42200663  1
  B  B13  1  0.06414513  0.84551533  0.07799337  1
  B  B14  1  0.06414513  0.65448467  0.57799337  1
  B  B15  1  0.93585487  0.15448467  0.92200663  1
  B  B16  1  0.24785025  0.16944057  0.03780493  1
  B  B17  1  0.75214975  0.66944057  0.46219507  1
  B  B18  1  0.75214975  0.83055943  0.96219507  1
  B  B19  1  0.24785025  0.33055943  0.53780493  1
  B  B20  1  0.52290239  0.11972961  0.18308605  1
  B  B21  1  0.47709761  0.61972961  0.31691395  1
  B  B22  1  0.47709761  0.88027039  0.81691395  1
  B  B23  1  0.52290239  0.38027039  0.68308605  1
  B  B24  1  0.28525441  0.39783598  0.38187027  1
  B  B25  1  0.71474559  0.89783598  0.11812973  1
  B  B26  1  0.71474559  0.60216402  0.61812973  1
  B  B27  1  0.28525441  0.10216402  0.88187027  1
  B  B28  1  0.57450395  0.33713750  0.30714204  1
  B  B29  1  0.42549605  0.83713750  0.19285796  1
  B  B30  1  0.42549605  0.66286250  0.69285796  1
  B  B31  1  0.57450395  0.16286250  0.80714204  1
  B  B32  1  0.09686837  0.96099990  0.42723488  1
  B  B33  1  0.90313163  0.46099990  0.07276512  1
  B  B34  1  0.90313163  0.03900010  0.57276512  1
  B  B35  1  0.09686837  0.53900010  0.92723488  1
  O  O36  1  0.67131898  0.06182579  0.13096196  1
  O  O37  1  0.32868102  0.56182579  0.36903804  1
  O  O38  1  0.32868102  0.93817421  0.86903804  1
  O  O39  1  0.67131898  0.43817421  0.63096196  1
  O  O40  1  0.02304872  0.47099186  0.15596380  1
  O  O41  1  0.97695128  0.97099186  0.34403620  1
  O  O42  1  0.97695128  0.52900814  0.84403620  1
  O  O43  1  0.02304872  0.02900814  0.65596380  1
  O  O44  1  0.72560167  0.32203116  0.40067906  1
  O  O45  1  0.27439833  0.82203116  0.09932094  1
  O  O46  1  0.27439833  0.67796884  0.59932094  1
  O  O47  1  0.72560167  0.17796884  0.90067906  1
  O  O48  1  0.02880195  0.16470694  0.01262483  1
  O  O49  1  0.97119805  0.66470694  0.48737517  1
  O  O50  1  0.97119805  0.83529306  0.98737517  1
  O  O51  1  0.02880195  0.33529306  0.51262483  1
  O  O52  1  0.37033662  0.29290838  0.32515736  1
  O  O53  1  0.62966338  0.79290838  0.17484264  1
  O  O54  1  0.62966338  0.70709162  0.67484264  1
  O  O55  1  0.37033662  0.20709162  0.82515736  1
  O  O56  1  0.30257571  0.91655815  0.44891096  1
  O  O57  1  0.69742429  0.41655815  0.05108904  1
  O  O58  1  0.69742429  0.08344185  0.55108904  1
  O  O59  1  0.30257571  0.58344185  0.94891096  1
  O  O60  1  0.36508550  0.14663531  0.97628012  1
  O  O61  1  0.63491450  0.64663531  0.52371988  1
  O  O62  1  0.63491450  0.85336469  0.02371988  1
  O  O63  1  0.36508550  0.35336469  0.47628012  1
  O  O64  1  0.64277099  0.22603468  0.24879047  1
  O  O65  1  0.35722901  0.72603468  0.25120953  1
  O  O66  1  0.35722901  0.77396532  0.75120953  1
  O  O67  1  0.64277099  0.27396532  0.74879047  1
  O  O68  1  0.42283416  0.99577259  0.22453869  1
  O  O69  1  0.57716584  0.49577259  0.27546131  1
  O  O70  1  0.57716584  0.00422741  0.77546131  1
  O  O71  1  0.42283416  0.50422741  0.72453869  1
  O  O72  1  0.00000000  -0.00000000  0.50000000  1
  O  O73  1  0.00000000  0.50000000  -0.00000000  1
  O  O74  1  0.33640813  0.20743086  0.12365608  1
  O  O75  1  0.66359187  0.70743086  0.37634392  1
  O  O76  1  0.66359187  0.79256914  0.87634392  1
  O  O77  1  0.33640813  0.29256914  0.62365608  1
  O  O78  1  0.05103706  0.37709173  0.35998559  1
  O  O79  1  0.94896294  0.87709173  0.14001441  1
  O  O80  1  0.94896294  0.62290827  0.64001441  1
  O  O81  1  0.05103706  0.12290827  0.85998559  1
