# generated using pymatgen
data_Li4VCr2Ni3(PO4)6
_symmetry_space_group_name_H-M   'P 1'
_cell_length_a   8.39312903
_cell_length_b   8.81769862
_cell_length_c   8.82449583
_cell_angle_alpha   60.03854245
_cell_angle_beta   60.06088709
_cell_angle_gamma   59.15768053
_symmetry_Int_Tables_number   1
_chemical_formula_structural   Li4VCr2Ni3(PO4)6
_chemical_formula_sum   'Li4 V1 Cr2 Ni3 P6 O24'
_cell_volume   459.12904613
_cell_formula_units_Z   1
loop_
 _symmetry_equiv_pos_site_id
 _symmetry_equiv_pos_as_xyz
  1  'x, y, z'
loop_
 _atom_site_type_symbol
 _atom_site_label
 _atom_site_symmetry_multiplicity
 _atom_site_fract_x
 _atom_site_fract_y
 _atom_site_fract_z
 _atom_site_occupancy
  Li  Li0  1  0.24988791  0.85044975  0.64408280  1
  Li  Li1  1  0.78144749  0.15142054  0.35204419  1
  Li  Li2  1  0.77896125  0.71289137  0.15140789  1
  Li  Li3  1  0.80053518  0.35678834  0.69896672  1
  V  V4  1  0.55572478  0.15017235  0.14720390  1
  Cr  Cr5  1  0.00996317  0.00304690  0.99682621  1
  Cr  Cr6  1  0.49331938  0.49842173  0.50083697  1
  Ni  Ni7  1  0.06355778  0.64412079  0.64972569  1
  Ni  Ni8  1  0.43699920  0.85209613  0.85364288  1
  Ni  Ni9  1  0.94627050  0.35121797  0.34751278  1
  P  P10  1  0.24965567  0.25629822  0.55081573  1
  P  P11  1  0.24140493  0.95252842  0.24922276  1
  P  P12  1  0.23636639  0.55804046  0.95596602  1
  P  P13  1  0.75670247  0.45055575  0.03970108  1
  P  P14  1  0.76399492  0.04054037  0.74970931  1
  P  P15  1  0.72589072  0.75409888  0.46215813  1
  O  O16  1  0.04973350  0.10255682  0.31670270  1
  O  O17  1  0.04557874  0.53278893  0.10601210  1
  O  O18  1  0.05812100  0.32769995  0.51509870  1
  O  O19  1  0.22618148  0.09382396  0.74209619  1
  O  O20  1  0.43193604  0.18820700  0.39531582  1
  O  O21  1  0.27832134  0.40919800  0.56488225  1
  O  O22  1  0.22064705  0.92594310  0.09886019  1
  O  O23  1  0.28036310  0.76395012  0.41137964  1
  O  O24  1  0.57178010  0.59807375  0.99866338  1
  O  O25  1  0.27196974  0.57297073  0.75855828  1
  O  O26  1  0.77738708  0.23929415  0.08341744  1
  O  O27  1  0.59453752  0.98039791  0.82201034  1
  O  O28  1  0.42067763  0.00870067  0.17191657  1
  O  O29  1  0.21340656  0.75989998  0.92655403  1
  O  O30  1  0.73295992  0.43669852  0.23601255  1
  O  O31  1  0.41805932  0.39725056  0.00491861  1
  O  O32  1  0.72811024  0.23892938  0.59181116  1
  O  O33  1  0.77887699  0.08384923  0.89947049  1
  O  O34  1  0.71999255  0.58872212  0.43864985  1
  O  O35  1  0.52717497  0.81844939  0.60228431  1
  O  O36  1  0.75690441  0.90096444  0.25502313  1
  O  O37  1  0.89796462  0.70457438  0.51141906  1
  O  O38  1  0.94477786  0.47080296  0.88740218  1
  O  O39  1  0.96385654  0.89656597  0.68871598  1
