# generated using pymatgen
data_BaCaP2O7
_symmetry_space_group_name_H-M   'P 1'
_cell_length_a   12.23308691
_cell_length_b   10.74102418
_cell_length_c   9.66249965
_cell_angle_alpha   90.00000000
_cell_angle_beta   94.80179267
_cell_angle_gamma   90.00000000
_symmetry_Int_Tables_number   1
_chemical_formula_structural   BaCaP2O7
_chemical_formula_sum   'Ba8 Ca8 P16 O56'
_cell_volume   1265.15663281
_cell_formula_units_Z   8
loop_
 _symmetry_equiv_pos_site_id
 _symmetry_equiv_pos_as_xyz
  1  'x, y, z'
loop_
 _atom_site_type_symbol
 _atom_site_label
 _atom_site_symmetry_multiplicity
 _atom_site_fract_x
 _atom_site_fract_y
 _atom_site_fract_z
 _atom_site_occupancy
  Ba  Ba0  1  0.34332662  0.19282075  0.40840694  1
  Ba  Ba1  1  0.65667338  0.69282075  0.09159306  1
  Ba  Ba2  1  0.65667338  0.80717925  0.59159306  1
  Ba  Ba3  1  0.34332662  0.30717925  0.90840694  1
  Ba  Ba4  1  0.08406682  0.48561277  0.22352795  1
  Ba  Ba5  1  0.91593318  0.98561277  0.27647205  1
  Ba  Ba6  1  0.91593318  0.51438723  0.77647205  1
  Ba  Ba7  1  0.08406682  0.01438723  0.72352795  1
  Ca  Ca8  1  0.21776590  0.84705630  0.32773928  1
  Ca  Ca9  1  0.78223410  0.34705630  0.17226072  1
  Ca  Ca10  1  0.78223410  0.15294370  0.67226072  1
  Ca  Ca11  1  0.21776590  0.65294370  0.82773928  1
  Ca  Ca12  1  0.65213498  0.42321908  0.51028204  1
  Ca  Ca13  1  0.34786502  0.92321908  0.98971796  1
  Ca  Ca14  1  0.34786502  0.57678092  0.48971796  1
  Ca  Ca15  1  0.65213498  0.07678092  0.01028204  1
  P  P16  1  0.50264096  0.90807266  0.25569464  1
  P  P17  1  0.49735904  0.40807266  0.24430536  1
  P  P18  1  0.49735904  0.09192734  0.74430536  1
  P  P19  1  0.50264096  0.59192734  0.75569464  1
  P  P20  1  0.65650796  0.10459457  0.38291048  1
  P  P21  1  0.34349204  0.60459457  0.11708952  1
  P  P22  1  0.34349204  0.89540543  0.61708952  1
  P  P23  1  0.65650796  0.39540543  0.88291048  1
  P  P24  1  0.15872622  0.13844436  0.11306301  1
  P  P25  1  0.84127378  0.63844436  0.38693699  1
  P  P26  1  0.84127378  0.86155564  0.88693699  1
  P  P27  1  0.15872622  0.36155564  0.61306301  1
  P  P28  1  0.93906513  0.22859633  0.97154088  1
  P  P29  1  0.06093487  0.72859633  0.52845912  1
  P  P30  1  0.06093487  0.77140367  0.02845912  1
  P  P31  1  0.93906513  0.27140367  0.47154088  1
  O  O32  1  0.55041716  0.79258987  0.32771841  1
  O  O33  1  0.44958284  0.29258987  0.17228159  1
  O  O34  1  0.44958284  0.20741013  0.67228159  1
  O  O35  1  0.55041716  0.70741013  0.82771841  1
  O  O36  1  0.37744072  0.92530722  0.24214302  1
  O  O37  1  0.62255928  0.42530722  0.25785698  1
  O  O38  1  0.62255928  0.07469278  0.75785698  1
  O  O39  1  0.37744072  0.57469278  0.74214302  1
  O  O40  1  0.54584304  0.92503132  0.11141117  1
  O  O41  1  0.45415696  0.42503132  0.38858883  1
  O  O42  1  0.45415696  0.07496868  0.88858883  1
  O  O43  1  0.54584304  0.57496868  0.61141117  1
  O  O44  1  0.54030458  0.03042697  0.34985664  1
  O  O45  1  0.45969542  0.53042697  0.15014336  1
  O  O46  1  0.45969542  0.96957303  0.65014336  1
  O  O47  1  0.54030458  0.46957303  0.84985664  1
  O  O48  1  0.62155953  0.21424109  0.46757410  1
  O  O49  1  0.37844047  0.71424109  0.03242590  1
  O  O50  1  0.37844047  0.78575891  0.53242590  1
  O  O51  1  0.62155953  0.28575891  0.96757410  1
  O  O52  1  0.70368001  0.13601544  0.24435302  1
  O  O53  1  0.29631999  0.63601544  0.25564698  1
  O  O54  1  0.29631999  0.86398456  0.75564698  1
  O  O55  1  0.70368001  0.36398456  0.74435302  1
  O  O56  1  0.73498708  0.01803982  0.47019978  1
  O  O57  1  0.26501292  0.51803982  0.02980022  1
  O  O58  1  0.26501292  0.98196018  0.52980022  1
  O  O59  1  0.73498708  0.48196018  0.97019978  1
  O  O60  1  0.22479874  0.09781393  0.99094793  1
  O  O61  1  0.77520126  0.59781393  0.50905207  1
  O  O62  1  0.77520126  0.90218607  0.00905207  1
  O  O63  1  0.22479874  0.40218607  0.49094793  1
  O  O64  1  0.19055551  0.26950555  0.16216799  1
  O  O65  1  0.80944449  0.76950555  0.33783201  1
  O  O66  1  0.80944449  0.73049445  0.83783201  1
  O  O67  1  0.19055551  0.23049445  0.66216799  1
  O  O68  1  0.15957180  0.04491526  0.23278930  1
  O  O69  1  0.84042820  0.54491526  0.26721070  1
  O  O70  1  0.84042820  0.95508474  0.76721070  1
  O  O71  1  0.15957180  0.45508474  0.73278930  1
  O  O72  1  0.03023519  0.13547981  0.04906695  1
  O  O73  1  0.96976481  0.63547981  0.45093305  1
  O  O74  1  0.96976481  0.86452019  0.95093305  1
  O  O75  1  0.03023519  0.36452019  0.54906695  1
  O  O76  1  0.94634428  0.21519569  0.81486597  1
  O  O77  1  0.05365572  0.71519569  0.68513403  1
  O  O78  1  0.05365572  0.78480431  0.18513403  1
  O  O79  1  0.94634428  0.28480431  0.31486597  1
  O  O80  1  0.83196862  0.17760688  0.02118383  1
  O  O81  1  0.16803138  0.67760688  0.47881617  1
  O  O82  1  0.16803138  0.82239312  0.97881617  1
  O  O83  1  0.83196862  0.32239312  0.52118383  1
  O  O84  1  0.95921340  0.36277490  0.02138132  1
  O  O85  1  0.04078660  0.86277490  0.47861868  1
  O  O86  1  0.04078660  0.63722510  0.97861868  1
  O  O87  1  0.95921340  0.13722510  0.52138132  1
