# generated using pymatgen
data_Ba2B10O17
_symmetry_space_group_name_H-M   'P 1'
_cell_length_a   6.81994070
_cell_length_b   10.12965545
_cell_length_c   10.20553674
_cell_angle_alpha   75.98401667
_cell_angle_beta   82.99760252
_cell_angle_gamma   72.62238722
_symmetry_Int_Tables_number   1
_chemical_formula_structural   Ba2B10O17
_chemical_formula_sum   'Ba4 B20 O34'
_cell_volume   651.88735251
_cell_formula_units_Z   2
loop_
 _symmetry_equiv_pos_site_id
 _symmetry_equiv_pos_as_xyz
  1  'x, y, z'
loop_
 _atom_site_type_symbol
 _atom_site_label
 _atom_site_symmetry_multiplicity
 _atom_site_fract_x
 _atom_site_fract_y
 _atom_site_fract_z
 _atom_site_occupancy
  Ba  Ba0  1  0.74920946  0.01947688  0.77934401  1
  Ba  Ba1  1  0.25079054  0.98052312  0.22065599  1
  Ba  Ba2  1  0.73244719  0.47731759  0.70101671  1
  Ba  Ba3  1  0.26755281  0.52268241  0.29898329  1
  B  B4  1  0.77758318  0.79996105  0.12824640  1
  B  B5  1  0.22241682  0.20003895  0.87175360  1
  B  B6  1  0.98923294  0.73365643  0.51484760  1
  B  B7  1  0.01076706  0.26634357  0.48515240  1
  B  B8  1  0.29304327  0.29279855  0.61737127  1
  B  B9  1  0.70695673  0.70720145  0.38262873  1
  B  B10  1  0.51791957  0.76745749  0.97497819  1
  B  B11  1  0.48208043  0.23254251  0.02502181  1
  B  B12  1  0.14856104  0.75477356  0.02383234  1
  B  B13  1  0.85143896  0.24522644  0.97616766  1
  B  B14  1  0.73569650  0.50318959  0.02991288  1
  B  B15  1  0.26430350  0.49681041  0.97008712  1
  B  B16  1  0.76339223  0.99574426  0.45321507  1
  B  B17  1  0.23660777  0.00425574  0.54678493  1
  B  B18  1  0.19617710  0.61339757  0.71786589  1
  B  B19  1  0.80382290  0.38660243  0.28213411  1
  B  B20  1  0.64422437  0.25219149  0.48347348  1
  B  B21  1  0.35577563  0.74780851  0.51652652  1
  B  B22  1  0.25747796  0.88885960  0.80216311  1
  B  B23  1  0.74252204  0.11114040  0.19783689  1
  O  O24  1  0.62371317  0.62505145  0.94986548  1
  O  O25  1  0.37628683  0.37494855  0.05013452  1
  O  O26  1  0.83602704  0.39589379  0.96528902  1
  O  O27  1  0.16397296  0.60410621  0.03471098  1
  O  O28  1  0.66310024  0.23008046  0.92966883  1
  O  O29  1  0.33689976  0.76991954  0.07033117  1
  O  O30  1  0.34343799  0.68159416  0.66257201  1
  O  O31  1  0.65656201  0.31840584  0.33742799  1
  O  O32  1  0.02075565  0.63538483  0.65361570  1
  O  O33  1  0.97924435  0.36461517  0.34638430  1
  O  O34  1  0.63551581  0.10324932  0.50973836  1
  O  O35  1  0.36448419  0.89675068  0.49026164  1
  O  O36  1  0.45234825  0.86350197  0.83999518  1
  O  O37  1  0.54765175  0.13649803  0.16000482  1
  O  O38  1  0.81324952  0.25807743  0.55437236  1
  O  O39  1  0.18675048  0.74192257  0.44562764  1
  O  O40  1  0.84910210  0.86990411  0.53944093  1
  O  O41  1  0.15089790  0.13009589  0.46055907  1
  O  O42  1  0.33841669  0.21955230  0.74852689  1
  O  O43  1  0.66158331  0.78044770  0.25147311  1
  O  O44  1  0.18329181  0.98489681  0.68383114  1
  O  O45  1  0.81670819  0.01510319  0.31616886  1
  O  O46  1  0.02138192  0.19869193  0.87564873  1
  O  O47  1  0.97861808  0.80130807  0.12435127  1
  O  O48  1  0.10820945  0.83860106  0.88485124  1
  O  O49  1  0.89179055  0.16139894  0.11514876  1
  O  O50  1  0.24609493  0.50740088  0.83369411  1
  O  O51  1  0.75390507  0.49259912  0.16630589  1
  O  O52  1  0.67135708  0.82831270  0.01424331  1
  O  O53  1  0.32864292  0.17168730  0.98575669  1
  O  O54  1  0.10108255  0.33214199  0.56895658  1
  O  O55  1  0.89891745  0.66785801  0.43104342  1
  O  O56  1  0.55313656  0.66239167  0.46375662  1
  O  O57  1  0.44686344  0.33760833  0.53624338  1
