# generated using pymatgen
data_Na2ZnB6O11
_symmetry_space_group_name_H-M   'P 1'
_cell_length_a   6.60915391
_cell_length_b   6.60915391
_cell_length_c   11.45004829
_cell_angle_alpha   96.21664130
_cell_angle_beta   105.17243574
_cell_angle_gamma   111.03694752
_symmetry_Int_Tables_number   1
_chemical_formula_structural   Na2ZnB6O11
_chemical_formula_sum   'Na4 Zn2 B12 O22'
_cell_volume   439.04009475
_cell_formula_units_Z   2
loop_
 _symmetry_equiv_pos_site_id
 _symmetry_equiv_pos_as_xyz
  1  'x, y, z'
loop_
 _atom_site_type_symbol
 _atom_site_label
 _atom_site_symmetry_multiplicity
 _atom_site_fract_x
 _atom_site_fract_y
 _atom_site_fract_z
 _atom_site_occupancy
  Na  Na0  1  0.27276883  0.45152309  0.90169378  1
  Na  Na1  1  0.95017069  0.62892495  0.40169378  1
  Na  Na2  1  0.66939009  0.33938482  0.83290124  1
  Na  Na3  1  0.99351642  0.16351215  0.33290124  1
  Zn  Zn4  1  0.35488002  0.02603075  0.11727215  1
  Zn  Zn5  1  0.59124140  0.76239213  0.61727215  1
  B  B6  1  0.91470994  0.15405243  0.02138503  1
  B  B7  1  0.36733261  0.10667509  0.52138503  1
  B  B8  1  0.35373631  0.60018715  0.35511671  1
  B  B9  1  0.25492956  0.00138040  0.85511671  1
  B  B10  1  0.14678353  0.56950647  0.13300598  1
  B  B11  1  0.06349951  0.98622245  0.63300598  1
  B  B12  1  0.88267333  0.80667113  0.10294187  1
  B  B13  1  0.79627073  0.22026854  0.60294187  1
  B  B14  1  0.59036513  0.18593254  0.38025377  1
  B  B15  1  0.69432124  0.78988864  0.88025377  1
  B  B16  1  0.57597246  0.68305878  0.21356063  1
  B  B17  1  0.03050085  0.63758717  0.71356063  1
  O  O18  1  0.96934463  0.05589805  0.11748298  1
  O  O19  1  0.56158493  0.14813835  0.61748298  1
  O  O20  1  0.15220793  0.52138629  0.25594428  1
  O  O21  1  0.23455699  0.10373535  0.75594428  1
  O  O22  1  0.98766968  0.37802146  0.02976116  1
  O  O23  1  0.15173970  0.04209148  0.52976116  1
  O  O24  1  0.56520324  0.66426428  0.33289202  1
  O  O25  1  0.16862774  0.76768878  0.83289202  1
  O  O26  1  0.77978029  0.02354829  0.90180944  1
  O  O27  1  0.37826116  0.12202915  0.40180944  1
  O  O28  1  0.09161475  0.76449630  0.11882950  1
  O  O29  1  0.85433320  0.02721475  0.61882950  1
  O  O30  1  0.36244713  0.13270106  0.97049599  1
  O  O31  1  0.33779493  0.60804986  0.47049599  1
  O  O32  1  0.38084631  0.63927706  0.11755328  1
  O  O33  1  0.97827622  0.73670697  0.61755328  1
  O  O34  1  0.79211389  0.75196284  0.20568991  1
  O  O35  1  0.95372807  0.41357603  0.70568991  1
  O  O36  1  0.60747140  0.17557708  0.26508174  1
  O  O37  1  0.58950466  0.65761134  0.76508174  1
  O  O38  1  0.71279100  0.68862901  0.97990956  1
  O  O39  1  0.79128055  0.26711856  0.47990956  1
