# generated using pymatgen
data_LiGe2(PO4)3
_symmetry_space_group_name_H-M   'P 1'
_cell_length_a   8.35286581
_cell_length_b   8.35286581
_cell_length_c   8.45855756
_cell_angle_alpha   60.41248496
_cell_angle_beta   60.41248493
_cell_angle_gamma   59.99999770
_symmetry_Int_Tables_number   1
_chemical_formula_structural   LiGe2(PO4)3
_chemical_formula_sum   'Li2 Ge4 P6 O24'
_cell_volume   419.88664404
_cell_formula_units_Z   2
loop_
 _symmetry_equiv_pos_site_id
 _symmetry_equiv_pos_as_xyz
  1  'x, y, z'
loop_
 _atom_site_type_symbol
 _atom_site_label
 _atom_site_symmetry_multiplicity
 _atom_site_fract_x
 _atom_site_fract_y
 _atom_site_fract_z
 _atom_site_occupancy
  Li  Li0  1  0.00000000  -0.00000000  -0.00000000  1
  Li  Li1  1  0.50000000  0.50000000  0.50000000  1
  Ge  Ge2  1  0.35788090  0.35788090  0.92635831  1
  Ge  Ge3  1  0.64211910  0.64211910  0.07364169  1
  Ge  Ge4  1  0.14137276  0.14137276  0.57588173  1
  Ge  Ge5  1  0.85862724  0.85862724  0.42411827  1
  P  P6  1  0.03769061  0.46172802  0.75001801  1
  P  P7  1  0.46172802  0.75056336  0.75001801  1
  P  P8  1  0.75056336  0.03769061  0.75001801  1
  P  P9  1  0.96230939  0.53827198  0.24998199  1
  P  P10  1  0.53827198  0.24943664  0.24998199  1
  P  P11  1  0.24943664  0.96230939  0.24998199  1
  O  O12  1  0.22224093  0.46512325  0.74977842  1
  O  O13  1  0.46512325  0.56285740  0.74977842  1
  O  O14  1  0.56285640  0.22224193  0.74977842  1
  O  O15  1  0.77775907  0.53487675  0.25022158  1
  O  O16  1  0.53487675  0.43714260  0.25022158  1
  O  O17  1  0.43714360  0.77775807  0.25022158  1
  O  O18  1  0.08016164  0.25769051  0.75245994  1
  O  O19  1  0.25769151  0.90968691  0.75245994  1
  O  O20  1  0.90968691  0.08016164  0.75245994  1
  O  O21  1  0.91983836  0.74230949  0.24754006  1
  O  O22  1  0.74230849  0.09031309  0.24754006  1
  O  O23  1  0.09031309  0.91983836  0.24754006  1
  O  O24  1  0.85919582  0.48435762  0.93153151  1
  O  O25  1  0.48435762  0.72491405  0.93153151  1
  O  O26  1  0.72491405  0.85919582  0.93153151  1
  O  O27  1  0.14080418  0.51564238  0.06846849  1
  O  O28  1  0.51564238  0.27508595  0.06846849  1
  O  O29  1  0.27508595  0.14080418  0.06846849  1
  O  O30  1  0.00457318  0.62415391  0.56384476  1
  O  O31  1  0.62415391  0.80742815  0.56384476  1
  O  O32  1  0.80742815  0.00457318  0.56384476  1
  O  O33  1  -0.00457318  0.37584609  0.43615524  1
  O  O34  1  0.37584609  0.19257185  0.43615524  1
  O  O35  1  0.19257185  -0.00457318  0.43615524  1
