# generated using pymatgen
data_MgTiCr(PO4)3
_symmetry_space_group_name_H-M   'P 1'
_cell_length_a   8.53409894
_cell_length_b   8.53409900
_cell_length_c   8.53409870
_cell_angle_alpha   60.48602609
_cell_angle_beta   60.48602641
_cell_angle_gamma   60.48603159
_symmetry_Int_Tables_number   1
_chemical_formula_structural   MgTiCr(PO4)3
_chemical_formula_sum   'Mg2 Ti2 Cr2 P6 O24'
_cell_volume   444.32710181
_cell_formula_units_Z   2
loop_
 _symmetry_equiv_pos_site_id
 _symmetry_equiv_pos_as_xyz
  1  'x, y, z'
loop_
 _atom_site_type_symbol
 _atom_site_label
 _atom_site_symmetry_multiplicity
 _atom_site_fract_x
 _atom_site_fract_y
 _atom_site_fract_z
 _atom_site_occupancy
  Mg  Mg0  1  0.99848482  0.99848482  0.99848482  1
  Mg  Mg1  1  0.49848482  0.49848482  0.49848482  1
  Ti  Ti2  1  0.14433315  0.14433315  0.14433315  1
  Ti  Ti3  1  0.64433315  0.64433315  0.64433315  1
  Cr  Cr4  1  0.35775749  0.35775749  0.35775749  1
  Cr  Cr5  1  0.85775749  0.85775749  0.85775749  1
  P  P6  1  0.04506534  0.45692582  0.75051320  1
  P  P7  1  0.45692582  0.75051320  0.04506534  1
  P  P8  1  0.75051320  0.04506534  0.45692582  1
  P  P9  1  0.25051320  0.95692582  0.54506534  1
  P  P10  1  0.54506534  0.25051320  0.95692582  1
  P  P11  1  0.95692582  0.54506534  0.25051320  1
  O  O12  1  0.11298845  0.50619335  0.31380017  1
  O  O13  1  0.31380017  0.11298845  0.50619335  1
  O  O14  1  0.05433848  0.25881296  0.91288430  1
  O  O15  1  0.50619335  0.31380017  0.11298845  1
  O  O16  1  0.00619335  0.61298845  0.81380017  1
  O  O17  1  0.24105066  0.43905939  0.58895955  1
  O  O18  1  0.25881296  0.91288431  0.05433848  1
  O  O19  1  0.43905939  0.58895955  0.24105066  1
  O  O20  1  0.18672469  0.00215766  0.37994850  1
  O  O21  1  0.58895955  0.24105066  0.43905939  1
  O  O22  1  0.08895955  0.93905939  0.74105066  1
  O  O23  1  0.37994850  0.18672469  0.00215766  1
  O  O24  1  0.61298845  0.81380017  0.00619335  1
  O  O25  1  0.91288430  0.05433848  0.25881296  1
  O  O26  1  0.41288431  0.75881296  0.55433848  1
  O  O27  1  0.81380017  0.00619335  0.61298845  1
  O  O28  1  0.55433848  0.41288430  0.75881296  1
  O  O29  1  0.74105066  0.08895955  0.93905939  1
  O  O30  1  0.75881296  0.55433848  0.41288430  1
  O  O31  1  0.00215766  0.37994850  0.18672469  1
  O  O32  1  0.50215766  0.68672469  0.87994850  1
  O  O33  1  0.93905939  0.74105066  0.08895955  1
  O  O34  1  0.68672469  0.87994850  0.50215766  1
  O  O35  1  0.87994850  0.50215766  0.68672469  1
