# generated using pymatgen
data_Mn3Zn2O8
_symmetry_space_group_name_H-M   'P 1'
_cell_length_a   5.85975665
_cell_length_b   5.85975641
_cell_length_c   9.38420728
_cell_angle_alpha   90.00000000
_cell_angle_beta   90.00000000
_cell_angle_gamma   120.00000141
_symmetry_Int_Tables_number   1
_chemical_formula_structural   Mn3Zn2O8
_chemical_formula_sum   'Mn6 Zn4 O16'
_cell_volume   279.05342737
_cell_formula_units_Z   2
loop_
 _symmetry_equiv_pos_site_id
 _symmetry_equiv_pos_as_xyz
  1  'x, y, z'
loop_
 _atom_site_type_symbol
 _atom_site_label
 _atom_site_symmetry_multiplicity
 _atom_site_fract_x
 _atom_site_fract_y
 _atom_site_fract_z
 _atom_site_occupancy
  Mn  Mn0  1  0.67187197  0.83593648  0.24501404  1
  Mn  Mn1  1  0.83593748  0.16406452  0.74501404  1
  Mn  Mn2  1  0.16406452  0.32812903  0.24501404  1
  Mn  Mn3  1  0.83593548  0.67187197  0.74501404  1
  Mn  Mn4  1  0.32812903  0.16406452  0.74501404  1
  Mn  Mn5  1  0.16406452  0.83593648  0.24501404  1
  Zn  Zn6  1  0.66666700  0.33333400  0.03321833  1
  Zn  Zn7  1  0.33333300  0.66666600  0.53321933  1
  Zn  Zn8  1  0.66666700  0.33333400  0.41524896  1
  Zn  Zn9  1  0.33333300  0.66666600  0.91524996  1
  O  O10  1  0.84082003  0.15918097  0.14370650  1
  O  O11  1  0.68163806  0.84082003  0.64370550  1
  O  O12  1  0.15918097  0.31836294  0.64370550  1
  O  O13  1  0.84081903  0.68163806  0.14370650  1
  O  O14  1  0.31836194  0.15918097  0.14370650  1
  O  O15  1  0.15918097  0.84082003  0.64370550  1
  O  O16  1  0.51857159  0.48142741  0.86413130  1
  O  O17  1  0.03714318  0.51857159  0.36413030  1
  O  O18  1  0.48142841  0.96285782  0.36413030  1
  O  O19  1  0.51857159  0.03714318  0.86413130  1
  O  O20  1  -0.00000000  -0.00000000  0.34971742  1
  O  O21  1  -0.00000000  -0.00000000  0.84971742  1
  O  O22  1  0.33333300  0.66666600  0.13676176  1
  O  O23  1  0.96285582  0.48142741  0.86413130  1
  O  O24  1  0.48142741  0.51857159  0.36413030  1
  O  O25  1  0.66666700  0.33333400  0.63676176  1
