# generated using pymatgen
data_MgV(PO3)4
_symmetry_space_group_name_H-M   'P 1'
_cell_length_a   7.33013749
_cell_length_b   7.33994813
_cell_length_c   9.95822340
_cell_angle_alpha   98.95875900
_cell_angle_beta   109.22654375
_cell_angle_gamma   109.91108378
_symmetry_Int_Tables_number   1
_chemical_formula_structural   MgV(PO3)4
_chemical_formula_sum   'Mg2 V2 P8 O24'
_cell_volume   453.48649332
_cell_formula_units_Z   2
loop_
 _symmetry_equiv_pos_site_id
 _symmetry_equiv_pos_as_xyz
  1  'x, y, z'
loop_
 _atom_site_type_symbol
 _atom_site_label
 _atom_site_symmetry_multiplicity
 _atom_site_fract_x
 _atom_site_fract_y
 _atom_site_fract_z
 _atom_site_occupancy
  Mg  Mg0  1  0.70614727  0.95609880  0.74990410  1
  Mg  Mg1  1  0.29160198  0.04100168  0.24927266  1
  V  V2  1  0.49933124  0.49807596  0.50002983  1
  V  V3  1  0.49916877  0.99801611  0.00042069  1
  P  P4  1  0.50902879  0.31215066  0.80646676  1
  P  P5  1  0.00695964  0.70368358  0.69272643  1
  P  P6  1  0.48869701  0.68325135  0.19340186  1
  P  P7  1  0.99216343  0.29505680  0.30682673  1
  P  P8  1  0.76814091  0.72808922  0.02059032  1
  P  P9  1  0.20798143  0.74673655  0.47764282  1
  P  P10  1  0.22932921  0.26766387  0.97902911  1
  P  P11  1  0.79156706  0.25201444  0.52197385  1
  O  O12  1  0.31957703  0.31144186  0.85403958  1
  O  O13  1  0.95912532  0.46718075  0.64682392  1
  O  O14  1  0.67783240  0.68417022  0.14549726  1
  O  O15  1  0.04033455  0.53187983  0.35226183  1
  O  O16  1  0.71856907  0.50196913  0.93280982  1
  O  O17  1  0.06810795  0.78425372  0.56467430  1
  O  O18  1  0.27886164  0.49380552  0.06681796  1
  O  O19  1  0.93221171  0.21513455  0.43544455  1
  O  O20  1  0.45852844  0.34303467  0.65774916  1
  O  O21  1  0.18765615  0.80295393  0.84072041  1
  O  O22  1  0.53979884  0.65156548  0.34183561  1
  O  O23  1  0.81063896  0.19523541  0.15922924  1
  O  O24  1  0.54697752  0.12471928  0.82500423  1
  O  O25  1  0.80088020  0.72287711  0.67512624  1
  O  O26  1  0.45093617  0.87098554  0.17559872  1
  O  O27  1  0.19782520  0.27526696  0.32391615  1
  O  O28  1  0.63703674  0.81148473  0.91608301  1
  O  O29  1  0.39592328  0.72065238  0.58267421  1
  O  O30  1  0.36046577  0.18438070  0.08365124  1
  O  O31  1  0.60339749  0.27719757  0.41642282  1
  O  O32  1  0.00180265  0.84284043  0.09622341  1
  O  O33  1  0.24747299  0.90477076  0.40220599  1
  O  O34  1  0.99571437  0.15278063  0.90358925  1
  O  O35  1  0.75243985  0.09478881  0.59814792  1
