# generated using pymatgen
data_Ba4Nd2Cd3Se10
_symmetry_space_group_name_H-M   'P 1'
_cell_length_a   4.40245775
_cell_length_b   9.84893131
_cell_length_c   28.05450140
_cell_angle_alpha   90.00000000
_cell_angle_beta   90.00000000
_cell_angle_gamma   102.91464500
_symmetry_Int_Tables_number   1
_chemical_formula_structural   Ba4Nd2Cd3Se10
_chemical_formula_sum   'Ba8 Nd4 Cd6 Se20'
_cell_volume   1185.65859088
_cell_formula_units_Z   2
loop_
 _symmetry_equiv_pos_site_id
 _symmetry_equiv_pos_as_xyz
  1  'x, y, z'
loop_
 _atom_site_type_symbol
 _atom_site_label
 _atom_site_symmetry_multiplicity
 _atom_site_fract_x
 _atom_site_fract_y
 _atom_site_fract_z
 _atom_site_occupancy
  Se  Se0  1  0.57923370  0.15846740  0.32457593  1
  Se  Se1  1  0.42076630  0.84153260  0.82457593  1
  Se  Se2  1  0.59254033  0.18508067  0.18167624  1
  Se  Se3  1  0.40745967  0.81491933  0.68167624  1
  Se  Se4  1  0.65405088  0.30810176  0.49016035  1
  Se  Se5  1  0.34594912  0.69189824  0.99016035  1
  Se  Se6  1  0.65643640  0.31287281  0.01847264  1
  Se  Se7  1  0.34356360  0.68712719  0.51847264  1
  Se  Se8  1  0.76273647  0.52547293  0.76925803  1
  Se  Se9  1  0.23726353  0.47452707  0.26925803  1
  Se  Se10  1  0.79008225  0.58016451  0.37734061  1
  Se  Se11  1  0.20991775  0.41983549  0.87734061  1
  Se  Se12  1  0.79331635  0.58663270  0.13156435  1
  Se  Se13  1  0.20668365  0.41336730  0.63156435  1
  Se  Se14  1  0.92806991  0.85613982  0.24772260  1
  Se  Se15  1  0.07193009  0.14386018  0.74772260  1
  Se  Se16  1  0.98456127  0.96912255  0.42966462  1
  Se  Se17  1  0.01543873  0.03087745  0.92966462  1
  Se  Se18  1  0.00961445  0.01922890  0.57403095  1
  Se  Se19  1  0.99038555  0.98077110  0.07403095  1
  Cd  Cd20  1  0.78532860  0.57065720  0.23142276  1
  Cd  Cd21  1  0.21467140  0.42934280  0.73142276  1
  Cd  Cd22  1  0.84432006  0.68864013  0.46130613  1
  Cd  Cd23  1  0.15567994  0.31135987  0.96130613  1
  Cd  Cd24  1  0.85178170  0.70356340  0.04515023  1
  Cd  Cd25  1  0.14821830  0.29643660  0.54515023  1
  Ba  Ba26  1  0.40576265  0.81152529  0.33893549  1
  Ba  Ba27  1  0.59423735  0.18847471  0.83893549  1
  Ba  Ba28  1  0.42489860  0.84979719  0.15758630  1
  Ba  Ba29  1  0.57510140  0.15020281  0.65758630  1
  Ba  Ba30  1  0.83410123  0.66820246  0.60962548  1
  Ba  Ba31  1  0.16589877  0.33179754  0.10962548  1
  Ba  Ba32  1  0.83443392  0.66886785  0.89216102  1
  Ba  Ba33  1  0.16556608  0.33113215  0.39216102  1
  Nd  Nd34  1  0.49704014  0.99408028  0.49967644  1
  Nd  Nd35  1  0.50295986  0.00591972  0.99967644  1
  Nd  Nd36  1  0.91751803  0.83503607  0.75379982  1
  Nd  Nd37  1  0.08248197  0.16496393  0.25379982  1
