# generated using pymatgen
data_YCo4(CuO4)3
_symmetry_space_group_name_H-M   'P 1'
_cell_length_a   6.30163322
_cell_length_b   6.30300022
_cell_length_c   6.29996007
_cell_angle_alpha   109.41749187
_cell_angle_beta   109.44231885
_cell_angle_gamma   109.47271769
_symmetry_Int_Tables_number   1
_chemical_formula_structural   YCo4(CuO4)3
_chemical_formula_sum   'Y1 Co4 Cu3 O12'
_cell_volume   192.81924187
_cell_formula_units_Z   1
loop_
 _symmetry_equiv_pos_site_id
 _symmetry_equiv_pos_as_xyz
  1  'x, y, z'
loop_
 _atom_site_type_symbol
 _atom_site_label
 _atom_site_symmetry_multiplicity
 _atom_site_fract_x
 _atom_site_fract_y
 _atom_site_fract_z
 _atom_site_occupancy
  Y  Y0  1  0.99999675  0.99999872  0.99999895  1
  Co  Co1  1  0.49999942  0.00000039  0.00000113  1
  Co  Co2  1  0.00000002  0.00000139  0.50000058  1
  Co  Co3  1  0.00000026  0.49999945  0.99999899  1
  Co  Co4  1  0.49999991  0.49999815  0.49999918  1
  Cu  Cu5  1  0.49999912  0.99999865  0.50000003  1
  Cu  Cu6  1  0.49999982  0.49999902  0.99999934  1
  Cu  Cu7  1  0.00000210  0.50000244  0.50000041  1
  O  O8  1  0.82991190  0.30561154  0.13539128  1
  O  O9  1  0.17008893  0.69438997  0.86460923  1
  O  O10  1  0.83140824  0.69698404  0.52316377  1
  O  O11  1  0.30280311  0.47686046  0.16854001  1
  O  O12  1  0.47687766  0.16836022  0.30261697  1
  O  O13  1  0.13521846  0.82969732  0.30546488  1
  O  O14  1  0.69425949  0.86463862  0.16990723  1
  O  O15  1  0.52312188  0.83163753  0.69738459  1
  O  O16  1  0.16859318  0.30301883  0.47683812  1
  O  O17  1  0.69719692  0.52313839  0.83145843  1
  O  O18  1  0.86477964  0.17030044  0.69453477  1
  O  O19  1  0.30574219  0.13536244  0.83009212  1
