# generated using pymatgen
data_Sm3CrSe6
_symmetry_space_group_name_H-M   'P 1'
_cell_length_a   4.01683566
_cell_length_b   14.18595028
_cell_length_c   16.92531394
_cell_angle_alpha   90.00000000
_cell_angle_beta   90.00000000
_cell_angle_gamma   90.00000000
_symmetry_Int_Tables_number   1
_chemical_formula_structural   Sm3CrSe6
_chemical_formula_sum   'Sm12 Cr4 Se24'
_cell_volume   964.44891805
_cell_formula_units_Z   4
loop_
 _symmetry_equiv_pos_site_id
 _symmetry_equiv_pos_as_xyz
  1  'x, y, z'
loop_
 _atom_site_type_symbol
 _atom_site_label
 _atom_site_symmetry_multiplicity
 _atom_site_fract_x
 _atom_site_fract_y
 _atom_site_fract_z
 _atom_site_occupancy
  Cr  Cr0  1  0.50000000  0.50000000  0.50000000  1
  Cr  Cr1  1  0.00000000  0.00000000  0.00000000  1
  Cr  Cr2  1  0.50000000  0.50000000  0.00000000  1
  Cr  Cr3  1  0.00000000  0.00000000  0.50000000  1
  Se  Se4  1  0.50000000  0.97593847  0.59644707  1
  Se  Se5  1  0.50000000  0.02406153  0.40355293  1
  Se  Se6  1  0.00000000  0.47593847  0.90355293  1
  Se  Se7  1  0.00000000  0.52406153  0.09644707  1
  Se  Se8  1  0.50000000  0.07833095  0.92438528  1
  Se  Se9  1  0.50000000  0.92166905  0.07561472  1
  Se  Se10  1  0.00000000  0.57833095  0.57561472  1
  Se  Se11  1  0.00000000  0.42166905  0.42438528  1
  Se  Se12  1  0.00000000  0.10126841  0.75629540  1
  Se  Se13  1  0.00000000  0.89873159  0.24370460  1
  Se  Se14  1  0.50000000  0.60126841  0.74370460  1
  Se  Se15  1  0.50000000  0.39873159  0.25629540  1
  Se  Se16  1  0.00000000  0.12247105  0.10586257  1
  Se  Se17  1  0.00000000  0.87752895  0.89413743  1
  Se  Se18  1  0.50000000  0.62247105  0.39413743  1
  Se  Se19  1  0.50000000  0.37752895  0.60586257  1
  Se  Se20  1  0.00000000  0.19087645  0.29037678  1
  Se  Se21  1  0.00000000  0.80912355  0.70962322  1
  Se  Se22  1  0.50000000  0.69087645  0.20962322  1
  Se  Se23  1  0.50000000  0.30912355  0.79037678  1
  Se  Se24  1  0.00000000  0.17858240  0.52021123  1
  Se  Se25  1  0.00000000  0.82141760  0.47978877  1
  Se  Se26  1  0.50000000  0.67858240  0.97978877  1
  Se  Se27  1  0.50000000  0.32141760  0.02021123  1
  Sm  Sm28  1  0.50000000  0.74006446  0.59493028  1
  Sm  Sm29  1  0.50000000  0.25993554  0.40506972  1
  Sm  Sm30  1  0.00000000  0.24006446  0.90506972  1
  Sm  Sm31  1  0.00000000  0.75993554  0.09493028  1
  Sm  Sm32  1  0.50000000  0.94635792  0.77859242  1
  Sm  Sm33  1  0.50000000  0.05364208  0.22140758  1
  Sm  Sm34  1  0.00000000  0.44635792  0.72140758  1
  Sm  Sm35  1  0.00000000  0.55364208  0.27859242  1
  Sm  Sm36  1  0.50000000  0.17885897  0.64848908  1
  Sm  Sm37  1  0.50000000  0.82114103  0.35151092  1
  Sm  Sm38  1  0.00000000  0.67885897  0.85151092  1
  Sm  Sm39  1  0.00000000  0.32114103  0.14848908  1
