# generated using pymatgen
data_Ba2CaMn2CuF14
_symmetry_space_group_name_H-M   'P 1'
_cell_length_a   5.48161764
_cell_length_b   7.45249945
_cell_length_c   15.10340324
_cell_angle_alpha   93.24460326
_cell_angle_beta   89.99257546
_cell_angle_gamma   111.63977140
_symmetry_Int_Tables_number   1
_chemical_formula_structural   Ba2CaMn2CuF14
_chemical_formula_sum   'Ba4 Ca2 Mn4 Cu2 F28'
_cell_volume   572.45236416
_cell_formula_units_Z   2
loop_
 _symmetry_equiv_pos_site_id
 _symmetry_equiv_pos_as_xyz
  1  'x, y, z'
loop_
 _atom_site_type_symbol
 _atom_site_label
 _atom_site_symmetry_multiplicity
 _atom_site_fract_x
 _atom_site_fract_y
 _atom_site_fract_z
 _atom_site_occupancy
  Ba  Ba0  1  0.11879719  0.37578999  0.62547214  1
  Ba  Ba1  1  0.25739105  0.37601419  0.12569509  1
  Ba  Ba2  1  0.87765246  0.62177170  0.37451767  1
  Ba  Ba3  1  0.74497951  0.62250527  0.87459759  1
  Ca  Ca4  1  0.41901125  0.99987276  0.75015519  1
  Ca  Ca5  1  0.58093276  0.99973395  0.25040867  1
  Mn  Mn6  1  0.10001129  0.24565485  0.87667327  1
  Mn  Mn7  1  0.90154142  0.75336475  0.12430626  1
  Mn  Mn8  1  0.14683370  0.24535594  0.37600164  1
  Mn  Mn9  1  0.85104599  0.75291223  0.62396174  1
  Cu  Cu10  1  0.50079687  0.99877467  0.00022229  1
  Cu  Cu11  1  0.49810003  0.99961928  0.50011518  1
  F  F12  1  0.92532357  0.99038409  0.34448240  1
  F  F13  1  0.88261425  0.28178289  0.45320443  1
  F  F14  1  0.11203179  0.71540863  0.54615736  1
  F  F15  1  0.65079038  0.49383118  0.59658236  1
  F  F16  1  0.61647317  0.10735207  0.61818440  1
  F  F17  1  0.51208012  0.89233386  0.88221951  1
  F  F18  1  0.39912614  0.28165291  0.95397241  1
  F  F19  1  0.93485195  0.00913436  0.15599032  1
  F  F20  1  0.37836368  0.32184373  0.77254838  1
  F  F21  1  0.34567557  0.50421252  0.40462954  1
  F  F22  1  0.83447470  0.24093284  0.79198812  1
  F  F23  1  0.15959608  0.50424490  0.90498548  1
  F  F24  1  0.40957597  0.24231904  0.29162078  1
  F  F25  1  0.16566733  0.75880926  0.20941623  1
  F  F26  1  0.48883182  0.10539695  0.11812621  1
  F  F27  1  0.62087333  0.67761124  0.22811907  1
  F  F28  1  0.13395564  0.82957893  0.01121595  1
  F  F29  1  0.07449536  0.00862600  0.65551142  1
  F  F30  1  0.86776281  0.16785160  0.98950627  1
  F  F31  1  0.69463198  0.83007992  0.51141154  1
  F  F32  1  0.60348783  0.71693815  0.04654824  1
  F  F33  1  0.59158285  0.75883788  0.70880430  1
  F  F34  1  0.94592139  0.32235854  0.27217506  1
  F  F35  1  0.29968852  0.16847278  0.48936185  1
  F  F36  1  0.38040662  0.89210028  0.38211690  1
  F  F37  1  0.06654711  0.99009602  0.84478746  1
  F  F38  1  0.05508586  0.67705588  0.72802833  1
  F  F39  1  0.84173064  0.49411994  0.09697196  1
