# generated using pymatgen
data_Li4NbV3Cr2(PO4)6
_symmetry_space_group_name_H-M   'P 1'
_cell_length_a   8.61075241
_cell_length_b   8.99336807
_cell_length_c   9.05794890
_cell_angle_alpha   60.21030294
_cell_angle_beta   60.37000014
_cell_angle_gamma   58.90048826
_symmetry_Int_Tables_number   1
_chemical_formula_structural   Li4NbV3Cr2(PO4)6
_chemical_formula_sum   'Li4 Nb1 V3 Cr2 P6 O24'
_cell_volume   493.85287315
_cell_formula_units_Z   1
loop_
 _symmetry_equiv_pos_site_id
 _symmetry_equiv_pos_as_xyz
  1  'x, y, z'
loop_
 _atom_site_type_symbol
 _atom_site_label
 _atom_site_symmetry_multiplicity
 _atom_site_fract_x
 _atom_site_fract_y
 _atom_site_fract_z
 _atom_site_occupancy
  Li  Li0  1  0.24537093  0.85248188  0.64887891  1
  Li  Li1  1  0.79743227  0.15079955  0.34721842  1
  Li  Li2  1  0.78412019  0.70548150  0.15480554  1
  Li  Li3  1  0.80397258  0.35336858  0.69954700  1
  Nb  Nb4  1  0.54494131  0.15489323  0.14958078  1
  V  V5  1  0.06122044  0.64660813  0.64714787  1
  V  V6  1  0.43989570  0.85016610  0.85376212  1
  V  V7  1  0.94907685  0.35057758  0.34943157  1
  Cr  Cr8  1  0.00956020  0.00060184  0.00432427  1
  Cr  Cr9  1  0.49649225  0.49593922  0.49904406  1
  P  P10  1  0.24929085  0.25688109  0.55330895  1
  P  P11  1  0.24566292  0.94359316  0.25197487  1
  P  P12  1  0.23019057  0.56761665  0.95320909  1
  P  P13  1  0.75917115  0.44444587  0.04305646  1
  P  P14  1  0.76006344  0.04929665  0.74823276  1
  P  P15  1  0.72010531  0.75291552  0.45964785  1
  O  O16  1  0.06046653  0.09397519  0.31538465  1
  O  O17  1  0.04826638  0.53759904  0.10153953  1
  O  O18  1  0.05873985  0.32839478  0.52322014  1
  O  O19  1  0.24225292  0.09429935  0.72912793  1
  O  O20  1  0.42186578  0.19456979  0.38939820  1
  O  O21  1  0.28352692  0.40732358  0.55908901  1
  O  O22  1  0.23277811  0.91828574  0.10255035  1
  O  O23  1  0.28410493  0.76295336  0.41269299  1
  O  O24  1  0.57411370  0.58732985  0.00926107  1
  O  O25  1  0.26322226  0.57818177  0.76477495  1
  O  O26  1  0.77451749  0.23731495  0.08708817  1
  O  O27  1  0.59601053  0.99061809  0.81547052  1
  O  O28  1  0.42105196  0.00246998  0.17824483  1
  O  O29  1  0.21377501  0.76040855  0.92772904  1
  O  O30  1  0.74818771  0.42632941  0.22991300  1
  O  O31  1  0.41045706  0.40519113  0.00385274  1
  O  O32  1  0.73191484  0.24046428  0.58906890  1
  O  O33  1  0.76327838  0.09692117  0.89698913  1
  O  O34  1  0.72176092  0.58854207  0.43391489  1
  O  O35  1  0.52691395  0.81520251  0.59782241  1
  O  O36  1  0.73988462  0.89906225  0.26119062  1
  O  O37  1  0.89043300  0.70817864  0.50306780  1
  O  O38  1  0.93815316  0.46782306  0.88902460  1
  O  O39  1  0.95775702  0.90589592  0.69341199  1
