# generated using pymatgen
data_MgFeP2O7
_symmetry_space_group_name_H-M   'P 1'
_cell_length_a   7.07795957
_cell_length_b   8.49339536
_cell_length_c   9.20494711
_cell_angle_alpha   90.00000000
_cell_angle_beta   112.52622496
_cell_angle_gamma   90.00000000
_symmetry_Int_Tables_number   1
_chemical_formula_structural   MgFeP2O7
_chemical_formula_sum   'Mg4 Fe4 P8 O28'
_cell_volume   511.14447377
_cell_formula_units_Z   4
loop_
 _symmetry_equiv_pos_site_id
 _symmetry_equiv_pos_as_xyz
  1  'x, y, z'
loop_
 _atom_site_type_symbol
 _atom_site_label
 _atom_site_symmetry_multiplicity
 _atom_site_fract_x
 _atom_site_fract_y
 _atom_site_fract_z
 _atom_site_occupancy
  Mg  Mg0  1  0.12349786  0.93997616  0.81881194  1
  Mg  Mg1  1  0.37650214  0.43997616  0.68118806  1
  Mg  Mg2  1  0.62349786  0.56002384  0.31881194  1
  Mg  Mg3  1  0.87650214  0.06002384  0.18118806  1
  Fe  Fe4  1  0.37486797  0.06877604  0.60857820  1
  Fe  Fe5  1  0.62513203  0.93122396  0.39142180  1
  Fe  Fe6  1  0.12513203  0.56877604  0.89142180  1
  Fe  Fe7  1  0.87486797  0.43122396  0.10857820  1
  P  P8  1  0.18089235  0.73524217  0.24237781  1
  P  P9  1  0.43590625  0.22570616  0.96849893  1
  P  P10  1  0.68089235  0.76475783  0.74237781  1
  P  P11  1  0.93590625  0.27429384  0.46849893  1
  P  P12  1  0.31910765  0.23524217  0.25762219  1
  P  P13  1  0.06409375  0.72570616  0.53150107  1
  P  P14  1  0.56409375  0.77429384  0.03150107  1
  P  P15  1  0.81910765  0.26475783  0.75762219  1
  O  O16  1  0.35023233  0.17673911  0.09991453  1
  O  O17  1  0.57549905  0.60879118  0.68941394  1
  O  O18  1  0.07549905  0.89120882  0.18941394  1
  O  O19  1  0.34911357  0.38739222  0.89632065  1
  O  O20  1  0.64976767  0.82326089  0.90008547  1
  O  O21  1  0.40754144  0.10092772  0.37720775  1
  O  O22  1  0.65088643  0.61260778  0.10367935  1
  O  O23  1  0.35907417  0.09151552  0.84908600  1
  O  O24  1  0.17128954  0.26797035  0.54876182  1
  O  O25  1  0.59245856  0.89907228  0.62279225  1
  O  O26  1  0.90754144  0.39907228  0.87720775  1
  O  O27  1  0.91578206  0.76086543  0.79595137  1
  O  O28  1  0.58421794  0.26086543  0.70404863  1
  O  O29  1  0.85023233  0.32326089  0.59991453  1
  O  O30  1  0.09245856  0.60092772  0.12279225  1
  O  O31  1  0.92450095  0.10879118  0.81058606  1
  O  O32  1  0.08421794  0.23913457  0.20404863  1
  O  O33  1  0.64092583  0.90848448  0.15091400  1
  O  O34  1  0.67128954  0.23202965  0.04876182  1
  O  O35  1  0.32871046  0.76797035  0.95123818  1
  O  O36  1  0.15088643  0.88739222  0.60367935  1
  O  O37  1  0.85907417  0.40848348  0.34908600  1
  O  O38  1  0.14092583  0.59151552  0.65091400  1
  O  O39  1  0.42450095  0.39120882  0.31058606  1
  O  O40  1  0.41578206  0.73913457  0.29595137  1
  O  O41  1  0.84911357  0.11260778  0.39632065  1
  O  O42  1  0.82871046  0.73202965  0.45123818  1
  O  O43  1  0.14976767  0.67673911  0.40008547  1
