# generated using pymatgen
data_Tb2NiAs2
_symmetry_space_group_name_H-M   'P 1'
_cell_length_a   4.10699172
_cell_length_b   4.10699172
_cell_length_c   14.40343818
_cell_angle_alpha   90.00000000
_cell_angle_beta   90.00000000
_cell_angle_gamma   120.01658407
_symmetry_Int_Tables_number   1
_chemical_formula_structural   Tb2NiAs2
_chemical_formula_sum   'Tb4 Ni2 As4'
_cell_volume   210.36421210
_cell_formula_units_Z   2
loop_
 _symmetry_equiv_pos_site_id
 _symmetry_equiv_pos_as_xyz
  1  'x, y, z'
loop_
 _atom_site_type_symbol
 _atom_site_label
 _atom_site_symmetry_multiplicity
 _atom_site_fract_x
 _atom_site_fract_y
 _atom_site_fract_z
 _atom_site_occupancy
  Tb  Tb0  1  0.66672157  0.33327843  0.61707629  1
  Tb  Tb1  1  0.33327843  0.66672157  0.38292371  1
  Tb  Tb2  1  0.33327843  0.66672157  0.11707629  1
  Tb  Tb3  1  0.66672157  0.33327843  0.88292371  1
  Ni  Ni4  1  0.00003899  0.99996101  0.75000000  1
  Ni  Ni5  1  0.99996101  0.00003899  0.25000000  1
  As  As6  1  -0.00000000  -0.00000000  0.50000000  1
  As  As7  1  -0.00000000  -0.00000000  -0.00000000  1
  As  As8  1  0.66673769  0.33326231  0.25000000  1
  As  As9  1  0.33326231  0.66673769  0.75000000  1
