# generated using pymatgen
data_BaTiSe3
_symmetry_space_group_name_H-M   'P 1'
_cell_length_a   6.06651286
_cell_length_b   7.12329042
_cell_length_c   7.12329042
_cell_angle_alpha   120.00925468
_cell_angle_beta   90.00000000
_cell_angle_gamma   90.00000000
_symmetry_Int_Tables_number   1
_chemical_formula_structural   BaTiSe3
_chemical_formula_sum   'Ba2 Ti2 Se6'
_cell_volume   266.55728013
_cell_formula_units_Z   2
loop_
 _symmetry_equiv_pos_site_id
 _symmetry_equiv_pos_as_xyz
  1  'x, y, z'
loop_
 _atom_site_type_symbol
 _atom_site_label
 _atom_site_symmetry_multiplicity
 _atom_site_fract_x
 _atom_site_fract_y
 _atom_site_fract_z
 _atom_site_occupancy
  Ba  Ba0  1  0.25000000  0.66669108  0.33330892  1
  Ba  Ba1  1  0.75000000  0.33330892  0.66669108  1
  Ti  Ti2  1  0.50000000  0.00000000  0.00000000  1
  Ti  Ti3  1  0.00000000  0.00000000  0.00000000  1
  Se  Se4  1  0.75000000  0.83150831  0.66306031  1
  Se  Se5  1  0.75000000  0.83153254  0.16846746  1
  Se  Se6  1  0.75000000  0.33693969  0.16849169  1
  Se  Se7  1  0.25000000  0.16849169  0.33693969  1
  Se  Se8  1  0.25000000  0.16846746  0.83153254  1
  Se  Se9  1  0.25000000  0.66306031  0.83150831  1
