# generated using pymatgen
data_Ba2CaCuMo2F14
_symmetry_space_group_name_H-M   'P 1'
_cell_length_a   5.53981587
_cell_length_b   7.70181856
_cell_length_c   15.49021895
_cell_angle_alpha   90.47983910
_cell_angle_beta   90.04554087
_cell_angle_gamma   111.04935497
_symmetry_Int_Tables_number   1
_chemical_formula_structural   Ba2CaCuMo2F14
_chemical_formula_sum   'Ba4 Ca2 Cu2 Mo4 F28'
_cell_volume   616.78709967
_cell_formula_units_Z   2
loop_
 _symmetry_equiv_pos_site_id
 _symmetry_equiv_pos_as_xyz
  1  'x, y, z'
loop_
 _atom_site_type_symbol
 _atom_site_label
 _atom_site_symmetry_multiplicity
 _atom_site_fract_x
 _atom_site_fract_y
 _atom_site_fract_z
 _atom_site_occupancy
  Ba  Ba0  1  0.10340799  0.36955363  0.62393607  1
  Ba  Ba1  1  0.26770649  0.36988285  0.12357370  1
  Ba  Ba2  1  0.90071781  0.63319732  0.37649406  1
  Ba  Ba3  1  0.73486667  0.63148254  0.87694888  1
  Ca  Ca4  1  0.42469721  0.00059869  0.75034463  1
  Ca  Ca5  1  0.57782508  0.00078693  0.24983321  1
  Cu  Cu6  1  0.50100393  0.00032079  0.00010478  1
  Cu  Cu7  1  0.50201771  0.00131527  0.50008294  1
  Mo  Mo8  1  0.09206470  0.24306961  0.87651095  1
  Mo  Mo9  1  0.91024077  0.75861806  0.12406684  1
  Mo  Mo10  1  0.15368799  0.24425977  0.37569062  1
  Mo  Mo11  1  0.84938710  0.75812863  0.62429652  1
  F  F12  1  0.90170917  0.97574175  0.34132464  1
  F  F13  1  0.88162366  0.29192473  0.45806524  1
  F  F14  1  0.12454168  0.71217462  0.54269339  1
  F  F15  1  0.62723109  0.48337334  0.59744181  1
  F  F16  1  0.62012360  0.08761126  0.61475123  1
  F  F17  1  0.53543442  0.91379812  0.88558350  1
  F  F18  1  0.41321250  0.28990641  0.95827898  1
  F  F19  1  0.92661452  0.02702477  0.15851797  1
  F  F20  1  0.36112810  0.33133168  0.77591836  1
  F  F21  1  0.37730794  0.51938724  0.40127907  1
  F  F22  1  0.81211370  0.23893413  0.78382123  1
  F  F23  1  0.14403552  0.51777723  0.90338251  1
  F  F24  1  0.42632323  0.23849691  0.28238987  1
  F  F25  1  0.18964022  0.76259184  0.21692828  1
  F  F26  1  0.46663442  0.08649983  0.11445730  1
  F  F27  1  0.64115080  0.67163885  0.22468161  1
  F  F28  1  0.13124956  0.83584969  0.01063107  1
  F  F29  1  0.10037879  0.02658698  0.65936691  1
  F  F30  1  0.87065276  0.16492477  0.98975996  1
  F  F31  1  0.70781014  0.83740242  0.51077578  1
  F  F32  1  0.58906548  0.71186616  0.04230038  1
  F  F33  1  0.57292732  0.76180963  0.71661639  1
  F  F34  1  0.97036874  0.33167723  0.27537076  1
  F  F35  1  0.29761105  0.16609720  0.48903113  1
  F  F36  1  0.38258037  0.91488618  0.38544056  1
  F  F37  1  0.07636478  0.97487630  0.84187764  1
  F  F38  1  0.02971402  0.66959840  0.72511671  1
  F  F39  1  0.85724095  0.48347122  0.09779250  1
