# generated using pymatgen
data_NaN3
_symmetry_space_group_name_H-M   'P 1'
_cell_length_a   3.79143108
_cell_length_b   3.79143130
_cell_length_c   5.44023176
_cell_angle_alpha   69.60670909
_cell_angle_beta   69.60671637
_cell_angle_gamma   59.99999837
_symmetry_Int_Tables_number   1
_chemical_formula_structural   NaN3
_chemical_formula_sum   'Na1 N3'
_cell_volume   62.00146959
_cell_formula_units_Z   1
loop_
 _symmetry_equiv_pos_site_id
 _symmetry_equiv_pos_as_xyz
  1  'x, y, z'
loop_
 _atom_site_type_symbol
 _atom_site_label
 _atom_site_symmetry_multiplicity
 _atom_site_fract_x
 _atom_site_fract_y
 _atom_site_fract_z
 _atom_site_occupancy
  Na  Na0  1  0.00012813  0.00012813  0.99961561  1
  N  N1  1  0.42434996  0.42434996  0.72695012  1
  N  N2  1  0.50351137  0.50351137  0.48946588  1
  N  N3  1  0.58301054  0.58301054  0.25096839  1
