# generated using pymatgen
data_Ho3(CoGe2)2
_symmetry_space_group_name_H-M   'P 1'
_cell_length_a   4.15608979
_cell_length_b   5.67432132
_cell_length_c   7.97633302
_cell_angle_alpha   106.35005610
_cell_angle_beta   90.00000000
_cell_angle_gamma   111.48263254
_symmetry_Int_Tables_number   1
_chemical_formula_structural   Ho3(CoGe2)2
_chemical_formula_sum   'Ho3 Co2 Ge4'
_cell_volume   166.83596929
_cell_formula_units_Z   1
loop_
 _symmetry_equiv_pos_site_id
 _symmetry_equiv_pos_as_xyz
  1  'x, y, z'
loop_
 _atom_site_type_symbol
 _atom_site_label
 _atom_site_symmetry_multiplicity
 _atom_site_fract_x
 _atom_site_fract_y
 _atom_site_fract_z
 _atom_site_occupancy
  Ho  Ho0  1  0.37636052  0.75272103  0.30769700  1
  Ho  Ho1  1  0.62363948  0.24727897  0.69230300  1
  Ho  Ho2  1  -0.00000000  -0.00000000  0.00000000  1
  Co  Co3  1  0.30999295  0.61998590  0.63001929  1
  Co  Co4  1  0.69000705  0.38001410  0.36998071  1
  Ge  Ge5  1  0.09771885  0.19543770  0.40051752  1
  Ge  Ge6  1  0.90228115  0.80456230  0.59948248  1
  Ge  Ge7  1  0.70975534  0.41951068  0.08031672  1
  Ge  Ge8  1  0.29024466  0.58048932  0.91968328  1
