# generated using pymatgen
data_Ti5Al2C3
_symmetry_space_group_name_H-M   'P 1'
_cell_length_a   3.07313648
_cell_length_b   3.07313648
_cell_length_c   16.30310737
_cell_angle_alpha   84.59184272
_cell_angle_beta   84.59184272
_cell_angle_gamma   60.00001422
_symmetry_Int_Tables_number   1
_chemical_formula_structural   Ti5Al2C3
_chemical_formula_sum   'Ti5 Al2 C3'
_cell_volume   132.54932272
_cell_formula_units_Z   1
loop_
 _symmetry_equiv_pos_site_id
 _symmetry_equiv_pos_as_xyz
  1  'x, y, z'
loop_
 _atom_site_type_symbol
 _atom_site_label
 _atom_site_symmetry_multiplicity
 _atom_site_fract_x
 _atom_site_fract_y
 _atom_site_fract_z
 _atom_site_occupancy
  Ti  Ti0  1  0.90496259  0.90496259  0.28511322  1
  Ti  Ti1  1  0.18965331  0.18965331  0.43104008  1
  Ti  Ti2  1  0.09499825  0.09499825  0.71500424  1
  Ti  Ti3  1  0.71461865  0.71461865  0.85614404  1
  Ti  Ti4  1  0.62023857  0.62023857  0.13928329  1
  Al  Al5  1  0.00094555  0.00094555  0.99716336  1
  Al  Al6  1  0.80874948  0.80874948  0.57375257  1
  C  C7  1  0.26486951  0.26486951  0.20539247  1
  C  C8  1  0.54502427  0.54502427  0.36492619  1
  C  C9  1  0.40480682  0.40480682  0.78558055  1
