# generated using pymatgen
data_Li4Mn2Cr3Co3O16
_symmetry_space_group_name_H-M   'P 1'
_cell_length_a   5.84056023
_cell_length_b   5.87824124
_cell_length_c   9.42262298
_cell_angle_alpha   90.44748748
_cell_angle_beta   89.23618914
_cell_angle_gamma   120.32719134
_symmetry_Int_Tables_number   1
_chemical_formula_structural   Li4Mn2Cr3Co3O16
_chemical_formula_sum   'Li4 Mn2 Cr3 Co3 O16'
_cell_volume   279.20558257
_cell_formula_units_Z   1
loop_
 _symmetry_equiv_pos_site_id
 _symmetry_equiv_pos_as_xyz
  1  'x, y, z'
loop_
 _atom_site_type_symbol
 _atom_site_label
 _atom_site_symmetry_multiplicity
 _atom_site_fract_x
 _atom_site_fract_y
 _atom_site_fract_z
 _atom_site_occupancy
  Li  Li0  1  0.34259110  0.66722728  0.89549321  1
  Li  Li1  1  0.98893615  0.99682678  0.99426043  1
  Li  Li2  1  0.99024989  0.99402811  0.49540831  1
  Li  Li3  1  0.67011721  0.33488081  0.40041636  1
  Mn  Mn4  1  0.32890308  0.66991727  0.48348369  1
  Mn  Mn5  1  0.66750820  0.33236705  0.98353119  1
  Cr  Cr6  1  0.17252139  0.83157542  0.21181904  1
  Cr  Cr7  1  0.17315515  0.34138690  0.21248467  1
  Cr  Cr8  1  0.34149576  0.17088283  0.71357162  1
  Co  Co9  1  0.66407554  0.83178884  0.21152140  1
  Co  Co10  1  0.83160121  0.66483812  0.71161713  1
  Co  Co11  1  0.83378706  0.17325019  0.71197901  1
  O  O12  1  0.15990650  0.83046959  0.59735358  1
  O  O13  1  0.04095152  0.52136427  0.34391951  1
  O  O14  1  0.34173164  0.67054822  0.10568923  1
  O  O15  1  0.99522139  0.99795890  0.30666541  1
  O  O16  1  0.99106481  0.00449230  0.80609340  1
  O  O17  1  0.15474094  0.32603245  0.59997386  1
  O  O18  1  0.48180161  0.95919071  0.34652233  1
  O  O19  1  0.48224456  0.52362047  0.34797597  1
  O  O20  1  0.33045691  0.16401675  0.09238684  1
  O  O21  1  0.66313613  0.84047776  0.60604212  1
  O  O22  1  0.52701375  0.48080873  0.84514181  1
  O  O23  1  0.53036551  0.04233298  0.83935166  1
  O  O24  1  0.67780113  0.33140030  0.60837448  1
  O  O25  1  0.82913021  0.66396001  0.09695529  1
  O  O26  1  0.96205895  0.46992399  0.84061306  1
  O  O27  1  0.82743071  0.16473195  0.09919539  1
