# generated using pymatgen
data_Li2VO2F
_symmetry_space_group_name_H-M   'P 1'
_cell_length_a   3.01772123
_cell_length_b   9.04986974
_cell_length_c   8.92058802
_cell_angle_alpha   109.10208103
_cell_angle_beta   89.99208292
_cell_angle_gamma   90.24319352
_symmetry_Int_Tables_number   1
_chemical_formula_structural   Li2VO2F
_chemical_formula_sum   'Li8 V4 O8 F4'
_cell_volume   230.20433802
_cell_formula_units_Z   4
loop_
 _symmetry_equiv_pos_site_id
 _symmetry_equiv_pos_as_xyz
  1  'x, y, z'
loop_
 _atom_site_type_symbol
 _atom_site_label
 _atom_site_symmetry_multiplicity
 _atom_site_fract_x
 _atom_site_fract_y
 _atom_site_fract_z
 _atom_site_occupancy
  Li  Li0  1  0.99969488  0.09765711  0.25510189  1
  Li  Li1  1  0.00058484  0.58027338  0.71799464  1
  Li  Li2  1  0.99803221  0.40898100  0.27516900  1
  Li  Li3  1  0.99901616  0.90410980  0.74691411  1
  Li  Li4  1  0.50166383  0.36735847  0.49835757  1
  Li  Li5  1  0.50053881  0.15577602  0.00165226  1
  Li  Li6  1  0.50436148  0.63348293  0.50156048  1
  Li  Li7  1  0.49889039  0.85740446  0.99910937  1
  V  V8  1  0.00104492  0.75417978  0.26089180  1
  V  V9  1  0.00770976  0.24981008  0.74631983  1
  V  V10  1  0.49294261  0.48049901  -0.00014724  1
  V  V11  1  0.49301097  0.00243187  0.50191432  1
  O  O12  1  0.99444770  0.15606707  0.50676413  1
  O  O13  1  0.00702943  0.33704557  0.99547781  1
  O  O14  1  0.99118658  0.84775660  0.49622445  1
  O  O15  1  0.00318638  0.50076596  0.49631961  1
  O  O16  1  0.49163881  0.90716239  0.25216757  1
  O  O17  1  0.50372158  0.59832195  0.23044888  1
  O  O18  1  0.49681497  0.09328074  0.74661114  1
  O  O19  1  0.51678339  0.41156982  0.76617903  1
  F  F20  1  0.99816846  0.65903093  0.99945878  1
  F  F21  1  0.99924619  0.99841322  0.00034119  1
  F  F22  1  0.50115112  0.23978538  0.23780369  1
  F  F23  1  0.49905352  0.75883548  0.76736569  1
