# generated using pymatgen
data_Sc3IrC4
_symmetry_space_group_name_H-M   'P 1'
_cell_length_a   3.47053219
_cell_length_b   4.43733090
_cell_length_c   6.73933140
_cell_angle_alpha   109.22092421
_cell_angle_beta   104.92078937
_cell_angle_gamma   90.00000000
_symmetry_Int_Tables_number   1
_chemical_formula_structural   Sc3IrC4
_chemical_formula_sum   'Sc3 Ir1 C4'
_cell_volume   94.28583156
_cell_formula_units_Z   1
loop_
 _symmetry_equiv_pos_site_id
 _symmetry_equiv_pos_as_xyz
  1  'x, y, z'
loop_
 _atom_site_type_symbol
 _atom_site_label
 _atom_site_symmetry_multiplicity
 _atom_site_fract_x
 _atom_site_fract_y
 _atom_site_fract_z
 _atom_site_occupancy
  Sc  Sc0  1  0.50000000  0.50000000  -0.00000000  1
  Sc  Sc1  1  0.30953938  0.80953938  0.61907876  1
  Sc  Sc2  1  0.69046062  0.19046062  0.38092124  1
  Ir  Ir3  1  -0.00000000  0.00000000  -0.00000000  1
  C  C4  1  0.87248280  0.20912991  0.74496560  1
  C  C5  1  0.12751720  0.79087009  0.25503440  1
  C  C6  1  0.12751720  0.46416430  0.25503440  1
  C  C7  1  0.87248280  0.53583570  0.74496560  1
