# generated using pymatgen
data_Na5As4
_symmetry_space_group_name_H-M   'P 1'
_cell_length_a   4.65858754
_cell_length_b   5.74821389
_cell_length_c   9.60977976
_cell_angle_alpha   73.30950723
_cell_angle_beta   75.97248095
_cell_angle_gamma   66.09505162
_symmetry_Int_Tables_number   1
_chemical_formula_structural   Na5As4
_chemical_formula_sum   'Na5 As4'
_cell_volume   223.00478575
_cell_formula_units_Z   1
loop_
 _symmetry_equiv_pos_site_id
 _symmetry_equiv_pos_as_xyz
  1  'x, y, z'
loop_
 _atom_site_type_symbol
 _atom_site_label
 _atom_site_symmetry_multiplicity
 _atom_site_fract_x
 _atom_site_fract_y
 _atom_site_fract_z
 _atom_site_occupancy
  Na  Na0  1  0.09957814  0.18596109  0.61488263  1
  Na  Na1  1  0.90042186  0.81403891  0.38511737  1
  Na  Na2  1  0.75489810  0.65498250  0.83522130  1
  Na  Na3  1  0.24510190  0.34501750  0.16477870  1
  Na  Na4  1  0.00000000  -0.00000000  -0.00000000  1
  As  As5  1  0.45649567  0.25913212  0.82787655  1
  As  As6  1  0.54350433  0.74086788  0.17212345  1
  As  As7  1  0.39258450  0.60903614  0.60579486  1
  As  As8  1  0.60741550  0.39096386  0.39420514  1
