# generated using pymatgen
data_Sc3OsC4
_symmetry_space_group_name_H-M   'P 1'
_cell_length_a   3.34161649
_cell_length_b   4.49941217
_cell_length_c   6.81012963
_cell_angle_alpha   109.28984515
_cell_angle_beta   104.20201850
_cell_angle_gamma   90.00000000
_symmetry_Int_Tables_number   1
_chemical_formula_structural   Sc3OsC4
_chemical_formula_sum   'Sc3 Os1 C4'
_cell_volume   93.32203468
_cell_formula_units_Z   1
loop_
 _symmetry_equiv_pos_site_id
 _symmetry_equiv_pos_as_xyz
  1  'x, y, z'
loop_
 _atom_site_type_symbol
 _atom_site_label
 _atom_site_symmetry_multiplicity
 _atom_site_fract_x
 _atom_site_fract_y
 _atom_site_fract_z
 _atom_site_occupancy
  Sc  Sc0  1  0.50000000  0.50000000  0.00000000  1
  Sc  Sc1  1  0.30922214  0.80922214  0.61844428  1
  Sc  Sc2  1  0.69077786  0.19077786  0.38155572  1
  Os  Os3  1  -0.00000000  0.00000000  0.00000000  1
  C  C4  1  0.87224859  0.21167809  0.74449718  1
  C  C5  1  0.12775141  0.78832191  0.25550282  1
  C  C6  1  0.12775141  0.46718091  0.25550282  1
  C  C7  1  0.87224859  0.53281909  0.74449718  1
