# generated using pymatgen
data_LiErO2
_symmetry_space_group_name_H-M   'P 1'
_cell_length_a   4.41169185
_cell_length_b   4.41169186
_cell_length_c   6.06031882
_cell_angle_alpha   111.34493615
_cell_angle_beta   111.34493616
_cell_angle_gamma   89.99999993
_symmetry_Int_Tables_number   1
_chemical_formula_structural   LiErO2
_chemical_formula_sum   'Li2 Er2 O4'
_cell_volume   101.12526251
_cell_formula_units_Z   2
loop_
 _symmetry_equiv_pos_site_id
 _symmetry_equiv_pos_as_xyz
  1  'x, y, z'
loop_
 _atom_site_type_symbol
 _atom_site_label
 _atom_site_symmetry_multiplicity
 _atom_site_fract_x
 _atom_site_fract_y
 _atom_site_fract_z
 _atom_site_occupancy
  Li  Li0  1  0.87500000  0.12500000  0.75000000  1
  Li  Li1  1  0.12500000  0.87500000  0.25000000  1
  O  O2  1  0.59586015  0.84586015  0.19172029  1
  O  O3  1  0.15413985  0.40413985  0.30827971  1
  O  O4  1  0.84586015  0.59586015  0.69172029  1
  O  O5  1  0.40413985  0.15413985  0.80827971  1
  Er  Er6  1  0.37500000  0.62500000  0.75000000  1
  Er  Er7  1  0.62500000  0.37500000  0.25000000  1
