# generated using pymatgen
data_PrP2
_symmetry_space_group_name_H-M   'P 1'
_cell_length_a   4.07274326
_cell_length_b   6.61634689
_cell_length_c   9.94843756
_cell_angle_alpha   90.00000000
_cell_angle_beta   97.55900074
_cell_angle_gamma   90.00000000
_symmetry_Int_Tables_number   1
_chemical_formula_structural   PrP2
_chemical_formula_sum   'Pr4 P8'
_cell_volume   265.74777297
_cell_formula_units_Z   4
loop_
 _symmetry_equiv_pos_site_id
 _symmetry_equiv_pos_as_xyz
  1  'x, y, z'
loop_
 _atom_site_type_symbol
 _atom_site_label
 _atom_site_symmetry_multiplicity
 _atom_site_fract_x
 _atom_site_fract_y
 _atom_site_fract_z
 _atom_site_occupancy
  Pr  Pr0  1  0.72246242  0.81577450  0.63986135  1
  Pr  Pr1  1  0.77753758  0.31577450  0.86013865  1
  Pr  Pr2  1  0.27753758  0.18422550  0.36013865  1
  Pr  Pr3  1  0.22246242  0.68422550  0.13986135  1
  P  P4  1  0.19862789  0.16189575  0.66465953  1
  P  P5  1  0.30137211  0.66189575  0.83534047  1
  P  P6  1  0.80137211  0.83810425  0.33534047  1
  P  P7  1  0.69862789  0.33810425  0.16465953  1
  P  P8  1  0.64818740  0.87874072  0.95254510  1
  P  P9  1  0.85181260  0.37874072  0.54745490  1
  P  P10  1  0.35181260  0.12125928  0.04745490  1
  P  P11  1  0.14818740  0.62125928  0.45254510  1
