# generated using pymatgen
data_NdCuGe2
_symmetry_space_group_name_H-M   'P 1'
_cell_length_a   4.24931337
_cell_length_b   4.27728293
_cell_length_c   8.97088851
_cell_angle_alpha   103.79200837
_cell_angle_beta   90.00000000
_cell_angle_gamma   90.00000000
_symmetry_Int_Tables_number   1
_chemical_formula_structural   NdCuGe2
_chemical_formula_sum   'Nd2 Cu2 Ge4'
_cell_volume   158.34937600
_cell_formula_units_Z   2
loop_
 _symmetry_equiv_pos_site_id
 _symmetry_equiv_pos_as_xyz
  1  'x, y, z'
loop_
 _atom_site_type_symbol
 _atom_site_label
 _atom_site_symmetry_multiplicity
 _atom_site_fract_x
 _atom_site_fract_y
 _atom_site_fract_z
 _atom_site_occupancy
  Nd  Nd0  1  0.75000000  0.10420282  0.20840564  1
  Nd  Nd1  1  0.25000000  0.89579718  0.79159436  1
  Cu  Cu2  1  0.75000000  0.32573766  0.65147533  1
  Cu  Cu3  1  0.25000000  0.67426234  0.34852467  1
  Ge  Ge4  1  0.75000000  0.46232784  0.92465569  1
  Ge  Ge5  1  0.25000000  0.53767216  0.07534431  1
  Ge  Ge6  1  0.75000000  0.75053186  0.50106372  1
  Ge  Ge7  1  0.25000000  0.24946814  0.49893628  1
