# generated using pymatgen
data_Li2Cu2Si8O19
_symmetry_space_group_name_H-M   'P 1'
_cell_length_a   4.93212804
_cell_length_b   7.21261062
_cell_length_c   12.42789080
_cell_angle_alpha   72.59860065
_cell_angle_beta   90.00000000
_cell_angle_gamma   70.00670875
_symmetry_Int_Tables_number   1
_chemical_formula_structural   Li2Cu2Si8O19
_chemical_formula_sum   'Li2 Cu2 Si8 O19'
_cell_volume   393.85920116
_cell_formula_units_Z   1
loop_
 _symmetry_equiv_pos_site_id
 _symmetry_equiv_pos_as_xyz
  1  'x, y, z'
loop_
 _atom_site_type_symbol
 _atom_site_label
 _atom_site_symmetry_multiplicity
 _atom_site_fract_x
 _atom_site_fract_y
 _atom_site_fract_z
 _atom_site_occupancy
  Li  Li0  1  0.75750057  0.79249443  0.63151009  1
  Li  Li1  1  0.54999501  0.20750557  0.36848991  1
  Cu  Cu2  1  0.66823874  0.60312772  0.40270582  1
  Cu  Cu3  1  0.27136647  0.39687228  0.59729418  1
  Si  Si4  1  0.47276554  0.75816942  0.92947674  1
  Si  Si5  1  0.87349735  0.98150113  0.16829302  1
  Si  Si6  1  0.06937423  0.85946372  0.42182900  1
  Si  Si7  1  0.33971163  0.44154232  0.82901072  1
  Si  Si8  1  0.78125394  0.55845768  0.17098928  1
  Si  Si9  1  0.92883696  0.14053628  0.57817100  1
  Si  Si10  1  0.85499848  0.01849887  0.83170698  1
  Si  Si11  1  0.23093496  0.24183058  0.07052326  1
  O  O12  1  0.17744864  0.96724714  0.89167758  1
  O  O13  1  0.74638430  0.83418290  0.90237945  1
  O  O14  1  0.87765752  0.00171134  0.29642328  1
  O  O15  1  0.40172054  0.84775327  0.43003984  1
  O  O16  1  0.45882035  0.61447870  0.85217901  1
  O  O17  1  0.02543822  0.63465452  0.45734925  1
  O  O18  1  0.13748468  0.53803138  0.70792939  1
  O  O19  1  0.87963876  0.75425409  0.17223274  1
  O  O20  1  0.15923404  0.36795946  0.93499605  1
  O  O21  1  0.52719351  0.63204054  0.06500395  1
  O  O22  1  0.63389385  0.24574591  0.82776726  1
  O  O23  1  0.67551607  0.46196862  0.29207061  1
  O  O24  1  0.66009275  0.36534548  0.54265075  1
  O  O25  1  0.07329905  0.38552130  0.14782099  1
  O  O26  1  0.24947281  0.15224673  0.56996016  1
  O  O27  1  0.87936786  0.99828866  0.70357672  1
  O  O28  1  0.87421919  1.00000000  0.50000000  1
  O  O29  1  0.58056720  0.16581710  0.09762055  1
  O  O30  1  0.14469578  0.03275286  0.10832242  1
