# generated using pymatgen
data_LiMn2O4
_symmetry_space_group_name_H-M   'P 1'
_cell_length_a   6.04904276
_cell_length_b   8.22519362
_cell_length_c   10.54361166
_cell_angle_alpha   113.26544220
_cell_angle_beta   109.70494745
_cell_angle_gamma   89.50460887
_symmetry_Int_Tables_number   1
_chemical_formula_structural   LiMn2O4
_chemical_formula_sum   'Li6 Mn12 O24'
_cell_volume   448.98570207
_cell_formula_units_Z   6
loop_
 _symmetry_equiv_pos_site_id
 _symmetry_equiv_pos_as_xyz
  1  'x, y, z'
loop_
 _atom_site_type_symbol
 _atom_site_label
 _atom_site_symmetry_multiplicity
 _atom_site_fract_x
 _atom_site_fract_y
 _atom_site_fract_z
 _atom_site_occupancy
  Li  Li0  1  0.90350532  0.79415841  0.83660603  1
  Li  Li1  1  0.57688867  0.45948094  0.17140805  1
  Li  Li2  1  0.09590893  0.20509572  0.16393881  1
  Li  Li3  1  0.76084501  0.87520688  0.49559650  1
  Li  Li4  1  0.41928798  0.54116904  0.83124493  1
  Li  Li5  1  0.24157316  0.12794269  0.50207655  1
  Mn  Mn6  1  0.33699767  0.83253058  0.16551679  1
  Mn  Mn7  1  0.49821398  0.99922174  0.99959052  1
  Mn  Mn8  1  0.16286443  0.16884487  0.83919425  1
  Mn  Mn9  1  0.17317210  0.66596719  0.33209089  1
  Mn  Mn10  1  0.66251713  0.17044506  0.83875508  1
  Mn  Mn11  1  0.99706872  0.49925458  0.00291043  1
  Mn  Mn12  1  0.50081552  0.49993695  0.49902458  1
  Mn  Mn13  1  0.83459027  0.83207733  0.16221135  1
  Mn  Mn14  1  0.82860985  0.33629949  0.66804509  1
  Mn  Mn15  1  0.99964041  0.49834255  0.49618486  1
  Mn  Mn16  1  0.32880901  0.83514237  0.66519963  1
  Mn  Mn17  1  0.67239774  0.16751147  0.33345867  1
  O  O18  1  0.80918732  0.56683314  0.65461640  1
  O  O19  1  0.69183948  0.40971956  0.85164034  1
  O  O20  1  0.52256261  0.76898366  0.00820661  1
  O  O21  1  0.47601816  0.23001231  0.99359840  1
  O  O22  1  0.51653161  0.26895328  0.50611117  1
  O  O23  1  0.81379149  0.05901641  0.15115607  1
  O  O24  1  0.03342768  0.73301211  0.48677629  1
  O  O25  1  0.00134781  0.74521833  0.02102841  1
  O  O26  1  0.86469064  0.59142218  0.16307283  1
  O  O27  1  0.66499276  0.41928032  0.35671673  1
  O  O28  1  0.14440674  0.89495648  0.31859816  1
  O  O29  1  0.33353294  0.58465150  0.64118973  1
  O  O30  1  0.67199854  0.90974200  0.30412306  1
  O  O31  1  0.18383433  0.93847001  0.84630736  1
  O  O32  1  0.00158512  0.25499313  0.98373286  1
  O  O33  1  0.32329608  0.08963396  0.69515573  1
  O  O34  1  0.47825095  0.73284311  0.48730487  1
  O  O35  1  0.19142702  0.43726369  0.34076988  1
  O  O36  1  0.13645936  0.41339515  0.84775513  1
  O  O37  1  0.62805506  0.93399756  0.83992931  1
  O  O38  1  0.30208692  0.59784120  0.17085742  1
  O  O39  1  0.37048718  0.06609635  0.15998772  1
  O  O40  1  0.85319141  0.10512264  0.68429367  1
  O  O41  1  0.97588992  0.26249906  0.49182285  1
