# generated using pymatgen
data_NaLi9Fe10(SiO3)20
_symmetry_space_group_name_H-M   'P 1'
_cell_length_a   9.49639002
_cell_length_b   8.78014575
_cell_length_c   15.59569320
_cell_angle_alpha   106.34930854
_cell_angle_beta   91.77027427
_cell_angle_gamma   117.53488236
_symmetry_Int_Tables_number   1
_chemical_formula_structural   NaLi9Fe10(SiO3)20
_chemical_formula_sum   'Na1 Li9 Fe10 Si20 O60'
_cell_volume   1086.45149066
_cell_formula_units_Z   1
loop_
 _symmetry_equiv_pos_site_id
 _symmetry_equiv_pos_as_xyz
  1  'x, y, z'
loop_
 _atom_site_type_symbol
 _atom_site_label
 _atom_site_symmetry_multiplicity
 _atom_site_fract_x
 _atom_site_fract_y
 _atom_site_fract_z
 _atom_site_occupancy
  Na  Na0  1  0.45000000  0.58896806  0.15000000  1
  Li  Li1  1  0.74991354  0.23637305  0.25004845  1
  Li  Li2  1  0.15008646  0.83641107  0.04995155  1
  Li  Li3  1  0.95000000  0.03624603  0.65000000  1
  Li  Li4  1  0.65002322  0.36376813  0.54999910  1
  Li  Li5  1  0.35013808  0.63626772  0.45004470  1
  Li  Li6  1  0.04974873  0.96366370  0.35006256  1
  Li  Li7  1  0.85025127  0.16385341  0.94993744  1
  Li  Li8  1  0.54986192  0.43608594  0.84995530  1
  Li  Li9  1  0.24997678  0.76374581  0.75000090  1
  Fe  Fe10  1  0.75078311  0.60059816  0.25052436  1
  Fe  Fe11  1  0.45000000  0.19882940  0.15000000  1
  Fe  Fe12  1  0.14921689  0.19928969  0.04947564  1
  Fe  Fe13  1  0.95000000  0.40133396  0.65000000  1
  Fe  Fe14  1  0.65017519  0.99898849  0.55039143  1
  Fe  Fe15  1  0.35003092  0.00157771  0.45030952  1
  Fe  Fe16  1  0.05041032  0.59887763  0.35010808  1
  Fe  Fe17  1  0.84958968  0.79835923  0.94989192  1
  Fe  Fe18  1  0.54996908  0.80123727  0.84969048  1
  Fe  Fe19  1  0.24982481  0.39842187  0.74960857  1
  Si  Si20  1  0.97904153  0.46378335  0.12923812  1
  Si  Si21  1  0.92095847  0.95550370  0.17076188  1
  Si  Si22  1  0.67999193  0.44257421  0.02901928  1
  Si  Si23  1  0.62135548  0.93596135  0.07006009  1
  Si  Si24  1  0.87909129  0.24490968  0.42956788  1
  Si  Si25  1  0.82156916  0.73615809  0.47065550  1
  Si  Si26  1  0.58029582  0.86623375  0.33155894  1
  Si  Si27  1  0.52152361  0.35628790  0.37093733  1
  Si  Si28  1  0.27864452  0.84454478  0.22993991  1
  Si  Si29  1  0.22000807  0.33356201  0.27098072  1
  Si  Si30  1  0.77854078  0.66393729  0.72928110  1
  Si  Si31  1  0.72150516  0.15609713  0.77070140  1
  Si  Si32  1  0.47847222  0.64382613  0.62925767  1
  Si  Si33  1  0.42152778  0.13609723  0.67074233  1
  Si  Si34  1  0.17849484  0.26389057  0.52929860  1
  Si  Si35  1  0.12145922  0.75611541  0.57071890  1
  Si  Si36  1  0.37847639  0.06382597  0.92906267  1
  Si  Si37  1  0.31970418  0.55437799  0.96844106  1
  Si  Si38  1  0.07843084  0.04393443  0.82934450  1
  Si  Si39  1  0.02090871  0.53625151  0.87043212  1
  O  O40  1  0.99580905  0.94931932  0.07618526  1
  O  O41  1  0.99880902  0.28568399  0.08807393  1
  O  O42  1  0.85521540  0.44953466  0.04695627  1
  O  O43  1  0.90119098  0.79880104  0.21192607  1
  O  O44  1  0.90419095  0.47732500  0.22381474  1
  O  O45  1  0.74571474  0.94846267  0.15156282  1
  O  O46  1  0.60174820  0.11342885  0.11228374  1
  O  O47  1  0.60827247  0.44530906  0.12425246  1
  O  O48  1  0.44614215  0.74759893  0.05005573  1
  O  O49  1  0.29527747  0.39224295  0.00605731  1
  O  O50  1  0.89771886  0.72275135  0.37647279  1
  O  O51  1  0.30359953  0.07679851  0.02357985  1
  O  O52  1  0.89880029  0.40101102  0.38795121  1
  O  O53  1  0.75311199  0.05341865  0.34817264  1
  O  O54  1  0.59640047  0.34961912  0.27642015  1
  O  O55  1  0.60472253  0.69090818  0.29394269  1
  O  O56  1  0.45385785  0.85140105  0.24994427  1
  O  O57  1  0.94734409  0.75090425  0.55206130  1
  O  O58  1  0.29172753  0.31278412  0.17574754  1
  O  O59  1  0.29825180  0.99939691  0.18771626  1
  O  O60  1  0.80180432  0.91435961  0.51220636  1
  O  O61  1  0.80362464  0.25040370  0.52391546  1
  O  O62  1  0.15428526  0.65118510  0.14843718  1
  O  O63  1  0.64755593  0.54845042  0.45225268  1
  O  O64  1  0.50160568  0.19954286  0.41221582  1
  O  O65  1  0.50304021  0.87849181  0.42497330  1
  O  O66  1  0.34707891  0.35073040  0.35250129  1
  O  O67  1  0.95265591  0.85149886  0.74793870  1
  O  O68  1  0.20217281  0.51356265  0.31150577  1
  O  O69  1  0.79659373  0.14992827  0.67619626  1
  O  O70  1  0.20312664  0.85010568  0.32410939  1
  O  O71  1  0.79825238  0.48574022  0.68785250  1
  O  O72  1  0.04478460  0.14736300  0.25304373  1
  O  O73  1  0.65263751  0.64915267  0.64801853  1
  O  O74  1  0.49661447  0.12314466  0.57628700  1
  O  O75  1  0.49833514  0.80032557  0.58787918  1
  O  O76  1  0.35262523  0.45146161  0.54799875  1
  O  O77  1  0.84718361  0.34841444  0.85197409  1
  O  O78  1  0.19656753  0.74966202  0.47617796  1
  O  O79  1  0.19820857  0.08578132  0.48788677  1
  O  O80  1  0.70179143  0.99968598  0.81211323  1
  O  O81  1  0.70343247  0.67691653  0.82382204  1
  O  O82  1  0.05281639  0.24925674  0.44802591  1
  O  O83  1  0.54737477  0.15083863  0.75200125  1
  O  O84  1  0.40166486  0.31411125  0.71212082  1
  O  O85  1  0.40338553  0.65024218  0.72371300  1
  O  O86  1  0.24736249  0.94849663  0.65198147  1
  O  O87  1  0.10174762  0.59963434  0.61214750  1
  O  O88  1  0.69687336  0.92286964  0.97589061  1
  O  O89  1  0.10340627  0.27713728  0.62380374  1
  O  O90  1  0.69782719  0.59988307  0.98849423  1
  O  O91  1  0.55292109  0.25114919  0.94749871  1
  O  O92  1  0.39695979  0.55047830  0.87502670  1
  O  O93  1  0.39839432  0.88572136  0.88778418  1
  O  O94  1  0.25244407  0.04864181  0.84774732  1
  O  O95  1  0.09637536  0.52286259  0.77608454  1
  O  O96  1  0.09819568  0.20034993  0.78779364  1
  O  O97  1  0.14688801  0.55213402  0.95182736  1
  O  O98  1  0.00119971  0.71425952  0.91204879  1
  O  O99  1  0.00228114  0.04855970  0.92352721  1
