# generated using pymatgen
data_LiV2(PO4)3
_symmetry_space_group_name_H-M   'P 1'
_cell_length_a   8.63055039
_cell_length_b   8.54908904
_cell_length_c   8.59774758
_cell_angle_alpha   90.00000000
_cell_angle_beta   60.12565313
_cell_angle_gamma   60.07158907
_symmetry_Int_Tables_number   1
_chemical_formula_structural   LiV2(PO4)3
_chemical_formula_sum   'Li2 V4 P6 O24'
_cell_volume   449.90163476
_cell_formula_units_Z   2
loop_
 _symmetry_equiv_pos_site_id
 _symmetry_equiv_pos_as_xyz
  1  'x, y, z'
loop_
 _atom_site_type_symbol
 _atom_site_label
 _atom_site_symmetry_multiplicity
 _atom_site_fract_x
 _atom_site_fract_y
 _atom_site_fract_z
 _atom_site_occupancy
  Li  Li0  1  0.45179435  0.56575047  0.56640148  1
  Li  Li1  1  0.45179535  0.06575047  0.98180317  1
  V  V2  1  0.21677634  0.86510869  0.14416837  1
  V  V3  1  0.21677534  0.36510969  0.63905529  1
  V  V4  1  0.78189519  0.64604946  0.35881249  1
  V  V5  1  0.78189419  0.14604946  0.85929232  1
  P  P6  1  0.99980965  0.25803007  0.03734357  1
  P  P7  1  0.28392577  0.96439907  0.46610714  1
  P  P8  1  0.28392577  0.46439907  0.24996810  1
  P  P9  1  0.99980865  0.75803007  0.96284679  1
  P  P10  1  0.70960945  0.54642766  0.75236010  1
  P  P11  1  0.70960845  0.04642766  0.53803146  1
  O  O12  1  0.17545927  0.59196980  0.77041699  1
  O  O13  1  0.07021060  0.99622471  0.62843721  1
  O  O14  1  0.29923967  0.63097111  0.20166825  1
  O  O15  1  0.07021060  0.49622471  0.30135219  1
  O  O16  1  0.17545927  0.09196980  0.05412374  1
  O  O17  1  0.46958592  0.77512045  0.45011661  1
  O  O18  1  0.46958692  0.27512045  0.08029647  1
  O  O19  1  0.30478715  0.44376007  0.41919866  1
  O  O20  1  0.12756115  0.81183811  0.00095356  1
  O  O21  1  0.86978505  0.70619126  0.12443587  1
  O  O22  1  0.30478615  0.94376007  0.27601419  1
  O  O23  1  0.70047851  0.87497994  0.49750961  1
  O  O24  1  0.29923867  0.13097111  0.49909209  1
  O  O25  1  0.83285164  0.42767123  0.22608232  1
  O  O26  1  0.12756115  0.31183811  0.87148428  1
  O  O27  1  0.68160506  0.56369651  0.58690988  1
  O  O28  1  0.86978405  0.20619126  0.00577908  1
  O  O29  1  0.83285064  0.92767123  0.94106604  1
  O  O30  1  0.51940129  0.23535796  0.56050892  1
  O  O31  1  0.92265897  0.51510642  0.70088943  1
  O  O32  1  0.70047951  0.37497994  0.80201188  1
  O  O33  1  0.92265797  0.01510642  0.37645160  1
  O  O34  1  0.68160406  0.06369651  0.73148606  1
  O  O35  1  0.51940229  0.73535796  0.92008979  1
