# generated using pymatgen
data_Sm2Al
_symmetry_space_group_name_H-M   'P 1'
_cell_length_a   5.20815157
_cell_length_b   6.66495232
_cell_length_c   9.65379868
_cell_angle_alpha   90.00000000
_cell_angle_beta   90.00000000
_cell_angle_gamma   90.00000000
_symmetry_Int_Tables_number   1
_chemical_formula_structural   Sm2Al
_chemical_formula_sum   'Sm8 Al4'
_cell_volume   335.10345032
_cell_formula_units_Z   4
loop_
 _symmetry_equiv_pos_site_id
 _symmetry_equiv_pos_as_xyz
  1  'x, y, z'
loop_
 _atom_site_type_symbol
 _atom_site_label
 _atom_site_symmetry_multiplicity
 _atom_site_fract_x
 _atom_site_fract_y
 _atom_site_fract_z
 _atom_site_occupancy
  Sm  Sm0  1  0.75000000  0.30791277  0.57482597  1
  Sm  Sm1  1  0.75000000  0.80791277  0.92517403  1
  Sm  Sm2  1  0.25000000  0.69208723  0.42517403  1
  Sm  Sm3  1  0.25000000  0.19208723  0.07482597  1
  Sm  Sm4  1  0.75000000  0.47442428  0.20725983  1
  Sm  Sm5  1  0.75000000  0.97442428  0.29274017  1
  Sm  Sm6  1  0.25000000  0.52557572  0.79274017  1
  Sm  Sm7  1  0.25000000  0.02557572  0.70725983  1
  Al  Al8  1  0.75000000  0.28992645  0.89833976  1
  Al  Al9  1  0.75000000  0.78992645  0.60166024  1
  Al  Al10  1  0.25000000  0.71007355  0.10166024  1
  Al  Al11  1  0.25000000  0.21007355  0.39833976  1
