# generated using pymatgen
data_Fe2P2O7
_symmetry_space_group_name_H-M   'P 1'
_cell_length_a   4.58322304
_cell_length_b   5.30642907
_cell_length_c   5.61180068
_cell_angle_alpha   103.26363009
_cell_angle_beta   99.03197180
_cell_angle_gamma   99.25615978
_symmetry_Int_Tables_number   1
_chemical_formula_structural   Fe2P2O7
_chemical_formula_sum   'Fe2 P2 O7'
_cell_volume   128.41341468
_cell_formula_units_Z   1
loop_
 _symmetry_equiv_pos_site_id
 _symmetry_equiv_pos_as_xyz
  1  'x, y, z'
loop_
 _atom_site_type_symbol
 _atom_site_label
 _atom_site_symmetry_multiplicity
 _atom_site_fract_x
 _atom_site_fract_y
 _atom_site_fract_z
 _atom_site_occupancy
  Fe  Fe0  1  0.50647180  0.25516981  0.70748930  1
  Fe  Fe1  1  0.54523286  0.60553632  0.30225819  1
  P  P2  1  0.93870404  0.14247979  0.20932379  1
  P  P3  1  0.12074433  0.72002181  0.78818053  1
  O  O4  1  0.24087410  0.30794273  0.37318503  1
  O  O5  1  0.76090593  0.98219480  0.35201227  1
  O  O6  1  0.74883220  0.30781906  0.08212597  1
  O  O7  1  0.03404906  0.94731802  0.98725013  1
  O  O8  1  0.30374140  0.55962845  0.92761276  1
  O  O9  1  0.30558131  0.86515332  0.63643934  1
  O  O10  1  0.81626297  0.54983590  0.63352269  1
