# generated using pymatgen
data_Eu2Si
_symmetry_space_group_name_H-M   'P 1'
_cell_length_a   4.93857485
_cell_length_b   7.57693966
_cell_length_c   9.37899369
_cell_angle_alpha   89.99946989
_cell_angle_beta   90.00000000
_cell_angle_gamma   90.00000000
_symmetry_Int_Tables_number   1
_chemical_formula_structural   Eu2Si
_chemical_formula_sum   'Eu8 Si4'
_cell_volume   350.95522518
_cell_formula_units_Z   4
loop_
 _symmetry_equiv_pos_site_id
 _symmetry_equiv_pos_as_xyz
  1  'x, y, z'
loop_
 _atom_site_type_symbol
 _atom_site_label
 _atom_site_symmetry_multiplicity
 _atom_site_fract_x
 _atom_site_fract_y
 _atom_site_fract_z
 _atom_site_occupancy
  Eu  Eu0  1  0.75000000  0.48259498  0.18115154  1
  Eu  Eu1  1  0.75000000  0.98260980  0.31884180  1
  Eu  Eu2  1  0.25000000  0.51740502  0.81884846  1
  Eu  Eu3  1  0.25000000  0.01739020  0.68115820  1
  Eu  Eu4  1  0.75000000  0.34127961  0.57926878  1
  Eu  Eu5  1  0.75000000  0.84127619  0.92072746  1
  Eu  Eu6  1  0.25000000  0.65872039  0.42073122  1
  Eu  Eu7  1  0.25000000  0.15872381  0.07927254  1
  Si  Si8  1  0.75000000  0.25276059  0.89916071  1
  Si  Si9  1  0.75000000  0.75277601  0.60084141  1
  Si  Si10  1  0.25000000  0.74723941  0.10083929  1
  Si  Si11  1  0.25000000  0.24722399  0.39915859  1
