# generated using pymatgen
data_Zr2CuSi4
_symmetry_space_group_name_H-M   'P 1'
_cell_length_a   3.68265023
_cell_length_b   3.70761346
_cell_length_c   16.62650449
_cell_angle_alpha   96.40162470
_cell_angle_beta   90.00000000
_cell_angle_gamma   90.00000000
_symmetry_Int_Tables_number   1
_chemical_formula_structural   Zr2CuSi4
_chemical_formula_sum   'Zr4 Cu2 Si8'
_cell_volume   225.60019349
_cell_formula_units_Z   2
loop_
 _symmetry_equiv_pos_site_id
 _symmetry_equiv_pos_as_xyz
  1  'x, y, z'
loop_
 _atom_site_type_symbol
 _atom_site_label
 _atom_site_symmetry_multiplicity
 _atom_site_fract_x
 _atom_site_fract_y
 _atom_site_fract_z
 _atom_site_occupancy
  Zr  Zr0  1  0.75000000  0.32394070  0.64788140  1
  Zr  Zr1  1  0.25000000  0.67605930  0.35211860  1
  Zr  Zr2  1  0.75000000  0.04662000  0.09324001  1
  Zr  Zr3  1  0.25000000  0.95338000  0.90675999  1
  Cu  Cu4  1  0.75000000  0.74991853  0.49983706  1
  Cu  Cu5  1  0.25000000  0.25008147  0.50016294  1
  Si  Si6  1  0.75000000  0.47613319  0.95226638  1
  Si  Si7  1  0.25000000  0.52386681  0.04773362  1
  Si  Si8  1  0.75000000  0.61182632  0.22365263  1
  Si  Si9  1  0.25000000  0.38817368  0.77634737  1
  Si  Si10  1  0.75000000  0.88786272  0.77572543  1
  Si  Si11  1  0.25000000  0.11213728  0.22427457  1
  Si  Si12  1  0.75000000  0.20288815  0.40577629  1
  Si  Si13  1  0.25000000  0.79711185  0.59422371  1
