# generated using pymatgen
data_SbSBr
_symmetry_space_group_name_H-M   'P 1'
_cell_length_a   4.01409522
_cell_length_b   8.78099970
_cell_length_c   10.22093044
_cell_angle_alpha   90.00000000
_cell_angle_beta   90.00000000
_cell_angle_gamma   90.00000000
_symmetry_Int_Tables_number   1
_chemical_formula_structural   SbSBr
_chemical_formula_sum   'Sb4 S4 Br4'
_cell_volume   360.26499432
_cell_formula_units_Z   4
loop_
 _symmetry_equiv_pos_site_id
 _symmetry_equiv_pos_as_xyz
  1  'x, y, z'
loop_
 _atom_site_type_symbol
 _atom_site_label
 _atom_site_symmetry_multiplicity
 _atom_site_fract_x
 _atom_site_fract_y
 _atom_site_fract_z
 _atom_site_occupancy
  Sb  Sb0  1  0.26910603  0.60754017  0.36968181  1
  Sb  Sb1  1  0.76910603  0.39245983  0.63031819  1
  Sb  Sb2  1  0.76910603  0.89245983  0.86968181  1
  Sb  Sb3  1  0.26910603  0.10754017  0.13031819  1
  S  S4  1  0.26065043  0.34262607  0.45790747  1
  S  S5  1  0.76065043  0.65737393  0.54209253  1
  S  S6  1  0.76065043  0.15737393  0.95790747  1
  S  S7  1  0.26065043  0.84262607  0.04209253  1
  Br  Br8  1  0.25644354  0.01289006  0.68760224  1
  Br  Br9  1  0.75644354  0.98710994  0.31239776  1
  Br  Br10  1  0.75644354  0.48710994  0.18760224  1
  Br  Br11  1  0.25644354  0.51289006  0.81239776  1
