# generated using pymatgen
data_BiPtSe
_symmetry_space_group_name_H-M   'P 1'
_cell_length_a   6.55415245
_cell_length_b   6.55415245
_cell_length_c   6.55415245
_cell_angle_alpha   90.00000000
_cell_angle_beta   90.00000000
_cell_angle_gamma   90.00000000
_symmetry_Int_Tables_number   1
_chemical_formula_structural   BiPtSe
_chemical_formula_sum   'Bi4 Pt4 Se4'
_cell_volume   281.54616535
_cell_formula_units_Z   4
loop_
 _symmetry_equiv_pos_site_id
 _symmetry_equiv_pos_as_xyz
  1  'x, y, z'
loop_
 _atom_site_type_symbol
 _atom_site_label
 _atom_site_symmetry_multiplicity
 _atom_site_fract_x
 _atom_site_fract_y
 _atom_site_fract_z
 _atom_site_occupancy
  Bi  Bi0  1  0.12737723  0.62737723  0.87262277  1
  Bi  Bi1  1  0.62737723  0.87262277  0.12737723  1
  Bi  Bi2  1  0.87262277  0.12737723  0.62737723  1
  Bi  Bi3  1  0.37262277  0.37262277  0.37262277  1
  Pt  Pt4  1  0.48959265  0.98959265  0.51040735  1
  Pt  Pt5  1  0.98959265  0.51040735  0.48959265  1
  Pt  Pt6  1  0.51040735  0.48959265  0.98959265  1
  Pt  Pt7  1  0.01040735  0.01040735  0.01040735  1
  Se  Se8  1  0.87758787  0.37758787  0.12241213  1
  Se  Se9  1  0.37758787  0.12241213  0.87758787  1
  Se  Se10  1  0.12241213  0.87758787  0.37758787  1
  Se  Se11  1  0.62241213  0.62241213  0.62241213  1
