# generated using pymatgen
data_Eu2Zn2P3
_symmetry_space_group_name_H-M   'P 1'
_cell_length_a   4.10208688
_cell_length_b   8.01363287
_cell_length_c   9.48616044
_cell_angle_alpha   81.48041676
_cell_angle_beta   77.51322009
_cell_angle_gamma   75.17045126
_symmetry_Int_Tables_number   1
_chemical_formula_structural   Eu2Zn2P3
_chemical_formula_sum   'Eu4 Zn4 P6'
_cell_volume   292.89133085
_cell_formula_units_Z   2
loop_
 _symmetry_equiv_pos_site_id
 _symmetry_equiv_pos_as_xyz
  1  'x, y, z'
loop_
 _atom_site_type_symbol
 _atom_site_label
 _atom_site_symmetry_multiplicity
 _atom_site_fract_x
 _atom_site_fract_y
 _atom_site_fract_z
 _atom_site_occupancy
  Eu  Eu0  1  0.26995801  0.12703302  0.33305096  1
  Eu  Eu1  1  0.73004199  0.87296698  0.66694904  1
  Eu  Eu2  1  0.39188186  0.26468959  0.95154668  1
  Eu  Eu3  1  0.60811814  0.73531041  0.04845332  1
  Zn  Zn4  1  0.04133278  0.23368367  0.68365077  1
  Zn  Zn5  1  0.95866722  0.76631633  0.31634923  1
  Zn  Zn6  1  0.40959688  0.52904581  0.65176042  1
  Zn  Zn7  1  0.59040312  0.47095419  0.34823958  1
  P  P8  1  0.07222436  0.97444666  0.88110462  1
  P  P9  1  0.92777564  0.02555334  0.11889538  1
  P  P10  1  0.15242999  0.49308110  0.20205893  1
  P  P11  1  0.84757001  0.50691890  0.79794107  1
  P  P12  1  0.38705350  0.76565374  0.46023926  1
  P  P13  1  0.61294650  0.23434626  0.53976074  1
