# generated using pymatgen
data_Pr3Zn11
_symmetry_space_group_name_H-M   'P 1'
_cell_length_a   4.51558572
_cell_length_b   8.36951240
_cell_length_c   8.36951240
_cell_angle_alpha   65.12239056
_cell_angle_beta   74.34977806
_cell_angle_gamma   74.34977806
_symmetry_Int_Tables_number   1
_chemical_formula_structural   Pr3Zn11
_chemical_formula_sum   'Pr3 Zn11'
_cell_volume   271.86384014
_cell_formula_units_Z   1
loop_
 _symmetry_equiv_pos_site_id
 _symmetry_equiv_pos_as_xyz
  1  'x, y, z'
loop_
 _atom_site_type_symbol
 _atom_site_label
 _atom_site_symmetry_multiplicity
 _atom_site_fract_x
 _atom_site_fract_y
 _atom_site_fract_z
 _atom_site_occupancy
  Pr  Pr0  1  0.00000000  -0.00000000  0.00000000  1
  Pr  Pr1  1  0.30078936  0.69921064  0.69921064  1
  Pr  Pr2  1  0.69921064  0.30078936  0.30078936  1
  Zn  Zn3  1  0.00000000  0.50000000  0.50000000  1
  Zn  Zn4  1  0.50000000  0.30215859  0.69784141  1
  Zn  Zn5  1  0.50000000  0.69784141  0.30215859  1
  Zn  Zn6  1  0.33848901  0.30183128  0.02119070  1
  Zn  Zn7  1  0.66151099  0.69816872  0.97880930  1
  Zn  Zn8  1  0.33848901  0.02119070  0.30183128  1
  Zn  Zn9  1  0.66151099  0.97880930  0.69816872  1
  Zn  Zn10  1  0.13717224  0.58179594  0.14385958  1
  Zn  Zn11  1  0.86282776  0.41820406  0.85614042  1
  Zn  Zn12  1  0.13717224  0.14385958  0.58179594  1
  Zn  Zn13  1  0.86282776  0.85614042  0.41820406  1
