# generated using pymatgen
data_Tb2Al6Si4Au
_symmetry_space_group_name_H-M   'P 1'
_cell_length_a   17.01758148
_cell_length_b   17.01758148
_cell_length_c   17.01758149
_cell_angle_alpha   14.21586985
_cell_angle_beta   14.21586986
_cell_angle_gamma   14.21586985
_symmetry_Int_Tables_number   1
_chemical_formula_structural   Tb2Al6Si4Au
_chemical_formula_sum   'Tb2 Al6 Si4 Au1'
_cell_volume   258.71267975
_cell_formula_units_Z   1
loop_
 _symmetry_equiv_pos_site_id
 _symmetry_equiv_pos_as_xyz
  1  'x, y, z'
loop_
 _atom_site_type_symbol
 _atom_site_label
 _atom_site_symmetry_multiplicity
 _atom_site_fract_x
 _atom_site_fract_y
 _atom_site_fract_z
 _atom_site_occupancy
  Al  Al0  1  0.94789715  0.94789715  0.94789715  1
  Al  Al1  1  0.05210285  0.05210285  0.05210285  1
  Al  Al2  1  0.18542834  0.18542834  0.18542834  1
  Al  Al3  1  0.81457166  0.81457166  0.81457166  1
  Al  Al4  1  0.31694838  0.31694838  0.31694838  1
  Al  Al5  1  0.68305162  0.68305162  0.68305162  1
  Si  Si6  1  0.73403652  0.73403652  0.73403652  1
  Si  Si7  1  0.13525745  0.13525745  0.13525745  1
  Si  Si8  1  0.26596348  0.26596348  0.26596348  1
  Si  Si9  1  0.86474255  0.86474255  0.86474255  1
  Tb  Tb10  1  0.56554675  0.56554675  0.56554675  1
  Tb  Tb11  1  0.43445325  0.43445325  0.43445325  1
  Au  Au12  1  0.00000000  0.00000000  0.00000000  1
