# generated using pymatgen
data_K3Bi2I9
_symmetry_space_group_name_H-M   'P 1'
_cell_length_a   8.30461678
_cell_length_b   14.77271950
_cell_length_c   21.08825952
_cell_angle_alpha   91.38868120
_cell_angle_beta   90.00000000
_cell_angle_gamma   90.00000000
_symmetry_Int_Tables_number   1
_chemical_formula_structural   K3Bi2I9
_chemical_formula_sum   'K12 Bi8 I36'
_cell_volume   2586.38524017
_cell_formula_units_Z   4
loop_
 _symmetry_equiv_pos_site_id
 _symmetry_equiv_pos_as_xyz
  1  'x, y, z'
loop_
 _atom_site_type_symbol
 _atom_site_label
 _atom_site_symmetry_multiplicity
 _atom_site_fract_x
 _atom_site_fract_y
 _atom_site_fract_z
 _atom_site_occupancy
  K  K0  1  0.77711519  0.79879626  0.45258599  1
  K  K1  1  0.22288481  0.29879626  0.95258599  1
  K  K2  1  0.26577192  0.34670597  0.40338131  1
  K  K3  1  0.73422808  0.84670597  0.90338131  1
  K  K4  1  0.22709726  0.62611178  0.62499496  1
  K  K5  1  0.77290274  0.12611178  0.12499496  1
  K  K6  1  0.23234786  0.96588994  0.29085163  1
  K  K7  1  0.76765214  0.46588994  0.79085163  1
  K  K8  1  0.72604470  0.18964076  0.56743280  1
  K  K9  1  0.27395630  0.68964076  0.06743280  1
  K  K10  1  0.71917963  0.51478154  0.23985599  1
  K  K11  1  0.28082037  0.01478154  0.73985599  1
  Bi  Bi12  1  0.24216232  0.32571189  0.18911745  1
  Bi  Bi13  1  0.75783768  0.82571189  0.68911745  1
  Bi  Bi14  1  0.76061589  0.49301488  0.50461190  1
  Bi  Bi15  1  0.23938411  0.99301488  0.00461190  1
  Bi  Bi16  1  0.73992779  0.82436214  0.18820236  1
  Bi  Bi17  1  0.26007221  0.32436214  0.68820236  1
  Bi  Bi18  1  0.25565100  0.98904414  0.50605469  1
  Bi  Bi19  1  0.74434900  0.48904414  0.00605469  1
  I  I20  1  0.34188640  0.82907056  0.42459387  1
  I  I21  1  0.43478471  0.39485704  0.55855864  1
  I  I22  1  0.35620041  0.16855736  0.08838499  1
  I  I23  1  0.64379959  0.66855736  0.58838499  1
  I  I24  1  0.16491548  0.82166780  0.93296709  1
  I  I25  1  0.83508452  0.32166780  0.43296709  1
  I  I26  1  0.43992574  0.06667533  0.90036498  1
  I  I27  1  0.56007426  0.56667533  0.40036498  1
  I  I28  1  0.55525264  0.22807453  0.72800116  1
  I  I29  1  0.44474736  0.72807453  0.22800116  1
  I  I30  1  0.04705015  0.52173461  0.93409273  1
  I  I31  1  0.56521529  0.89485704  0.05855864  1
  I  I32  1  0.94301184  0.08879094  0.96574958  1
  I  I33  1  0.05698816  0.58879094  0.46574958  1
  I  I34  1  0.95040422  0.69510194  0.76383729  1
  I  I35  1  0.04959578  0.19510194  0.26383729  1
  I  I36  1  0.85675006  0.64799705  0.10555035  1
  I  I37  1  0.14324994  0.14799705  0.60555035  1
  I  I38  1  0.42703676  0.46611135  0.09545138  1
  I  I39  1  0.57296324  0.96611135  0.59545138  1
  I  I40  1  0.05577544  0.25348405  0.79224191  1
  I  I41  1  0.94422456  0.75348405  0.29224191  1
  I  I42  1  0.92389547  0.34977894  0.10110457  1
  I  I43  1  0.07610453  0.84977894  0.60110457  1
  I  I44  1  0.45766105  0.79268849  0.76251806  1
  I  I45  1  0.54233895  0.29268849  0.26251806  1
  I  I46  1  0.93426479  0.42136757  0.63372557  1
  I  I47  1  0.06573521  0.92136757  0.13372557  1
  I  I48  1  0.55226652  0.61755402  0.92913594  1
  I  I49  1  0.44773348  0.11755402  0.42913594  1
  I  I50  1  0.33689670  0.49553470  0.75939208  1
  I  I51  1  0.66310330  0.99553470  0.25939208  1
  I  I52  1  0.15292044  0.48459643  0.27123973  1
  I  I53  1  0.84707956  0.98459643  0.77123973  1
  I  I54  1  0.95294985  0.02173461  0.43409273  1
  I  I55  1  0.65811360  0.32907056  0.92459387  1
