# generated using pymatgen
data_WO3
_symmetry_space_group_name_H-M   'P 1'
_cell_length_a   7.60205524
_cell_length_b   7.70010399
_cell_length_c   7.74714251
_cell_angle_alpha   90.00000000
_cell_angle_beta   90.00000000
_cell_angle_gamma   90.00000000
_symmetry_Int_Tables_number   1
_chemical_formula_structural   WO3
_chemical_formula_sum   'W8 O24'
_cell_volume   453.49150532
_cell_formula_units_Z   8
loop_
 _symmetry_equiv_pos_site_id
 _symmetry_equiv_pos_as_xyz
  1  'x, y, z'
loop_
 _atom_site_type_symbol
 _atom_site_label
 _atom_site_symmetry_multiplicity
 _atom_site_fract_x
 _atom_site_fract_y
 _atom_site_fract_z
 _atom_site_occupancy
  W  W0  1  0.75096060  0.01766045  0.76631891  1
  W  W1  1  0.74903940  0.01766045  0.26631891  1
  W  W2  1  0.24903940  0.98233955  0.23368109  1
  W  W3  1  0.24903940  0.48233955  0.76631891  1
  W  W4  1  0.75096060  0.51766045  0.23368109  1
  W  W5  1  0.74903940  0.51766045  0.73368109  1
  W  W6  1  0.25096060  0.98233955  0.73368109  1
  W  W7  1  0.25096060  0.48233955  0.26631891  1
  O  O8  1  0.72073595  0.75761970  0.74708108  1
  O  O9  1  0.49961067  0.02892148  0.72535023  1
  O  O10  1  0.27926405  0.24238030  0.25291892  1
  O  O11  1  0.77926405  0.25761970  0.75291892  1
  O  O12  1  0.72478261  0.00968669  0.00378641  1
  O  O13  1  0.99961067  0.97107852  0.77464977  1
  O  O14  1  0.00038933  0.02892148  0.22535023  1
  O  O15  1  0.77926405  0.75761970  0.24708108  1
  O  O16  1  0.00038933  0.52892148  0.77464977  1
  O  O17  1  0.49961067  0.52892148  0.27464977  1
  O  O18  1  0.22478261  0.99031331  0.49621359  1
  O  O19  1  0.99961067  0.47107852  0.22535023  1
  O  O20  1  0.50038933  0.97107852  0.27464977  1
  O  O21  1  0.22478261  0.49031331  0.50378641  1
  O  O22  1  0.72073595  0.25761970  0.25291892  1
  O  O23  1  0.27521739  0.49031331  0.00378641  1
  O  O24  1  0.50038933  0.47107852  0.72535023  1
  O  O25  1  0.72478261  0.50968669  0.99621359  1
  O  O26  1  0.22073595  0.74238030  0.24708108  1
  O  O27  1  0.27521739  0.99031331  0.99621359  1
  O  O28  1  0.77521739  0.00968669  0.50378641  1
  O  O29  1  0.27926405  0.74238030  0.74708108  1
  O  O30  1  0.77521739  0.50968669  0.49621359  1
  O  O31  1  0.22073595  0.24238030  0.75291892  1
