# generated using pymatgen
data_Ca10TaTi8Al(SiO5)10
_symmetry_space_group_name_H-M   'P 1'
_cell_length_a   27.53784216
_cell_length_b   6.68373744
_cell_length_c   7.13173745
_cell_angle_alpha   114.17876982
_cell_angle_beta   104.36790959
_cell_angle_gamma   52.73463975
_symmetry_Int_Tables_number   1
_chemical_formula_structural   Ca10TaTi8Al(SiO5)10
_chemical_formula_sum   'Ca10 Ta1 Ti8 Al1 Si10 O50'
_cell_volume   953.00361041
_cell_formula_units_Z   1
loop_
 _symmetry_equiv_pos_site_id
 _symmetry_equiv_pos_as_xyz
  1  'x, y, z'
loop_
 _atom_site_type_symbol
 _atom_site_label
 _atom_site_symmetry_multiplicity
 _atom_site_fract_x
 _atom_site_fract_y
 _atom_site_fract_z
 _atom_site_occupancy
  Ca  Ca0  1  0.13110261  0.17224410  0.25031716  1
  Ca  Ca1  1  0.06887915  0.82787990  0.74913026  1
  Ca  Ca2  1  0.33110845  0.17224098  0.25013840  1
  Ca  Ca3  1  0.26889155  0.82775902  0.74986160  1
  Ca  Ca4  1  0.53112085  0.17212010  0.25086974  1
  Ca  Ca5  1  0.46889739  0.82775590  0.74968284  1
  Ca  Ca6  1  0.73105261  0.15911952  0.24064359  1
  Ca  Ca7  1  0.66909743  0.82644980  0.75860385  1
  Ca  Ca8  1  0.93090257  0.17355020  0.24139615  1
  Ca  Ca9  1  0.86894739  0.84088048  0.75935641  1
  Ta  Ta10  1  0.80000000  0.50000000  0.50000000  1
  Ti  Ti11  1  0.99967324  0.50076394  0.49994076  1
  Ti  Ti12  1  0.00018063  0.49985037  0.00036932  1
  Ti  Ti13  1  0.20001042  0.50005583  0.50002054  1
  Ti  Ti14  1  0.19995994  0.50009969  0.00000954  1
  Ti  Ti15  1  0.39998958  0.49994417  0.49997946  1
  Ti  Ti16  1  0.40004006  0.49990031  0.99999046  1
  Ti  Ti17  1  0.60032676  0.49923606  0.50005924  1
  Ti  Ti18  1  0.59981937  0.50014963  0.99963068  1
  Al  Al19  1  0.80000000  0.50000000  0.00000000  1
  Si  Si20  1  0.12811339  0.18001574  0.74993500  1
  Si  Si21  1  0.07174583  0.82090864  0.25007527  1
  Si  Si22  1  0.32818061  0.17960712  0.75011836  1
  Si  Si23  1  0.27181939  0.82039288  0.24988164  1
  Si  Si24  1  0.52825417  0.17909136  0.74992473  1
  Si  Si25  1  0.47188661  0.81998426  0.25006500  1
  Si  Si26  1  0.72853475  0.18808320  0.75677384  1
  Si  Si27  1  0.67185062  0.82164340  0.24588780  1
  Si  Si28  1  0.92814938  0.17835660  0.75411220  1
  Si  Si29  1  0.87146525  0.81191680  0.24322616  1
  O  O30  1  0.02467688  0.12498549  0.40527053  1
  O  O31  1  0.08579722  0.18868753  0.88599645  1
  O  O32  1  0.02749187  0.43138364  0.25020282  1
  O  O33  1  0.08572420  0.38288035  0.61446622  1
  O  O34  1  0.02493327  0.75089876  0.09348693  1
  O  O35  1  0.17517878  0.24888643  0.90593163  1
  O  O36  1  0.11413834  0.61776662  0.38572306  1
  O  O37  1  0.17252097  0.56871519  0.74993932  1
  O  O38  1  0.22488811  0.12455001  0.40593985  1
  O  O39  1  0.11424171  0.81143490  0.11411589  1
  O  O40  1  0.28577209  0.18866843  0.88594691  1
  O  O41  1  0.17508042  0.87557451  0.59400617  1
  O  O42  1  0.22748047  0.43130023  0.25004811  1
  O  O43  1  0.28577259  0.38263316  0.61437518  1
  O  O44  1  0.22483573  0.75112269  0.09414308  1
  O  O45  1  0.37516427  0.24887731  0.90585692  1
  O  O46  1  0.31422741  0.61736684  0.38562482  1
  O  O47  1  0.37251953  0.56869977  0.74995189  1
  O  O48  1  0.42491958  0.12442549  0.40599383  1
  O  O49  1  0.31422791  0.81133157  0.11405309  1
  O  O50  1  0.48575829  0.18856510  0.88588411  1
  O  O51  1  0.37511189  0.87544999  0.59406015  1
  O  O52  1  0.42747903  0.43128481  0.25006068  1
  O  O53  1  0.48586166  0.38223338  0.61427694  1
  O  O54  1  0.42482122  0.75111357  0.09406837  1
  O  O55  1  0.57506673  0.24910124  0.90651307  1
  O  O56  1  0.51427580  0.61711965  0.38553378  1
  O  O57  1  0.57250813  0.56861636  0.74979718  1
  O  O58  1  0.62511217  0.12322755  0.40426778  1
  O  O59  1  0.51420278  0.81131247  0.11400355  1
  O  O60  1  0.68580099  0.18880514  0.88545134  1
  O  O61  1  0.57532312  0.87501451  0.59472947  1
  O  O62  1  0.62748738  0.43083067  0.24940808  1
  O  O63  1  0.68579538  0.38205707  0.61387678  1
  O  O64  1  0.62499339  0.75067647  0.09283722  1
  O  O65  1  0.77567687  0.25318702  0.90775441  1
  O  O66  1  0.71386311  0.61897940  0.38568693  1
  O  O67  1  0.77304086  0.56674079  0.75527637  1
  O  O68  1  0.82529525  0.11944107  0.40364261  1
  O  O69  1  0.71569130  0.80633110  0.11337668  1
  O  O70  1  0.88430870  0.19366890  0.88662332  1
  O  O71  1  0.77470475  0.88055893  0.59635739  1
  O  O72  1  0.82695914  0.43325921  0.24472363  1
  O  O73  1  0.88613689  0.38102060  0.61431307  1
  O  O74  1  0.82432313  0.74681298  0.09224559  1
  O  O75  1  0.97500661  0.24932353  0.90716278  1
  O  O76  1  0.91420462  0.61794293  0.38612322  1
  O  O77  1  0.97251262  0.56916933  0.75059192  1
  O  O78  1  0.91419901  0.81119486  0.11454866  1
  O  O79  1  0.97488783  0.87677245  0.59573222  1
