# generated using pymatgen
data_Sr2La6FeCu7O20
_symmetry_space_group_name_H-M   'P 1'
_cell_length_a   3.98041299
_cell_length_b   10.73597272
_cell_length_c   10.76652249
_cell_angle_alpha   90.01742720
_cell_angle_beta   90.00000000
_cell_angle_gamma   90.00000000
_symmetry_Int_Tables_number   1
_chemical_formula_structural   Sr2La6FeCu7O20
_chemical_formula_sum   'Sr2 La6 Fe1 Cu7 O20'
_cell_volume   460.09230103
_cell_formula_units_Z   1
loop_
 _symmetry_equiv_pos_site_id
 _symmetry_equiv_pos_as_xyz
  1  'x, y, z'
loop_
 _atom_site_type_symbol
 _atom_site_label
 _atom_site_symmetry_multiplicity
 _atom_site_fract_x
 _atom_site_fract_y
 _atom_site_fract_z
 _atom_site_occupancy
  Sr  Sr0  1  0.50000000  0.97718895  0.74757553  1
  Sr  Sr1  1  0.50000000  0.52463296  0.25924907  1
  La  La2  1  0.50000000  0.02103704  0.25077812  1
  La  La3  1  0.50000000  0.24424641  0.97226700  1
  La  La4  1  0.50000000  0.74761478  0.02413069  1
  La  La5  1  0.50000000  0.26647800  0.46937903  1
  La  La6  1  0.50000000  0.74326869  0.52436060  1
  La  La7  1  0.50000000  0.47704054  0.74208145  1
  Fe  Fe8  1  -0.00000000  0.99970892  0.99761688  1
  Cu  Cu9  1  -0.00000000  0.99605290  0.49664287  1
  Cu  Cu10  1  -0.00000000  0.50223993  0.99671154  1
  Cu  Cu11  1  0.00000000  0.77663974  0.27688499  1
  Cu  Cu12  1  0.00000000  0.72470324  0.77812489  1
  Cu  Cu13  1  0.00000000  0.22549167  0.72485355  1
  Cu  Cu14  1  -0.00000000  0.27355611  0.22381604  1
  Cu  Cu15  1  -0.00000000  0.50087320  0.50097723  1
  O  O16  1  0.00000000  0.39495226  0.34882209  1
  O  O17  1  0.00000000  0.63139053  0.11627407  1
  O  O18  1  -0.00000000  0.09647729  0.84434768  1
  O  O19  1  0.00000000  0.33781685  0.59238520  1
  O  O20  1  0.00000000  0.86765286  0.61646025  1
  O  O21  1  0.00000000  0.83643275  0.91476850  1
  O  O22  1  0.50000000  0.00002579  0.01065670  1
  O  O23  1  0.50000000  0.26847127  0.22349020  1
  O  O24  1  0.50000000  0.78039579  0.27775973  1
  O  O25  1  0.50000000  0.50108568  0.50601348  1
  O  O26  1  0.50000000  0.99667757  0.49284632  1
  O  O27  1  0.50000000  0.23135309  0.72451393  1
  O  O28  1  0.50000000  0.50092276  0.99276379  1
  O  O29  1  0.50000000  0.71917113  0.77953388  1
  O  O30  1  -0.00000000  0.12297281  0.37515340  1
  O  O31  1  0.00000000  0.16788252  0.08396811  1
  O  O32  1  0.00000000  0.37654451  0.87466679  1
  O  O33  1  0.00000000  0.59172193  0.66454166  1
  O  O34  1  0.00000000  0.66276732  0.40969909  1
  O  O35  1  -0.00000000  0.91451224  0.16588565  1
