# generated using pymatgen
data_Na3PrTi2Nb2O12
_symmetry_space_group_name_H-M   'P 1'
_cell_length_a   5.53898992
_cell_length_b   5.61941555
_cell_length_c   15.64710336
_cell_angle_alpha   90.00000000
_cell_angle_beta   90.00000000
_cell_angle_gamma   90.00000000
_symmetry_Int_Tables_number   1
_chemical_formula_structural   Na3PrTi2Nb2O12
_chemical_formula_sum   'Na6 Pr2 Ti4 Nb4 O24'
_cell_volume   487.02995679
_cell_formula_units_Z   2
loop_
 _symmetry_equiv_pos_site_id
 _symmetry_equiv_pos_as_xyz
  1  'x, y, z'
loop_
 _atom_site_type_symbol
 _atom_site_label
 _atom_site_symmetry_multiplicity
 _atom_site_fract_x
 _atom_site_fract_y
 _atom_site_fract_z
 _atom_site_occupancy
  Na  Na0  1  -0.00044026  0.99242419  0.37162880  1
  Na  Na1  1  -0.00044026  0.99242419  0.87837120  1
  Na  Na2  1  0.50044026  0.49242419  0.87837120  1
  Na  Na3  1  0.50044026  0.49242419  0.37162880  1
  Na  Na4  1  0.50496712  0.52982611  0.62500000  1
  Na  Na5  1  0.99503288  0.02982611  0.62500000  1
  Pr  Pr6  1  0.50537120  0.53796249  0.12500000  1
  Pr  Pr7  1  0.99462880  0.03796249  0.12500000  1
  Ti  Ti8  1  0.00661944  0.52001875  0.99562914  1
  Ti  Ti9  1  0.00661944  0.52001875  0.25437086  1
  Ti  Ti10  1  0.49338056  0.02001875  0.25437086  1
  Ti  Ti11  1  0.49338056  0.02001875  0.99562914  1
  Nb  Nb12  1  0.00514717  0.52093119  0.75117863  1
  Nb  Nb13  1  0.49485283  0.02093119  0.75117863  1
  Nb  Nb14  1  0.49485283  0.02093119  0.49882137  1
  Nb  Nb15  1  0.00514717  0.52093119  0.49882137  1
  O  O16  1  0.06891377  0.47420281  0.12500000  1
  O  O17  1  0.06642674  0.47500609  0.62500000  1
  O  O18  1  0.20765108  0.20225637  0.48147034  1
  O  O19  1  0.21994713  0.20713529  0.99013783  1
  O  O20  1  0.21994713  0.20713529  0.25986217  1
  O  O21  1  0.20765108  0.20225637  0.76852966  1
  O  O22  1  0.28005287  0.70713529  0.25986217  1
  O  O23  1  0.29234892  0.70225637  0.48147034  1
  O  O24  1  0.29234892  0.70225637  0.76852966  1
  O  O25  1  0.28005287  0.70713529  0.99013783  1
  O  O26  1  0.43108623  0.97420281  0.12500000  1
  O  O27  1  0.43357326  0.97500609  0.62500000  1
  O  O28  1  0.56619577  0.00314959  0.37222140  1
  O  O29  1  0.56619577  0.00314959  0.87777860  1
  O  O30  1  0.71938395  0.26466893  0.02445326  1
  O  O31  1  0.71938395  0.26466893  0.22554674  1
  O  O32  1  0.70961311  0.28091693  0.51631078  1
  O  O33  1  0.70961311  0.28091693  0.73368922  1
  O  O34  1  0.78061605  0.76466893  0.22554674  1
  O  O35  1  0.79038689  0.78091693  0.73368922  1
  O  O36  1  0.78061605  0.76466893  0.02445326  1
  O  O37  1  0.79038689  0.78091693  0.51631078  1
  O  O38  1  0.93380423  0.50314959  0.37222140  1
  O  O39  1  0.93380423  0.50314959  0.87777860  1
