# generated using pymatgen
data_SrLaFeSnO6
_symmetry_space_group_name_H-M   'P 1'
_cell_length_a   5.74420736
_cell_length_b   5.69614089
_cell_length_c   8.06868026
_cell_angle_alpha   90.15589365
_cell_angle_beta   90.00000000
_cell_angle_gamma   90.00000000
_symmetry_Int_Tables_number   1
_chemical_formula_structural   SrLaFeSnO6
_chemical_formula_sum   'Sr2 La2 Fe2 Sn2 O12'
_cell_volume   264.00474372
_cell_formula_units_Z   2
loop_
 _symmetry_equiv_pos_site_id
 _symmetry_equiv_pos_as_xyz
  1  'x, y, z'
loop_
 _atom_site_type_symbol
 _atom_site_label
 _atom_site_symmetry_multiplicity
 _atom_site_fract_x
 _atom_site_fract_y
 _atom_site_fract_z
 _atom_site_occupancy
  Sr  Sr0  1  0.47316764  0.50568700  0.74952788  1
  Sr  Sr1  1  0.02683236  0.00568700  0.24952788  1
  La  La2  1  0.95864400  0.98823377  0.75030029  1
  La  La3  1  0.54135600  0.48823377  0.25030029  1
  Fe  Fe4  1  0.49774357  0.99926229  0.99954990  1
  Fe  Fe5  1  0.00225643  0.49926229  0.49954990  1
  Sn  Sn6  1  0.49591673  0.99945628  0.49981831  1
  Sn  Sn7  1  0.00408327  0.49945628  0.99981831  1
  O  O8  1  0.01612684  0.40927779  0.74763777  1
  O  O9  1  0.52470758  0.07018845  0.75290749  1
  O  O10  1  0.97529242  0.57018845  0.25290749  1
  O  O11  1  0.48387316  0.90927779  0.24763777  1
  O  O12  1  0.21142914  0.79485971  0.95445382  1
  O  O13  1  0.72426542  0.71949442  0.54121975  1
  O  O14  1  0.77972904  0.22425265  0.45928228  1
  O  O15  1  0.29457541  0.28928764  0.04530251  1
  O  O16  1  0.77573458  0.21949442  0.04121975  1
  O  O17  1  0.28857086  0.29485971  0.45445382  1
  O  O18  1  0.20542459  0.78928764  0.54530251  1
  O  O19  1  0.72027096  0.72425265  0.95928228  1
