# generated using pymatgen
data_Li4MnV3(P2O7)4
_symmetry_space_group_name_H-M   'P 1'
_cell_length_a   9.75179073
_cell_length_b   8.31146394
_cell_length_c   7.06101653
_cell_angle_alpha   90.53014318
_cell_angle_beta   108.78401777
_cell_angle_gamma   89.69793836
_symmetry_Int_Tables_number   1
_chemical_formula_structural   Li4MnV3(P2O7)4
_chemical_formula_sum   'Li4 Mn1 V3 P8 O28'
_cell_volume   541.80072693
_cell_formula_units_Z   1
loop_
 _symmetry_equiv_pos_site_id
 _symmetry_equiv_pos_as_xyz
  1  'x, y, z'
loop_
 _atom_site_type_symbol
 _atom_site_label
 _atom_site_symmetry_multiplicity
 _atom_site_fract_x
 _atom_site_fract_y
 _atom_site_fract_z
 _atom_site_occupancy
  Li  Li0  1  0.08638264  0.86251482  0.67374845  1
  Li  Li1  1  0.41199904  0.36190990  0.32453441  1
  Li  Li2  1  0.58818182  0.86192277  0.67560840  1
  Li  Li3  1  0.91225300  0.36144900  0.32402768  1
  Mn  Mn4  1  0.89233986  0.99889859  0.26851836  1
  V  V5  1  0.10702875  0.49933454  0.72830162  1
  V  V6  1  0.39281354  0.99969054  0.27193615  1
  V  V7  1  0.60786425  0.49933799  0.72810704  1
  P  P8  1  0.19967011  0.17963394  0.52214515  1
  P  P9  1  0.10690119  0.78464065  0.08763734  1
  P  P10  1  0.39336937  0.28412611  0.91380457  1
  P  P11  1  0.30002844  0.68061627  0.47816776  1
  P  P12  1  0.70078664  0.17907965  0.52204119  1
  P  P13  1  0.60799076  0.78326528  0.08769480  1
  P  P14  1  0.89384490  0.28559400  0.91343007  1
  P  P15  1  0.80065090  0.68032511  0.48039696  1
  O  O16  1  0.02446371  0.32560003  0.84868994  1
  O  O17  1  0.06673333  0.69605295  0.88734956  1
  O  O18  1  0.09371793  0.03720483  0.48178674  1
  O  O19  1  0.12354686  0.34295154  0.50613486  1
  O  O20  1  0.19859600  0.67782616  0.60534176  1
  O  O21  1  0.30003510  0.43331130  0.91653368  1
  O  O22  1  0.29753097  0.15342221  0.75200757  1
  O  O23  1  0.20209748  0.65432335  0.24733415  1
  O  O24  1  0.19907743  0.93330682  0.08518670  1
  O  O25  1  0.30163341  0.17731634  0.39506193  1
  O  O26  1  0.37675556  0.84315562  0.49377442  1
  O  O27  1  0.40650646  0.53846850  0.51684933  1
  O  O28  1  0.52456150  0.32477881  0.85111166  1
  O  O29  1  0.56612921  0.69605486  0.88627511  1
  O  O30  1  0.43319416  0.19641220  0.11348285  1
  O  O31  1  0.47548096  0.82529223  0.14868288  1
  O  O32  1  0.59361788  0.03817633  0.48260464  1
  O  O33  1  0.62370955  0.34206152  0.50557909  1
  O  O34  1  0.69698643  0.67599279  0.60481812  1
  O  O35  1  0.79974931  0.43469578  0.91448069  1
  O  O36  1  0.79790569  0.15400460  0.75234261  1
  O  O37  1  0.70300053  0.65438522  0.24820432  1
  O  O38  1  0.70017972  0.93288795  0.08487952  1
  O  O39  1  0.80114859  0.17610818  0.39217960  1
  O  O40  1  0.87739985  0.84158964  0.50192911  1
  O  O41  1  0.90603015  0.53688685  0.51688897  1
  O  O42  1  0.93552282  0.20126312  0.11384324  1
  O  O43  1  0.97258422  0.82529010  0.14654900  1
