# generated using pymatgen
data_Na9CaFe10(SiO3)20
_symmetry_space_group_name_H-M   'P 1'
_cell_length_a   26.78170176
_cell_length_b   13.78270779
_cell_length_c   9.38936453
_cell_angle_alpha   48.99857886
_cell_angle_beta   43.55110751
_cell_angle_gamma   28.02429042
_symmetry_Int_Tables_number   1
_chemical_formula_structural   Na9CaFe10(SiO3)20
_chemical_formula_sum   'Na9 Ca1 Fe10 Si20 O60'
_cell_volume   1120.55545441
_cell_formula_units_Z   1
loop_
 _symmetry_equiv_pos_site_id
 _symmetry_equiv_pos_as_xyz
  1  'x, y, z'
loop_
 _atom_site_type_symbol
 _atom_site_label
 _atom_site_symmetry_multiplicity
 _atom_site_fract_x
 _atom_site_fract_y
 _atom_site_fract_z
 _atom_site_occupancy
  Na  Na0  1  0.09019498  0.29979490  0.69876361  1
  Na  Na1  1  0.11126934  0.69646694  0.30007184  1
  Na  Na2  1  0.28895992  0.30322543  0.69918909  1
  Na  Na3  1  0.30997570  0.69977660  0.30132933  1
  Na  Na4  1  0.49135107  0.29805551  0.70209341  1
  Na  Na5  1  0.50990232  0.70063871  0.29920483  1
  Na  Na6  1  0.70963706  0.70204002  0.29853642  1
  Na  Na7  1  0.89083373  0.29958452  0.69741148  1
  Na  Na8  1  0.90918754  0.70035105  0.30283464  1
  Ca  Ca9  1  0.68760591  0.30018566  0.70154419  1
  Fe  Fe10  1  0.03067211  0.10017990  0.89678776  1
  Fe  Fe11  1  0.22845675  0.10443544  0.89822427  1
  Fe  Fe12  1  0.17055584  0.89773508  0.10198950  1
  Fe  Fe13  1  0.42978603  0.10174306  0.89846659  1
  Fe  Fe14  1  0.37014359  0.89943829  0.10071259  1
  Fe  Fe15  1  0.63062375  0.09339581  0.90147599  1
  Fe  Fe16  1  0.56983475  0.90233455  0.09911516  1
  Fe  Fe17  1  0.83120492  0.09834239  0.90359081  1
  Fe  Fe18  1  0.77002322  0.89733433  0.10207340  1
  Fe  Fe19  1  0.97109519  0.89711933  0.10203975  1
  Si  Si20  1  0.09758825  0.20034884  0.37875118  1
  Si  Si21  1  0.16166891  0.37912762  0.20059456  1
  Si  Si22  1  0.29724219  0.20076903  0.37953257  1
  Si  Si23  1  0.03783504  0.62209170  0.79906199  1
  Si  Si24  1  0.36100872  0.37872168  0.20144444  1
  Si  Si25  1  0.10275810  0.79988761  0.61986765  1
  Si  Si26  1  0.49785075  0.19967027  0.37936026  1
  Si  Si27  1  0.23846526  0.62041983  0.79982339  1
  Si  Si28  1  0.56006903  0.38227743  0.20155757  1
  Si  Si29  1  0.30248862  0.79966192  0.62045828  1
  Si  Si30  1  0.69777725  0.19900044  0.37916409  1
  Si  Si31  1  0.43592495  0.62543787  0.80096027  1
  Si  Si32  1  0.76190590  0.37981220  0.19662518  1
  Si  Si33  1  0.50140012  0.80397445  0.61960548  1
  Si  Si34  1  0.89828470  0.20011645  0.37832625  1
  Si  Si35  1  0.63932101  0.61901234  0.79940845  1
  Si  Si36  1  0.96186693  0.37974646  0.19925079  1
  Si  Si37  1  0.70329913  0.79872667  0.61978080  1
  Si  Si38  1  0.83881451  0.61765368  0.80162901  1
  Si  Si39  1  0.90344974  0.79790412  0.62133759  1
  O  O40  1  0.01999193  0.03323880  0.19628894  1
  O  O41  1  0.08779998  0.19417059  0.03472021  1
  O  O42  1  0.07461294  0.10531830  0.61281372  1
  O  O43  1  0.21977487  0.03600791  0.19239405  1
  O  O44  1  0.09038873  0.34030307  0.36037823  1
  O  O45  1  0.07214092  0.61405692  0.10718492  1
  O  O46  1  0.28813293  0.19331015  0.03569392  1
  O  O47  1  0.18612751  0.36034965  0.34099535  1
  O  O48  1  0.01565032  0.63722340  0.65710868  1
  O  O49  1  0.27421405  0.10593490  0.61434704  1
  O  O50  1  0.41924828  0.03510705  0.19449264  1
  O  O51  1  0.12608909  0.38848244  0.89539250  1
  O  O52  1  0.28763341  0.34314435  0.36502828  1
  O  O53  1  0.10859988  0.66225261  0.63815933  1
  O  O54  1  0.27165942  0.61493726  0.10833647  1
  O  O55  1  0.48272126  0.19521562  0.03927875  1
  O  O56  1  0.12450596  0.89701606  0.38669445  1
  O  O57  1  0.38720847  0.36030551  0.33812338  1
  O  O58  1  0.21296043  0.64055263  0.66020810  1
  O  O59  1  0.47249643  0.10865720  0.61520195  1
  O  O60  1  0.62131092  0.03086738  0.19935161  1
  O  O61  1  0.11188291  0.80649786  0.96501766  1
  O  O62  1  0.32696261  0.38653650  0.89374010  1
  O  O63  1  0.49055696  0.34061374  0.36060624  1
  O  O64  1  0.30950234  0.65963588  0.63972638  1
  O  O65  1  0.47262255  0.61471906  0.10322161  1
  O  O66  1  0.68665112  0.19894273  0.03152185  1
  O  O67  1  0.18019485  0.96426445  0.80676449  1
  O  O68  1  0.32607778  0.89284679  0.38563736  1
  O  O69  1  0.58627696  0.36472903  0.33598894  1
  O  O70  1  0.41277789  0.64190364  0.65972646  1
  O  O71  1  0.67812625  0.09866844  0.60601880  1
  O  O72  1  0.82003825  0.03790617  0.18898614  1
  O  O73  1  0.30970556  0.81135036  0.96481064  1
  O  O74  1  0.52803649  0.39438055  0.89028746  1
  O  O75  1  0.69213035  0.33614554  0.36489203  1
  O  O76  1  0.50923094  0.66258041  0.63780155  1
  O  O77  1  0.67140894  0.61377352  0.10759338  1
  O  O78  1  0.88870155  0.19272580  0.03411716  1
  O  O79  1  0.37974601  0.96680397  0.80630518  1
  O  O80  1  0.52642482  0.89465570  0.38601606  1
  O  O81  1  0.78646272  0.35621787  0.34380549  1
  O  O82  1  0.61458909  0.63330935  0.66268598  1
  O  O83  1  0.86826784  0.11544279  0.61673659  1
  O  O84  1  0.51262790  0.80465955  0.96369505  1
  O  O85  1  0.72931312  0.38409175  0.89185017  1
  O  O86  1  0.88996494  0.34169796  0.35927014  1
  O  O87  1  0.70989353  0.65915366  0.63829409  1
  O  O88  1  0.87337404  0.61336761  0.10466703  1
  O  O89  1  0.58075306  0.96305048  0.80582719  1
  O  O90  1  0.72707114  0.89239785  0.38508759  1
  O  O91  1  0.98657516  0.35986431  0.34027021  1
  O  O92  1  0.81477012  0.63733011  0.65856740  1
  O  O93  1  0.71434670  0.79290503  0.97311961  1
  O  O94  1  0.92954044  0.38160108  0.89272212  1
  O  O95  1  0.90898332  0.65889731  0.64435881  1
  O  O96  1  0.78498281  0.96683189  0.80052116  1
  O  O97  1  0.92590708  0.89325441  0.38610184  1
  O  O98  1  0.91141603  0.80853729  0.96377262  1
  O  O99  1  0.98050527  0.96471763  0.80568250  1
