# generated using pymatgen
data_Li8Mn3Fe5(BO3)8
_symmetry_space_group_name_H-M   'P 1'
_cell_length_a   5.23227042
_cell_length_b   5.22424123
_cell_length_c   20.76274690
_cell_angle_alpha   89.30497453
_cell_angle_beta   90.99955169
_cell_angle_gamma   60.15301082
_symmetry_Int_Tables_number   1
_chemical_formula_structural   Li8Mn3Fe5(BO3)8
_chemical_formula_sum   'Li8 Mn3 Fe5 B8 O24'
_cell_volume   492.04543454
_cell_formula_units_Z   1
loop_
 _symmetry_equiv_pos_site_id
 _symmetry_equiv_pos_as_xyz
  1  'x, y, z'
loop_
 _atom_site_type_symbol
 _atom_site_label
 _atom_site_symmetry_multiplicity
 _atom_site_fract_x
 _atom_site_fract_y
 _atom_site_fract_z
 _atom_site_occupancy
  Li  Li0  1  0.32303220  0.65116614  0.66632234  1
  Li  Li1  1  0.34803006  0.67816516  0.91611666  1
  Li  Li2  1  0.32065257  0.65276987  0.16639130  1
  Li  Li3  1  0.34760330  0.67892900  0.41627071  1
  Li  Li4  1  0.65387562  0.33705426  0.79187499  1
  Li  Li5  1  0.66139980  0.34919140  0.54122111  1
  Li  Li6  1  0.65132849  0.33580452  0.29102224  1
  Li  Li7  1  0.66426313  0.34764165  0.04103515  1
  Mn  Mn8  1  0.32675409  0.00532306  0.55910519  1
  Mn  Mn9  1  0.67845475  0.00180747  0.43286622  1
  Mn  Mn10  1  0.99906555  0.32275121  0.18312110  1
  Fe  Fe11  1  0.32958586  0.99673269  0.05806466  1
  Fe  Fe12  1  0.68148427  0.99398068  0.93326375  1
  Fe  Fe13  1  0.99033898  0.32604472  0.68451688  1
  Fe  Fe14  1  0.99514016  0.67743500  0.80857511  1
  Fe  Fe15  1  0.00354364  0.67114464  0.30815049  1
  B  B16  1  0.00217207  0.33953619  0.93720159  1
  B  B17  1  0.00328016  0.34136928  0.43643705  1
  B  B18  1  0.33247377  0.00457868  0.81180625  1
  B  B19  1  0.33160552  0.00645290  0.31185671  1
  B  B20  1  0.66126996  0.99550313  0.68731632  1
  B  B21  1  0.65983524  0.99695311  0.18725864  1
  B  B22  1  0.99415738  0.66579007  0.56272368  1
  B  B23  1  0.99295665  0.66901119  0.06162787  1
  O  O24  1  0.07029900  0.25226485  0.79170266  1
  O  O25  1  0.06583059  0.25308751  0.29224265  1
  O  O26  1  0.25813030  0.07158733  0.95192396  1
  O  O27  1  0.02566818  0.58466524  0.91733076  1
  O  O28  1  0.25216267  0.06761117  0.45194254  1
  O  O29  1  0.03744546  0.57704814  0.41566282  1
  O  O30  1  0.58210187  0.02907514  0.82691400  1
  O  O31  1  0.27065093  0.63715570  0.56988375  1
  O  O32  1  0.58013847  0.03126087  0.32642651  1
  O  O33  1  0.26753042  0.64865600  0.06795647  1
  O  O34  1  0.35189113  0.73029090  0.81869449  1
  O  O35  1  0.35205447  0.73183063  0.31827736  1
  O  O36  1  0.63842911  0.27039768  0.69449773  1
  O  O37  1  0.62667611  0.27494441  0.19413445  1
  O  O38  1  0.72759382  0.36436874  0.94368738  1
  O  O39  1  0.41770140  0.97290722  0.66792281  1
  O  O40  1  0.72594759  0.37509331  0.44398336  1
  O  O41  1  0.42399345  0.96295604  0.16617398  1
  O  O42  1  0.95731880  0.42469065  0.57860218  1
  O  O43  1  0.96913505  0.41987259  0.07633136  1
  O  O44  1  0.75332828  0.93221937  0.54121308  1
  O  O45  1  0.74631414  0.93446265  0.04198269  1
  O  O46  1  0.93286146  0.74168786  0.70177772  1
  O  O47  1  0.93329510  0.74792698  0.20279129  1
