# generated using pymatgen
data_Li2VFeP2(HO5)2
_symmetry_space_group_name_H-M   'P 1'
_cell_length_a   7.52793168
_cell_length_b   7.87220253
_cell_length_c   6.94886867
_cell_angle_alpha   87.96823173
_cell_angle_beta   89.12709000
_cell_angle_gamma   117.39529343
_symmetry_Int_Tables_number   1
_chemical_formula_structural   Li2VFeP2(HO5)2
_chemical_formula_sum   'Li4 V2 Fe2 P4 H4 O20'
_cell_volume   365.15679854
_cell_formula_units_Z   2
loop_
 _symmetry_equiv_pos_site_id
 _symmetry_equiv_pos_as_xyz
  1  'x, y, z'
loop_
 _atom_site_type_symbol
 _atom_site_label
 _atom_site_symmetry_multiplicity
 _atom_site_fract_x
 _atom_site_fract_y
 _atom_site_fract_z
 _atom_site_occupancy
  Li  Li0  1  0.41407657  0.23682406  0.16116018  1
  Li  Li1  1  0.08605209  0.26403623  0.33863355  1
  Li  Li2  1  0.91408908  0.73619339  0.66093821  1
  Li  Li3  1  0.58580092  0.76285429  0.83937090  1
  V  V4  1  0.99957068  0.00007289  0.00003535  1
  V  V5  1  0.74998506  0.24957357  0.75051431  1
  Fe  Fe6  1  0.25024935  0.75020714  0.24968000  1
  Fe  Fe7  1  0.50069533  0.50025393  0.49982513  1
  P  P8  1  0.27331760  0.04109789  0.59626725  1
  P  P9  1  0.77323185  0.54122107  0.09677430  1
  P  P10  1  0.22735078  0.45939666  0.90339034  1
  P  P11  1  0.72630930  0.95855626  0.40347195  1
  H  H12  1  0.67744167  0.01662700  0.04127698  1
  H  H13  1  0.17996364  0.51927410  0.53988925  1
  H  H14  1  0.82026841  0.48258802  0.45872500  1
  H  H15  1  0.32209007  0.98122574  0.96024050  1
  O  O16  1  0.16812438  0.28910436  0.05510322  1
  O  O17  1  0.31118265  0.65261782  0.00374819  1
  O  O18  1  0.33233505  0.21204515  0.44587173  1
  O  O19  1  0.09476353  0.02211323  0.72531671  1
  O  O20  1  0.24576443  0.96806758  0.08232251  1
  O  O21  1  0.59427748  0.52355838  0.22531107  1
  O  O22  1  0.25589387  0.53155835  0.41773723  1
  O  O23  1  0.45063613  0.07015349  0.72456536  1
  O  O24  1  0.81001444  0.15261732  0.50388280  1
  O  O25  1  0.04971866  0.42975113  0.77562014  1
  O  O26  1  0.95119802  0.57117709  0.22377171  1
  O  O27  1  0.18934099  0.84819228  0.49506988  1
  O  O28  1  0.54862752  0.92917867  0.27596608  1
  O  O29  1  0.74391235  0.47114958  0.58014434  1
  O  O30  1  0.40542725  0.47620244  0.77392177  1
  O  O31  1  0.75380140  0.02866901  0.91980568  1
  O  O32  1  0.90541428  0.97798076  0.27534794  1
  O  O33  1  0.66742118  0.78841221  0.55436882  1
  O  O34  1  0.68964037  0.34678277  0.99728470  1
  O  O35  1  0.83201362  0.71066614  0.94464495  1
