# generated using pymatgen
data_Na5Mn2P2(CO7)2
_symmetry_space_group_name_H-M   'P 1'
_cell_length_a   9.05078200
_cell_length_b   6.72119897
_cell_length_c   15.77851688
_cell_angle_alpha   90.00000000
_cell_angle_beta   89.28453206
_cell_angle_gamma   90.00000000
_symmetry_Int_Tables_number   1
_chemical_formula_structural   Na5Mn2P2(CO7)2
_chemical_formula_sum   'Na15 Mn6 P6 C6 O42'
_cell_volume   959.76558807
_cell_formula_units_Z   3
loop_
 _symmetry_equiv_pos_site_id
 _symmetry_equiv_pos_as_xyz
  1  'x, y, z'
loop_
 _atom_site_type_symbol
 _atom_site_label
 _atom_site_symmetry_multiplicity
 _atom_site_fract_x
 _atom_site_fract_y
 _atom_site_fract_z
 _atom_site_occupancy
  Na  Na0  1  0.08197166  0.25000000  0.59011814  1
  Na  Na1  1  0.25734486  0.00928961  0.75349245  1
  Na  Na2  1  0.25734486  0.49071039  0.75349245  1
  Na  Na3  1  0.25670904  0.01046687  0.41037396  1
  Na  Na4  1  0.25670904  0.48953313  0.41037396  1
  Na  Na5  1  0.23089271  0.00374588  0.08035588  1
  Na  Na6  1  0.23089271  0.49625412  0.08035588  1
  Na  Na7  1  0.76169343  0.50143908  0.92216312  1
  Na  Na8  1  0.76169343  0.99856092  0.92216312  1
  Na  Na9  1  0.73834109  0.50223608  0.58541206  1
  Na  Na10  1  0.73834109  0.99776392  0.58541206  1
  Na  Na11  1  0.75740608  0.50459596  0.24680100  1
  Na  Na12  1  0.75740608  0.99540404  0.24680100  1
  Na  Na13  1  0.91709651  0.75000000  0.74672695  1
  Na  Na14  1  0.92170107  0.75000000  0.41088108  1
  Mn  Mn15  1  0.35842469  0.75000000  0.92888663  1
  Mn  Mn16  1  0.35624924  0.75000000  0.59211367  1
  Mn  Mn17  1  0.36238929  0.75000000  0.25767096  1
  Mn  Mn18  1  0.64112531  0.25000000  0.74300699  1
  Mn  Mn19  1  0.64550067  0.25000000  0.40530599  1
  Mn  Mn20  1  0.63927488  0.25000000  0.07223895  1
  P  P21  1  0.41850381  0.25000000  0.90508501  1
  P  P22  1  0.41493182  0.25000000  0.56666501  1
  P  P23  1  0.42681559  0.25000000  0.23255942  1
  P  P24  1  0.58074280  0.75000000  0.76842523  1
  P  P25  1  0.58648589  0.75000000  0.43062405  1
  P  P26  1  0.57501270  0.75000000  0.09838803  1
  C  C27  1  0.07445185  0.75000000  0.90500773  1
  C  C28  1  0.05724546  0.75000000  0.57555130  1
  C  C29  1  0.07525131  0.75000000  0.24675394  1
  C  C30  1  0.93541050  0.25000000  0.75213595  1
  C  C31  1  0.93373723  0.25000000  0.42787209  1
  C  C32  1  0.91748929  0.25000000  0.09037129  1
  O  O33  1  0.07746481  0.25000000  0.75095154  1
  O  O34  1  0.07508706  0.25000000  0.43430913  1
  O  O35  1  0.05557013  0.25000000  0.08947997  1
  O  O36  1  0.14522648  0.75000000  0.97710119  1
  O  O37  1  0.11905306  0.75000000  0.64974159  1
  O  O38  1  0.15704452  0.75000000  0.31654265  1
  O  O39  1  0.15703950  0.75000000  0.83681263  1
  O  O40  1  0.14070008  0.75000000  0.50750765  1
  O  O41  1  0.14756316  0.75000000  0.17627875  1
  O  O42  1  0.33173629  0.06099419  0.93315041  1
  O  O43  1  0.33173629  0.43900581  0.93315041  1
  O  O44  1  0.32011513  0.06552308  0.59068652  1
  O  O45  1  0.32011513  0.43447692  0.59068652  1
  O  O46  1  0.33683211  0.06222361  0.25764881  1
  O  O47  1  0.33683211  0.43777639  0.25764881  1
  O  O48  1  0.43467209  0.25000000  0.80637776  1
  O  O49  1  0.42961120  0.75000000  0.72398795  1
  O  O50  1  0.44285915  0.25000000  0.46771258  1
  O  O51  1  0.43265930  0.75000000  0.38854894  1
  O  O52  1  0.44841269  0.25000000  0.13260326  1
  O  O53  1  0.41813498  0.75000000  0.06041763  1
  O  O54  1  0.57575886  0.25000000  0.94438671  1
  O  O55  1  0.55345689  0.75000000  0.86790255  1
  O  O56  1  0.56577760  0.25000000  0.61151832  1
  O  O57  1  0.56606201  0.75000000  0.52897511  1
  O  O58  1  0.58050095  0.25000000  0.27408675  1
  O  O59  1  0.55769169  0.75000000  0.19872259  1
  O  O60  1  0.67649744  0.56640519  0.74500457  1
  O  O61  1  0.67649744  0.93359481  0.74500457  1
  O  O62  1  0.68010543  0.56540888  0.40350699  1
  O  O63  1  0.68010543  0.93459112  0.40350699  1
  O  O64  1  0.66378807  0.56269162  0.07239788  1
  O  O65  1  0.66378807  0.93730838  0.07239788  1
  O  O66  1  0.85572443  0.25000000  0.82096369  1
  O  O67  1  0.84904136  0.25000000  0.49566750  1
  O  O68  1  0.83289930  0.25000000  0.15759972  1
  O  O69  1  0.86531932  0.25000000  0.67917852  1
  O  O70  1  0.86795395  0.25000000  0.35476091  1
  O  O71  1  0.84025022  0.25000000  0.01899472  1
  O  O72  1  0.93381463  0.75000000  0.90149844  1
  O  O73  1  0.91450832  0.75000000  0.56940190  1
  O  O74  1  0.93498434  0.75000000  0.25577869  1
