# generated using pymatgen
data_LiTmO2
_symmetry_space_group_name_H-M   'P 1'
_cell_length_a   6.08292267
_cell_length_b   6.14683148
_cell_length_c   6.14190586
_cell_angle_alpha   90.00000000
_cell_angle_beta   118.71466291
_cell_angle_gamma   90.00000000
_symmetry_Int_Tables_number   1
_chemical_formula_structural   LiTmO2
_chemical_formula_sum   'Li4 Tm4 O8'
_cell_volume   201.40852932
_cell_formula_units_Z   4
loop_
 _symmetry_equiv_pos_site_id
 _symmetry_equiv_pos_as_xyz
  1  'x, y, z'
loop_
 _atom_site_type_symbol
 _atom_site_label
 _atom_site_symmetry_multiplicity
 _atom_site_fract_x
 _atom_site_fract_y
 _atom_site_fract_z
 _atom_site_occupancy
  Li  Li0  1  0.28412789  0.84905031  0.55261145  1
  Li  Li1  1  0.71587211  0.34905031  0.94738855  1
  Li  Li2  1  0.28412789  0.65094969  0.05261145  1
  Li  Li3  1  0.71587211  0.15094969  0.44738855  1
  Tm  Tm4  1  0.23699587  0.12962089  0.98296529  1
  Tm  Tm5  1  0.23699587  0.37037911  0.48296529  1
  Tm  Tm6  1  0.76300413  0.62962089  0.51703471  1
  Tm  Tm7  1  0.76300413  0.87037911  0.01703471  1
  O  O8  1  0.00404529  0.83685638  0.83152513  1
  O  O9  1  0.00404529  0.66314362  0.33152513  1
  O  O10  1  0.45555763  0.11008753  0.76411904  1
  O  O11  1  0.54444237  0.61008753  0.73588096  1
  O  O12  1  0.45555763  0.38991247  0.26411904  1
  O  O13  1  0.54444237  0.88991247  0.23588096  1
  O  O14  1  0.99595471  0.33685638  0.66847487  1
  O  O15  1  0.99595471  0.16314362  0.16847487  1
