# generated using pymatgen
data_Li2CrCo3O8
_symmetry_space_group_name_H-M   'P 1'
_cell_length_a   8.19434333
_cell_length_b   8.32124447
_cell_length_c   8.32163164
_cell_angle_alpha   89.97577132
_cell_angle_beta   89.85761833
_cell_angle_gamma   89.60328045
_symmetry_Int_Tables_number   1
_chemical_formula_structural   Li2CrCo3O8
_chemical_formula_sum   'Li8 Cr4 Co12 O32'
_cell_volume   567.41281205
_cell_formula_units_Z   4
loop_
 _symmetry_equiv_pos_site_id
 _symmetry_equiv_pos_as_xyz
  1  'x, y, z'
loop_
 _atom_site_type_symbol
 _atom_site_label
 _atom_site_symmetry_multiplicity
 _atom_site_fract_x
 _atom_site_fract_y
 _atom_site_fract_z
 _atom_site_occupancy
  Li  Li0  1  0.99877652  0.99812809  0.00156030  1
  Li  Li1  1  0.25143399  0.25148043  0.24747081  1
  Li  Li2  1  0.24998656  0.75212348  0.74687286  1
  Li  Li3  1  0.50181408  0.99665044  0.50277238  1
  Li  Li4  1  0.50118765  0.50101428  0.00298049  1
  Li  Li5  1  0.74794555  0.25012677  0.74732326  1
  Li  Li6  1  0.74825481  0.74968201  0.24961212  1
  Li  Li7  1  -0.00072423  0.50073495  0.50198662  1
  Cr  Cr8  1  0.12255152  0.87053663  0.37739133  1
  Cr  Cr9  1  0.37935854  0.12120621  0.87255844  1
  Cr  Cr10  1  0.62572631  0.62803176  0.62109944  1
  Cr  Cr11  1  0.87281109  0.37804857  0.12769637  1
  Co  Co12  1  0.12366801  0.12212633  0.62689951  1
  Co  Co13  1  0.13292447  0.37680835  0.87681548  1
  Co  Co14  1  0.12645101  0.62852081  0.12816228  1
  Co  Co15  1  0.37534142  0.37661592  0.62237997  1
  Co  Co16  1  0.37638788  0.62349239  0.37450680  1
  Co  Co17  1  0.38325595  0.87139424  0.12242069  1
  Co  Co18  1  0.62463354  0.37823067  0.37369412  1
  Co  Co19  1  0.62401581  0.12501310  0.12556832  1
  Co  Co20  1  0.62546436  0.87559142  0.87216473  1
  Co  Co21  1  0.87142784  0.12263864  0.37991013  1
  Co  Co22  1  0.87244614  0.87377904  0.62614477  1
  Co  Co23  1  0.87347387  0.62792894  0.87327645  1
  O  O24  1  0.10393308  0.11181941  0.38183264  1
  O  O25  1  0.10442698  0.88608934  0.61595060  1
  O  O26  1  0.11042409  0.60844630  0.88638873  1
  O  O27  1  0.14196162  0.14294730  0.87301603  1
  O  O28  1  0.11612744  0.39086246  0.10815384  1
  O  O29  1  0.13546427  0.36011506  0.64285186  1
  O  O30  1  0.14322951  0.63176218  0.36433361  1
  O  O31  1  0.13651263  0.85768824  0.13570746  1
  O  O32  1  0.36330420  0.13052486  0.64185289  1
  O  O33  1  0.36895511  0.36382763  0.86454345  1
  O  O34  1  0.35909365  0.62964545  0.14525036  1
  O  O35  1  0.38277440  0.61841738  0.60017127  1
  O  O36  1  0.36656040  0.85142356  0.36574824  1
  O  O37  1  0.39235082  0.39423037  0.37999750  1
  O  O38  1  0.38880912  0.11447371  0.10955899  1
  O  O39  1  0.39128194  0.88581183  0.87967275  1
  O  O40  1  0.61421492  0.38601798  0.60235860  1
  O  O41  1  0.60827313  0.60896886  0.38096975  1
  O  O42  1  0.61625815  0.88243146  0.10235641  1
  O  O43  1  0.63036698  0.36815725  0.14845271  1
  O  O44  1  0.61089503  0.10610102  0.88148885  1
  O  O45  1  0.63892406  0.14712033  0.36897898  1
  O  O46  1  0.64362719  0.86620195  0.64093622  1
  O  O47  1  0.64209709  0.64295782  0.86279289  1
  O  O48  1  0.85345414  0.37111204  0.36671252  1
  O  O49  1  0.85991908  0.13845924  0.13946412  1
  O  O50  1  0.86146758  0.86054268  0.85738549  1
  O  O51  1  0.87929746  0.87916152  0.39861038  1
  O  O52  1  0.86913155  0.64611124  0.63506906  1
  O  O53  1  0.88197064  0.10234806  0.61639693  1
  O  O54  1  0.88142449  0.39760658  0.88699283  1
  O  O55  1  0.89485253  0.61884744  0.11487537  1
