# generated using pymatgen
data_Na3Mn2P2(CO7)2
_symmetry_space_group_name_H-M   'P 1'
_cell_length_a   8.45468138
_cell_length_b   8.31963811
_cell_length_c   10.52969090
_cell_angle_alpha   70.76812718
_cell_angle_beta   108.26410777
_cell_angle_gamma   76.75188371
_symmetry_Int_Tables_number   1
_chemical_formula_structural   Na3Mn2P2(CO7)2
_chemical_formula_sum   'Na6 Mn4 P4 C4 O28'
_cell_volume   616.77246689
_cell_formula_units_Z   2
loop_
 _symmetry_equiv_pos_site_id
 _symmetry_equiv_pos_as_xyz
  1  'x, y, z'
loop_
 _atom_site_type_symbol
 _atom_site_label
 _atom_site_symmetry_multiplicity
 _atom_site_fract_x
 _atom_site_fract_y
 _atom_site_fract_z
 _atom_site_occupancy
  Na  Na0  1  0.99860515  0.99882886  0.76652893  1
  Na  Na1  1  0.51899384  0.52018386  0.75073847  1
  Na  Na2  1  0.25457629  0.23298870  0.76287823  1
  Na  Na3  1  0.74542371  0.76701130  0.23712177  1
  Na  Na4  1  0.48100616  0.47981614  0.24926153  1
  Na  Na5  1  0.00139485  0.00117114  0.23347107  1
  Mn  Mn6  1  0.59130562  0.14562271  0.65245469  1
  Mn  Mn7  1  0.08894133  0.65733892  0.65054875  1
  Mn  Mn8  1  0.91105867  0.34266108  0.34945125  1
  Mn  Mn9  1  0.40869438  0.85437729  0.34754531  1
  P  P10  1  0.77190420  0.48335684  0.57196870  1
  P  P11  1  0.26107230  0.97688564  0.57549576  1
  P  P12  1  0.73892770  0.02311436  0.42450424  1
  P  P13  1  0.22809580  0.51664316  0.42803130  1
  C  C14  1  0.70178566  0.05203074  0.92064642  1
  C  C15  1  0.19823077  0.54694310  0.92023875  1
  C  C16  1  0.80176923  0.45305690  0.07976125  1
  C  C17  1  0.29821434  0.94796926  0.07935358  1
  O  O18  1  0.23992207  -0.00006039  0.94211847  1
  O  O19  1  0.74164432  0.50365311  0.94479534  1
  O  O20  1  0.27229410  0.46581233  0.85196884  1
  O  O21  1  0.77750166  0.96895321  0.85630617  1
  O  O22  1  0.55525242  0.19727352  0.82213380  1
  O  O23  1  0.05146381  0.69208476  0.82025436  1
  O  O24  1  0.95180318  0.49733447  0.65861135  1
  O  O25  1  0.76874542  0.30432366  0.67234160  1
  O  O26  1  0.42555852  0.99454539  0.67363370  1
  O  O27  1  0.24927256  0.79498421  0.67317261  1
  O  O28  1  0.73844354  0.02355515  0.57035654  1
  O  O29  1  0.08957748  0.14147899  0.53842279  1
  O  O30  1  0.60414899  0.64842697  0.53292477  1
  O  O31  1  0.23533113  0.51448280  0.57917945  1
  O  O32  1  0.76466887  0.48551720  0.42082055  1
  O  O33  1  0.91042252  0.85852101  0.46157721  1
  O  O34  1  0.39585101  0.35157303  0.46707523  1
  O  O35  1  0.26155646  0.97644485  0.42964346  1
  O  O36  1  0.57444148  0.00545461  0.32636630  1
  O  O37  1  0.75072744  0.20501579  0.32682739  1
  O  O38  1  0.04819682  0.50266553  0.34138865  1
  O  O39  1  0.23125458  0.69567634  0.32765840  1
  O  O40  1  0.94853619  0.30791524  0.17974564  1
  O  O41  1  0.44474758  0.80272648  0.17786620  1
  O  O42  1  0.72770590  0.53418767  0.14803016  1
  O  O43  1  0.22249834  0.03104679  0.14369383  1
  O  O44  1  0.76007793  0.00006039  0.05788153  1
  O  O45  1  0.25835568  0.49634689  0.05520466  1
