# generated using pymatgen
data_Na3V2P2O10F
_symmetry_space_group_name_H-M   'P 1'
_cell_length_a   6.48072816
_cell_length_b   6.48010009
_cell_length_c   28.01611721
_cell_angle_alpha   117.59877899
_cell_angle_beta   117.61789669
_cell_angle_gamma   89.86924809
_symmetry_Int_Tables_number   1
_chemical_formula_structural   Na3V2P2O10F
_chemical_formula_sum   'Na12 V8 P8 O40 F4'
_cell_volume   889.41079777
_cell_formula_units_Z   4
loop_
 _symmetry_equiv_pos_site_id
 _symmetry_equiv_pos_as_xyz
  1  'x, y, z'
loop_
 _atom_site_type_symbol
 _atom_site_label
 _atom_site_symmetry_multiplicity
 _atom_site_fract_x
 _atom_site_fract_y
 _atom_site_fract_z
 _atom_site_occupancy
  Na  Na0  1  0.25714892  0.28412884  0.74916336  1
  Na  Na1  1  0.25643113  0.28147463  0.49909338  1
  Na  Na2  1  0.73868250  0.26330412  0.75019849  1
  Na  Na3  1  0.71892244  0.74241110  0.75106394  1
  Na  Na4  1  0.25679954  0.28397353  0.24897605  1
  Na  Na5  1  0.73846293  0.26160357  0.50000045  1
  Na  Na6  1  0.71868667  0.74364955  0.50095094  1
  Na  Na7  1  0.22011386  0.50171356  0.00000345  1
  Na  Na8  1  0.73787299  0.26248854  0.24980044  1
  Na  Na9  1  0.71872566  0.74210901  0.25085957  1
  Na  Na10  1  0.71396249  0.25119472  0.99972993  1
  Na  Na11  1  0.71605673  0.75063627  0.00088987  1
  V  V12  1  0.20354532  0.19554865  0.84948757  1
  V  V13  1  0.20595836  0.19540137  0.60038562  1
  V  V14  1  0.81223823  0.79987451  0.90121457  1
  V  V15  1  0.20599957  0.19563174  0.35045782  1
  V  V16  1  0.80449264  0.79411292  0.64956461  1
  V  V17  1  0.20647979  0.19434234  0.09857005  1
  V  V18  1  0.80467183  0.79414069  0.39961136  1
  V  V19  1  0.80580969  0.79790782  0.15050508  1
  P  P20  1  0.24877029  0.74953854  0.87485718  1
  P  P21  1  0.24874714  0.75152937  0.62507117  1
  P  P22  1  0.74595630  0.25061928  0.87457255  1
  P  P23  1  0.24872067  0.75145124  0.37505068  1
  P  P24  1  0.74710937  0.25268856  0.62494956  1
  P  P25  1  0.24917566  0.75113928  0.12545557  1
  P  P26  1  0.74703231  0.25268677  0.37492769  1
  P  P27  1  0.74790954  0.25182035  0.12505275  1
  O  O28  1  0.14927170  0.83223611  0.91928925  1
  O  O29  1  0.16175908  0.46929613  0.82978528  1
  O  O30  1  0.15735899  0.85485942  0.83132237  1
  O  O31  1  0.36777648  0.35532515  0.92847734  1
  O  O32  1  0.52874437  0.83483867  0.91799767  1
  O  O33  1  0.14837342  0.84287225  0.66958287  1
  O  O34  1  0.46865497  0.17008280  0.83009682  1
  O  O35  1  0.16246011  0.47121857  0.58149741  1
  O  O36  1  0.15719312  0.85172692  0.58046679  1
  O  O37  1  0.37069046  0.34126673  0.67911304  1
  O  O38  1  0.66097939  0.63121171  0.82230414  1
  O  O39  1  0.83354091  0.14535616  0.91824897  1
  O  O40  1  0.84295229  0.52948149  0.92115555  1
  O  O41  1  0.52888915  0.83753703  0.66853025  1
  O  O42  1  0.85346073  0.16473144  0.83143097  1
  O  O43  1  0.14846924  0.84288538  0.41958953  1
  O  O44  1  0.46890771  0.16608094  0.57993990  1
  O  O45  1  0.16248770  0.47117593  0.33153499  1
  O  O46  1  0.15720978  0.85164340  0.33045338  1
  O  O47  1  0.37058534  0.34106168  0.42913668  1
  O  O48  1  0.65882794  0.62947158  0.57085600  1
  O  O49  1  0.83326397  0.14385722  0.66785114  1
  O  O50  1  0.83401372  0.53101335  0.67002994  1
  O  O51  1  0.52887004  0.83753239  0.41852600  1
  O  O52  1  0.85584335  0.16660644  0.58205035  1
  O  O53  1  0.14720756  0.84620351  0.16936334  1
  O  O54  1  0.46880526  0.16607602  0.32994545  1
  O  O55  1  0.16163728  0.47148729  0.08118383  1
  O  O56  1  0.16172433  0.84578007  0.07934899  1
  O  O57  1  0.36670453  0.33672054  0.17744675  1
  O  O58  1  0.65891984  0.62965576  0.32085568  1
  O  O59  1  0.83334256  0.14401845  0.41788518  1
  O  O60  1  0.83390163  0.53102994  0.42000076  1
  O  O61  1  0.52911381  0.83889002  0.16928911  1
  O  O62  1  0.85585552  0.16658072  0.33205662  1
  O  O63  1  0.47086455  0.15762700  0.08012131  1
  O  O64  1  0.65659777  0.64540617  0.07154805  1
  O  O65  1  0.83154168  0.53104209  0.16928672  1
  O  O66  1  0.83946265  0.14883347  0.16948961  1
  O  O67  1  0.85775143  0.16636337  0.08251837  1
  F  F68  1  0.99083314  0.00806481  0.74994134  1
  F  F69  1  0.99112882  0.00880670  0.49997317  1
  F  F70  1  0.99088311  0.00818397  0.25001733  1
  F  F71  1  0.98495800  0.00054029  -0.00000195  1
