# generated using pymatgen
data_Li2VFeP2(HO5)2
_symmetry_space_group_name_H-M   'P 1'
_cell_length_a   10.86767816
_cell_length_b   7.39295078
_cell_length_c   5.17451532
_cell_angle_alpha   108.70699226
_cell_angle_beta   98.02869698
_cell_angle_gamma   106.31213384
_symmetry_Int_Tables_number   1
_chemical_formula_structural   Li2VFeP2(HO5)2
_chemical_formula_sum   'Li4 V2 Fe2 P4 H4 O20'
_cell_volume   365.65813429
_cell_formula_units_Z   2
loop_
 _symmetry_equiv_pos_site_id
 _symmetry_equiv_pos_as_xyz
  1  'x, y, z'
loop_
 _atom_site_type_symbol
 _atom_site_label
 _atom_site_symmetry_multiplicity
 _atom_site_fract_x
 _atom_site_fract_y
 _atom_site_fract_z
 _atom_site_occupancy
  Li  Li0  1  0.19878171  0.82362541  0.74657446  1
  Li  Li1  1  0.30194064  0.17681504  0.25415091  1
  Li  Li2  1  0.69805936  0.82318496  0.74584909  1
  Li  Li3  1  0.80121829  0.17637459  0.25342554  1
  V  V4  1  0.00000000  0.00000000  0.00000000  1
  V  V5  1  0.50000000  0.50000000  0.00000000  1
  Fe  Fe6  1  0.00000000  0.50000000  0.00000000  1
  Fe  Fe7  1  0.50000000  0.00000000  0.00000000  1
  P  P8  1  0.18049800  0.23202702  0.67725200  1
  P  P9  1  0.31943538  0.76943838  0.32542421  1
  P  P10  1  0.68056462  0.23056162  0.67457579  1
  P  P11  1  0.81950200  0.76797298  0.32274800  1
  H  H12  1  0.03186620  0.34313478  0.35969270  1
  H  H13  1  0.47055230  0.66194712  0.63853939  1
  H  H14  1  0.52944770  0.33805288  0.36146061  1
  H  H15  1  0.96813380  0.65686522  0.64030730  1
  O  O16  1  0.02452811  0.72347904  0.83648206  1
  O  O17  1  0.10217941  0.38012189  0.72931738  1
  O  O18  1  0.17168678  0.66151863  0.30712374  1
  O  O19  1  0.12635459  0.07150075  0.37292215  1
  O  O20  1  0.16980481  0.11895788  0.88727554  1
  O  O21  1  0.32981549  0.88141227  0.11545378  1
  O  O22  1  0.37529007  0.92991209  0.63270878  1
  O  O23  1  0.32777596  0.34175401  0.69539924  1
  O  O24  1  0.39636215  0.62014001  0.27516260  1
  O  O25  1  0.52337656  0.72466932  0.83799303  1
  O  O26  1  0.47662344  0.27533068  0.16200697  1
  O  O27  1  0.60363785  0.37985999  0.72483740  1
  O  O28  1  0.67222404  0.65824599  0.30460076  1
  O  O29  1  0.62470993  0.07008791  0.36729122  1
  O  O30  1  0.67018451  0.11858773  0.88454622  1
  O  O31  1  0.83019519  0.88104212  0.11272446  1
  O  O32  1  0.87364541  0.92849925  0.62707785  1
  O  O33  1  0.82831322  0.33848137  0.69287626  1
  O  O34  1  0.89782059  0.61987811  0.27068262  1
  O  O35  1  0.97547189  0.27652096  0.16351794  1
