# generated using pymatgen
data_Li2Mn3CoO8
_symmetry_space_group_name_H-M   'P 1'
_cell_length_a   8.35390237
_cell_length_b   8.35482838
_cell_length_c   8.34773132
_cell_angle_alpha   90.02170871
_cell_angle_beta   90.02534101
_cell_angle_gamma   90.00402506
_symmetry_Int_Tables_number   1
_chemical_formula_structural   Li2Mn3CoO8
_chemical_formula_sum   'Li8 Mn12 Co4 O32'
_cell_volume   582.63331822
_cell_formula_units_Z   4
loop_
 _symmetry_equiv_pos_site_id
 _symmetry_equiv_pos_as_xyz
  1  'x, y, z'
loop_
 _atom_site_type_symbol
 _atom_site_label
 _atom_site_symmetry_multiplicity
 _atom_site_fract_x
 _atom_site_fract_y
 _atom_site_fract_z
 _atom_site_occupancy
  Li  Li0  1  0.00450039  0.00454573  0.00453030  1
  Li  Li1  1  0.24549714  0.24543260  0.24550863  1
  Li  Li2  1  0.25452827  0.75454839  0.74537512  1
  Li  Li3  1  0.49547422  0.99557427  0.50456971  1
  Li  Li4  1  0.50458073  0.49546454  0.99501808  1
  Li  Li5  1  0.74549166  0.25439115  0.75450212  1
  Li  Li6  1  0.75452345  0.74542323  0.25496235  1
  Li  Li7  1  0.99554966  0.50458502  0.49546919  1
  Mn  Mn8  1  0.11953288  0.13047304  0.62501185  1
  Mn  Mn9  1  0.12506023  0.38055844  0.86954494  1
  Mn  Mn10  1  0.13033236  0.62507878  0.11969471  1
  Mn  Mn11  1  0.36955456  0.37502137  0.61966728  1
  Mn  Mn12  1  0.37524193  0.61972057  0.37010582  1
  Mn  Mn13  1  0.38060586  0.86933674  0.12496491  1
  Mn  Mn14  1  0.61965689  0.36958585  0.37565266  1
  Mn  Mn15  1  0.62491853  0.11961343  0.13037431  1
  Mn  Mn16  1  0.63020165  0.87481471  0.87984887  1
  Mn  Mn17  1  0.86945565  0.12502516  0.38048011  1
  Mn  Mn18  1  0.87488206  0.88049049  0.63036740  1
  Mn  Mn19  1  0.88042319  0.63040105  0.87432064  1
  Co  Co20  1  0.12491204  0.87491450  0.37493497  1
  Co  Co21  1  0.37504010  0.12501212  0.87497014  1
  Co  Co22  1  0.62514993  0.62486734  0.62499457  1
  Co  Co23  1  0.87505543  0.37511091  0.12506966  1
  O  O24  1  0.09896970  0.12610008  0.39337423  1
  O  O25  1  0.10647932  0.90091873  0.62610711  1
  O  O26  1  0.11556952  0.61578480  0.88425453  1
  O  O27  1  0.12386353  0.15106127  0.85665279  1
  O  O28  1  0.12617181  0.39369302  0.09927420  1
  O  O29  1  0.13425614  0.36562922  0.63419626  1
  O  O30  1  0.14370199  0.62380566  0.34925077  1
  O  O31  1  0.15096477  0.85635615  0.12384650  1
  O  O32  1  0.34899300  0.14352505  0.62374976  1
  O  O33  1  0.35640294  0.37641887  0.84945479  1
  O  O34  1  0.36591397  0.63424343  0.13444893  1
  O  O35  1  0.37332101  0.60645452  0.59955781  1
  O  O36  1  0.37648456  0.84919241  0.35668038  1
  O  O37  1  0.38456470  0.38462636  0.38429799  1
  O  O38  1  0.39358820  0.09893531  0.12622579  1
  O  O39  1  0.40066271  0.87354050  0.89324777  1
  O  O40  1  0.59891073  0.37278500  0.60703698  1
  O  O41  1  0.60691711  0.59941528  0.37556219  1
  O  O42  1  0.61572360  0.88400750  0.11554142  1
  O  O43  1  0.62390504  0.34943581  0.14372209  1
  O  O44  1  0.62616246  0.10626527  0.90079739  1
  O  O45  1  0.63422014  0.13450326  0.36575247  1
  O  O46  1  0.64353096  0.87698148  0.65047958  1
  O  O47  1  0.65059071  0.64309900  0.87440384  1
  O  O48  1  0.84927473  0.35650968  0.37664795  1
  O  O49  1  0.85638166  0.12386676  0.15079379  1
  O  O50  1  0.86540213  0.86540550  0.86570536  1
  O  O51  1  0.87339141  0.89367360  0.40056792  1
  O  O52  1  0.87692593  0.65108799  0.64293262  1
  O  O53  1  0.88441835  0.11572900  0.61586869  1
  O  O54  1  0.89357056  0.40082945  0.87348892  1
  O  O55  1  0.90060176  0.62626764  0.10628485  1
