# generated using pymatgen
data_In3Ge
_symmetry_space_group_name_H-M   'P 1'
_cell_length_a   6.66945750
_cell_length_b   6.66945747
_cell_length_c   5.29844084
_cell_angle_alpha   90.00000000
_cell_angle_beta   90.00000000
_cell_angle_gamma   119.99999399
_symmetry_Int_Tables_number   1
_chemical_formula_structural   In3Ge
_chemical_formula_sum   'In6 Ge2'
_cell_volume   204.10787641
_cell_formula_units_Z   2
loop_
 _symmetry_equiv_pos_site_id
 _symmetry_equiv_pos_as_xyz
  1  'x, y, z'
loop_
 _atom_site_type_symbol
 _atom_site_label
 _atom_site_symmetry_multiplicity
 _atom_site_fract_x
 _atom_site_fract_y
 _atom_site_fract_z
 _atom_site_occupancy
  In  In0  1  0.17136883  0.34273666  0.24999900  1
  In  In1  1  0.65726234  0.82863117  0.24999900  1
  In  In2  1  0.17136883  0.82863117  0.24999900  1
  In  In3  1  0.82863017  0.65726234  0.74999800  1
  In  In4  1  0.34273666  0.17136883  0.74999800  1
  In  In5  1  0.82863017  0.17136883  0.74999800  1
  Ge  Ge6  1  0.33333300  0.66666700  0.74999800  1
  Ge  Ge7  1  0.66666700  0.33333200  0.24999900  1
