# generated using pymatgen
data_KMnF3
_symmetry_space_group_name_H-M   'P 1'
_cell_length_a   6.03807684
_cell_length_b   6.03807653
_cell_length_c   6.04236840
_cell_angle_alpha   119.97650891
_cell_angle_beta   119.97650730
_cell_angle_gamma   89.99999999
_symmetry_Int_Tables_number   1
_chemical_formula_structural   KMnF3
_chemical_formula_sum   'K2 Mn2 F6'
_cell_volume   155.88257747
_cell_formula_units_Z   2
loop_
 _symmetry_equiv_pos_site_id
 _symmetry_equiv_pos_as_xyz
  1  'x, y, z'
loop_
 _atom_site_type_symbol
 _atom_site_label
 _atom_site_symmetry_multiplicity
 _atom_site_fract_x
 _atom_site_fract_y
 _atom_site_fract_z
 _atom_site_occupancy
  K  K0  1  0.75000000  0.25000000  0.50000000  1
  K  K1  1  0.25000000  0.75000000  0.50000000  1
  Mn  Mn2  1  0.50000000  0.50000000  -0.00000000  1
  Mn  Mn3  1  -0.00000000  -0.00000000  -0.00000000  1
  F  F4  1  0.76001856  0.26001856  1.00000000  1
  F  F5  1  0.25000000  0.25000000  0.50000000  1
  F  F6  1  0.23998144  0.73998144  0.00000000  1
  F  F7  1  0.73998144  0.76001856  1.00000000  1
  F  F8  1  0.26001856  0.23998144  0.00000000  1
  F  F9  1  0.75000000  0.75000000  0.50000000  1
