# generated using pymatgen
data_P2W9O31
_symmetry_space_group_name_H-M   'P 1'
_cell_length_a   5.42536077
_cell_length_b   6.70186949
_cell_length_c   33.54086843
_cell_angle_alpha   89.99718641
_cell_angle_beta   90.15447882
_cell_angle_gamma   89.92202524
_symmetry_Int_Tables_number   1
_chemical_formula_structural   P2W9O31
_chemical_formula_sum   'P4 W18 O62'
_cell_volume   1219.54241816
_cell_formula_units_Z   2
loop_
 _symmetry_equiv_pos_site_id
 _symmetry_equiv_pos_as_xyz
  1  'x, y, z'
loop_
 _atom_site_type_symbol
 _atom_site_label
 _atom_site_symmetry_multiplicity
 _atom_site_fract_x
 _atom_site_fract_y
 _atom_site_fract_z
 _atom_site_occupancy
  P  P0  1  0.01374495  0.86459498  0.71650030  1
  P  P1  1  0.49342427  0.36424953  0.78352865  1
  P  P2  1  0.50657573  0.63575047  0.21647135  1
  P  P3  1  0.98625505  0.13540502  0.28349970  1
  W  W4  1  0.99805523  0.83052572  0.45403692  1
  W  W5  1  0.49978795  0.66931679  0.95406120  1
  W  W6  1  0.50187803  0.83821249  0.59196483  1
  W  W7  1  0.00194477  0.16947428  0.54596308  1
  W  W8  1  0.49812197  0.16178751  0.40803517  1
  W  W9  1  0.00120700  0.33790564  0.90803360  1
  W  W10  1  0.49826460  0.00758812  0.86057843  1
  W  W11  1  0.50593891  0.17053218  0.68579748  1
  W  W12  1  0.00029969  0.32967009  0.18577087  1
  W  W13  1  0.99879300  0.66209436  0.09196640  1
  W  W14  1  0.99403125  0.49208630  0.36058714  1
  W  W15  1  0.50000000  0.50000000  0.50000000  1
  W  W16  1  0.49406109  0.82946782  0.31420252  1
  W  W17  1  0.00596875  0.50791370  0.63941286  1
  W  W18  1  0.50173540  0.99241188  0.13942157  1
  W  W19  1  0.99970031  0.67032991  0.81422913  1
  W  W20  1  0.00000000  0.00000000  0.00000000  1
  W  W21  1  0.50021205  0.33068321  0.04593880  1
  O  O22  1  0.49551341  0.99181841  0.35885669  1
  O  O23  1  0.50042195  0.16396639  0.09592577  1
  O  O24  1  0.73147843  0.18188896  0.88289116  1
  O  O25  1  0.51147156  0.30156333  0.73920190  1
  O  O26  1  0.20706195  0.99806062  0.29287092  1
  O  O27  1  0.24040444  0.32605926  0.66881313  1
  O  O28  1  0.22919017  0.65180520  0.47790949  1
  O  O29  1  0.00002071  0.83111979  0.04747169  1
  O  O30  1  0.22960086  0.15751921  0.87940780  1
  O  O31  1  0.26360885  0.82690453  0.83116786  1
  O  O32  1  0.77080983  0.34819480  0.52209051  1
  O  O33  1  0.27054568  0.48798405  0.92726332  1
  O  O34  1  0.49881420  0.33099232  0.45260310  1
  O  O35  1  -0.00002071  0.16888021  0.95252831  1
  O  O36  1  0.00345315  0.33607238  0.59587785  1
  O  O37  1  0.26154479  0.97434211  0.71122922  1
  O  O38  1  0.73037715  0.84794680  0.97787781  1
  O  O39  1  0.73639115  0.17309547  0.16883214  1
  O  O40  1  0.26297623  0.64974179  0.33449880  1
  O  O41  1  0.00041764  0.50834305  0.85886080  1
  O  O42  1  0.75308850  0.52430804  0.21105064  1
  O  O43  1  0.73845521  0.02565789  0.28877078  1
  O  O44  1  0.27063632  0.32153740  0.52579294  1
  O  O45  1  0.99394359  0.80146188  0.76066697  1
  O  O46  1  0.77336386  0.68250892  0.61680504  1
  O  O47  1  0.76926030  0.01215290  0.42721509  1
  O  O48  1  0.49957805  0.83603361  0.90407423  1
  O  O49  1  0.72504330  0.34329648  0.37933261  1
  O  O50  1  0.49976835  0.17503345  0.80949008  1
  O  O51  1  0.48852844  0.69843667  0.26079810  1
  O  O52  1  0.23117010  0.48555514  0.06899357  1
  O  O53  1  0.28421054  0.50059554  0.20734478  1
  O  O54  1  0.23334342  0.15099218  0.16561157  1
  O  O55  1  0.26852157  0.81811104  0.11710884  1
  O  O56  1  0.71578946  0.49940446  0.79265522  1
  O  O57  1  0.22663614  0.31749108  0.38319496  1
  O  O58  1  0.23039080  0.82179691  0.97423367  1
  O  O59  1  0.00569137  0.67596635  0.69033481  1
  O  O60  1  0.73702377  0.35025821  0.66550120  1
  O  O61  1  0.72945432  0.51201595  0.07273668  1
  O  O62  1  0.23073970  0.98784710  0.57278491  1
  O  O63  1  0.00605641  0.19853812  0.23933303  1
  O  O64  1  0.75959556  0.67394074  0.33118687  1
  O  O65  1  0.50448659  0.00818159  0.64114331  1
  O  O66  1  0.24691150  0.47569196  0.78894936  1
  O  O67  1  0.76882990  0.51444486  0.93100643  1
  O  O68  1  0.73182116  0.01497261  0.56893160  1
  O  O69  1  0.26817884  0.98502739  0.43106840  1
  O  O70  1  0.76665658  0.84900782  0.83438843  1
  O  O71  1  0.99430863  0.32403365  0.30966519  1
  O  O72  1  0.79293805  0.00193938  0.70712908  1
  O  O73  1  0.27495670  0.65670352  0.62066739  1
  O  O74  1  0.76960920  0.17820309  0.02576733  1
  O  O75  1  0.99958236  0.49165695  0.14113920  1
  O  O76  1  0.26962285  0.15205320  0.02212219  1
  O  O77  1  0.50023165  0.82496655  0.19050992  1
  O  O78  1  0.50118580  0.66900768  0.54739690  1
  O  O79  1  0.77039914  0.84248079  0.12059220  1
  O  O80  1  0.00000000  0.00000000  0.50000000  1
  O  O81  1  0.72936368  0.67846260  0.47420706  1
  O  O82  1  0.50000000  0.50000000  0.00000000  1
  O  O83  1  0.99654685  0.66392762  0.40412215  1
