# generated using pymatgen
data_MnSiH12(OF)6
_symmetry_space_group_name_H-M   'P 1'
_cell_length_a   9.85102718
_cell_length_b   9.84427222
_cell_length_c   9.87688847
_cell_angle_alpha   89.91258589
_cell_angle_beta   90.03266225
_cell_angle_gamma   119.96296214
_symmetry_Int_Tables_number   1
_chemical_formula_structural   MnSiH12(OF)6
_chemical_formula_sum   'Mn3 Si3 H36 O18 F18'
_cell_volume   829.80751398
_cell_formula_units_Z   3
loop_
 _symmetry_equiv_pos_site_id
 _symmetry_equiv_pos_as_xyz
  1  'x, y, z'
loop_
 _atom_site_type_symbol
 _atom_site_label
 _atom_site_symmetry_multiplicity
 _atom_site_fract_x
 _atom_site_fract_y
 _atom_site_fract_z
 _atom_site_occupancy
  Mn  Mn0  1  0.00000000  0.00000000  -0.00000000  1
  Mn  Mn1  1  0.66670167  0.33315474  0.32750262  1
  Mn  Mn2  1  0.33329833  0.66684526  0.67249738  1
  Si  Si3  1  0.00000000  0.00000000  0.50000000  1
  Si  Si4  1  0.66667218  0.33338293  0.82697890  1
  Si  Si5  1  0.33332782  0.66661707  0.17302110  1
  H  H6  1  0.83959273  0.03419441  0.77826864  1
  H  H7  1  0.19437573  0.16031056  0.77816894  1
  H  H8  1  0.96601629  0.80576861  0.77829987  1
  H  H9  1  0.16040727  0.96580559  0.22173136  1
  H  H10  1  0.80562427  0.83968944  0.22183106  1
  H  H11  1  0.03398371  0.19423139  0.22170013  1
  H  H12  1  0.83346536  0.14506086  0.89235452  1
  H  H13  1  0.31119560  0.16635448  0.89254203  1
  H  H14  1  0.85514356  0.68877611  0.89251633  1
  H  H15  1  0.16653464  0.85493914  0.10764548  1
  H  H16  1  0.68880440  0.83364552  0.10745797  1
  H  H17  1  0.14485644  0.31122389  0.10748367  1
  H  H18  1  0.71640173  0.18659964  0.55235272  1
  H  H19  1  0.47067544  0.28380579  0.55214354  1
  H  H20  1  0.81293825  0.52901791  0.55203652  1
  H  H21  1  0.28359827  0.81340036  0.44764728  1
  H  H22  1  0.52932456  0.71619421  0.44785646  1
  H  H23  1  0.18706175  0.47098209  0.44796348  1
  H  H24  1  0.83108565  0.18339790  0.44053054  1
  H  H25  1  0.35273288  0.16904914  0.44043695  1
  H  H26  1  0.81621317  0.64719254  0.44017951  1
  H  H27  1  0.16891435  0.81660210  0.55946946  1
  H  H28  1  0.64726712  0.83095086  0.55956305  1
  H  H29  1  0.18378683  0.35280746  0.55982049  1
  H  H30  1  0.50374701  0.01820224  0.22227464  1
  H  H31  1  0.51456574  0.49649358  0.22217528  1
  H  H32  1  0.98176564  0.48552365  0.22227326  1
  H  H33  1  0.49625299  0.98179776  0.77772536  1
  H  H34  1  0.48543426  0.50350642  0.77782472  1
  H  H35  1  0.01823436  0.51447635  0.77772674  1
  H  H36  1  0.53227127  0.13692574  0.10172580  1
  H  H37  1  0.60441643  0.46800458  0.10160898  1
  H  H38  1  0.86340242  0.39538212  0.10175462  1
  H  H39  1  0.46772873  0.86307426  0.89827420  1
  H  H40  1  0.39558357  0.53199542  0.89839102  1
  H  H41  1  0.13659758  0.60461788  0.89824538  1
  O  O42  1  0.85132436  0.05687240  0.87541490  1
  O  O43  1  0.20538332  0.14879562  0.87540463  1
  O  O44  1  0.94339341  0.79468122  0.87549096  1
  O  O45  1  0.14867564  0.94312760  0.12458510  1
  O  O46  1  0.79461668  0.85120438  0.12459537  1
  O  O47  1  0.05660659  0.20531878  0.12450904  1
  O  O48  1  0.74638785  0.20652767  0.45677478  1
  O  O49  1  0.46058953  0.25362583  0.45660991  1
  O  O50  1  0.79304884  0.53934580  0.45653460  1
  O  O51  1  0.25361215  0.79347233  0.54322522  1
  O  O52  1  0.53941047  0.74637417  0.54339009  1
  O  O53  1  0.20695116  0.46065420  0.54346540  1
  O  O54  1  0.55388543  0.12865417  0.19677376  1
  O  O55  1  0.57484308  0.44638051  0.19669506  1
  O  O56  1  0.87137395  0.42515439  0.19682143  1
  O  O57  1  0.44611457  0.87134583  0.80322624  1
  O  O58  1  0.42515692  0.55361949  0.80330494  1
  O  O59  1  0.12862605  0.57484561  0.80317857  1
  F  F60  1  0.12908094  0.15380588  0.60073469  1
  F  F61  1  0.02465251  0.87102139  0.60056308  1
  F  F62  1  0.84627003  0.97524937  0.60069524  1
  F  F63  1  0.87091906  0.84619412  0.39926531  1
  F  F64  1  0.97534749  0.12897861  0.39943692  1
  F  F65  1  0.15372997  0.02475063  0.39930476  1
  F  F66  1  0.63921825  0.17863415  0.72632478  1
  F  F67  1  0.53959286  0.36080355  0.72627749  1
  F  F68  1  0.82129879  0.46047995  0.72626334  1
  F  F69  1  0.36078175  0.82136585  0.27367522  1
  F  F70  1  0.46040714  0.63919645  0.27372251  1
  F  F71  1  0.17870121  0.53952005  0.27373666  1
  F  F72  1  0.51226582  0.20572963  0.92757646  1
  F  F73  1  0.69348881  0.48787787  0.92754564  1
  F  F74  1  0.79425027  0.30655018  0.92756175  1
  F  F75  1  0.48773418  0.79427037  0.07242354  1
  F  F76  1  0.30651119  0.51212213  0.07245436  1
  F  F77  1  0.20574973  0.69344982  0.07243825  1
