# generated using pymatgen
data_K3NaCr2O8
_symmetry_space_group_name_H-M   'P 1'
_cell_length_a   5.97880963
_cell_length_b   5.97880963
_cell_length_c   15.20873348
_cell_angle_alpha   90.21648726
_cell_angle_beta   89.78351274
_cell_angle_gamma   120.14789977
_symmetry_Int_Tables_number   1
_chemical_formula_structural   K3NaCr2O8
_chemical_formula_sum   'K6 Na2 Cr4 O16'
_cell_volume   470.11036702
_cell_formula_units_Z   2
loop_
 _symmetry_equiv_pos_site_id
 _symmetry_equiv_pos_as_xyz
  1  'x, y, z'
loop_
 _atom_site_type_symbol
 _atom_site_label
 _atom_site_symmetry_multiplicity
 _atom_site_fract_x
 _atom_site_fract_y
 _atom_site_fract_z
 _atom_site_occupancy
  K  K0  1  0.67226092  0.33794123  0.91447462  1
  K  K1  1  0.33794123  0.67226092  0.58552538  1
  K  K2  1  0.32773908  0.66205877  0.08552538  1
  K  K3  1  0.66205877  0.32773908  0.41447462  1
  K  K4  1  0.01752720  0.01752720  0.75000000  1
  K  K5  1  0.98247280  0.98247280  0.25000000  1
  Na  Na6  1  0.00000000  0.00000000  0.50000000  1
  Na  Na7  1  0.00000000  0.00000000  0.00000000  1
  Cr  Cr8  1  0.67009518  0.33913936  0.63595920  1
  Cr  Cr9  1  0.33913936  0.67009518  0.86404080  1
  Cr  Cr10  1  0.32990482  0.66086064  0.36404080  1
  Cr  Cr11  1  0.66086064  0.32990482  0.13595920  1
  O  O12  1  0.65377213  0.31981288  0.74382940  1
  O  O13  1  0.31981288  0.65377213  0.75617060  1
  O  O14  1  0.34622787  0.68018712  0.25617060  1
  O  O15  1  0.68018712  0.34622787  0.24382940  1
  O  O16  1  0.37178836  0.19338612  0.59319729  1
  O  O17  1  0.19338612  0.37178836  0.90680271  1
  O  O18  1  0.62821164  0.80661388  0.40680271  1
  O  O19  1  0.80661388  0.62821164  0.09319729  1
  O  O20  1  0.82691365  0.64822506  0.60367462  1
  O  O21  1  0.64822506  0.82691365  0.89632538  1
  O  O22  1  0.17308635  0.35177494  0.39632538  1
  O  O23  1  0.35177494  0.17308635  0.10367462  1
  O  O24  1  0.82627012  0.19278362  0.59680673  1
  O  O25  1  0.19278362  0.82627012  0.90319327  1
  O  O26  1  0.17372988  0.80721638  0.40319327  1
  O  O27  1  0.80721638  0.17372988  0.09680673  1
