# generated using pymatgen
data_Li2CoNi3O8
_symmetry_space_group_name_H-M   'P 1'
_cell_length_a   8.16431936
_cell_length_b   8.02612906
_cell_length_c   8.06491918
_cell_angle_alpha   90.00490753
_cell_angle_beta   90.03511708
_cell_angle_gamma   89.97681311
_symmetry_Int_Tables_number   1
_chemical_formula_structural   Li2CoNi3O8
_chemical_formula_sum   'Li8 Co4 Ni12 O32'
_cell_volume   528.47691903
_cell_formula_units_Z   4
loop_
 _symmetry_equiv_pos_site_id
 _symmetry_equiv_pos_as_xyz
  1  'x, y, z'
loop_
 _atom_site_type_symbol
 _atom_site_label
 _atom_site_symmetry_multiplicity
 _atom_site_fract_x
 _atom_site_fract_y
 _atom_site_fract_z
 _atom_site_occupancy
  Li  Li0  1  0.00123374  0.00164364  0.99919423  1
  Li  Li1  1  0.24860881  0.25090737  0.25049748  1
  Li  Li2  1  0.25092392  0.74795601  0.74839771  1
  Li  Li3  1  0.49817680  0.99900811  0.49873758  1
  Li  Li4  1  0.50196480  0.49829056  0.00090999  1
  Li  Li5  1  0.74887940  0.24852104  0.75191586  1
  Li  Li6  1  0.75093973  0.75151179  0.25014439  1
  Li  Li7  1  0.99919384  0.50187166  0.50017429  1
  Co  Co8  1  0.12455175  0.87656968  0.37287677  1
  Co  Co9  1  0.37467816  0.12365226  0.87305694  1
  Co  Co10  1  0.62507222  0.62347513  0.62677258  1
  Co  Co11  1  0.87594741  0.37657499  0.12768176  1
  Ni  Ni12  1  0.12872503  0.12591019  0.62229784  1
  Ni  Ni13  1  0.12518896  0.37554676  0.87469294  1
  Ni  Ni14  1  0.12116677  0.62659119  0.12527390  1
  Ni  Ni15  1  0.37906703  0.37322970  0.62413260  1
  Ni  Ni16  1  0.37540945  0.62450719  0.37426130  1
  Ni  Ni17  1  0.37050336  0.87448391  0.12234500  1
  Ni  Ni18  1  0.62959867  0.37427908  0.37757965  1
  Ni  Ni19  1  0.62489697  0.12450787  0.12541991  1
  Ni  Ni20  1  0.62044693  0.87328805  0.87527878  1
  Ni  Ni21  1  0.87906907  0.12640110  0.37525006  1
  Ni  Ni22  1  0.87471422  0.87544084  0.62534579  1
  Ni  Ni23  1  0.87108187  0.62570866  0.87782554  1
  O  O24  1  0.11026900  0.11527550  0.38999478  1
  O  O25  1  0.12419768  0.89295076  0.60741258  1
  O  O26  1  0.10441696  0.61202497  0.88900432  1
  O  O27  1  0.14128253  0.13918049  0.85614641  1
  O  O28  1  0.10684741  0.39322076  0.11784221  1
  O  O29  1  0.14739469  0.36211211  0.63171151  1
  O  O30  1  0.12471092  0.64143877  0.35527001  1
  O  O31  1  0.13977090  0.86054014  0.13400294  1
  O  O32  1  0.35977895  0.13957366  0.63439292  1
  O  O33  1  0.37445880  0.35993702  0.85471134  1
  O  O34  1  0.35334161  0.63762169  0.13470487  1
  O  O35  1  0.39345904  0.60716041  0.61387655  1
  O  O36  1  0.35755027  0.86262651  0.35606064  1
  O  O37  1  0.39706357  0.38644780  0.38833571  1
  O  O38  1  0.37422608  0.10683499  0.10736808  1
  O  O39  1  0.38874246  0.88435995  0.88943921  1
  O  O40  1  0.61092055  0.38422345  0.61045242  1
  O  O41  1  0.62591151  0.60656062  0.39241428  1
  O  O42  1  0.60313121  0.88673528  0.11116020  1
  O  O43  1  0.64285497  0.36225825  0.14373732  1
  O  O44  1  0.60616730  0.10719558  0.88537878  1
  O  O45  1  0.64700298  0.13751998  0.36527406  1
  O  O46  1  0.62456901  0.85947755  0.64475422  1
  O  O47  1  0.63986314  0.63950280  0.86543705  1
  O  O48  1  0.86036380  0.36030555  0.36624700  1
  O  O49  1  0.87591473  0.14108695  0.14509823  1
  O  O50  1  0.85238957  0.86208558  0.86694680  1
  O  O51  1  0.89328317  0.89283322  0.38373834  1
  O  O52  1  0.85824662  0.63836745  0.64384897  1
  O  O53  1  0.89557401  0.11246456  0.61142302  1
  O  O54  1  0.87648191  0.39268369  0.89342116  1
  O  O55  1  0.88977273  0.61565718  0.11046921  1
