# generated using pymatgen
data_FeF3
_symmetry_space_group_name_H-M   'P 1'
_cell_length_a   9.45510129
_cell_length_b   7.53555046
_cell_length_c   5.41994532
_cell_angle_alpha   135.38694648
_cell_angle_beta   150.72123805
_cell_angle_gamma   35.30118773
_symmetry_Int_Tables_number   1
_chemical_formula_structural   FeF3
_chemical_formula_sum   'Fe2 F6'
_cell_volume   109.13675535
_cell_formula_units_Z   2
loop_
 _symmetry_equiv_pos_site_id
 _symmetry_equiv_pos_as_xyz
  1  'x, y, z'
loop_
 _atom_site_type_symbol
 _atom_site_label
 _atom_site_symmetry_multiplicity
 _atom_site_fract_x
 _atom_site_fract_y
 _atom_site_fract_z
 _atom_site_occupancy
  Fe  Fe0  1  0.00000000  0.50000000  0.00000000  1
  Fe  Fe1  1  0.00000000  -0.00000000  0.00000000  1
  F  F2  1  0.50022566  0.33265481  0.57363754  1
  F  F3  1  0.09570879  0.25000000  0.19141758  1
  F  F4  1  0.07341187  0.16734519  0.57363754  1
  F  F5  1  0.49977434  0.66734519  0.42636246  1
  F  F6  1  0.90429121  0.75000000  0.80858242  1
  F  F7  1  0.92658813  0.83265481  0.42636246  1
