# generated using pymatgen
data_Fe5(O4F)2
_symmetry_space_group_name_H-M   'P 1'
_cell_length_a   4.65522201
_cell_length_b   4.65658717
_cell_length_c   15.09149056
_cell_angle_alpha   90.00000000
_cell_angle_beta   90.00000000
_cell_angle_gamma   90.00000000
_symmetry_Int_Tables_number   1
_chemical_formula_structural   Fe5(O4F)2
_chemical_formula_sum   'Fe10 O16 F4'
_cell_volume   327.14498805
_cell_formula_units_Z   2
loop_
 _symmetry_equiv_pos_site_id
 _symmetry_equiv_pos_as_xyz
  1  'x, y, z'
loop_
 _atom_site_type_symbol
 _atom_site_label
 _atom_site_symmetry_multiplicity
 _atom_site_fract_x
 _atom_site_fract_y
 _atom_site_fract_z
 _atom_site_occupancy
  Fe  Fe0  1  0.00497158  0.98668683  0.00531053  1
  Fe  Fe1  1  0.01999931  0.01571169  0.20076104  1
  Fe  Fe2  1  0.01999931  0.01571169  0.39923896  1
  Fe  Fe3  1  0.00497158  0.98668683  0.59468947  1
  Fe  Fe4  1  0.00997793  0.98625239  0.80000000  1
  Fe  Fe5  1  0.49502842  0.48668683  0.09468947  1
  Fe  Fe6  1  0.49502842  0.48668683  0.50531053  1
  Fe  Fe7  1  0.49002207  0.48625239  0.30000000  1
  Fe  Fe8  1  0.48000069  0.51571169  0.70076104  1
  Fe  Fe9  1  0.48000069  0.51571169  0.89923896  1
  O  O10  1  0.20091471  0.80327849  0.10452690  1
  O  O11  1  0.19771426  0.80912957  0.30000000  1
  O  O12  1  0.20091471  0.80327849  0.49547310  1
  O  O13  1  0.17953289  0.81287631  0.69719165  1
  O  O14  1  0.17953289  0.81287631  0.90280835  1
  O  O15  1  0.29908529  0.30327849  0.99547310  1
  O  O16  1  0.32046711  0.31287631  0.19719165  1
  O  O17  1  0.32046711  0.31287631  0.40280835  1
  O  O18  1  0.29908529  0.30327849  0.60452690  1
  O  O19  1  0.30228574  0.30912957  0.80000000  1
  O  O20  1  0.68773595  0.68894780  0.99839931  1
  O  O21  1  0.68773595  0.68894780  0.60160069  1
  O  O22  1  0.68534370  0.69378481  0.80000000  1
  O  O23  1  0.81226405  0.18894780  0.10160069  1
  O  O24  1  0.81226405  0.18894780  0.49839931  1
  O  O25  1  0.81465630  0.19378481  0.30000000  1
  F  F26  1  0.70405963  0.69791501  0.20042064  1
  F  F27  1  0.70405963  0.69791501  0.39957936  1
  F  F28  1  0.79594037  0.19791501  0.89957936  1
  F  F29  1  0.79594037  0.19791501  0.70042064  1
