# generated using pymatgen
data_LiUAs(H4O5)2
_symmetry_space_group_name_H-M   'P 1'
_cell_length_a   7.14380356
_cell_length_b   7.14380356
_cell_length_c   9.44111053
_cell_angle_alpha   90.00000000
_cell_angle_beta   90.00000000
_cell_angle_gamma   90.00000000
_symmetry_Int_Tables_number   1
_chemical_formula_structural   LiUAs(H4O5)2
_chemical_formula_sum   'Li2 U2 As2 H16 O20'
_cell_volume   481.81696734
_cell_formula_units_Z   2
loop_
 _symmetry_equiv_pos_site_id
 _symmetry_equiv_pos_as_xyz
  1  'x, y, z'
loop_
 _atom_site_type_symbol
 _atom_site_label
 _atom_site_symmetry_multiplicity
 _atom_site_fract_x
 _atom_site_fract_y
 _atom_site_fract_z
 _atom_site_occupancy
  Li  Li0  1  0.25000000  0.75000000  0.50000000  1
  Li  Li1  1  0.75000000  0.25000000  0.50000000  1
  U  U2  1  0.75000000  0.75000000  0.89437392  1
  U  U3  1  0.25000000  0.25000000  0.10562608  1
  As  As4  1  0.25000000  0.75000000  -0.00000000  1
  As  As5  1  0.75000000  0.25000000  -0.00000000  1
  H  H6  1  0.92837042  0.60753732  0.38714179  1
  H  H7  1  0.57162958  0.89246268  0.38714179  1
  H  H8  1  0.60753732  0.57162958  0.38714179  1
  H  H9  1  0.89246268  0.92837042  0.38714179  1
  H  H10  1  0.07162958  0.39246268  0.61285821  1
  H  H11  1  0.42837042  0.10753732  0.61285821  1
  H  H12  1  0.39246268  0.42837042  0.61285821  1
  H  H13  1  0.10753732  0.07162958  0.61285821  1
  H  H14  1  0.84017075  0.07978371  0.27652501  1
  H  H15  1  0.65982925  0.42021629  0.27652501  1
  H  H16  1  0.07978371  0.65982925  0.27652501  1
  H  H17  1  0.42021629  0.84017075  0.27652501  1
  H  H18  1  0.15982925  0.92021629  0.72347499  1
  H  H19  1  0.34017075  0.57978371  0.72347499  1
  H  H20  1  0.92021629  0.34017075  0.72347499  1
  H  H21  1  0.57978371  0.15982925  0.72347499  1
  O  O22  1  0.75000000  0.75000000  0.70233524  1
  O  O23  1  0.25000000  0.25000000  0.29766476  1
  O  O24  1  0.75000000  0.75000000  0.08700237  1
  O  O25  1  0.25000000  0.25000000  0.91299763  1
  O  O26  1  0.69786138  0.06820258  0.88741388  1
  O  O27  1  0.80213862  0.43179742  0.88741388  1
  O  O28  1  0.06820258  0.80213862  0.88741388  1
  O  O29  1  0.43179742  0.69786138  0.88741388  1
  O  O30  1  0.30213862  0.93179742  0.11258612  1
  O  O31  1  0.19786138  0.56820258  0.11258612  1
  O  O32  1  0.93179742  0.19786138  0.11258612  1
  O  O33  1  0.56820258  0.30213862  0.11258612  1
  O  O34  1  0.03509124  0.69326193  0.37251579  1
  O  O35  1  0.46490876  0.80673807  0.37251579  1
  O  O36  1  0.69326193  0.46490876  0.37251579  1
  O  O37  1  0.80673807  0.03509124  0.37251579  1
  O  O38  1  0.96490876  0.30673807  0.62748421  1
  O  O39  1  0.53509124  0.19326193  0.62748421  1
  O  O40  1  0.30673807  0.53509124  0.62748421  1
  O  O41  1  0.19326193  0.96490876  0.62748421  1
