# generated using pymatgen
data_RbP(HO2)2
_symmetry_space_group_name_H-M   'P 1'
_cell_length_a   15.59677133
_cell_length_b   6.32764371
_cell_length_c   9.67270107
_cell_angle_alpha   90.00000000
_cell_angle_beta   108.64416987
_cell_angle_gamma   90.00000000
_symmetry_Int_Tables_number   1
_chemical_formula_structural   RbP(HO2)2
_chemical_formula_sum   'Rb8 P8 H16 O32'
_cell_volume   904.51110035
_cell_formula_units_Z   8
loop_
 _symmetry_equiv_pos_site_id
 _symmetry_equiv_pos_as_xyz
  1  'x, y, z'
loop_
 _atom_site_type_symbol
 _atom_site_label
 _atom_site_symmetry_multiplicity
 _atom_site_fract_x
 _atom_site_fract_y
 _atom_site_fract_z
 _atom_site_occupancy
  Rb  Rb0  1  0.86819698  0.75004638  0.97126007  1
  Rb  Rb1  1  0.13180302  0.25004638  0.02873993  1
  Rb  Rb2  1  0.63126092  0.23371333  0.52833595  1
  Rb  Rb3  1  0.36873908  0.73371333  0.47166405  1
  Rb  Rb4  1  0.36660196  0.75540736  0.96416156  1
  Rb  Rb5  1  0.63339804  0.25540736  0.03583844  1
  Rb  Rb6  1  0.13345513  0.22991025  0.53877589  1
  Rb  Rb7  1  0.86654487  0.72991025  0.46122411  1
  P  P8  1  0.87911319  0.22567681  0.73361231  1
  P  P9  1  0.12088681  0.72567681  0.26638769  1
  P  P10  1  0.62212207  0.76133545  0.76765882  1
  P  P11  1  0.37787793  0.26133545  0.23234118  1
  P  P12  1  0.37817110  0.25107495  0.73046358  1
  P  P13  1  0.62182890  0.75107495  0.26953642  1
  P  P14  1  0.12155303  0.73525453  0.77069425  1
  P  P15  1  0.87844697  0.23525453  0.22930575  1
  H  H16  1  0.81743893  0.25928666  0.91268729  1
  H  H17  1  0.18256107  0.75928666  0.08731271  1
  H  H18  1  0.68295711  0.73086926  0.58767857  1
  H  H19  1  0.31704289  0.23086926  0.41232143  1
  H  H20  1  0.31963866  0.26701512  0.91599941  1
  H  H21  1  0.68036134  0.76701512  0.08400059  1
  H  H22  1  0.18005766  0.71993637  0.58485640  1
  H  H23  1  0.81994234  0.21993637  0.41514360  1
  H  H24  1  0.98416530  0.47849152  0.74919620  1
  H  H25  1  0.01583470  0.97849152  0.25080380  1
  H  H26  1  0.51689310  0.50839322  0.75082619  1
  H  H27  1  0.48310690  0.00839322  0.24917381  1
  H  H28  1  0.49014590  0.01422434  0.75762852  1
  H  H29  1  0.50985410  0.51422434  0.24237148  1
  H  H30  1  0.00863724  0.97243949  0.74435043  1
  H  H31  1  0.99136276  0.47243949  0.25564957  1
  O  O32  1  0.79926395  0.23995293  0.80153411  1
  O  O33  1  0.20073605  0.73995293  0.19846589  1
  O  O34  1  0.83569699  0.16437153  0.57488486  1
  O  O35  1  0.16430301  0.66437153  0.42511514  1
  O  O36  1  0.95333510  0.07516171  0.82278311  1
  O  O37  1  0.04666490  0.57516171  0.17721689  1
  O  O38  1  0.91779684  0.46227285  0.74907766  1
  O  O39  1  0.08220316  0.96227285  0.25092234  1
  O  O40  1  0.70166054  0.75000262  0.69880070  1
  O  O41  1  0.29833946  0.25000262  0.30119930  1
  O  O42  1  0.66670142  0.81910330  0.92704748  1
  O  O43  1  0.33329858  0.31910330  0.07295252  1
  O  O44  1  0.54820925  0.91322631  0.68092052  1
  O  O45  1  0.45179075  0.41322631  0.31907948  1
  O  O46  1  0.58334503  0.52481724  0.75074198  1
  O  O47  1  0.41665497  0.02481724  0.24925802  1
  O  O48  1  0.30151059  0.23720764  0.80594168  1
  O  O49  1  0.69848941  0.73720764  0.19405832  1
  O  O50  1  0.33363297  0.18462282  0.57326980  1
  O  O51  1  0.66636703  0.68462282  0.42673020  1
  O  O52  1  0.45009911  0.07694464  0.81632302  1
  O  O53  1  0.54990089  0.57694464  0.18367698  1
  O  O54  1  0.42221139  0.47003035  0.75443659  1
  O  O55  1  0.57778861  0.97003035  0.24556341  1
  O  O56  1  0.19753697  0.75446920  0.69404383  1
  O  O57  1  0.80246303  0.25446920  0.30595617  1
  O  O58  1  0.16643772  0.80524735  0.92758346  1
  O  O59  1  0.83356228  0.30524735  0.07241654  1
  O  O60  1  0.04706981  0.90320787  0.68490451  1
  O  O61  1  0.95293019  0.40320787  0.31509549  1
  O  O62  1  0.07982562  0.51378659  0.74810646  1
  O  O63  1  0.92017438  0.01378659  0.25189354  1
