# generated using pymatgen
data_Fe5(O4F)2
_symmetry_space_group_name_H-M   'P 1'
_cell_length_a   4.63952964
_cell_length_b   4.63952964
_cell_length_c   15.14319957
_cell_angle_alpha   90.17567992
_cell_angle_beta   90.17567992
_cell_angle_gamma   90.02843180
_symmetry_Int_Tables_number   1
_chemical_formula_structural   Fe5(O4F)2
_chemical_formula_sum   'Fe10 O16 F4'
_cell_volume   325.95782744
_cell_formula_units_Z   2
loop_
 _symmetry_equiv_pos_site_id
 _symmetry_equiv_pos_as_xyz
  1  'x, y, z'
loop_
 _atom_site_type_symbol
 _atom_site_label
 _atom_site_symmetry_multiplicity
 _atom_site_fract_x
 _atom_site_fract_y
 _atom_site_fract_z
 _atom_site_occupancy
  Fe  Fe0  1  0.01050597  0.99565521  0.00524119  1
  Fe  Fe1  1  0.97953885  0.97636784  0.20109496  1
  Fe  Fe2  1  0.02363216  0.02046115  0.39890504  1
  Fe  Fe3  1  0.00434479  0.98949403  0.59475881  1
  Fe  Fe4  1  0.01611794  0.98388206  0.80000000  1
  Fe  Fe5  1  0.51073698  0.50502560  0.09478216  1
  Fe  Fe6  1  0.49497440  0.48926302  0.50521784  1
  Fe  Fe7  1  0.50158201  0.49841799  0.30000000  1
  Fe  Fe8  1  0.48247178  0.51500111  0.70077720  1
  Fe  Fe9  1  0.48499889  0.51752822  0.89922280  1
  O  O10  1  0.19301218  0.79615244  0.10441272  1
  O  O11  1  0.19548048  0.80451952  0.30000000  1
  O  O12  1  0.20384756  0.80698782  0.49558728  1
  O  O13  1  0.18099805  0.81203211  0.69657096  1
  O  O14  1  0.18796789  0.81900195  0.90342904  1
  O  O15  1  0.30853581  0.30967643  0.99782047  1
  O  O16  1  0.32431867  0.31739776  0.39966219  1
  O  O17  1  0.30114618  0.30290983  0.60449228  1
  O  O18  1  0.30217425  0.31273682  0.80016056  1
  O  O19  1  0.69709017  0.69885382  0.99550772  1
  O  O20  1  0.68260224  0.67568133  0.20033781  1
  O  O21  1  0.69032357  0.69146419  0.60217953  1
  O  O22  1  0.68726318  0.69782575  0.79983944  1
  O  O23  1  0.80686166  0.18567960  0.10117584  1
  O  O24  1  0.81432040  0.19313834  0.49882416  1
  O  O25  1  0.80827307  0.19172693  0.30000000  1
  F  F26  1  0.29880616  0.29290031  0.19880222  1
  F  F27  1  0.70709969  0.70119384  0.40119778  1
  F  F28  1  0.80260788  0.20163189  0.89862316  1
  F  F29  1  0.79836811  0.19739212  0.70137684  1
