# generated using pymatgen
data_CeAsRh
_symmetry_space_group_name_H-M   'P 1'
_cell_length_a   7.59392228
_cell_length_b   4.30854652
_cell_length_c   7.46932830
_cell_angle_alpha   90.00000000
_cell_angle_beta   90.00000000
_cell_angle_gamma   90.00000000
_symmetry_Int_Tables_number   1
_chemical_formula_structural   CeAsRh
_chemical_formula_sum   'Ce4 As4 Rh4'
_cell_volume   244.38721538
_cell_formula_units_Z   4
loop_
 _symmetry_equiv_pos_site_id
 _symmetry_equiv_pos_as_xyz
  1  'x, y, z'
loop_
 _atom_site_type_symbol
 _atom_site_label
 _atom_site_symmetry_multiplicity
 _atom_site_fract_x
 _atom_site_fract_y
 _atom_site_fract_z
 _atom_site_occupancy
  Ce  Ce0  1  0.49940770  0.74999900  0.24763526  1
  Ce  Ce1  1  0.99940670  0.74999900  0.25236474  1
  Ce  Ce2  1  0.00059230  0.25000000  0.74763626  1
  Ce  Ce3  1  0.50059330  0.25000000  0.75236374  1
  As  As4  1  0.24714586  0.25000000  0.08314973  1
  As  As5  1  0.74714486  0.25000000  0.41685027  1
  As  As6  1  0.25285614  0.74999900  0.58314973  1
  As  As7  1  0.75285514  0.74999900  0.91685127  1
  Rh  Rh8  1  0.75130436  0.25000000  0.08374417  1
  Rh  Rh9  1  0.25130336  0.25000000  0.41625583  1
  Rh  Rh10  1  0.74869664  0.74999900  0.58374417  1
  Rh  Rh11  1  0.24869764  0.74999900  0.91625483  1
