# generated using pymatgen
data_Li3Hg
_symmetry_space_group_name_H-M   'P 1'
_cell_length_a   5.87625653
_cell_length_b   5.87626030
_cell_length_c   4.77017201
_cell_angle_alpha   89.96855584
_cell_angle_beta   90.03146553
_cell_angle_gamma   120.06157350
_symmetry_Int_Tables_number   1
_chemical_formula_structural   Li3Hg
_chemical_formula_sum   'Li6 Hg2'
_cell_volume   142.55963067
_cell_formula_units_Z   2
loop_
 _symmetry_equiv_pos_site_id
 _symmetry_equiv_pos_as_xyz
  1  'x, y, z'
loop_
 _atom_site_type_symbol
 _atom_site_label
 _atom_site_symmetry_multiplicity
 _atom_site_fract_x
 _atom_site_fract_y
 _atom_site_fract_z
 _atom_site_occupancy
  Li  Li0  1  0.17086091  0.34162196  0.24995851  1
  Li  Li1  1  0.65837741  0.82913996  0.24995886  1
  Li  Li2  1  0.17072910  0.82927164  0.25009870  1
  Li  Li3  1  0.82913885  0.65837761  0.75004141  1
  Li  Li4  1  0.34162272  0.17086078  0.75004111  1
  Li  Li5  1  0.82927204  0.17072938  0.74990129  1
  Hg  Hg6  1  0.33328406  0.66671691  0.75001017  1
  Hg  Hg7  1  0.66671692  0.33328476  0.24998994  1
