# generated using pymatgen
data_Fe5(O4F)2
_symmetry_space_group_name_H-M   'P 1'
_cell_length_a   4.64151588
_cell_length_b   4.63829589
_cell_length_c   15.15586582
_cell_angle_alpha   90.00000000
_cell_angle_beta   90.33211046
_cell_angle_gamma   90.00000000
_symmetry_Int_Tables_number   1
_chemical_formula_structural   Fe5(O4F)2
_chemical_formula_sum   'Fe10 O16 F4'
_cell_volume   326.28097159
_cell_formula_units_Z   2
loop_
 _symmetry_equiv_pos_site_id
 _symmetry_equiv_pos_as_xyz
  1  'x, y, z'
loop_
 _atom_site_type_symbol
 _atom_site_label
 _atom_site_symmetry_multiplicity
 _atom_site_fract_x
 _atom_site_fract_y
 _atom_site_fract_z
 _atom_site_occupancy
  Fe  Fe0  1  -0.00000000  -0.00000000  -0.00000000  1
  Fe  Fe1  1  0.99553451  0.01098940  0.20519921  1
  Fe  Fe2  1  0.97685046  0.97938219  0.40094420  1
  Fe  Fe3  1  0.02314954  0.02061781  0.59905580  1
  Fe  Fe4  1  0.00446549  0.98901060  0.79480079  1
  Fe  Fe5  1  0.52314954  0.47938219  0.09905580  1
  Fe  Fe6  1  0.50000000  0.50000000  0.50000000  1
  Fe  Fe7  1  0.50446549  0.51098940  0.29480079  1
  Fe  Fe8  1  0.49553451  0.48901060  0.70519921  1
  Fe  Fe9  1  0.47685046  0.52061781  0.90094420  1
  O  O10  1  0.18702817  0.80445283  0.30189212  1
  O  O11  1  0.19374178  0.80565141  0.49994824  1
  O  O12  1  0.20412637  0.80632307  0.69565041  1
  O  O13  1  0.17654234  0.81680380  0.90024958  1
  O  O14  1  0.30625822  0.30565141  0.00005176  1
  O  O15  1  0.31297183  0.30445283  0.19810788  1
  O  O16  1  0.32345766  0.31680380  0.59975042  1
  O  O17  1  0.29587363  0.30632307  0.80434959  1
  O  O18  1  0.69374178  0.69434859  0.99994824  1
  O  O19  1  0.70412637  0.69367693  0.19565041  1
  O  O20  1  0.67654234  0.68319620  0.40024958  1
  O  O21  1  0.68702817  0.69554717  0.80189212  1
  O  O22  1  0.82345766  0.18319620  0.09975042  1
  O  O23  1  0.80625822  0.19434859  0.50005176  1
  O  O24  1  0.79587363  0.19367693  0.30434959  1
  O  O25  1  0.81297183  0.19554717  0.69810788  1
  F  F26  1  0.20708528  0.79791523  0.10105973  1
  F  F27  1  0.29291472  0.29791523  0.39894027  1
  F  F28  1  0.70708528  0.70208477  0.60105973  1
  F  F29  1  0.79291472  0.20208477  0.89894027  1
