# generated using pymatgen
data_Fe5(O4F)2
_symmetry_space_group_name_H-M   'P 1'
_cell_length_a   4.64880940
_cell_length_b   12.97463116
_cell_length_c   5.54928753
_cell_angle_alpha   102.51299171
_cell_angle_beta   91.30725470
_cell_angle_gamma   89.01902517
_symmetry_Int_Tables_number   1
_chemical_formula_structural   Fe5(O4F)2
_chemical_formula_sum   'Fe10 O16 F4'
_cell_volume   326.65311405
_cell_formula_units_Z   2
loop_
 _symmetry_equiv_pos_site_id
 _symmetry_equiv_pos_as_xyz
  1  'x, y, z'
loop_
 _atom_site_type_symbol
 _atom_site_label
 _atom_site_symmetry_multiplicity
 _atom_site_fract_x
 _atom_site_fract_y
 _atom_site_fract_z
 _atom_site_occupancy
  Fe  Fe0  1  0.49093556  0.99309407  0.50854690  1
  Fe  Fe1  1  0.48225203  0.40618415  0.30281080  1
  Fe  Fe2  1  0.49255323  0.19780753  0.88394113  1
  Fe  Fe3  1  0.51324979  0.60444932  0.69485792  1
  Fe  Fe4  1  0.51872023  0.80440067  0.08876016  1
  Fe  Fe5  1  0.98296478  0.39323624  0.80015637  1
  Fe  Fe6  1  0.99549806  0.80157304  0.61124690  1
  Fe  Fe7  1  0.02779830  0.20212104  0.40699924  1
  Fe  Fe8  1  0.97334747  0.59560843  0.21228404  1
  Fe  Fe9  1  0.01576123  0.00221395  0.98992185  1
  O  O10  1  0.80107176  0.25517444  0.70928220  1
  O  O11  1  0.81552335  0.86695429  0.92167154  1
  O  O12  1  0.81004115  0.66860750  0.52027999  1
  O  O13  1  0.80243916  0.45711472  0.11523152  1
  O  O14  1  0.69316816  0.05827021  0.81222585  1
  O  O15  1  0.69221417  0.46582333  0.61903834  1
  O  O16  1  0.69154702  0.66221821  0.01598400  1
  O  O17  1  0.69575456  0.86122936  0.41358351  1
  O  O18  1  0.30554453  0.33739761  0.98483133  1
  O  O19  1  0.31070637  0.73909555  0.78387841  1
  O  O20  1  0.30468941  0.12807360  0.57381910  1
  O  O21  1  0.31384392  0.93982940  0.18552388  1
  O  O22  1  0.30310955  0.54654005  0.39187087  1
  O  O23  1  0.19326810  0.13928938  0.08190126  1
  O  O24  1  0.19482003  0.93270640  0.67918899  1
  O  O25  1  0.19329977  0.34095415  0.48942874  1
  F  F26  1  0.80387646  0.06159442  0.31519963  1
  F  F27  1  0.69414423  0.25786994  0.22075611  1
  F  F28  1  0.19318179  0.54020985  0.89053363  1
  F  F29  1  0.19467482  0.74035915  0.27624579  1
