# generated using pymatgen
data_Mn3Os
_symmetry_space_group_name_H-M   'P 1'
_cell_length_a   5.14475883
_cell_length_b   5.14475999
_cell_length_c   4.09685360
_cell_angle_alpha   90.00000000
_cell_angle_beta   90.00000000
_cell_angle_gamma   120.00001284
_symmetry_Int_Tables_number   1
_chemical_formula_structural   Mn3Os
_chemical_formula_sum   'Mn6 Os2'
_cell_volume   93.90985307
_cell_formula_units_Z   2
loop_
 _symmetry_equiv_pos_site_id
 _symmetry_equiv_pos_as_xyz
  1  'x, y, z'
loop_
 _atom_site_type_symbol
 _atom_site_label
 _atom_site_symmetry_multiplicity
 _atom_site_fract_x
 _atom_site_fract_y
 _atom_site_fract_z
 _atom_site_occupancy
  Mn  Mn0  1  0.83796051  0.16203849  0.75000000  1
  Mn  Mn1  1  0.32407699  0.16203849  0.75000000  1
  Mn  Mn2  1  0.83795851  0.67592001  0.75000000  1
  Mn  Mn3  1  0.16204049  0.83796151  0.25000000  1
  Mn  Mn4  1  0.67592101  0.83796151  0.25000000  1
  Mn  Mn5  1  0.16203949  0.32407999  0.25000000  1
  Os  Os6  1  0.66666700  0.33333400  0.25000000  1
  Os  Os7  1  0.33333400  0.66666800  0.75000000  1
