# generated using pymatgen
data_Eu5Nb4O15
_symmetry_space_group_name_H-M   'P 1'
_cell_length_a   5.72946817
_cell_length_b   5.72914790
_cell_length_c   11.58337681
_cell_angle_alpha   89.99810999
_cell_angle_beta   89.97305317
_cell_angle_gamma   120.00760591
_symmetry_Int_Tables_number   1
_chemical_formula_structural   Eu5Nb4O15
_chemical_formula_sum   'Eu5 Nb4 O15'
_cell_volume   329.25835319
_cell_formula_units_Z   1
loop_
 _symmetry_equiv_pos_site_id
 _symmetry_equiv_pos_as_xyz
  1  'x, y, z'
loop_
 _atom_site_type_symbol
 _atom_site_label
 _atom_site_symmetry_multiplicity
 _atom_site_fract_x
 _atom_site_fract_y
 _atom_site_fract_z
 _atom_site_occupancy
  Eu  Eu0  1  0.99961264  0.99967846  0.99960607  1
  Eu  Eu1  1  0.33403393  0.66766717  0.43835823  1
  Eu  Eu2  1  0.66600485  0.33350321  0.56056174  1
  Eu  Eu3  1  0.33352872  0.66782279  0.77082982  1
  Eu  Eu4  1  0.66531065  0.33220697  0.22844526  1
  Nb  Nb5  1  0.33309653  0.66623383  0.10504534  1
  Nb  Nb6  1  0.66684613  0.33362930  0.89522203  1
  Nb  Nb7  1  0.99939597  0.99970182  0.32077792  1
  Nb  Nb8  1  0.00039977  0.00054542  0.67915482  1
  O  O9  1  0.17161372  0.82959833  0.60402633  1
  O  O10  1  0.17194581  0.34235159  0.60396451  1
  O  O11  1  0.65833599  0.82942570  0.60412889  1
  O  O12  1  0.34159792  0.17044434  0.39581319  1
  O  O13  1  0.82771967  0.65737501  0.39581483  1
  O  O14  1  0.82761167  0.17022590  0.39569012  1
  O  O15  1  0.50028136  0.00017970  0.00036111  1
  O  O16  1  0.00003056  0.49995212  0.00032890  1
  O  O17  1  0.50027400  0.49988385  0.00028473  1
  O  O18  1  0.16534974  0.83530599  0.19848955  1
  O  O19  1  0.16542179  0.32974816  0.19840219  1
  O  O20  1  0.67112159  0.83545527  0.19792818  1
  O  O21  1  0.32909955  0.16407865  0.80238581  1
  O  O22  1  0.83558104  0.67056199  0.80213078  1
  O  O23  1  0.83550141  0.16442742  0.80224664  1
