# generated using pymatgen
data_NdBS3
_symmetry_space_group_name_H-M   'P 1'
_cell_length_a   6.07159024
_cell_length_b   7.57324963
_cell_length_c   8.92743172
_cell_angle_alpha   90.00000000
_cell_angle_beta   90.00000000
_cell_angle_gamma   90.00000000
_symmetry_Int_Tables_number   1
_chemical_formula_structural   NdBS3
_chemical_formula_sum   'Nd4 B4 S12'
_cell_volume   410.49820625
_cell_formula_units_Z   4
loop_
 _symmetry_equiv_pos_site_id
 _symmetry_equiv_pos_as_xyz
  1  'x, y, z'
loop_
 _atom_site_type_symbol
 _atom_site_label
 _atom_site_symmetry_multiplicity
 _atom_site_fract_x
 _atom_site_fract_y
 _atom_site_fract_z
 _atom_site_occupancy
  Nd  Nd0  1  0.06896957  0.61375321  0.24166502  1
  Nd  Nd1  1  0.93103043  0.38624679  0.74166502  1
  Nd  Nd2  1  0.56896957  0.88624679  0.74166502  1
  Nd  Nd3  1  0.43103043  0.11375321  0.24166502  1
  B  B4  1  0.89870793  0.14757469  0.07239307  1
  B  B5  1  0.10129207  0.85242531  0.57239307  1
  B  B6  1  0.39870793  0.35242531  0.57239307  1
  B  B7  1  0.60129207  0.64757469  0.07239307  1
  S  S8  1  0.39418709  0.50062064  0.73127306  1
  S  S9  1  0.60581291  0.49937936  0.23127306  1
  S  S10  1  0.89418709  0.99937936  0.23127306  1
  S  S11  1  0.10581291  0.00062064  0.73127306  1
  S  S12  1  0.16360940  0.32285560  0.44756609  1
  S  S13  1  0.83639060  0.67714440  0.94756609  1
  S  S14  1  0.66360940  0.17714440  0.94756609  1
  S  S15  1  0.33639060  0.82285560  0.44756609  1
  S  S16  1  0.63151308  0.20510718  0.54102277  1
  S  S17  1  0.36848692  0.79489282  0.04102277  1
  S  S18  1  0.13151308  0.29489282  0.04102277  1
  S  S19  1  0.86848692  0.70510718  0.54102277  1
