# generated using pymatgen
data_Zr2Ni7
_symmetry_space_group_name_H-M   'P 1'
_cell_length_a   4.67676010
_cell_length_b   4.71857723
_cell_length_c   12.11627653
_cell_angle_alpha   92.79812855
_cell_angle_beta   95.65324447
_cell_angle_gamma   60.29272242
_symmetry_Int_Tables_number   1
_chemical_formula_structural   Zr2Ni7
_chemical_formula_sum   'Zr4 Ni14'
_cell_volume   231.10642164
_cell_formula_units_Z   2
loop_
 _symmetry_equiv_pos_site_id
 _symmetry_equiv_pos_as_xyz
  1  'x, y, z'
loop_
 _atom_site_type_symbol
 _atom_site_label
 _atom_site_symmetry_multiplicity
 _atom_site_fract_x
 _atom_site_fract_y
 _atom_site_fract_z
 _atom_site_occupancy
  Zr  Zr0  1  0.73284828  0.00000000  0.11355695  1
  Zr  Zr1  1  0.79077704  0.00000000  0.38527374  1
  Zr  Zr2  1  0.20922296  -0.00000000  0.61472626  1
  Zr  Zr3  1  0.26715072  1.00000000  0.88644305  1
  Ni  Ni4  1  0.38170741  0.67060063  0.07805122  1
  Ni  Ni5  1  0.05230904  0.32939937  0.07805122  1
  Ni  Ni6  1  0.26953241  0.49564466  0.24979555  1
  Ni  Ni7  1  0.76518007  0.50435334  0.24979555  1
  Ni  Ni8  1  0.26102380  1.00000000  0.25040460  1
  Ni  Ni9  1  0.13881918  0.33304205  0.42196555  1
  Ni  Ni10  1  0.47186223  0.66695595  0.42196555  1
  Ni  Ni11  1  0.86118182  0.66695595  0.57803345  1
  Ni  Ni12  1  0.52813977  0.33304205  0.57803445  1
  Ni  Ni13  1  0.73897820  0.00000000  0.74959540  1
  Ni  Ni14  1  0.73046659  0.50435334  0.75020445  1
  Ni  Ni15  1  0.23482193  0.49564466  0.75020445  1
  Ni  Ni16  1  0.61829059  0.32939937  0.92194878  1
  Ni  Ni17  1  0.94769196  0.67060063  0.92194878  1
