# generated using pymatgen
data_UReB4
_symmetry_space_group_name_H-M   'P 1'
_cell_length_a   3.60496974
_cell_length_b   5.93108783
_cell_length_c   11.51962219
_cell_angle_alpha   90.00000000
_cell_angle_beta   90.00000000
_cell_angle_gamma   90.00000000
_symmetry_Int_Tables_number   1
_chemical_formula_structural   UReB4
_chemical_formula_sum   'U4 Re4 B16'
_cell_volume   246.30555949
_cell_formula_units_Z   4
loop_
 _symmetry_equiv_pos_site_id
 _symmetry_equiv_pos_as_xyz
  1  'x, y, z'
loop_
 _atom_site_type_symbol
 _atom_site_label
 _atom_site_symmetry_multiplicity
 _atom_site_fract_x
 _atom_site_fract_y
 _atom_site_fract_z
 _atom_site_occupancy
  U  U0  1  -0.00000000  0.62789607  0.34967524  1
  U  U1  1  -0.00000000  0.37210393  0.65032476  1
  U  U2  1  0.00000000  0.12789607  0.15032476  1
  U  U3  1  0.00000000  0.87210393  0.84967524  1
  Re  Re4  1  -0.00000000  0.64037730  0.09351314  1
  Re  Re5  1  0.00000000  0.35962270  0.90648686  1
  Re  Re6  1  -0.00000000  0.14037730  0.40648686  1
  Re  Re7  1  0.00000000  0.85962270  0.59351314  1
  B  B8  1  0.50000000  0.78915091  0.18947441  1
  B  B9  1  0.50000000  0.21084909  0.81052559  1
  B  B10  1  0.50000000  0.28915091  0.31052559  1
  B  B11  1  0.50000000  0.71084909  0.68947441  1
  B  B12  1  0.50000000  0.86769339  0.03227446  1
  B  B13  1  0.50000000  0.13230661  0.96772554  1
  B  B14  1  0.50000000  0.36769339  0.46772554  1
  B  B15  1  0.50000000  0.63230661  0.53227446  1
  B  B16  1  0.50000000  0.88458668  0.45336420  1
  B  B17  1  0.50000000  0.11541332  0.54663580  1
  B  B18  1  0.50000000  0.38458668  0.04663580  1
  B  B19  1  0.50000000  0.61541332  0.95336420  1
  B  B20  1  0.50000000  0.97219825  0.30754966  1
  B  B21  1  0.50000000  0.02780175  0.69245034  1
  B  B22  1  0.50000000  0.47219825  0.19245034  1
  B  B23  1  0.50000000  0.52780175  0.80754966  1
