# generated using pymatgen
data_Fe5(O4F)2
_symmetry_space_group_name_H-M   'P 1'
_cell_length_a   4.65275802
_cell_length_b   12.96311704
_cell_length_c   5.55023421
_cell_angle_alpha   102.66696130
_cell_angle_beta   91.28154366
_cell_angle_gamma   88.75366128
_symmetry_Int_Tables_number   1
_chemical_formula_structural   Fe5(O4F)2
_chemical_formula_sum   'Fe10 O16 F4'
_cell_volume   326.48016579
_cell_formula_units_Z   2
loop_
 _symmetry_equiv_pos_site_id
 _symmetry_equiv_pos_as_xyz
  1  'x, y, z'
loop_
 _atom_site_type_symbol
 _atom_site_label
 _atom_site_symmetry_multiplicity
 _atom_site_fract_x
 _atom_site_fract_y
 _atom_site_fract_z
 _atom_site_occupancy
  Fe  Fe0  1  0.48976257  0.99792599  0.48803736  1
  Fe  Fe1  1  0.51104157  0.40332998  0.29444677  1
  Fe  Fe2  1  0.48112099  0.20556215  0.90118388  1
  Fe  Fe3  1  0.51513626  0.60366968  0.69154163  1
  Fe  Fe4  1  0.52620867  0.80073358  0.09015255  1
  Fe  Fe5  1  0.97375015  0.39385486  0.80909166  1
  Fe  Fe6  1  0.00022303  0.80463118  0.61133042  1
  Fe  Fe7  1  0.98254274  0.19226297  0.39709210  1
  Fe  Fe8  1  0.98532533  0.59751607  0.21341875  1
  Fe  Fe9  1  0.01762745  0.99801286  0.00776979  1
  O  O10  1  0.80245882  0.25576238  0.71027972  1
  O  O11  1  0.81563806  0.86839170  0.92218463  1
  O  O12  1  0.81778541  0.66822688  0.52304735  1
  O  O13  1  0.80082451  0.05366894  0.30818093  1
  O  O14  1  0.80304709  0.46331794  0.11536211  1
  O  O15  1  0.69329771  0.46219770  0.61663688  1
  O  O16  1  0.69720155  0.66172449  0.01595441  1
  O  O17  1  0.69559779  0.85843576  0.41599110  1
  O  O18  1  0.69247394  0.26385925  0.22036217  1
  O  O19  1  0.29768877  0.34467409  0.98928199  1
  O  O20  1  0.31332152  0.74011847  0.78327936  1
  O  O21  1  0.30242451  0.13690056  0.57932643  1
  O  O22  1  0.31077698  0.92984987  0.17762921  1
  O  O23  1  0.30804466  0.54032018  0.38605236  1
  O  O24  1  0.18735834  0.13446653  0.08395643  1
  O  O25  1  0.19287282  0.94154514  0.68673831  1
  F  F26  1  0.69495599  0.06057878  0.81828494  1
  F  F27  1  0.19487369  0.54042517  0.88101013  1
  F  F28  1  0.19428727  0.33973897  0.48463847  1
  F  F29  1  0.20233281  0.73829590  0.27774015  1
