# generated using pymatgen
data_Tb3Co11B4
_symmetry_space_group_name_H-M   'P 1'
_cell_length_a   5.03574642
_cell_length_b   5.03681201
_cell_length_c   9.76403653
_cell_angle_alpha   90.00009024
_cell_angle_beta   89.99981957
_cell_angle_gamma   119.99299697
_symmetry_Int_Tables_number   1
_chemical_formula_structural   Tb3Co11B4
_chemical_formula_sum   'Tb3 Co11 B4'
_cell_volume   214.49158822
_cell_formula_units_Z   1
loop_
 _symmetry_equiv_pos_site_id
 _symmetry_equiv_pos_as_xyz
  1  'x, y, z'
loop_
 _atom_site_type_symbol
 _atom_site_label
 _atom_site_symmetry_multiplicity
 _atom_site_fract_x
 _atom_site_fract_y
 _atom_site_fract_z
 _atom_site_occupancy
  Tb  Tb0  1  0.99997891  0.00000000  0.00004154  1
  Tb  Tb1  1  0.99999493  0.00000000  0.34162576  1
  Tb  Tb2  1  0.00000700  -0.00000000  0.65833326  1
  Co  Co3  1  0.33323961  0.66652709  0.00002903  1
  Co  Co4  1  0.66671252  0.33347291  0.00002903  1
  Co  Co5  1  0.50000336  0.00000000  0.49997787  1
  Co  Co6  1  0.50000274  0.50000074  0.50003279  1
  Co  Co7  1  0.00000200  0.49999926  0.50003279  1
  Co  Co8  1  0.50000238  0.00000000  0.20141047  1
  Co  Co9  1  0.49999085  0.50001187  0.20154352  1
  Co  Co10  1  0.99997898  0.49998813  0.20154352  1
  Co  Co11  1  0.50000174  0.00000000  0.79850981  1
  Co  Co12  1  0.50000242  0.49999847  0.79848452  1
  Co  Co13  1  0.00000395  0.50000153  0.79848452  1
  B  B14  1  0.33324795  0.66652394  0.34909493  1
  B  B15  1  0.66672401  0.33347606  0.34909493  1
  B  B16  1  0.66658551  0.33316438  0.65086586  1
  B  B17  1  0.33342113  0.66683562  0.65086586  1
