# generated using pymatgen
data_MgH12(BrO3)2
_symmetry_space_group_name_H-M   'P 1'
_cell_length_a   6.30262805
_cell_length_b   6.49562110
_cell_length_c   6.49562110
_cell_angle_alpha   71.12284646
_cell_angle_beta   87.02933955
_cell_angle_gamma   87.02933955
_symmetry_Int_Tables_number   1
_chemical_formula_structural   MgH12(BrO3)2
_chemical_formula_sum   'Mg1 H12 Br2 O6'
_cell_volume   251.11319676
_cell_formula_units_Z   1
loop_
 _symmetry_equiv_pos_site_id
 _symmetry_equiv_pos_as_xyz
  1  'x, y, z'
loop_
 _atom_site_type_symbol
 _atom_site_label
 _atom_site_symmetry_multiplicity
 _atom_site_fract_x
 _atom_site_fract_y
 _atom_site_fract_z
 _atom_site_occupancy
  Mg  Mg0  1  0.00000000  0.50000000  0.50000000  1
  H  H1  1  0.24526165  0.27129841  0.27129841  1
  H  H2  1  0.75473835  0.72870159  0.72870159  1
  H  H3  1  0.25967013  0.18742879  0.77100177  1
  H  H4  1  0.25967013  0.77100177  0.18742879  1
  H  H5  1  0.74032987  0.81257121  0.22899823  1
  H  H6  1  0.74032987  0.22899823  0.81257121  1
  H  H7  1  0.31338305  0.41578848  0.79606631  1
  H  H8  1  0.31338305  0.79606631  0.41578848  1
  H  H9  1  0.68661695  0.58421152  0.20393369  1
  H  H10  1  0.68661695  0.20393369  0.58421152  1
  H  H11  1  0.99606410  0.24720187  0.24720187  1
  H  H12  1  0.00393590  0.75279813  0.75279813  1
  Br  Br13  1  0.61770257  0.18078141  0.18078141  1
  Br  Br14  1  0.38229743  0.81921859  0.81921859  1
  O  O15  1  0.10078715  0.31189187  0.31189187  1
  O  O16  1  0.89921285  0.68810813  0.68810813  1
  O  O17  1  0.21345927  0.34202581  0.73654246  1
  O  O18  1  0.21345927  0.73654246  0.34202581  1
  O  O19  1  0.78654073  0.65797419  0.26345754  1
  O  O20  1  0.78654073  0.26345754  0.65797419  1
