# generated using pymatgen
data_Pr2Co3Ge5
_symmetry_space_group_name_H-M   'P 1'
_cell_length_a   5.89651444
_cell_length_b   8.25883416
_cell_length_c   8.25883416
_cell_angle_alpha   92.95281919
_cell_angle_beta   110.33611756
_cell_angle_gamma   110.33611756
_symmetry_Int_Tables_number   1
_chemical_formula_structural   Pr2Co3Ge5
_chemical_formula_sum   'Pr4 Co6 Ge10'
_cell_volume   346.76124349
_cell_formula_units_Z   2
loop_
 _symmetry_equiv_pos_site_id
 _symmetry_equiv_pos_as_xyz
  1  'x, y, z'
loop_
 _atom_site_type_symbol
 _atom_site_label
 _atom_site_symmetry_multiplicity
 _atom_site_fract_x
 _atom_site_fract_y
 _atom_site_fract_z
 _atom_site_occupancy
  Pr  Pr0  1  0.23477411  0.87119228  0.59808168  1
  Pr  Pr1  1  0.26522589  0.40191832  0.12880772  1
  Pr  Pr2  1  0.76522589  0.12880772  0.40191832  1
  Pr  Pr3  1  0.73477411  0.59808168  0.87119228  1
  Co  Co4  1  0.38569622  0.26016259  0.53607694  1
  Co  Co5  1  0.11430378  0.46392306  0.73983741  1
  Co  Co6  1  0.61430378  0.73983741  0.46392306  1
  Co  Co7  1  0.88569622  0.53607694  0.26016259  1
  Co  Co8  1  0.25000000  0.00263450  0.99736550  1
  Co  Co9  1  0.75000000  0.99736550  0.00263450  1
  Ge  Ge10  1  0.16515779  0.06711160  0.25754684  1
  Ge  Ge11  1  0.33484221  0.74245316  0.93288840  1
  Ge  Ge12  1  0.83484221  0.93288840  0.74245316  1
  Ge  Ge13  1  0.66515779  0.25754684  0.06711160  1
  Ge  Ge14  1  0.25000000  0.22277115  0.77722885  1
  Ge  Ge15  1  0.75000000  0.77722885  0.22277115  1
  Ge  Ge16  1  0.25000000  0.50520024  0.49479976  1
  Ge  Ge17  1  0.75000000  0.49479976  0.50520024  1
  Ge  Ge18  1  0.25000000  0.76907444  0.23092556  1
  Ge  Ge19  1  0.75000000  0.23092556  0.76907444  1
