# generated using pymatgen
data_LuAl3Ni2
_symmetry_space_group_name_H-M   'P 1'
_cell_length_a   4.02431394
_cell_length_b   8.94214645
_cell_length_c   8.94162599
_cell_angle_alpha   120.00192183
_cell_angle_beta   90.00000000
_cell_angle_gamma   90.00000000
_symmetry_Int_Tables_number   1
_chemical_formula_structural   LuAl3Ni2
_chemical_formula_sum   'Lu3 Al9 Ni6'
_cell_volume   278.65853708
_cell_formula_units_Z   3
loop_
 _symmetry_equiv_pos_site_id
 _symmetry_equiv_pos_as_xyz
  1  'x, y, z'
loop_
 _atom_site_type_symbol
 _atom_site_label
 _atom_site_symmetry_multiplicity
 _atom_site_fract_x
 _atom_site_fract_y
 _atom_site_fract_z
 _atom_site_occupancy
  Lu  Lu0  1  -0.00000000  0.99998744  1.00000000  1
  Lu  Lu1  1  0.50000000  0.33332627  0.66671053  1
  Lu  Lu2  1  0.50000000  0.66661575  0.33328947  1
  Al  Al3  1  -0.00000000  0.49999677  0.00000000  1
  Al  Al4  1  0.00000000  0.49999176  0.50001635  1
  Al  Al5  1  -0.00000000  0.99997541  0.49998365  1
  Al  Al6  1  0.50000000  0.29706403  1.00000000  1
  Al  Al7  1  0.50000000  0.70289491  0.70295307  1
  Al  Al8  1  0.50000000  0.99994184  0.29704693  1
  Al  Al9  1  0.50000000  0.70294101  0.00000000  1
  Al  Al10  1  0.50000000  0.29710062  0.29706401  1
  Al  Al11  1  0.50000000  0.00003661  0.70293599  1
  Ni  Ni12  1  0.00000000  0.18284818  0.36571928  1
  Ni  Ni13  1  -0.00000000  0.18286077  0.81711460  1
  Ni  Ni14  1  -0.00000000  0.63429620  0.81714884  1
  Ni  Ni15  1  0.00000000  0.81712890  0.63428072  1
  Ni  Ni16  1  -0.00000000  0.36574617  0.18288540  1
  Ni  Ni17  1  0.00000000  0.81714736  0.18285116  1
