# generated using pymatgen
data_Dy3Ge3Ru2
_symmetry_space_group_name_H-M   'P 1'
_cell_length_a   4.30212303
_cell_length_b   5.85227004
_cell_length_c   14.01583783
_cell_angle_alpha   90.00000000
_cell_angle_beta   90.00000000
_cell_angle_gamma   111.56523229
_symmetry_Int_Tables_number   1
_chemical_formula_structural   Dy3Ge3Ru2
_chemical_formula_sum   'Dy6 Ge6 Ru4'
_cell_volume   328.17769052
_cell_formula_units_Z   2
loop_
 _symmetry_equiv_pos_site_id
 _symmetry_equiv_pos_as_xyz
  1  'x, y, z'
loop_
 _atom_site_type_symbol
 _atom_site_label
 _atom_site_symmetry_multiplicity
 _atom_site_fract_x
 _atom_site_fract_y
 _atom_site_fract_z
 _atom_site_occupancy
  Dy  Dy0  1  0.07816423  0.15632846  0.38645834  1
  Dy  Dy1  1  0.92183577  0.84367154  0.61354166  1
  Dy  Dy2  1  0.07816423  0.15632846  0.11354166  1
  Dy  Dy3  1  0.92183577  0.84367154  0.88645834  1
  Dy  Dy4  1  0.35315482  0.70630964  0.25000000  1
  Dy  Dy5  1  0.64684518  0.29369036  0.75000000  1
  Ge  Ge6  1  0.38312026  0.76624053  0.45889005  1
  Ge  Ge7  1  0.61687974  0.23375947  0.54110995  1
  Ge  Ge8  1  0.38312026  0.76624053  0.04110995  1
  Ge  Ge9  1  0.61687974  0.23375947  0.95889005  1
  Ge  Ge10  1  0.66496465  0.32992929  0.25000000  1
  Ge  Ge11  1  0.33503535  0.67007071  0.75000000  1
  Ru  Ru12  1  0.21334278  0.42668556  0.91877670  1
  Ru  Ru13  1  0.78665722  0.57331444  0.08122330  1
  Ru  Ru14  1  0.21334278  0.42668556  0.58122330  1
  Ru  Ru15  1  0.78665722  0.57331444  0.41877670  1
