# generated using pymatgen
data_Gd3MgAlS7
_symmetry_space_group_name_H-M   'P 1'
_cell_length_a   6.15701643
_cell_length_b   9.81211779
_cell_length_c   9.81211779
_cell_angle_alpha   120.00000041
_cell_angle_beta   90.00000000
_cell_angle_gamma   90.00000000
_symmetry_Int_Tables_number   1
_chemical_formula_structural   Gd3MgAlS7
_chemical_formula_sum   'Gd6 Mg2 Al2 S14'
_cell_volume   513.36522752
_cell_formula_units_Z   2
loop_
 _symmetry_equiv_pos_site_id
 _symmetry_equiv_pos_as_xyz
  1  'x, y, z'
loop_
 _atom_site_type_symbol
 _atom_site_label
 _atom_site_symmetry_multiplicity
 _atom_site_fract_x
 _atom_site_fract_y
 _atom_site_fract_z
 _atom_site_occupancy
  Gd  Gd0  1  0.78690969  0.62080324  0.76759039  1
  Gd  Gd1  1  0.78690969  0.14678715  0.37919676  1
  Gd  Gd2  1  0.28690969  0.37919676  0.23240961  1
  Gd  Gd3  1  0.78690969  0.23240961  0.85321285  1
  Gd  Gd4  1  0.28690969  0.85321285  0.62080324  1
  Gd  Gd5  1  0.28690969  0.76759039  0.14678715  1
  Mg  Mg6  1  0.96647119  0.00000000  0.00000000  1
  Mg  Mg7  1  0.46647119  0.00000000  0.00000000  1
  Al  Al8  1  0.86421475  0.66666700  0.33333300  1
  Al  Al9  1  0.36421475  0.33333300  0.66666700  1
  S  S10  1  0.50028549  0.66666700  0.33333300  1
  S  S11  1  0.00028549  0.33333300  0.66666700  1
  S  S12  1  0.01896437  0.90467208  0.42349550  1
  S  S13  1  0.01896437  0.51882342  0.09532792  1
  S  S14  1  0.51896437  0.09532792  0.57650450  1
  S  S15  1  0.01896437  0.57650450  0.48117658  1
  S  S16  1  0.51896437  0.48117658  0.90467208  1
  S  S17  1  0.51896437  0.42349550  0.51882342  1
  S  S18  1  0.70680213  0.85788807  0.10001186  1
  S  S19  1  0.70680213  0.24212380  0.14211193  1
  S  S20  1  0.20680213  0.14211193  0.89998814  1
  S  S21  1  0.70680213  0.89998814  0.75787620  1
  S  S22  1  0.20680213  0.75787620  0.85788807  1
  S  S23  1  0.20680213  0.10001186  0.24212380  1
