# generated using pymatgen
data_Sm3Ni13B2
_symmetry_space_group_name_H-M   'P 1'
_cell_length_a   5.00636384
_cell_length_b   5.00559947
_cell_length_c   10.96788727
_cell_angle_alpha   89.99995697
_cell_angle_beta   90.00008608
_cell_angle_gamma   120.00505124
_symmetry_Int_Tables_number   1
_chemical_formula_structural   Sm3Ni13B2
_chemical_formula_sum   'Sm3 Ni13 B2'
_cell_volume   238.01811255
_cell_formula_units_Z   1
loop_
 _symmetry_equiv_pos_site_id
 _symmetry_equiv_pos_as_xyz
  1  'x, y, z'
loop_
 _atom_site_type_symbol
 _atom_site_label
 _atom_site_symmetry_multiplicity
 _atom_site_fract_x
 _atom_site_fract_y
 _atom_site_fract_z
 _atom_site_occupancy
  Sm  Sm0  1  0.99999478  0.00000000  0.00015458  1
  Sm  Sm1  1  0.99997002  0.00000000  0.33083994  1
  Sm  Sm2  1  0.00001892  -0.00000000  0.66915936  1
  Ni  Ni3  1  0.49999449  -0.00000000  0.49983861  1
  Ni  Ni4  1  0.49999533  0.50000034  0.49985348  1
  Ni  Ni5  1  0.99999499  0.49999966  0.49985348  1
  Ni  Ni6  1  0.33348420  0.66700970  0.31921464  1
  Ni  Ni7  1  0.66647449  0.33299030  0.31921464  1
  Ni  Ni8  1  0.66647611  0.33293529  0.68062669  1
  Ni  Ni9  1  0.33354082  0.66706471  0.68062669  1
  Ni  Ni10  1  0.49998629  0.00000000  0.13351980  1
  Ni  Ni11  1  0.49998945  0.49999890  0.13363917  1
  Ni  Ni12  1  0.99999055  0.50000110  0.13363917  1
  Ni  Ni13  1  0.49999060  0.00000000  0.86660171  1
  Ni  Ni14  1  0.49999164  0.49999816  0.86651744  1
  Ni  Ni15  1  -0.00000652  0.50000184  0.86651744  1
  B  B16  1  0.33328124  0.66654864  0.00009159  1
  B  B17  1  0.66673261  0.33345136  0.00009159  1
