# generated using pymatgen
data_Pr5Sn3
_symmetry_space_group_name_H-M   'P 1'
_cell_length_a   6.83398431
_cell_length_b   9.41870486
_cell_length_c   9.41735313
_cell_angle_alpha   120.00474927
_cell_angle_beta   90.00000000
_cell_angle_gamma   90.00000000
_symmetry_Int_Tables_number   1
_chemical_formula_structural   Pr5Sn3
_chemical_formula_sum   'Pr10 Sn6'
_cell_volume   524.93298963
_cell_formula_units_Z   2
loop_
 _symmetry_equiv_pos_site_id
 _symmetry_equiv_pos_as_xyz
  1  'x, y, z'
loop_
 _atom_site_type_symbol
 _atom_site_label
 _atom_site_symmetry_multiplicity
 _atom_site_fract_x
 _atom_site_fract_y
 _atom_site_fract_z
 _atom_site_occupancy
  Pr  Pr0  1  0.50000272  0.33334336  0.66667934  1
  Pr  Pr1  1  0.50000272  0.66666402  0.33332066  1
  Pr  Pr2  1  0.00000272  0.66665664  0.33332066  1
  Pr  Pr3  1  0.00000272  0.33333598  0.66667934  1
  Pr  Pr4  1  0.75000145  0.24456356  1.00000000  1
  Pr  Pr5  1  0.74999614  0.75543334  0.75544174  1
  Pr  Pr6  1  0.74999614  0.99999160  0.24455826  1
  Pr  Pr7  1  0.25000145  0.75543644  0.00000000  1
  Pr  Pr8  1  0.24999614  0.24456666  0.24455826  1
  Pr  Pr9  1  0.24999614  0.00000840  0.75544174  1
  Sn  Sn10  1  0.74999892  0.60957136  0.00000000  1
  Sn  Sn11  1  0.75000095  0.39040344  0.39043956  1
  Sn  Sn12  1  0.75000095  0.99996388  0.60956044  1
  Sn  Sn13  1  0.24999892  0.39042864  1.00000000  1
  Sn  Sn14  1  0.25000095  0.60959656  0.60956044  1
  Sn  Sn15  1  0.25000095  0.00003612  0.39043956  1
