# generated using pymatgen
data_K2Ca4U(SiO4)4
_symmetry_space_group_name_H-M   'P 1'
_cell_length_a   6.72230502
_cell_length_b   6.76571118
_cell_length_c   9.81058053
_cell_angle_alpha   98.67427987
_cell_angle_beta   93.17407944
_cell_angle_gamma   112.43482202
_symmetry_Int_Tables_number   1
_chemical_formula_structural   K2Ca4U(SiO4)4
_chemical_formula_sum   'K2 Ca4 U1 Si4 O16'
_cell_volume   404.58294651
_cell_formula_units_Z   1
loop_
 _symmetry_equiv_pos_site_id
 _symmetry_equiv_pos_as_xyz
  1  'x, y, z'
loop_
 _atom_site_type_symbol
 _atom_site_label
 _atom_site_symmetry_multiplicity
 _atom_site_fract_x
 _atom_site_fract_y
 _atom_site_fract_z
 _atom_site_occupancy
  K  K0  1  0.67171229  0.32164249  0.54476597  1
  K  K1  1  0.32828771  0.67835751  0.45523403  1
  Ca  Ca2  1  0.22560857  0.96821858  0.88655821  1
  Ca  Ca3  1  0.77439143  0.03178142  0.11344179  1
  Ca  Ca4  1  0.74173104  0.48378348  0.92823047  1
  Ca  Ca5  1  0.25826896  0.51621652  0.07176953  1
  U  U6  1  -0.00000000  -0.00000000  0.50000000  1
  Si  Si7  1  0.67412887  0.91505978  0.78799762  1
  Si  Si8  1  0.32587113  0.08494022  0.21200238  1
  Si  Si9  1  0.24593586  0.47739592  0.76586216  1
  Si  Si10  1  0.75406414  0.52260408  0.23413784  1
  O  O11  1  0.62571231  0.10513828  0.88562872  1
  O  O12  1  0.37428769  0.89486172  0.11437128  1
  O  O13  1  0.83679204  0.84302116  0.87849340  1
  O  O14  1  0.16320796  0.15697884  0.12150660  1
  O  O15  1  0.74442334  0.97415809  0.63588914  1
  O  O16  1  0.25557666  0.02584191  0.36411086  1
  O  O17  1  0.43900020  0.70384057  0.73847715  1
  O  O18  1  0.56099980  0.29615943  0.26152285  1
  O  O19  1  0.08030260  0.55251671  0.85511022  1
  O  O20  1  0.91969740  0.44748329  0.14488978  1
  O  O21  1  0.14675429  0.34561809  0.60615084  1
  O  O22  1  0.85324571  0.65438191  0.39384916  1
  O  O23  1  0.35431883  0.35760531  0.86142671  1
  O  O24  1  0.64568117  0.64239469  0.13857329  1
  O  O25  1  0.84115394  0.07380866  0.36577339  1
  O  O26  1  0.15884606  0.92619134  0.63422661  1
