# generated using pymatgen
data_KCu2SbS3
_symmetry_space_group_name_H-M   'P 1'
_cell_length_a   6.43702375
_cell_length_b   9.18959487
_cell_length_c   10.53234414
_cell_angle_alpha   90.71391840
_cell_angle_beta   91.02387011
_cell_angle_gamma   91.20300048
_symmetry_Int_Tables_number   1
_chemical_formula_structural   KCu2SbS3
_chemical_formula_sum   'K4 Cu8 Sb4 S12'
_cell_volume   622.73838227
_cell_formula_units_Z   4
loop_
 _symmetry_equiv_pos_site_id
 _symmetry_equiv_pos_as_xyz
  1  'x, y, z'
loop_
 _atom_site_type_symbol
 _atom_site_label
 _atom_site_symmetry_multiplicity
 _atom_site_fract_x
 _atom_site_fract_y
 _atom_site_fract_z
 _atom_site_occupancy
  K  K0  1  0.79950169  0.56895563  0.13039184  1
  K  K1  1  0.20049831  0.43104437  0.86960816  1
  K  K2  1  0.30488891  0.57410668  0.36777979  1
  K  K3  1  0.69511109  0.42589332  0.63222021  1
  Cu  Cu4  1  0.98258184  0.26248566  0.36146299  1
  Cu  Cu5  1  0.01741816  0.73751434  0.63853701  1
  Cu  Cu6  1  0.49995085  0.88631070  0.16899972  1
  Cu  Cu7  1  0.50004915  0.11368930  0.83100028  1
  Cu  Cu8  1  0.07675847  0.84351945  0.96248361  1
  Cu  Cu9  1  0.92324153  0.15648055  0.03751639  1
  Cu  Cu10  1  0.42453664  0.16052196  0.45418460  1
  Cu  Cu11  1  0.57546336  0.83947804  0.54581540  1
  Sb  Sb12  1  0.46320644  0.18139373  0.14828745  1
  Sb  Sb13  1  0.53679356  0.81860627  0.85171255  1
  Sb  Sb14  1  0.97163063  0.95566439  0.35294658  1
  Sb  Sb15  1  0.02836937  0.04433561  0.64705342  1
  S  S16  1  0.84387566  0.71715313  0.44577010  1
  S  S17  1  0.15612434  0.28284687  0.55422990  1
  S  S18  1  0.36113777  0.92529071  0.36416347  1
  S  S19  1  0.63886223  0.07470929  0.63583653  1
  S  S20  1  0.85153387  0.92405506  0.12677794  1
  S  S21  1  0.14846613  0.07594494  0.87322206  1
  S  S22  1  0.64692359  0.29001974  0.96037712  1
  S  S23  1  0.35307641  0.70998026  0.03962288  1
  S  S24  1  0.63631048  0.31124036  0.33467297  1
  S  S25  1  0.36368952  0.68875964  0.66532703  1
  S  S26  1  0.12757768  0.31307363  0.16938635  1
  S  S27  1  0.87242232  0.68692637  0.83061365  1
