# generated using pymatgen
data_CaGe(PO4)2
_symmetry_space_group_name_H-M   'P 1'
_cell_length_a   5.17132899
_cell_length_b   7.84020271
_cell_length_c   8.37962555
_cell_angle_alpha   115.43882163
_cell_angle_beta   107.97281399
_cell_angle_gamma   90.00000000
_symmetry_Int_Tables_number   1
_chemical_formula_structural   CaGe(PO4)2
_chemical_formula_sum   'Ca2 Ge2 P4 O16'
_cell_volume   288.33920288
_cell_formula_units_Z   2
loop_
 _symmetry_equiv_pos_site_id
 _symmetry_equiv_pos_as_xyz
  1  'x, y, z'
loop_
 _atom_site_type_symbol
 _atom_site_label
 _atom_site_symmetry_multiplicity
 _atom_site_fract_x
 _atom_site_fract_y
 _atom_site_fract_z
 _atom_site_occupancy
  Ca  Ca0  1  0.21554901  0.75000000  1.00000000  1
  Ca  Ca1  1  0.78445099  0.25000000  0.00000000  1
  Ge  Ge2  1  -0.00000000  0.50000000  0.50000000  1
  Ge  Ge3  1  0.50000000  -0.00000000  0.50000000  1
  P  P4  1  0.39476557  0.25315815  0.28261122  1
  P  P5  1  0.11215436  0.24684185  0.71738878  1
  P  P6  1  0.60523443  0.74684185  0.71738878  1
  P  P7  1  0.88784564  0.75315815  0.28261122  1
  O  O8  1  0.16137637  0.38247862  0.30518563  1
  O  O9  1  0.85619075  0.11752138  0.69481437  1
  O  O10  1  0.83862363  0.61752138  0.69481437  1
  O  O11  1  0.14380925  0.88247862  0.30518563  1
  O  O12  1  0.65473292  0.37175872  0.29734549  1
  O  O13  1  0.35738743  0.12824128  0.70265451  1
  O  O14  1  0.34526708  0.62824128  0.70265451  1
  O  O15  1  0.64261257  0.87175872  0.29734549  1
  O  O16  1  0.48106239  0.20863912  0.45218568  1
  O  O17  1  0.02887671  0.29136088  0.54781432  1
  O  O18  1  0.51893761  0.79136088  0.54781432  1
  O  O19  1  0.97112329  0.70863912  0.45218568  1
  O  O20  1  0.28425593  0.08677031  0.08854819  1
  O  O21  1  0.19570774  0.41322969  0.91145181  1
  O  O22  1  0.71574407  0.91322969  0.91145181  1
  O  O23  1  0.80429226  0.58677031  0.08854819  1
