# generated using pymatgen
data_Er2PbS4
_symmetry_space_group_name_H-M   'P 1'
_cell_length_a   3.97431291
_cell_length_b   12.02677313
_cell_length_c   14.29621837
_cell_angle_alpha   90.00000000
_cell_angle_beta   90.00000000
_cell_angle_gamma   90.00000000
_symmetry_Int_Tables_number   1
_chemical_formula_structural   Er2PbS4
_chemical_formula_sum   'Er8 Pb4 S16'
_cell_volume   683.33292899
_cell_formula_units_Z   4
loop_
 _symmetry_equiv_pos_site_id
 _symmetry_equiv_pos_as_xyz
  1  'x, y, z'
loop_
 _atom_site_type_symbol
 _atom_site_label
 _atom_site_symmetry_multiplicity
 _atom_site_fract_x
 _atom_site_fract_y
 _atom_site_fract_z
 _atom_site_occupancy
  Er  Er0  1  0.75000000  0.06295755  0.10997010  1
  Er  Er1  1  0.75000000  0.56295755  0.39002990  1
  Er  Er2  1  0.25000000  0.93704245  0.89002990  1
  Er  Er3  1  0.25000000  0.43704245  0.60997010  1
  Er  Er4  1  0.75000000  0.08194855  0.59795296  1
  Er  Er5  1  0.75000000  0.58194855  0.90204704  1
  Er  Er6  1  0.25000000  0.91805145  0.40204704  1
  Er  Er7  1  0.25000000  0.41805145  0.09795296  1
  Pb  Pb8  1  0.75000000  0.73742107  0.16874633  1
  Pb  Pb9  1  0.75000000  0.23742107  0.33125367  1
  Pb  Pb10  1  0.25000000  0.26257893  0.83125367  1
  Pb  Pb11  1  0.25000000  0.76257893  0.66874633  1
  S  S12  1  0.75000000  0.29336418  0.66900126  1
  S  S13  1  0.75000000  0.79336418  0.83099874  1
  S  S14  1  0.25000000  0.70663582  0.33099874  1
  S  S15  1  0.25000000  0.20663582  0.16900126  1
  S  S16  1  0.75000000  0.37062244  0.97092764  1
  S  S17  1  0.75000000  0.87062244  0.52907236  1
  S  S18  1  0.25000000  0.62937756  0.02907236  1
  S  S19  1  0.25000000  0.12937756  0.47092764  1
  S  S20  1  0.75000000  0.47635794  0.21367114  1
  S  S21  1  0.75000000  0.97635794  0.28632886  1
  S  S22  1  0.25000000  0.52364206  0.78632886  1
  S  S23  1  0.25000000  0.02364206  0.71367114  1
  S  S24  1  0.75000000  0.08521314  0.92226897  1
  S  S25  1  0.75000000  0.58521314  0.57773103  1
  S  S26  1  0.25000000  0.91478686  0.07773103  1
  S  S27  1  0.25000000  0.41478686  0.42226897  1
