# generated using pymatgen
data_K2Cr2O7
_symmetry_space_group_name_H-M   'P 1'
_cell_length_a   7.62555528
_cell_length_b   7.66998574
_cell_length_c   7.69945635
_cell_angle_alpha   91.99512983
_cell_angle_beta   119.68299459
_cell_angle_gamma   90.00000000
_symmetry_Int_Tables_number   1
_chemical_formula_structural   K2Cr2O7
_chemical_formula_sum   'K4 Cr4 O14'
_cell_volume   390.91846568
_cell_formula_units_Z   2
loop_
 _symmetry_equiv_pos_site_id
 _symmetry_equiv_pos_as_xyz
  1  'x, y, z'
loop_
 _atom_site_type_symbol
 _atom_site_label
 _atom_site_symmetry_multiplicity
 _atom_site_fract_x
 _atom_site_fract_y
 _atom_site_fract_z
 _atom_site_occupancy
  K  K0  1  0.99603485  0.85615501  0.29090597  1
  K  K1  1  0.70512888  0.64384499  0.70909403  1
  K  K2  1  0.00396515  0.14384499  0.70909403  1
  K  K3  1  0.29487112  0.35615501  0.29090597  1
  Cr  Cr4  1  0.22227338  0.63689112  0.79597682  1
  Cr  Cr5  1  0.42629656  0.86310888  0.20402318  1
  Cr  Cr6  1  0.77772662  0.36310888  0.20402318  1
  Cr  Cr7  1  0.57370344  0.13689112  0.79597682  1
  O  O8  1  0.13685457  0.48474270  0.88074937  1
  O  O9  1  0.25610520  0.01525730  0.11925063  1
  O  O10  1  0.86314543  0.51525730  0.11925063  1
  O  O11  1  0.74389480  0.98474270  0.88074937  1
  O  O12  1  0.04227070  0.77650969  0.67694971  1
  O  O13  1  0.36532099  0.72349031  0.32305029  1
  O  O14  1  0.95772930  0.22349031  0.32305029  1
  O  O15  1  0.63467901  0.27650969  0.67694971  1
  O  O16  1  0.43097048  0.75000000  0.00000000  1
  O  O17  1  0.56902952  0.25000000  1.00000000  1
  O  O18  1  0.29842290  0.55335295  0.64746394  1
  O  O19  1  0.65095896  0.94664705  0.35253606  1
  O  O20  1  0.70157710  0.44664705  0.35253606  1
  O  O21  1  0.34904104  0.05335295  0.64746394  1
