# generated using pymatgen
data_Lu3AlNi8
_symmetry_space_group_name_H-M   'P 1'
_cell_length_a   4.96652092
_cell_length_b   4.96652092
_cell_length_c   15.80812570
_cell_angle_alpha   90.00000000
_cell_angle_beta   90.00000000
_cell_angle_gamma   119.99325191
_symmetry_Int_Tables_number   1
_chemical_formula_structural   Lu3AlNi8
_chemical_formula_sum   'Lu6 Al2 Ni16'
_cell_volume   337.71089925
_cell_formula_units_Z   2
loop_
 _symmetry_equiv_pos_site_id
 _symmetry_equiv_pos_as_xyz
  1  'x, y, z'
loop_
 _atom_site_type_symbol
 _atom_site_label
 _atom_site_symmetry_multiplicity
 _atom_site_fract_x
 _atom_site_fract_y
 _atom_site_fract_z
 _atom_site_occupancy
  Lu  Lu0  1  0.66667179  0.33332821  0.04153824  1
  Lu  Lu1  1  0.33332821  0.66667179  0.95846176  1
  Lu  Lu2  1  0.33332821  0.66667179  0.54153824  1
  Lu  Lu3  1  0.66667179  0.33332821  0.45846176  1
  Lu  Lu4  1  0.66666311  0.33333689  0.25000000  1
  Lu  Lu5  1  0.33333689  0.66666311  0.75000000  1
  Al  Al6  1  0.66667205  0.33332795  0.75000000  1
  Al  Al7  1  0.33332795  0.66667205  0.25000000  1
  Ni  Ni8  1  0.83337140  0.66675097  0.62513742  1
  Ni  Ni9  1  0.83333734  0.16666266  0.62512441  1
  Ni  Ni10  1  0.33324903  0.16662860  0.62513742  1
  Ni  Ni11  1  0.16662860  0.33324903  0.37486258  1
  Ni  Ni12  1  0.16666266  0.83333734  0.37487559  1
  Ni  Ni13  1  0.66675097  0.83337140  0.37486258  1
  Ni  Ni14  1  0.16662860  0.33324903  0.12513742  1
  Ni  Ni15  1  0.16666266  0.83333734  0.12512441  1
  Ni  Ni16  1  0.66675097  0.83337140  0.12513742  1
  Ni  Ni17  1  0.83337140  0.66675097  0.87486258  1
  Ni  Ni18  1  0.83333734  0.16666266  0.87487559  1
  Ni  Ni19  1  0.33324903  0.16662860  0.87486258  1
  Ni  Ni20  1  0.00002680  -0.00002680  0.75000000  1
  Ni  Ni21  1  -0.00002680  0.00002680  0.25000000  1
  Ni  Ni22  1  -0.00000000  0.00000000  0.50000000  1
  Ni  Ni23  1  -0.00000000  0.00000000  0.00000000  1
