# generated using pymatgen
data_NdGa4Co9
_symmetry_space_group_name_H-M   'P 1'
_cell_length_a   7.98668874
_cell_length_b   7.98668874
_cell_length_c   8.13473878
_cell_angle_alpha   119.39976206
_cell_angle_beta   119.39976206
_cell_angle_gamma   90.00000000
_symmetry_Int_Tables_number   1
_chemical_formula_structural   NdGa4Co9
_chemical_formula_sum   'Nd2 Ga8 Co18'
_cell_volume   373.47050607
_cell_formula_units_Z   2
loop_
 _symmetry_equiv_pos_site_id
 _symmetry_equiv_pos_as_xyz
  1  'x, y, z'
loop_
 _atom_site_type_symbol
 _atom_site_label
 _atom_site_symmetry_multiplicity
 _atom_site_fract_x
 _atom_site_fract_y
 _atom_site_fract_z
 _atom_site_occupancy
  Nd  Nd0  1  0.75000000  0.75000000  0.50000000  1
  Nd  Nd1  1  0.25000000  0.25000000  0.50000000  1
  Ga  Ga2  1  0.94630673  0.80614508  0.25245181  1
  Ga  Ga3  1  0.30614508  0.44630673  0.25245181  1
  Ga  Ga4  1  0.80614508  0.30614508  0.25245181  1
  Ga  Ga5  1  0.44630673  0.94630673  0.25245181  1
  Ga  Ga6  1  0.05369327  0.19385492  0.74754819  1
  Ga  Ga7  1  0.69385492  0.55369327  0.74754819  1
  Ga  Ga8  1  0.19385492  0.69385492  0.74754819  1
  Ga  Ga9  1  0.55369327  0.05369327  0.74754819  1
  Co  Co10  1  0.30188356  0.56122821  -0.00000000  1
  Co  Co11  1  0.69811644  0.43877179  -0.00000000  1
  Co  Co12  1  0.19811644  0.06122821  -0.00000000  1
  Co  Co13  1  0.80188356  0.93877179  -0.00000000  1
  Co  Co14  1  0.43877179  0.30188356  -0.00000000  1
  Co  Co15  1  0.56122821  0.69811644  -0.00000000  1
  Co  Co16  1  0.93877179  0.19811644  -0.00000000  1
  Co  Co17  1  0.06122821  0.80188356  -0.00000000  1
  Co  Co18  1  0.56072672  0.28732665  0.34805338  1
  Co  Co19  1  0.78732665  0.06072672  0.34805338  1
  Co  Co20  1  0.28732665  0.78732665  0.34805338  1
  Co  Co21  1  0.06072672  0.56072672  0.34805338  1
  Co  Co22  1  0.43927328  0.71267335  0.65194662  1
  Co  Co23  1  0.21267335  0.93927328  0.65194662  1
  Co  Co24  1  0.71267335  0.21267335  0.65194662  1
  Co  Co25  1  0.93927328  0.43927328  0.65194662  1
  Co  Co26  1  -0.00000000  0.50000000  -0.00000000  1
  Co  Co27  1  0.50000000  0.00000000  -0.00000000  1
