# generated using pymatgen
data_Na5Nd4Si4O17
_symmetry_space_group_name_H-M   'P 1'
_cell_length_a   5.55677402
_cell_length_b   8.93493184
_cell_length_c   8.93493184
_cell_angle_alpha   84.45112779
_cell_angle_beta   71.88303680
_cell_angle_gamma   71.88303680
_symmetry_Int_Tables_number   1
_chemical_formula_structural   Na5Nd4Si4O17
_chemical_formula_sum   'Na5 Nd4 Si4 O17'
_cell_volume   400.71882711
_cell_formula_units_Z   1
loop_
 _symmetry_equiv_pos_site_id
 _symmetry_equiv_pos_as_xyz
  1  'x, y, z'
loop_
 _atom_site_type_symbol
 _atom_site_label
 _atom_site_symmetry_multiplicity
 _atom_site_fract_x
 _atom_site_fract_y
 _atom_site_fract_z
 _atom_site_occupancy
  Na  Na0  1  0.09970041  0.51520781  0.30522690  1
  Na  Na1  1  0.92013512  0.48479219  0.69477310  1
  Na  Na2  1  0.38509178  0.69477310  0.51520781  1
  Na  Na3  1  0.59507269  0.30522690  0.48479219  1
  Na  Na4  1  0.50000000  0.00000000  -0.00000000  1
  Nd  Nd5  1  0.79725258  0.29883810  0.06552482  1
  Nd  Nd6  1  0.16161550  0.70116190  0.93447518  1
  Nd  Nd7  1  0.90390932  0.93447518  0.29883810  1
  Nd  Nd8  1  0.13722261  0.06552482  0.70116190  1
  Si  Si9  1  0.40706589  0.35033696  0.85412982  1
  Si  Si10  1  0.61153267  0.64966304  0.14587018  1
  Si  Si11  1  0.24259715  0.14587018  0.35033696  1
  Si  Si12  1  0.73880430  0.85412982  0.64966304  1
  O  O13  1  0.00000000  0.00000000  -0.00000000  1
  O  O14  1  0.71940537  0.24601051  0.82387415  1
  O  O15  1  0.78929002  0.75398949  0.17612585  1
  O  O16  1  0.03458412  0.17612585  0.24601051  1
  O  O17  1  0.45672048  0.82387415  0.75398949  1
  O  O18  1  0.58646990  0.50941524  0.27883979  1
  O  O19  1  0.37472493  0.49058476  0.72116021  1
  O  O20  1  0.90411486  0.72116021  0.50941524  1
  O  O21  1  0.13469031  0.27883979  0.49058476  1
  O  O22  1  0.32157450  0.43218292  0.02873696  1
  O  O23  1  0.78249438  0.56781708  0.97126304  1
  O  O24  1  0.24624257  0.97126304  0.43218292  1
  O  O25  1  0.64968854  0.02873696  0.56781708  1
  O  O26  1  0.31736284  0.76368530  0.14271031  1
  O  O27  1  0.22375845  0.23631470  0.85728969  1
  O  O28  1  0.91895186  0.85728969  0.76368530  1
  O  O29  1  0.53992685  0.14271031  0.23631470  1
