# generated using pymatgen
data_Si17NO34
_symmetry_space_group_name_H-M   'P 1'
_cell_length_a   14.16258510
_cell_length_b   14.16258510
_cell_length_c   14.16258510
_cell_angle_alpha   60.00000000
_cell_angle_beta   60.00000000
_cell_angle_gamma   60.00000000
_symmetry_Int_Tables_number   1
_chemical_formula_structural   Si17NO34
_chemical_formula_sum   'Si34 N2 O68'
_cell_volume   2008.68852747
_cell_formula_units_Z   2
loop_
 _symmetry_equiv_pos_site_id
 _symmetry_equiv_pos_as_xyz
  1  'x, y, z'
loop_
 _atom_site_type_symbol
 _atom_site_label
 _atom_site_symmetry_multiplicity
 _atom_site_fract_x
 _atom_site_fract_y
 _atom_site_fract_z
 _atom_site_occupancy
  Si  Si0  1  0.87500000  0.87500000  0.87500000  1
  Si  Si1  1  0.12500000  0.12500000  0.12500000  1
  Si  Si2  1  0.78296443  0.15110572  0.78296443  1
  Si  Si3  1  0.78296443  0.78296443  0.15110572  1
  Si  Si4  1  0.15110572  0.78296443  0.78296443  1
  Si  Si5  1  0.78296443  0.78296443  0.78296443  1
  Si  Si6  1  0.21702874  0.84891478  0.21702874  1
  Si  Si7  1  0.21702874  0.21702874  0.84891478  1
  Si  Si8  1  0.84891478  0.21702874  0.21702874  1
  Si  Si9  1  0.21702874  0.21702874  0.21702874  1
  Si  Si10  1  0.62958962  0.23529039  0.62958962  1
  Si  Si11  1  0.00553037  0.62958962  0.23529039  1
  Si  Si12  1  0.23529039  0.62958962  0.00553037  1
  Si  Si13  1  0.62958962  0.00553037  0.62958962  1
  Si  Si14  1  0.23529039  0.62958962  0.62958962  1
  Si  Si15  1  0.62958962  0.23529039  0.00553037  1
  Si  Si16  1  0.62958962  0.00553037  0.23529039  1
  Si  Si17  1  0.00553037  0.62958962  0.62958962  1
  Si  Si18  1  0.62958962  0.62958962  0.23529039  1
  Si  Si19  1  0.23529039  0.00553037  0.62958962  1
  Si  Si20  1  0.00553037  0.23529039  0.62958962  1
  Si  Si21  1  0.62958962  0.62958962  0.00553037  1
  Si  Si22  1  0.37039699  0.76471110  0.37039699  1
  Si  Si23  1  0.99449492  0.37039699  0.76471110  1
  Si  Si24  1  0.76471110  0.37039699  0.99449492  1
  Si  Si25  1  0.37039699  0.99449492  0.37039699  1
  Si  Si26  1  0.76471110  0.37039699  0.37039699  1
  Si  Si27  1  0.37039699  0.76471110  0.99449492  1
  Si  Si28  1  0.37039699  0.99449492  0.76471110  1
  Si  Si29  1  0.99449492  0.37039699  0.37039699  1
  Si  Si30  1  0.37039699  0.37039699  0.76471110  1
  Si  Si31  1  0.76471110  0.99449492  0.37039699  1
  Si  Si32  1  0.99449492  0.76471110  0.37039699  1
  Si  Si33  1  0.37039699  0.37039699  0.99449492  1
  N  N34  1  0.37500000  0.37500000  0.37500000  1
  N  N35  1  0.62500000  0.62500000  0.62500000  1
  O  O36  1  0.31302683  0.49997551  0.00005926  1
  O  O37  1  0.68693840  0.00005926  0.49997551  1
  O  O38  1  0.49997551  0.31302683  0.68693840  1
  O  O39  1  0.00005926  0.68693840  0.31302683  1
  O  O40  1  0.49997551  0.00005926  0.31302683  1
  O  O41  1  0.00005926  0.49997551  0.68693840  1
  O  O42  1  0.31302683  0.68693840  0.49997551  1
  O  O43  1  0.68693840  0.31302683  0.00005926  1
  O  O44  1  0.00005926  0.31302683  0.49997551  1
  O  O45  1  0.49997551  0.68693840  0.00005926  1
  O  O46  1  0.68693840  0.49997551  0.31302683  1
  O  O47  1  0.31302683  0.00005926  0.68693840  1
  O  O48  1  0.00005926  0.49997551  0.31302683  1
  O  O49  1  0.49997551  0.00005926  0.68693840  1
  O  O50  1  0.68693840  0.31302683  0.49997551  1
  O  O51  1  0.31302683  0.68693840  0.00005926  1
  O  O52  1  0.31302683  0.00005926  0.49997551  1
  O  O53  1  0.68693840  0.49997551  0.00005926  1
  O  O54  1  0.49997551  0.68693840  0.31302683  1
  O  O55  1  0.00005926  0.31302683  0.68693840  1
  O  O56  1  0.49997551  0.31302683  0.00005926  1
  O  O57  1  0.00005926  0.68693840  0.49997551  1
  O  O58  1  0.31302683  0.49997551  0.68693840  1
  O  O59  1  0.68693840  0.00005926  0.31302683  1
  O  O60  1  0.70614488  0.19453023  0.70614488  1
  O  O61  1  0.89318100  0.70614488  0.19453023  1
  O  O62  1  0.19453023  0.70614488  0.89318100  1
  O  O63  1  0.70614488  0.89318100  0.70614488  1
  O  O64  1  0.19453023  0.70614488  0.70614488  1
  O  O65  1  0.70614488  0.19453023  0.89318100  1
  O  O66  1  0.70614488  0.89318100  0.19453023  1
  O  O67  1  0.89318100  0.70614488  0.70614488  1
  O  O68  1  0.70614488  0.70614488  0.19453023  1
  O  O69  1  0.19453023  0.89318100  0.70614488  1
  O  O70  1  0.89318100  0.19453023  0.70614488  1
  O  O71  1  0.70614488  0.70614488  0.89318100  1
  O  O72  1  0.29383677  0.80550852  0.29383677  1
  O  O73  1  0.10681795  0.29383677  0.80550852  1
  O  O74  1  0.80550852  0.29383677  0.10681795  1
  O  O75  1  0.29383677  0.10681795  0.29383677  1
  O  O76  1  0.80550852  0.29383677  0.29383677  1
  O  O77  1  0.29383677  0.80550852  0.10681795  1
  O  O78  1  0.29383677  0.10681795  0.80550852  1
  O  O79  1  0.10681795  0.29383677  0.29383677  1
  O  O80  1  0.29383677  0.29383677  0.80550852  1
  O  O81  1  0.80550852  0.10681795  0.29383677  1
  O  O82  1  0.10681795  0.80550852  0.29383677  1
  O  O83  1  0.29383677  0.29383677  0.10681795  1
  O  O84  1  0.62649578  0.12350422  0.62649578  1
  O  O85  1  0.12350422  0.62649578  0.12350422  1
  O  O86  1  0.12350422  0.62649578  0.62649578  1
  O  O87  1  0.62649578  0.12350422  0.12350422  1
  O  O88  1  0.62649578  0.62649578  0.12350422  1
  O  O89  1  0.12350422  0.12350422  0.62649578  1
  O  O90  1  0.37351921  0.87648079  0.37351921  1
  O  O91  1  0.87648079  0.37351921  0.87648079  1
  O  O92  1  0.87648079  0.37351921  0.37351921  1
  O  O93  1  0.37351921  0.87648079  0.87648079  1
  O  O94  1  0.37351921  0.37351921  0.87648079  1
  O  O95  1  0.87648079  0.87648079  0.37351921  1
  O  O96  1  0.82904888  0.01285337  0.82904888  1
  O  O97  1  0.82904888  0.82904888  0.01285337  1
  O  O98  1  0.01285337  0.82904888  0.82904888  1
  O  O99  1  0.82904888  0.82904888  0.82904888  1
  O  O100  1  0.17094476  0.98716473  0.17094476  1
  O  O101  1  0.17094476  0.17094476  0.98716473  1
  O  O102  1  0.98716473  0.17094476  0.17094476  1
  O  O103  1  0.17094476  0.17094476  0.17094476  1
