# generated using pymatgen
data_RbNa2B6ClO10
_symmetry_space_group_name_H-M   'P 1'
_cell_length_a   8.40308298
_cell_length_b   9.73873004
_cell_length_c   12.87437875
_cell_angle_alpha   90.00000000
_cell_angle_beta   90.00000000
_cell_angle_gamma   90.00000000
_symmetry_Int_Tables_number   1
_chemical_formula_structural   RbNa2B6ClO10
_chemical_formula_sum   'Rb4 Na8 B24 Cl4 O40'
_cell_volume   1053.57937660
_cell_formula_units_Z   4
loop_
 _symmetry_equiv_pos_site_id
 _symmetry_equiv_pos_as_xyz
  1  'x, y, z'
loop_
 _atom_site_type_symbol
 _atom_site_label
 _atom_site_symmetry_multiplicity
 _atom_site_fract_x
 _atom_site_fract_y
 _atom_site_fract_z
 _atom_site_occupancy
  Rb  Rb0  1  0.52001183  0.25226841  0.23798707  1
  Rb  Rb1  1  0.97998817  0.74773159  0.73798707  1
  Rb  Rb2  1  0.02001183  0.24773159  0.76201293  1
  Rb  Rb3  1  0.47998817  0.75226841  0.26201293  1
  Na  Na4  1  0.72947722  0.00333794  0.46473709  1
  Na  Na5  1  0.77052278  0.99666206  0.96473709  1
  Na  Na6  1  0.22947722  0.49666206  0.53526291  1
  Na  Na7  1  0.27052278  0.50333794  0.03526291  1
  Na  Na8  1  0.53965388  0.22001743  0.74232294  1
  Na  Na9  1  0.96034612  0.77998257  0.24232294  1
  Na  Na10  1  0.03965388  0.27998257  0.25767706  1
  Na  Na11  1  0.46034612  0.72001743  0.75767706  1
  B  B12  1  0.45147957  0.23864302  0.97782266  1
  B  B13  1  0.04852043  0.76135698  0.47782266  1
  B  B14  1  0.95147957  0.26135698  0.02217734  1
  B  B15  1  0.54852043  0.73864302  0.52217734  1
  B  B16  1  0.54144151  0.26562347  0.51297502  1
  B  B17  1  0.95855849  0.73437653  0.01297502  1
  B  B18  1  0.04144151  0.23437653  0.48702498  1
  B  B19  1  0.45855849  0.76562347  0.98702498  1
  B  B20  1  0.80018958  0.50473124  0.27292772  1
  B  B21  1  0.69981042  0.49526876  0.77292772  1
  B  B22  1  0.30018958  0.99526876  0.72707228  1
  B  B23  1  0.19981042  0.00473124  0.22707228  1
  B  B24  1  0.79179095  0.36727477  0.43911376  1
  B  B25  1  0.70820905  0.63272523  0.93911376  1
  B  B26  1  0.29179095  0.13272523  0.56088624  1
  B  B27  1  0.20820905  0.86727477  0.06088624  1
  B  B28  1  0.88286041  0.50060608  0.07835890  1
  B  B29  1  0.61713959  0.49939392  0.57835890  1
  B  B30  1  0.38286041  0.99939392  0.92164110  1
  B  B31  1  0.11713959  0.00060608  0.42164110  1
  B  B32  1  0.20839005  0.13561269  0.05954063  1
  B  B33  1  0.29160995  0.86438731  0.55954063  1
  B  B34  1  0.70839005  0.36438731  0.94045937  1
  B  B35  1  0.79160995  0.63561269  0.44045937  1
  Cl  Cl36  1  0.25851057  0.48700541  0.30433693  1
  Cl  Cl37  1  0.24148943  0.51299459  0.80433693  1
  Cl  Cl38  1  0.75851057  0.01299459  0.69566307  1
  Cl  Cl39  1  0.74148943  0.98700541  0.19566307  1
  O  O40  1  0.71854006  0.50135745  0.47989142  1
  O  O41  1  0.78145994  0.49864255  0.97989142  1
  O  O42  1  0.21854006  0.99864255  0.52010858  1
  O  O43  1  0.28145994  0.00135745  0.02010858  1
  O  O44  1  0.77869818  0.50456804  0.16767981  1
  O  O45  1  0.72130182  0.49543196  0.66767981  1
  O  O46  1  0.27869818  0.99543196  0.83232019  1
  O  O47  1  0.22130182  0.00456804  0.33232019  1
  O  O48  1  0.31259161  0.25046237  0.03372053  1
  O  O49  1  0.18740839  0.74953763  0.53372053  1
  O  O50  1  0.81259161  0.24953763  0.96627947  1
  O  O51  1  0.68740839  0.75046237  0.46627947  1
  O  O52  1  0.67787862  0.25531562  0.45406886  1
  O  O53  1  0.82212138  0.74468438  0.95406886  1
  O  O54  1  0.17787862  0.24468438  0.54593114  1
  O  O55  1  0.32212138  0.75531562  0.04593114  1
  O  O56  1  0.48650722  0.12284573  0.92038973  1
  O  O57  1  0.01349278  0.87715427  0.42038973  1
  O  O58  1  0.98650722  0.37715427  0.07961027  1
  O  O59  1  0.51349278  0.62284573  0.57961027  1
  O  O60  1  0.55081759  0.34909546  0.98495909  1
  O  O61  1  0.94918241  0.65090454  0.48495909  1
  O  O62  1  0.05081759  0.15090454  0.01504091  1
  O  O63  1  0.44918241  0.84909546  0.51504091  1
  O  O64  1  0.81360471  0.38222823  0.32534431  1
  O  O65  1  0.68639529  0.61777177  0.82534431  1
  O  O66  1  0.31360471  0.11777177  0.67465569  1
  O  O67  1  0.18639529  0.88222823  0.17465569  1
  O  O68  1  0.44184445  0.15551590  0.50793047  1
  O  O69  1  0.05815555  0.84448410  0.00793047  1
  O  O70  1  0.94184445  0.34448410  0.49206953  1
  O  O71  1  0.55815555  0.65551590  0.99206953  1
  O  O72  1  0.79603419  0.62758084  0.32548673  1
  O  O73  1  0.70396581  0.37241916  0.82548673  1
  O  O74  1  0.29603419  0.87241916  0.67451327  1
  O  O75  1  0.20396581  0.12758084  0.17451327  1
  O  O76  1  0.51074141  0.37846352  0.57487607  1
  O  O77  1  0.98925859  0.62153648  0.07487607  1
  O  O78  1  0.01074141  0.12153648  0.42512393  1
  O  O79  1  0.48925859  0.87846352  0.92512393  1
