# generated using pymatgen
data_Ho2PbS4
_symmetry_space_group_name_H-M   'P 1'
_cell_length_a   3.98169220
_cell_length_b   12.02251965
_cell_length_c   14.34538749
_cell_angle_alpha   90.00000000
_cell_angle_beta   90.00000000
_cell_angle_gamma   90.00000000
_symmetry_Int_Tables_number   1
_chemical_formula_structural   Ho2PbS4
_chemical_formula_sum   'Ho8 Pb4 S16'
_cell_volume   686.71330773
_cell_formula_units_Z   4
loop_
 _symmetry_equiv_pos_site_id
 _symmetry_equiv_pos_as_xyz
  1  'x, y, z'
loop_
 _atom_site_type_symbol
 _atom_site_label
 _atom_site_symmetry_multiplicity
 _atom_site_fract_x
 _atom_site_fract_y
 _atom_site_fract_z
 _atom_site_occupancy
  Ho  Ho0  1  0.75000000  0.06688149  0.11070457  1
  Ho  Ho1  1  0.75000000  0.56688149  0.38929543  1
  Ho  Ho2  1  0.25000000  0.93311851  0.88929543  1
  Ho  Ho3  1  0.25000000  0.43311851  0.61070457  1
  Ho  Ho4  1  0.75000000  0.08105550  0.60044834  1
  Ho  Ho5  1  0.75000000  0.58105550  0.89955166  1
  Ho  Ho6  1  0.25000000  0.91894450  0.39955166  1
  Ho  Ho7  1  0.25000000  0.41894450  0.10044834  1
  Pb  Pb8  1  0.75000000  0.74108925  0.16284326  1
  Pb  Pb9  1  0.75000000  0.24108925  0.33715674  1
  Pb  Pb10  1  0.25000000  0.25891075  0.83715674  1
  Pb  Pb11  1  0.25000000  0.75891075  0.66284326  1
  S  S12  1  0.75000000  0.29268797  0.67254807  1
  S  S13  1  0.75000000  0.79268797  0.82745193  1
  S  S14  1  0.25000000  0.70731203  0.32745193  1
  S  S15  1  0.25000000  0.20731203  0.17254807  1
  S  S16  1  0.75000000  0.37048911  0.97319601  1
  S  S17  1  0.75000000  0.87048911  0.52680399  1
  S  S18  1  0.25000000  0.62951089  0.02680399  1
  S  S19  1  0.25000000  0.12951089  0.47319601  1
  S  S20  1  0.75000000  0.47666966  0.21549542  1
  S  S21  1  0.75000000  0.97666966  0.28450458  1
  S  S22  1  0.25000000  0.52333034  0.78450458  1
  S  S23  1  0.25000000  0.02333034  0.71549542  1
  S  S24  1  0.75000000  0.08562742  0.92255650  1
  S  S25  1  0.75000000  0.58562742  0.57744350  1
  S  S26  1  0.25000000  0.91437258  0.07744350  1
  S  S27  1  0.25000000  0.41437258  0.42255650  1
