# generated using pymatgen
data_KLiTmF5
_symmetry_space_group_name_H-M   'P 1'
_cell_length_a   6.28548022
_cell_length_b   6.45938603
_cell_length_c   11.85447559
_cell_angle_alpha   90.00000000
_cell_angle_beta   90.00000000
_cell_angle_gamma   114.02306502
_symmetry_Int_Tables_number   1
_chemical_formula_structural   KLiTmF5
_chemical_formula_sum   'K4 Li4 Tm4 F20'
_cell_volume   439.60672951
_cell_formula_units_Z   4
loop_
 _symmetry_equiv_pos_site_id
 _symmetry_equiv_pos_as_xyz
  1  'x, y, z'
loop_
 _atom_site_type_symbol
 _atom_site_label
 _atom_site_symmetry_multiplicity
 _atom_site_fract_x
 _atom_site_fract_y
 _atom_site_fract_z
 _atom_site_occupancy
  K  K0  1  0.54324819  0.05947401  0.35000710  1
  K  K1  1  0.95675181  0.94052599  0.85000710  1
  K  K2  1  0.45675181  0.94052599  0.64999290  1
  K  K3  1  0.04324819  0.05947401  0.14999290  1
  Li  Li4  1  0.96388944  0.56366413  0.24671355  1
  Li  Li5  1  0.53611056  0.43633587  0.74671355  1
  Li  Li6  1  0.03611056  0.43633587  0.75328645  1
  Li  Li7  1  0.46388944  0.56366413  0.25328645  1
  Tm  Tm8  1  0.82014816  0.68210304  0.49806105  1
  Tm  Tm9  1  0.67985184  0.31789696  0.99806105  1
  Tm  Tm10  1  0.17985184  0.31789696  0.50193895  1
  Tm  Tm11  1  0.32014816  0.68210304  0.00193895  1
  F  F12  1  0.45326031  0.66412211  0.47103545  1
  F  F13  1  0.04673969  0.33587789  0.97103545  1
  F  F14  1  0.54673969  0.33587789  0.52896455  1
  F  F15  1  0.95326031  0.66412211  0.02896455  1
  F  F16  1  0.82938353  0.04487692  0.50976694  1
  F  F17  1  0.67061647  0.95512308  0.00976694  1
  F  F18  1  0.17061647  0.95512308  0.49023306  1
  F  F19  1  0.32938353  0.04487692  0.99023306  1
  F  F20  1  0.28072106  0.72669700  0.19162943  1
  F  F21  1  0.21927894  0.27330300  0.69162943  1
  F  F22  1  0.71927894  0.27330300  0.80837057  1
  F  F23  1  0.78072106  0.72669700  0.30837057  1
  F  F24  1  0.96424665  0.46482429  0.39713238  1
  F  F25  1  0.53575335  0.53517571  0.89713238  1
  F  F26  1  0.03575335  0.53517571  0.60286762  1
  F  F27  1  0.46424665  0.46482429  0.10286762  1
  F  F28  1  0.77634644  0.29383901  0.17212276  1
  F  F29  1  0.72365356  0.70616099  0.67212276  1
  F  F30  1  0.22365356  0.70616099  0.82787724  1
  F  F31  1  0.27634644  0.29383901  0.32787724  1
