# generated using pymatgen
data_Tl2CrO4
_symmetry_space_group_name_H-M   'P 1'
_cell_length_a   5.92115826
_cell_length_b   7.15464325
_cell_length_c   14.09981348
_cell_angle_alpha   83.00286535
_cell_angle_beta   77.87923229
_cell_angle_gamma   65.55633422
_symmetry_Int_Tables_number   1
_chemical_formula_structural   Tl2CrO4
_chemical_formula_sum   'Tl8 Cr4 O16'
_cell_volume   531.25048326
_cell_formula_units_Z   4
loop_
 _symmetry_equiv_pos_site_id
 _symmetry_equiv_pos_as_xyz
  1  'x, y, z'
loop_
 _atom_site_type_symbol
 _atom_site_label
 _atom_site_symmetry_multiplicity
 _atom_site_fract_x
 _atom_site_fract_y
 _atom_site_fract_z
 _atom_site_occupancy
  Tl  Tl0  1  0.37908316  0.61061812  0.63121556  1
  Tl  Tl1  1  0.62091684  0.38938188  0.36878444  1
  Tl  Tl2  1  0.07816396  0.22927202  0.61440007  1
  Tl  Tl3  1  0.92183604  0.77072798  0.38559993  1
  Tl  Tl4  1  0.18410902  0.74579706  0.88598491  1
  Tl  Tl5  1  0.81589098  0.25420294  0.11401509  1
  Tl  Tl6  1  0.50504795  0.12229960  0.86760450  1
  Tl  Tl7  1  0.49495205  0.87770040  0.13239550  1
  Cr  Cr8  1  0.72352014  0.91432960  0.63863012  1
  Cr  Cr9  1  0.27647986  0.08567040  0.36136988  1
  Cr  Cr10  1  0.85906730  0.42299752  0.85886788  1
  Cr  Cr11  1  0.14093270  0.57700248  0.14113212  1
  O  O12  1  0.67197356  0.10264193  0.55341096  1
  O  O13  1  0.32802644  0.89735807  0.44658904  1
  O  O14  1  0.86317863  0.68726939  0.58637335  1
  O  O15  1  0.13682137  0.31273061  0.41362665  1
  O  O16  1  0.44667714  0.93537252  0.70797937  1
  O  O17  1  0.90997097  0.93537252  0.70797937  1
  O  O18  1  0.55332286  0.06462748  0.29202063  1
  O  O19  1  0.09002903  0.06462748  0.29202063  1
  O  O20  1  0.93946365  0.19838733  0.92268538  1
  O  O21  1  0.06053635  0.80161267  0.07731462  1
  O  O22  1  0.72495873  0.61538762  0.93469492  1
  O  O23  1  0.27504127  0.38461238  0.06530508  1
  O  O24  1  0.65496099  0.43247452  0.78995979  1
  O  O25  1  0.12260470  0.43247452  0.78995979  1
  O  O26  1  0.34503901  0.56752548  0.21004021  1
  O  O27  1  0.87739530  0.56752548  0.21004021  1
