# generated using pymatgen
data_Er9(FeGe)10
_symmetry_space_group_name_H-M   'P 1'
_cell_length_a   5.35241575
_cell_length_b   10.05422302
_cell_length_c   10.05422302
_cell_angle_alpha   83.03075521
_cell_angle_beta   74.56306867
_cell_angle_gamma   74.56306867
_symmetry_Int_Tables_number   1
_chemical_formula_structural   Er9(FeGe)10
_chemical_formula_sum   'Er9 Fe10 Ge10'
_cell_volume   501.98464906
_cell_formula_units_Z   1
loop_
 _symmetry_equiv_pos_site_id
 _symmetry_equiv_pos_as_xyz
  1  'x, y, z'
loop_
 _atom_site_type_symbol
 _atom_site_label
 _atom_site_symmetry_multiplicity
 _atom_site_fract_x
 _atom_site_fract_y
 _atom_site_fract_z
 _atom_site_occupancy
  Er  Er0  1  0.63636916  0.71645482  0.01080685  1
  Er  Er1  1  0.36363084  0.28354518  0.98919315  1
  Er  Er2  1  0.36363084  0.98919315  0.28354518  1
  Er  Er3  1  0.63636916  0.01080685  0.71645482  1
  Er  Er4  1  0.19753297  0.80246703  0.80246703  1
  Er  Er5  1  0.80246703  0.19753297  0.19753297  1
  Er  Er6  1  0.00000000  0.78113158  0.21886842  1
  Er  Er7  1  -0.00000000  0.21886842  0.78113158  1
  Er  Er8  1  0.00000000  0.50000000  0.50000000  1
  Fe  Fe9  1  0.10109883  0.51004462  0.79781578  1
  Fe  Fe10  1  0.40895923  0.48995538  0.20218422  1
  Fe  Fe11  1  0.89890117  0.20218422  0.48995538  1
  Fe  Fe12  1  0.59104077  0.79781578  0.51004462  1
  Fe  Fe13  1  0.89890117  0.48995538  0.20218422  1
  Fe  Fe14  1  0.59104077  0.51004462  0.79781578  1
  Fe  Fe15  1  0.10109883  0.79781578  0.51004462  1
  Fe  Fe16  1  0.40895923  0.20218422  0.48995538  1
  Fe  Fe17  1  0.40727847  0.59272153  0.59272153  1
  Fe  Fe18  1  0.59272153  0.40727847  0.40727847  1
  Ge  Ge19  1  0.74939339  -0.00000000  0.00000000  1
  Ge  Ge20  1  0.25060661  -0.00000000  0.00000000  1
  Ge  Ge21  1  0.20540261  0.58304737  0.00614741  1
  Ge  Ge22  1  0.79459739  0.41695263  0.99385259  1
  Ge  Ge23  1  0.79459739  0.99385259  0.41695263  1
  Ge  Ge24  1  0.20540261  0.00614741  0.58304737  1
  Ge  Ge25  1  0.79182641  0.70817359  0.70817359  1
  Ge  Ge26  1  0.20817359  0.29182641  0.29182641  1
  Ge  Ge27  1  0.50000000  0.67256139  0.32743861  1
  Ge  Ge28  1  0.50000000  0.32743861  0.67256139  1
