# generated using pymatgen
data_Li4SnSe4
_symmetry_space_group_name_H-M   'P 1'
_cell_length_a   6.71387646
_cell_length_b   8.38353577
_cell_length_c   15.09076275
_cell_angle_alpha   90.00000000
_cell_angle_beta   90.00000000
_cell_angle_gamma   90.00000000
_symmetry_Int_Tables_number   1
_chemical_formula_structural   Li4SnSe4
_chemical_formula_sum   'Li16 Sn4 Se16'
_cell_volume   849.39902614
_cell_formula_units_Z   4
loop_
 _symmetry_equiv_pos_site_id
 _symmetry_equiv_pos_as_xyz
  1  'x, y, z'
loop_
 _atom_site_type_symbol
 _atom_site_label
 _atom_site_symmetry_multiplicity
 _atom_site_fract_x
 _atom_site_fract_y
 _atom_site_fract_z
 _atom_site_occupancy
  Li  Li0  1  0.50000000  0.00000000  0.00000000  1
  Li  Li1  1  0.00000000  0.50000000  0.50000000  1
  Li  Li2  1  0.50000000  0.50000000  0.00000000  1
  Li  Li3  1  0.00000000  0.00000000  0.50000000  1
  Li  Li4  1  0.67849975  0.00535725  0.82308740  1
  Li  Li5  1  0.82150025  0.49464275  0.32308740  1
  Li  Li6  1  0.32150025  0.50535725  0.17691260  1
  Li  Li7  1  0.17849975  0.99464275  0.67691260  1
  Li  Li8  1  0.32150025  0.99464275  0.17691260  1
  Li  Li9  1  0.17849975  0.50535725  0.67691260  1
  Li  Li10  1  0.67849975  0.49464275  0.82308740  1
  Li  Li11  1  0.82150025  0.00535725  0.32308740  1
  Li  Li12  1  0.11387379  0.75000000  0.91183481  1
  Li  Li13  1  0.38612621  0.75000000  0.41183481  1
  Li  Li14  1  0.88612621  0.25000000  0.08816519  1
  Li  Li15  1  0.61387379  0.25000000  0.58816519  1
  Sn  Sn16  1  0.85720667  0.75000000  0.09262507  1
  Sn  Sn17  1  0.64279333  0.75000000  0.59262507  1
  Sn  Sn18  1  0.14279333  0.25000000  0.90737493  1
  Sn  Sn19  1  0.35720667  0.25000000  0.40737493  1
  Se  Se20  1  0.72441179  0.75000000  0.93156625  1
  Se  Se21  1  0.77558821  0.75000000  0.43156625  1
  Se  Se22  1  0.27558821  0.25000000  0.06843375  1
  Se  Se23  1  0.22441179  0.25000000  0.56843375  1
  Se  Se24  1  0.71440401  0.00408071  0.16041343  1
  Se  Se25  1  0.78559599  0.49591929  0.66041343  1
  Se  Se26  1  0.28559599  0.50408071  0.83958657  1
  Se  Se27  1  0.21440401  0.99591929  0.33958657  1
  Se  Se28  1  0.28559599  0.99591929  0.83958657  1
  Se  Se29  1  0.21440401  0.50408071  0.33958657  1
  Se  Se30  1  0.71440401  0.49591929  0.16041343  1
  Se  Se31  1  0.78559599  0.00408071  0.66041343  1
  Se  Se32  1  0.23674978  0.75000000  0.08214078  1
  Se  Se33  1  0.26325022  0.75000000  0.58214078  1
  Se  Se34  1  0.76325022  0.25000000  0.91785922  1
  Se  Se35  1  0.73674978  0.25000000  0.41785922  1
