# generated using pymatgen
data_KTaV2O8
_symmetry_space_group_name_H-M   'P 1'
_cell_length_a   5.66864254
_cell_length_b   8.72038273
_cell_length_c   15.19028726
_cell_angle_alpha   90.00000000
_cell_angle_beta   90.00000000
_cell_angle_gamma   90.00000000
_symmetry_Int_Tables_number   1
_chemical_formula_structural   KTaV2O8
_chemical_formula_sum   'K4 Ta4 V8 O32'
_cell_volume   750.89740685
_cell_formula_units_Z   4
loop_
 _symmetry_equiv_pos_site_id
 _symmetry_equiv_pos_as_xyz
  1  'x, y, z'
loop_
 _atom_site_type_symbol
 _atom_site_label
 _atom_site_symmetry_multiplicity
 _atom_site_fract_x
 _atom_site_fract_y
 _atom_site_fract_z
 _atom_site_occupancy
  K  K0  1  0.25000000  0.94842209  0.87662762  1
  K  K1  1  0.25000000  0.55157791  0.37662762  1
  K  K2  1  0.75000000  0.05157791  0.12337238  1
  K  K3  1  0.75000000  0.44842209  0.62337238  1
  Ta  Ta4  1  0.25000000  0.81255809  0.61777680  1
  Ta  Ta5  1  0.25000000  0.68744191  0.11777680  1
  Ta  Ta6  1  0.75000000  0.18744191  0.38222320  1
  Ta  Ta7  1  0.75000000  0.31255809  0.88222320  1
  V  V8  1  0.25000000  0.51234783  0.78623325  1
  V  V9  1  0.25000000  0.98765217  0.28623325  1
  V  V10  1  0.75000000  0.48765217  0.21376675  1
  V  V11  1  0.75000000  0.01234783  0.71376675  1
  V  V12  1  0.25000000  0.20801598  0.52773156  1
  V  V13  1  0.25000000  0.29198402  0.02773156  1
  V  V14  1  0.75000000  0.79198402  0.47226844  1
  V  V15  1  0.75000000  0.70801598  0.97226844  1
  O  O16  1  0.00862927  0.89845834  0.70063581  1
  O  O17  1  0.49137073  0.60154166  0.20063581  1
  O  O18  1  0.50862927  0.10154166  0.29936419  1
  O  O19  1  0.99137073  0.39845834  0.79936419  1
  O  O20  1  0.99137073  0.10154166  0.29936419  1
  O  O21  1  0.50862927  0.39845834  0.79936419  1
  O  O22  1  0.49137073  0.89845834  0.70063581  1
  O  O23  1  0.00862927  0.60154166  0.20063581  1
  O  O24  1  0.99966942  0.73372755  0.53764305  1
  O  O25  1  0.50033058  0.76627245  0.03764305  1
  O  O26  1  0.49966942  0.26627245  0.46235695  1
  O  O27  1  0.00033058  0.23372755  0.96235695  1
  O  O28  1  0.00033058  0.26627245  0.46235695  1
  O  O29  1  0.49966942  0.23372755  0.96235695  1
  O  O30  1  0.50033058  0.73372755  0.53764305  1
  O  O31  1  0.99966942  0.76627245  0.03764305  1
  O  O32  1  0.25000000  0.61740949  0.68417545  1
  O  O33  1  0.25000000  0.88259051  0.18417545  1
  O  O34  1  0.75000000  0.38259051  0.31582455  1
  O  O35  1  0.75000000  0.11740949  0.81582455  1
  O  O36  1  0.25000000  0.01079583  0.55259188  1
  O  O37  1  0.25000000  0.48920417  0.05259188  1
  O  O38  1  0.75000000  0.98920417  0.44740812  1
  O  O39  1  0.75000000  0.51079583  0.94740812  1
  O  O40  1  0.25000000  0.63865760  0.86580652  1
  O  O41  1  0.25000000  0.86134240  0.36580652  1
  O  O42  1  0.75000000  0.36134240  0.13419348  1
  O  O43  1  0.75000000  0.13865760  0.63419348  1
  O  O44  1  0.75000000  0.81087990  0.88182945  1
  O  O45  1  0.75000000  0.68912010  0.38182945  1
  O  O46  1  0.25000000  0.18912010  0.11817055  1
  O  O47  1  0.25000000  0.31087990  0.61817055  1
