# generated using pymatgen
data_MnPH6NO5
_symmetry_space_group_name_H-M   'P 1'
_cell_length_a   4.92295103
_cell_length_b   5.80056718
_cell_length_c   17.98133372
_cell_angle_alpha   90.00000000
_cell_angle_beta   90.00000000
_cell_angle_gamma   90.00000000
_symmetry_Int_Tables_number   1
_chemical_formula_structural   MnPH6NO5
_chemical_formula_sum   'Mn4 P4 H24 N4 O20'
_cell_volume   513.47331454
_cell_formula_units_Z   4
loop_
 _symmetry_equiv_pos_site_id
 _symmetry_equiv_pos_as_xyz
  1  'x, y, z'
loop_
 _atom_site_type_symbol
 _atom_site_label
 _atom_site_symmetry_multiplicity
 _atom_site_fract_x
 _atom_site_fract_y
 _atom_site_fract_z
 _atom_site_occupancy
  Mn  Mn0  1  0.87025804  0.25000000  0.76175530  1
  Mn  Mn1  1  0.62974196  0.25000000  0.26175530  1
  Mn  Mn2  1  0.12974196  0.75000000  0.23824470  1
  Mn  Mn3  1  0.37025804  0.75000000  0.73824470  1
  P  P4  1  0.30512814  0.25000000  0.65089500  1
  P  P5  1  0.19487186  0.25000000  0.15089500  1
  P  P6  1  0.69487186  0.75000000  0.34910500  1
  P  P7  1  0.80512814  0.75000000  0.84910500  1
  H  H8  1  0.57955042  0.25000000  0.52033595  1
  H  H9  1  0.92044958  0.25000000  0.02033595  1
  H  H10  1  0.42044958  0.75000000  0.47966405  1
  H  H11  1  0.07955042  0.75000000  0.97966405  1
  H  H12  1  0.93195475  0.25000000  0.52156274  1
  H  H13  1  0.56804525  0.25000000  0.02156274  1
  H  H14  1  0.06804525  0.75000000  0.47843726  1
  H  H15  1  0.43195475  0.75000000  0.97843726  1
  H  H16  1  0.29890281  0.11420105  0.84853596  1
  H  H17  1  0.20109719  0.38579895  0.34853596  1
  H  H18  1  0.70109719  0.61420105  0.15146404  1
  H  H19  1  0.79890281  0.88579895  0.65146404  1
  H  H20  1  0.70109719  0.88579895  0.15146404  1
  H  H21  1  0.79890281  0.61420105  0.65146404  1
  H  H22  1  0.29890281  0.38579895  0.84853596  1
  H  H23  1  0.20109719  0.11420105  0.34853596  1
  H  H24  1  0.75629782  0.39719580  0.45504722  1
  H  H25  1  0.74370218  0.10280420  0.95504722  1
  H  H26  1  0.24370218  0.89719580  0.54495278  1
  H  H27  1  0.25629782  0.60280420  0.04495278  1
  H  H28  1  0.24370218  0.60280420  0.54495278  1
  H  H29  1  0.25629782  0.89719580  0.04495278  1
  H  H30  1  0.75629782  0.10280420  0.45504722  1
  H  H31  1  0.74370218  0.39719580  0.95504722  1
  N  N32  1  0.75722226  0.25000000  0.48768425  1
  N  N33  1  0.74277774  0.25000000  0.98768425  1
  N  N34  1  0.24277774  0.75000000  0.51231575  1
  N  N35  1  0.25722226  0.75000000  0.01231575  1
  O  O36  1  0.61141109  0.25000000  0.66624074  1
  O  O37  1  0.88858891  0.25000000  0.16624074  1
  O  O38  1  0.38858891  0.75000000  0.33375926  1
  O  O39  1  0.11141109  0.75000000  0.83375926  1
  O  O40  1  0.16222049  0.03566503  0.68770144  1
  O  O41  1  0.33777951  0.46433497  0.18770144  1
  O  O42  1  0.83777951  0.53566503  0.31229856  1
  O  O43  1  0.66222049  0.96433497  0.81229856  1
  O  O44  1  0.83777951  0.96433497  0.31229856  1
  O  O45  1  0.66222049  0.53566503  0.81229856  1
  O  O46  1  0.16222049  0.46433497  0.68770144  1
  O  O47  1  0.33777951  0.03566503  0.18770144  1
  O  O48  1  0.18160578  0.25000000  0.85585002  1
  O  O49  1  0.31839422  0.25000000  0.35585002  1
  O  O50  1  0.81839422  0.75000000  0.14414998  1
  O  O51  1  0.68160578  0.75000000  0.64414998  1
  O  O52  1  0.25467037  0.25000000  0.56526418  1
  O  O53  1  0.24532963  0.25000000  0.06526418  1
  O  O54  1  0.74532963  0.75000000  0.43473582  1
  O  O55  1  0.75467037  0.75000000  0.93473582  1
