# generated using pymatgen
data_BNF8
_symmetry_space_group_name_H-M   'P 1'
_cell_length_a   5.21923979
_cell_length_b   9.84147689
_cell_length_c   9.99267956
_cell_angle_alpha   90.00000000
_cell_angle_beta   90.00000000
_cell_angle_gamma   90.00000000
_symmetry_Int_Tables_number   1
_chemical_formula_structural   BNF8
_chemical_formula_sum   'B4 N4 F32'
_cell_volume   513.27426316
_cell_formula_units_Z   4
loop_
 _symmetry_equiv_pos_site_id
 _symmetry_equiv_pos_as_xyz
  1  'x, y, z'
loop_
 _atom_site_type_symbol
 _atom_site_label
 _atom_site_symmetry_multiplicity
 _atom_site_fract_x
 _atom_site_fract_y
 _atom_site_fract_z
 _atom_site_occupancy
  B  B0  1  0.10389766  0.25000000  0.49059421  1
  B  B1  1  0.89610234  0.75000000  0.50940579  1
  B  B2  1  0.10389766  0.75000000  0.00940579  1
  B  B3  1  0.89610234  0.25000000  0.99059421  1
  N  N4  1  0.52308046  0.50000000  0.75000000  1
  N  N5  1  0.47691954  -0.00000000  0.25000000  1
  N  N6  1  0.47691954  0.50000000  0.25000000  1
  N  N7  1  0.52308046  0.00000000  0.75000000  1
  F  F8  1  0.67177511  0.43584407  0.66046907  1
  F  F9  1  0.32822489  0.93584407  0.33953093  1
  F  F10  1  0.67177511  0.56415593  0.83953093  1
  F  F11  1  0.32822489  0.06415593  0.16046907  1
  F  F12  1  0.32822489  0.56415593  0.33953093  1
  F  F13  1  0.67177511  0.06415593  0.66046907  1
  F  F14  1  0.32822489  0.43584407  0.16046907  1
  F  F15  1  0.67177511  0.93584407  0.83953093  1
  F  F16  1  0.37479052  0.59063324  0.68592870  1
  F  F17  1  0.62520948  0.09063324  0.31407130  1
  F  F18  1  0.37479052  0.40936676  0.81407130  1
  F  F19  1  0.62520948  0.90936676  0.18592870  1
  F  F20  1  0.62520948  0.40936676  0.31407130  1
  F  F21  1  0.37479052  0.90936676  0.68592870  1
  F  F22  1  0.62520948  0.59063324  0.18592870  1
  F  F23  1  0.37479052  0.09063324  0.81407130  1
  F  F24  1  0.19731322  0.13192513  0.55535211  1
  F  F25  1  0.80268678  0.63192513  0.44464789  1
  F  F26  1  0.19731322  0.86807487  0.94464789  1
  F  F27  1  0.80268678  0.36807487  0.05535211  1
  F  F28  1  0.80268678  0.86807487  0.44464789  1
  F  F29  1  0.19731322  0.36807487  0.55535211  1
  F  F30  1  0.80268678  0.13192513  0.05535211  1
  F  F31  1  0.19731322  0.63192513  0.94464789  1
  F  F32  1  0.18610553  0.25000000  0.35483469  1
  F  F33  1  0.81389447  0.75000000  0.64516531  1
  F  F34  1  0.18610553  0.75000000  0.14516531  1
  F  F35  1  0.81389447  0.25000000  0.85483469  1
  F  F36  1  0.83133901  0.25000000  0.49376886  1
  F  F37  1  0.16866099  0.75000000  0.50623114  1
  F  F38  1  0.83133901  0.75000000  0.00623114  1
  F  F39  1  0.16866099  0.25000000  0.99376886  1
