# generated using pymatgen
data_WO3
_symmetry_space_group_name_H-M   'P 1'
_cell_length_a   7.67573516
_cell_length_b   7.75043424
_cell_length_c   7.78626256
_cell_angle_alpha   90.00000000
_cell_angle_beta   90.00000000
_cell_angle_gamma   90.00000000
_symmetry_Int_Tables_number   1
_chemical_formula_structural   WO3
_chemical_formula_sum   'W8 O24'
_cell_volume   463.20694453
_cell_formula_units_Z   8
loop_
 _symmetry_equiv_pos_site_id
 _symmetry_equiv_pos_as_xyz
  1  'x, y, z'
loop_
 _atom_site_type_symbol
 _atom_site_label
 _atom_site_symmetry_multiplicity
 _atom_site_fract_x
 _atom_site_fract_y
 _atom_site_fract_z
 _atom_site_occupancy
  W  W0  1  0.75000000  0.47981836  0.48317851  1
  W  W1  1  0.75000000  0.97981836  0.01682149  1
  W  W2  1  0.25000000  0.52018164  0.51682149  1
  W  W3  1  0.25000000  0.02018164  0.98317851  1
  W  W4  1  0.75000000  0.47983912  0.98342463  1
  W  W5  1  0.75000000  0.97983912  0.51657537  1
  W  W6  1  0.25000000  0.52016088  0.01657537  1
  W  W7  1  0.25000000  0.02016088  0.48342463  1
  O  O8  1  0.00000000  0.50000000  0.50000000  1
  O  O9  1  0.50000000  -0.00000000  0.00000000  1
  O  O10  1  0.50000000  0.50000000  0.50000000  1
  O  O11  1  0.00000000  0.00000000  0.00000000  1
  O  O12  1  0.00000000  0.50000000  0.00000000  1
  O  O13  1  0.50000000  0.00000000  0.50000000  1
  O  O14  1  0.50000000  0.50000000  0.00000000  1
  O  O15  1  -0.00000000  0.00000000  0.50000000  1
  O  O16  1  0.75000000  0.24064397  0.49866397  1
  O  O17  1  0.75000000  0.74064397  0.00133603  1
  O  O18  1  0.25000000  0.75935603  0.50133603  1
  O  O19  1  0.25000000  0.25935603  0.99866397  1
  O  O20  1  0.75000000  0.24053910  0.99903486  1
  O  O21  1  0.75000000  0.74053910  0.50096514  1
  O  O22  1  0.25000000  0.75946090  0.00096514  1
  O  O23  1  0.25000000  0.25946090  0.49903486  1
  O  O24  1  0.75000000  0.48798282  0.24624560  1
  O  O25  1  0.75000000  0.98798282  0.25375440  1
  O  O26  1  0.25000000  0.51201718  0.75375440  1
  O  O27  1  0.25000000  0.01201718  0.74624560  1
  O  O28  1  0.75000000  0.48674434  0.74616214  1
  O  O29  1  0.75000000  0.98674434  0.75383786  1
  O  O30  1  0.25000000  0.51325566  0.25383786  1
  O  O31  1  0.25000000  0.01325566  0.24616214  1
