# generated using pymatgen
data_Rb3V(SO5)2
_symmetry_space_group_name_H-M   'P 1'
_cell_length_a   8.66157699
_cell_length_b   11.97077961
_cell_length_c   12.46260242
_cell_angle_alpha   110.25815257
_cell_angle_beta   90.00000000
_cell_angle_gamma   90.00000000
_symmetry_Int_Tables_number   1
_chemical_formula_structural   Rb3V(SO5)2
_chemical_formula_sum   'Rb12 V4 S8 O40'
_cell_volume   1212.26275186
_cell_formula_units_Z   4
loop_
 _symmetry_equiv_pos_site_id
 _symmetry_equiv_pos_as_xyz
  1  'x, y, z'
loop_
 _atom_site_type_symbol
 _atom_site_label
 _atom_site_symmetry_multiplicity
 _atom_site_fract_x
 _atom_site_fract_y
 _atom_site_fract_z
 _atom_site_occupancy
  Rb  Rb0  1  0.28324869  0.01474800  0.44923432  1
  Rb  Rb1  1  0.28324869  0.98525200  0.05076568  1
  Rb  Rb2  1  0.71675131  0.98525200  0.55076568  1
  Rb  Rb3  1  0.71675131  0.01474800  0.94923432  1
  Rb  Rb4  1  0.85321178  0.37539942  0.85775526  1
  Rb  Rb5  1  0.85321178  0.62460058  0.64224474  1
  Rb  Rb6  1  0.14678822  0.62460058  0.14224474  1
  Rb  Rb7  1  0.14678822  0.37539942  0.35775526  1
  Rb  Rb8  1  0.68883751  0.50000000  0.25000000  1
  Rb  Rb9  1  0.31116249  0.50000000  0.75000000  1
  Rb  Rb10  1  0.88390174  -0.00000000  0.25000000  1
  Rb  Rb11  1  0.11609826  -0.00000000  0.75000000  1
  V  V12  1  0.67344657  0.32394754  0.47477229  1
  V  V13  1  0.67344657  0.67605246  0.02522771  1
  V  V14  1  0.32655343  0.67605246  0.52522771  1
  V  V15  1  0.32655343  0.32394754  0.97477229  1
  S  S16  1  0.51259032  0.18366330  0.28920442  1
  S  S17  1  0.51259032  0.81633670  0.21079558  1
  S  S18  1  0.48740968  0.81633670  0.71079558  1
  S  S19  1  0.48740968  0.18366330  0.78920442  1
  S  S20  1  0.97664129  0.23486861  0.56463205  1
  S  S21  1  0.97664129  0.76513139  0.93536795  1
  S  S22  1  0.02335871  0.76513139  0.43536795  1
  S  S23  1  0.02335871  0.23486861  0.06463205  1
  O  O24  1  0.35119389  0.14871724  0.29143409  1
  O  O25  1  0.35119389  0.85128276  0.20856591  1
  O  O26  1  0.64880611  0.85128276  0.70856591  1
  O  O27  1  0.64880611  0.14871724  0.79143409  1
  O  O28  1  0.02640689  0.35626725  0.63302469  1
  O  O29  1  0.02640689  0.64373275  0.86697531  1
  O  O30  1  0.97359311  0.64373275  0.36697531  1
  O  O31  1  0.97359311  0.35626725  0.13302469  1
  O  O32  1  0.79733881  0.23663621  0.54989076  1
  O  O33  1  0.79733881  0.76336379  0.95010924  1
  O  O34  1  0.20266119  0.76336379  0.45010924  1
  O  O35  1  0.20266119  0.23663621  0.04989076  1
  O  O36  1  0.58295662  0.13733279  0.17604586  1
  O  O37  1  0.58295662  0.86266721  0.32395414  1
  O  O38  1  0.41704338  0.86266721  0.82395414  1
  O  O39  1  0.41704338  0.13733279  0.67604586  1
  O  O40  1  0.56818716  0.40652161  0.58328250  1
  O  O41  1  0.56818716  0.59347839  0.91671750  1
  O  O42  1  0.43181284  0.59347839  0.41671750  1
  O  O43  1  0.43181284  0.40652161  0.08328250  1
  O  O44  1  0.04561935  0.19158535  0.44885361  1
  O  O45  1  0.04561935  0.80841465  0.05114639  1
  O  O46  1  0.95438065  0.80841465  0.55114639  1
  O  O47  1  0.95438065  0.19158535  0.94885361  1
  O  O48  1  0.47137357  0.31925508  0.84195507  1
  O  O49  1  0.47137357  0.68074492  0.65804493  1
  O  O50  1  0.52862643  0.68074492  0.15804493  1
  O  O51  1  0.52862643  0.31925508  0.34195507  1
  O  O52  1  0.80740356  0.40678556  0.44247283  1
  O  O53  1  0.80740356  0.59321444  0.05752717  1
  O  O54  1  0.19259644  0.59321444  0.55752717  1
  O  O55  1  0.19259644  0.40678556  0.94247283  1
  O  O56  1  0.60934422  0.14897373  0.37668988  1
  O  O57  1  0.60934422  0.85102627  0.12331012  1
  O  O58  1  0.39065578  0.85102627  0.62331012  1
  O  O59  1  0.39065578  0.14897373  0.87668988  1
  O  O60  1  0.99943540  0.85098740  0.87542413  1
  O  O61  1  0.99943540  0.14901260  0.62457587  1
  O  O62  1  0.00056460  0.14901260  0.12457587  1
  O  O63  1  0.00056460  0.85098740  0.37542413  1
