# generated using pymatgen
data_Na2FeH4(SO5)2
_symmetry_space_group_name_H-M   'P 1'
_cell_length_a   5.55047491
_cell_length_b   5.81428512
_cell_length_c   13.26184690
_cell_angle_alpha   90.00000000
_cell_angle_beta   90.00000000
_cell_angle_gamma   106.51162277
_symmetry_Int_Tables_number   1
_chemical_formula_structural   Na2FeH4(SO5)2
_chemical_formula_sum   'Na4 Fe2 H8 S4 O20'
_cell_volume   410.33762164
_cell_formula_units_Z   2
loop_
 _symmetry_equiv_pos_site_id
 _symmetry_equiv_pos_as_xyz
  1  'x, y, z'
loop_
 _atom_site_type_symbol
 _atom_site_label
 _atom_site_symmetry_multiplicity
 _atom_site_fract_x
 _atom_site_fract_y
 _atom_site_fract_z
 _atom_site_occupancy
  Na  Na0  1  0.75968293  0.57747103  0.38196443  1
  Na  Na1  1  0.74031707  0.42252897  0.88196443  1
  Na  Na2  1  0.24031707  0.42252897  0.61803557  1
  Na  Na3  1  0.25968293  0.57747103  0.11803557  1
  Fe  Fe4  1  0.50000000  -0.00000000  0.50000000  1
  Fe  Fe5  1  -0.00000000  -0.00000000  -0.00000000  1
  H  H6  1  0.00664736  0.09032050  0.79870027  1
  H  H7  1  0.49335264  0.90967950  0.29870027  1
  H  H8  1  0.99335264  0.90967950  0.20129973  1
  H  H9  1  0.50664736  0.09032050  0.70129973  1
  H  H10  1  0.18261651  0.32418922  0.84971207  1
  H  H11  1  0.31738349  0.67581078  0.34971207  1
  H  H12  1  0.81738349  0.67581078  0.15028793  1
  H  H13  1  0.68261651  0.32418922  0.65028793  1
  S  S14  1  0.07549773  0.22287567  0.38284037  1
  S  S15  1  0.42450227  0.77712433  0.88284037  1
  S  S16  1  0.92450227  0.77712433  0.61715963  1
  S  S17  1  0.57549773  0.22287567  0.11715963  1
  O  O18  1  0.01532877  0.99354883  0.32750371  1
  O  O19  1  0.48467123  0.00645117  0.82750371  1
  O  O20  1  0.98467123  0.00645117  0.67249629  1
  O  O21  1  0.51532877  0.99354883  0.17249629  1
  O  O22  1  0.31753780  0.26089198  0.44145554  1
  O  O23  1  0.18246220  0.73910802  0.94145554  1
  O  O24  1  0.68246220  0.73910802  0.55854446  1
  O  O25  1  0.81753780  0.26089198  0.05854446  1
  O  O26  1  0.87042443  0.22756025  0.45648825  1
  O  O27  1  0.62957557  0.77243975  0.95648825  1
  O  O28  1  0.12957557  0.77243975  0.54351175  1
  O  O29  1  0.37042443  0.22756025  0.04351175  1
  O  O30  1  0.10380394  0.43008389  0.31276160  1
  O  O31  1  0.39619606  0.56991611  0.81276160  1
  O  O32  1  0.89619606  0.56991611  0.68723840  1
  O  O33  1  0.60380394  0.43008389  0.18723840  1
  O  O34  1  0.47312180  0.81172534  0.36131464  1
  O  O35  1  0.02687820  0.18827466  0.86131464  1
  O  O36  1  0.52687820  0.18827466  0.63868536  1
  O  O37  1  0.97312180  0.81172534  0.13868536  1
