# generated using pymatgen
data_VPbOF5
_symmetry_space_group_name_H-M   'P 1'
_cell_length_a   5.02995614
_cell_length_b   9.48789391
_cell_length_c   9.99256703
_cell_angle_alpha   90.00000000
_cell_angle_beta   90.00000000
_cell_angle_gamma   90.00000000
_symmetry_Int_Tables_number   1
_chemical_formula_structural   VPbOF5
_chemical_formula_sum   'V4 Pb4 O4 F20'
_cell_volume   476.88217352
_cell_formula_units_Z   4
loop_
 _symmetry_equiv_pos_site_id
 _symmetry_equiv_pos_as_xyz
  1  'x, y, z'
loop_
 _atom_site_type_symbol
 _atom_site_label
 _atom_site_symmetry_multiplicity
 _atom_site_fract_x
 _atom_site_fract_y
 _atom_site_fract_z
 _atom_site_occupancy
  V  V0  1  0.89346579  0.25000000  0.05184147  1
  V  V1  1  0.10653421  0.75000000  0.94815853  1
  V  V2  1  0.89346579  0.75000000  0.44815853  1
  V  V3  1  0.10653421  0.25000000  0.55184147  1
  Pb  Pb4  1  0.55309531  0.50000000  0.75000000  1
  Pb  Pb5  1  0.44690469  -0.00000000  0.25000000  1
  Pb  Pb6  1  0.44690469  0.50000000  0.25000000  1
  Pb  Pb7  1  0.55309531  -0.00000000  0.75000000  1
  O  O8  1  0.13625316  0.25000000  0.94770312  1
  O  O9  1  0.86374684  0.75000000  0.05229688  1
  O  O10  1  0.13625316  0.75000000  0.55229688  1
  O  O11  1  0.86374684  0.25000000  0.44770312  1
  F  F12  1  0.43628926  0.75000000  0.80982935  1
  F  F13  1  0.56371074  0.25000000  0.19017065  1
  F  F14  1  0.43628926  0.25000000  0.69017065  1
  F  F15  1  0.56371074  0.75000000  0.30982935  1
  F  F16  1  0.98110984  0.38745177  0.67045484  1
  F  F17  1  0.01889016  0.88745177  0.32954516  1
  F  F18  1  0.98110984  0.61254823  0.82954516  1
  F  F19  1  0.01889016  0.11254823  0.17045484  1
  F  F20  1  0.01889016  0.61254823  0.32954516  1
  F  F21  1  0.98110984  0.11254823  0.67045484  1
  F  F22  1  0.01889016  0.38745177  0.17045484  1
  F  F23  1  0.98110984  0.88745177  0.82954516  1
  F  F24  1  0.68408233  0.38905246  0.97023398  1
  F  F25  1  0.31591767  0.88905246  0.02976602  1
  F  F26  1  0.68408233  0.61094754  0.52976602  1
  F  F27  1  0.31591767  0.11094754  0.47023398  1
  F  F28  1  0.31591767  0.61094754  0.02976602  1
  F  F29  1  0.68408233  0.11094754  0.97023398  1
  F  F30  1  0.31591767  0.38905246  0.47023398  1
  F  F31  1  0.68408233  0.88905246  0.52976602  1
