# generated using pymatgen
data_SbO2
_symmetry_space_group_name_H-M   'P 1'
_cell_length_a   5.58140726
_cell_length_b   6.06620917
_cell_length_c   10.49122473
_cell_angle_alpha   90.00000000
_cell_angle_beta   90.00000000
_cell_angle_gamma   90.00000000
_symmetry_Int_Tables_number   1
_chemical_formula_structural   SbO2
_chemical_formula_sum   'Sb8 O16'
_cell_volume   355.21171802
_cell_formula_units_Z   8
loop_
 _symmetry_equiv_pos_site_id
 _symmetry_equiv_pos_as_xyz
  1  'x, y, z'
loop_
 _atom_site_type_symbol
 _atom_site_label
 _atom_site_symmetry_multiplicity
 _atom_site_fract_x
 _atom_site_fract_y
 _atom_site_fract_z
 _atom_site_occupancy
  Sb  Sb0  1  0.15221171  -0.00000000  0.00000000  1
  Sb  Sb1  1  0.84778829  0.00000000  0.50000000  1
  Sb  Sb2  1  0.00000000  0.59587433  0.25000000  1
  Sb  Sb3  1  0.50000000  0.90412567  0.25000000  1
  Sb  Sb4  1  0.34778829  0.50000000  0.50000000  1
  Sb  Sb5  1  0.00000000  0.40412567  0.75000000  1
  Sb  Sb6  1  0.65221171  0.50000000  0.00000000  1
  Sb  Sb7  1  0.50000000  0.09587433  0.75000000  1
  O  O8  1  0.39285465  0.87242203  0.87243804  1
  O  O9  1  0.89285465  0.62757797  0.87243804  1
  O  O10  1  0.27089098  0.29438687  0.86597208  1
  O  O11  1  0.72910902  0.29438687  0.63402792  1
  O  O12  1  0.10714535  0.37242203  0.37243804  1
  O  O13  1  0.22910902  0.79438687  0.36597208  1
  O  O14  1  0.39285465  0.12757797  0.12756196  1
  O  O15  1  0.77089098  0.20561313  0.86597208  1
  O  O16  1  0.89285465  0.37242203  0.12756196  1
  O  O17  1  0.60714535  0.12757797  0.37243804  1
  O  O18  1  0.77089098  0.79438687  0.13402792  1
  O  O19  1  0.22910902  0.20561313  0.63402792  1
  O  O20  1  0.10714535  0.62757797  0.62756196  1
  O  O21  1  0.27089098  0.70561313  0.13402792  1
  O  O22  1  0.60714535  0.87242203  0.62756196  1
  O  O23  1  0.72910902  0.70561313  0.36597208  1
