# generated using pymatgen
data_RbNa2B6BrO10
_symmetry_space_group_name_H-M   'P 1'
_cell_length_a   8.47115412
_cell_length_b   9.70586374
_cell_length_c   12.90317359
_cell_angle_alpha   90.00000000
_cell_angle_beta   90.00000000
_cell_angle_gamma   90.00000000
_symmetry_Int_Tables_number   1
_chemical_formula_structural   RbNa2B6BrO10
_chemical_formula_sum   'Rb4 Na8 B24 Br4 O40'
_cell_volume   1060.89722431
_cell_formula_units_Z   4
loop_
 _symmetry_equiv_pos_site_id
 _symmetry_equiv_pos_as_xyz
  1  'x, y, z'
loop_
 _atom_site_type_symbol
 _atom_site_label
 _atom_site_symmetry_multiplicity
 _atom_site_fract_x
 _atom_site_fract_y
 _atom_site_fract_z
 _atom_site_occupancy
  Rb  Rb0  1  0.50000000  -0.00000000  -0.00000000  1
  Rb  Rb1  1  -0.00000000  0.50000000  0.50000000  1
  Rb  Rb2  1  0.50000000  0.50000000  -0.00000000  1
  Rb  Rb3  1  -0.00000000  -0.00000000  0.50000000  1
  Na  Na4  1  0.76674617  0.75000000  0.29513037  1
  Na  Na5  1  0.73325383  0.75000000  0.79513037  1
  Na  Na6  1  0.23325383  0.25000000  0.70486963  1
  Na  Na7  1  0.26674617  0.25000000  0.20486963  1
  Na  Na8  1  -0.00000000  -0.00000000  -0.00000000  1
  Na  Na9  1  0.50000000  0.50000000  0.50000000  1
  Na  Na10  1  -0.00000000  0.50000000  -0.00000000  1
  Na  Na11  1  0.50000000  -0.00000000  0.50000000  1
  B  B12  1  0.88875056  0.25000000  0.17135761  1
  B  B13  1  0.61124944  0.25000000  0.67135761  1
  B  B14  1  0.11124944  0.75000000  0.82864239  1
  B  B15  1  0.38875056  0.75000000  0.32864239  1
  B  B16  1  0.96266927  0.01292881  0.23409160  1
  B  B17  1  0.53733073  0.48707119  0.73409160  1
  B  B18  1  0.03733073  0.51292881  0.76590840  1
  B  B19  1  0.46266927  0.98707119  0.26590840  1
  B  B20  1  0.03733073  0.98707119  0.76590840  1
  B  B21  1  0.46266927  0.51292881  0.26590840  1
  B  B22  1  0.96266927  0.48707119  0.23409160  1
  B  B23  1  0.53733073  0.01292881  0.73409160  1
  B  B24  1  0.71544726  0.11492029  0.30961564  1
  B  B25  1  0.78455274  0.38507971  0.80961564  1
  B  B26  1  0.28455274  0.61492029  0.69038436  1
  B  B27  1  0.21544726  0.88507971  0.19038436  1
  B  B28  1  0.28455274  0.88507971  0.69038436  1
  B  B29  1  0.21544726  0.61492029  0.19038436  1
  B  B30  1  0.71544726  0.38507971  0.30961564  1
  B  B31  1  0.78455274  0.11492029  0.80961564  1
  B  B32  1  0.80127719  0.25000000  0.97642324  1
  B  B33  1  0.69872281  0.25000000  0.47642324  1
  B  B34  1  0.19872281  0.75000000  0.02357676  1
  B  B35  1  0.30127719  0.75000000  0.52357676  1
  Br  Br36  1  0.76255547  0.75000000  0.05318827  1
  Br  Br37  1  0.73744453  0.75000000  0.55318827  1
  Br  Br38  1  0.23744453  0.25000000  0.94681173  1
  Br  Br39  1  0.26255547  0.25000000  0.44681173  1
  O  O40  1  0.82651930  0.00175110  0.29184035  1
  O  O41  1  0.67348070  0.49824890  0.79184035  1
  O  O42  1  0.17348070  0.50175110  0.70815965  1
  O  O43  1  0.32651930  0.99824890  0.20815965  1
  O  O44  1  0.17348070  0.99824890  0.70815965  1
  O  O45  1  0.32651930  0.50175110  0.20815965  1
  O  O46  1  0.82651930  0.49824890  0.29184035  1
  O  O47  1  0.67348070  0.00175110  0.79184035  1
  O  O48  1  0.49296942  0.87277482  0.32687523  1
  O  O49  1  0.00703058  0.62722518  0.82687523  1
  O  O50  1  0.50703058  0.37277482  0.67312477  1
  O  O51  1  0.99296942  0.12722518  0.17312477  1
  O  O52  1  0.50703058  0.12722518  0.67312477  1
  O  O53  1  0.99296942  0.37277482  0.17312477  1
  O  O54  1  0.49296942  0.62722518  0.32687523  1
  O  O55  1  0.00703058  0.87277482  0.82687523  1
  O  O56  1  0.78882032  0.25000000  0.27027901  1
  O  O57  1  0.71117968  0.25000000  0.77027901  1
  O  O58  1  0.21117968  0.75000000  0.72972099  1
  O  O59  1  0.28882032  0.75000000  0.22972099  1
  O  O60  1  0.78619530  0.25000000  0.08195814  1
  O  O61  1  0.71380470  0.25000000  0.58195814  1
  O  O62  1  0.21380470  0.75000000  0.91804186  1
  O  O63  1  0.28619530  0.75000000  0.41804186  1
  O  O64  1  0.69785498  0.12669159  0.42354270  1
  O  O65  1  0.80214502  0.37330841  0.92354270  1
  O  O66  1  0.30214502  0.62669159  0.57645730  1
  O  O67  1  0.19785498  0.87330841  0.07645730  1
  O  O68  1  0.30214502  0.87330841  0.57645730  1
  O  O69  1  0.19785498  0.62669159  0.07645730  1
  O  O70  1  0.69785498  0.37330841  0.42354270  1
  O  O71  1  0.80214502  0.12669159  0.92354270  1
  O  O72  1  0.06531553  0.90520727  0.24200258  1
  O  O73  1  0.43468447  0.59479273  0.74200258  1
  O  O74  1  0.93468447  0.40520727  0.75799742  1
  O  O75  1  0.56531553  0.09479273  0.25799742  1
  O  O76  1  0.93468447  0.09479273  0.75799742  1
  O  O77  1  0.56531553  0.40520727  0.25799742  1
  O  O78  1  0.06531553  0.59479273  0.24200258  1
  O  O79  1  0.43468447  0.90520727  0.74200258  1
