# generated using pymatgen
data_CaLaMgAl2Si3HO13
_symmetry_space_group_name_H-M   'P 1'
_cell_length_a   5.74327483
_cell_length_b   8.99215943
_cell_length_c   10.17083251
_cell_angle_alpha   114.40624914
_cell_angle_beta   90.00000000
_cell_angle_gamma   90.00000000
_symmetry_Int_Tables_number   1
_chemical_formula_structural   CaLaMgAl2Si3HO13
_chemical_formula_sum   'Ca2 La2 Mg2 Al4 Si6 H2 O26'
_cell_volume   478.32838586
_cell_formula_units_Z   2
loop_
 _symmetry_equiv_pos_site_id
 _symmetry_equiv_pos_as_xyz
  1  'x, y, z'
loop_
 _atom_site_type_symbol
 _atom_site_label
 _atom_site_symmetry_multiplicity
 _atom_site_fract_x
 _atom_site_fract_y
 _atom_site_fract_z
 _atom_site_occupancy
  Ca  Ca0  1  0.25000000  0.23818777  0.84778767  1
  Ca  Ca1  1  0.75000000  0.76181223  0.15221233  1
  La  La2  1  0.25000000  0.40637003  0.57203816  1
  La  La3  1  0.75000000  0.59362997  0.42796184  1
  Mg  Mg4  1  0.75000000  0.70397498  0.79081711  1
  Mg  Mg5  1  0.25000000  0.29602502  0.20918289  1
  Al  Al6  1  0.50000000  0.00000000  -0.00000000  1
  Al  Al7  1  -0.00000000  0.00000000  -0.00000000  1
  Al  Al8  1  0.50000000  0.00000000  0.50000000  1
  Al  Al9  1  0.00000000  0.00000000  0.50000000  1
  Si  Si10  1  0.25000000  0.66348476  0.96115349  1
  Si  Si11  1  0.75000000  0.33651524  0.03884651  1
  Si  Si12  1  0.75000000  0.31365487  0.71763292  1
  Si  Si13  1  0.25000000  0.68634513  0.28236708  1
  Si  Si14  1  0.25000000  0.81470456  0.68027545  1
  Si  Si15  1  0.75000000  0.18529544  0.31972455  1
  H  H16  1  0.75000000  0.94083561  0.68211165  1
  H  H17  1  0.25000000  0.05916439  0.31788835  1
  O  O18  1  0.49237874  0.76525540  0.96727262  1
  O  O19  1  0.99237874  0.23474460  0.03272738  1
  O  O20  1  0.50762126  0.23474460  0.03272738  1
  O  O21  1  0.00762126  0.76525540  0.96727262  1
  O  O22  1  0.47458739  0.69083630  0.64065213  1
  O  O23  1  0.97458739  0.30916370  0.35934787  1
  O  O24  1  0.52541261  0.30916370  0.35934787  1
  O  O25  1  0.02541261  0.69083630  0.64065213  1
  O  O26  1  0.51143351  0.20388166  0.65870037  1
  O  O27  1  0.01143351  0.79611834  0.34129963  1
  O  O28  1  0.48856649  0.79611834  0.34129963  1
  O  O29  1  0.98856649  0.20388166  0.65870037  1
  O  O30  1  0.75000000  0.95004107  0.87471427  1
  O  O31  1  0.25000000  0.04995893  0.12528573  1
  O  O32  1  0.25000000  0.95491673  0.85094507  1
  O  O33  1  0.75000000  0.04508327  0.14905493  1
  O  O34  1  0.25000000  0.93331534  0.59023240  1
  O  O35  1  0.75000000  0.06668466  0.40976760  1
  O  O36  1  0.25000000  0.48983657  0.82243583  1
  O  O37  1  0.75000000  0.51016343  0.17756417  1
  O  O38  1  0.75000000  0.46178405  0.66819953  1
  O  O39  1  0.25000000  0.53821595  0.33180047  1
  O  O40  1  0.75000000  0.38125814  0.89567711  1
  O  O41  1  0.25000000  0.61874186  0.10432289  1
  O  O42  1  0.75000000  0.91905262  0.57728653  1
  O  O43  1  0.25000000  0.08094738  0.42271347  1
