# generated using pymatgen
data_B10H14S
_symmetry_space_group_name_H-M   'P 1'
_cell_length_a   7.70666865
_cell_length_b   11.63604837
_cell_length_c   13.98580234
_cell_angle_alpha   90.00000000
_cell_angle_beta   90.00000000
_cell_angle_gamma   90.00000000
_symmetry_Int_Tables_number   1
_chemical_formula_structural   B10H14S
_chemical_formula_sum   'B40 H56 S4'
_cell_volume   1254.17919100
_cell_formula_units_Z   4
loop_
 _symmetry_equiv_pos_site_id
 _symmetry_equiv_pos_as_xyz
  1  'x, y, z'
loop_
 _atom_site_type_symbol
 _atom_site_label
 _atom_site_symmetry_multiplicity
 _atom_site_fract_x
 _atom_site_fract_y
 _atom_site_fract_z
 _atom_site_occupancy
  B  B0  1  0.24360835  0.60109921  0.64019293  1
  B  B1  1  0.25639165  0.39890079  0.14019293  1
  B  B2  1  0.74360835  0.89890079  0.35980707  1
  B  B3  1  0.75639165  0.10109921  0.85980707  1
  B  B4  1  0.01515336  0.58491796  0.65199337  1
  B  B5  1  0.48484664  0.41508204  0.15199337  1
  B  B6  1  0.51515336  0.91508204  0.34800663  1
  B  B7  1  0.98484664  0.08491796  0.84800663  1
  B  B8  1  0.12811266  0.51039783  0.55963891  1
  B  B9  1  0.37188734  0.48960217  0.05963891  1
  B  B10  1  0.62811266  0.98960217  0.44036109  1
  B  B11  1  0.87188734  0.01039783  0.94036109  1
  B  B12  1  0.34980106  0.48335234  0.58515824  1
  B  B13  1  0.15019894  0.51664766  0.08515824  1
  B  B14  1  0.84980106  0.01664766  0.41484176  1
  B  B15  1  0.65019894  0.98335234  0.91484176  1
  B  B16  1  0.15835305  0.57849014  0.75425727  1
  B  B17  1  0.34164695  0.42150986  0.25425727  1
  B  B18  1  0.65835305  0.92150986  0.24574273  1
  B  B19  1  0.84164695  0.07849014  0.74574273  1
  B  B20  1  0.96864475  0.49157547  0.74465463  1
  B  B21  1  0.53135525  0.50842453  0.24465463  1
  B  B22  1  0.46864475  0.00842453  0.25534537  1
  B  B23  1  0.03135525  0.99157547  0.75534537  1
  B  B24  1  0.97332215  0.43534816  0.62601867  1
  B  B25  1  0.52667785  0.56465184  0.12601867  1
  B  B26  1  0.47332215  0.06465184  0.37398133  1
  B  B27  1  0.02667785  0.93534816  0.87398133  1
  B  B28  1  0.19389381  0.36909810  0.58248504  1
  B  B29  1  0.30610619  0.63090190  0.08248504  1
  B  B30  1  0.69389381  0.13090190  0.41751496  1
  B  B31  1  0.80610619  0.86909810  0.91751496  1
  B  B32  1  0.37030690  0.36984083  0.66411974  1
  B  B33  1  0.12969310  0.63015917  0.16411974  1
  B  B34  1  0.87030690  0.13015917  0.33588026  1
  B  B35  1  0.62969310  0.86984083  0.83588026  1
  B  B36  1  0.37685416  0.51235573  0.71028474  1
  B  B37  1  0.12314584  0.48764427  0.21028474  1
  B  B38  1  0.87685416  0.98764427  0.28971526  1
  B  B39  1  0.62314584  0.01235573  0.78971526  1
  H  H40  1  0.29852431  0.69571950  0.62696618  1
  H  H41  1  0.20147569  0.30428050  0.12696618  1
  H  H42  1  0.79852431  0.80428050  0.37303382  1
  H  H43  1  0.70147569  0.19571950  0.87303382  1
  H  H44  1  0.94924510  0.75985022  0.55977137  1
  H  H45  1  0.55075490  0.24014978  0.05977137  1
  H  H46  1  0.44924510  0.74014978  0.44022863  1
  H  H47  1  0.05075490  0.25985022  0.94022863  1
  H  H48  1  0.08619777  0.52897926  0.47883958  1
  H  H49  1  0.41380223  0.47102074  0.97883958  1
  H  H50  1  0.58619777  0.97102074  0.52116042  1
  H  H51  1  0.91380223  0.02897926  0.02116042  1
  H  H52  1  0.45770847  0.50021025  0.52573135  1
  H  H53  1  0.04229153  0.49978975  0.02573135  1
  H  H54  1  0.95770847  0.99978975  0.47426865  1
  H  H55  1  0.54229153  0.00021025  0.97426865  1
  H  H56  1  0.16667211  0.64817476  0.81636272  1
  H  H57  1  0.33332789  0.35182524  0.31636272  1
  H  H58  1  0.66667211  0.85182524  0.18363728  1
  H  H59  1  0.83332789  0.14817476  0.68363728  1
  H  H60  1  0.84892407  0.49087252  0.79806723  1
  H  H61  1  0.65107593  0.50912748  0.29806723  1
  H  H62  1  0.34892407  0.00912748  0.20193277  1
  H  H63  1  0.15107593  0.99087252  0.70193277  1
  H  H64  1  0.84326168  0.39861440  0.59195675  1
  H  H65  1  0.65673832  0.60138560  0.09195675  1
  H  H66  1  0.34326168  0.10138560  0.40804325  1
  H  H67  1  0.15673832  0.89861440  0.90804325  1
  H  H68  1  0.18710805  0.29551418  0.52358077  1
  H  H69  1  0.31289195  0.70448582  0.02358077  1
  H  H70  1  0.68710805  0.20448582  0.47641923  1
  H  H71  1  0.81289195  0.79551418  0.97641923  1
  H  H72  1  0.48001583  0.29895262  0.67017723  1
  H  H73  1  0.01998417  0.70104738  0.17017723  1
  H  H74  1  0.98001583  0.20104738  0.32982277  1
  H  H75  1  0.51998417  0.79895262  0.82982277  1
  H  H76  1  0.50489109  0.54751333  0.74739189  1
  H  H77  1  0.99510891  0.45248667  0.24739189  1
  H  H78  1  0.00489109  0.95248667  0.25260811  1
  H  H79  1  0.49510891  0.04751333  0.75260811  1
  H  H80  1  0.11251801  0.48248598  0.79813368  1
  H  H81  1  0.38748199  0.51751402  0.29813368  1
  H  H82  1  0.61251801  0.01751402  0.20186632  1
  H  H83  1  0.88748199  0.98248598  0.70186632  1
  H  H84  1  0.98650949  0.38456284  0.71077352  1
  H  H85  1  0.51349051  0.61543716  0.21077352  1
  H  H86  1  0.48650949  0.11543716  0.28922648  1
  H  H87  1  0.01349051  0.88456284  0.78922648  1
  H  H88  1  0.21556628  0.31518043  0.66502390  1
  H  H89  1  0.28443372  0.68481957  0.16502390  1
  H  H90  1  0.71556628  0.18481957  0.33497610  1
  H  H91  1  0.78443372  0.81518043  0.83497610  1
  H  H92  1  0.34510011  0.41251301  0.75256156  1
  H  H93  1  0.15489989  0.58748699  0.25256156  1
  H  H94  1  0.84510011  0.08748699  0.24743844  1
  H  H95  1  0.65489989  0.91251301  0.74743844  1
  S  S96  1  0.85598478  0.70386286  0.62699501  1
  S  S97  1  0.64401522  0.29613714  0.12699501  1
  S  S98  1  0.35598478  0.79613714  0.37300499  1
  S  S99  1  0.14401522  0.20386286  0.87300499  1
