# generated using pymatgen
data_Na2FeH8(SO6)2
_symmetry_space_group_name_H-M   'P 1'
_cell_length_a   5.64139043
_cell_length_b   8.36174904
_cell_length_c   11.27613715
_cell_angle_alpha   90.00000000
_cell_angle_beta   99.91427439
_cell_angle_gamma   90.00000000
_symmetry_Int_Tables_number   1
_chemical_formula_structural   Na2FeH8(SO6)2
_chemical_formula_sum   'Na4 Fe2 H16 S4 O24'
_cell_volume   523.97331443
_cell_formula_units_Z   2
loop_
 _symmetry_equiv_pos_site_id
 _symmetry_equiv_pos_as_xyz
  1  'x, y, z'
loop_
 _atom_site_type_symbol
 _atom_site_label
 _atom_site_symmetry_multiplicity
 _atom_site_fract_x
 _atom_site_fract_y
 _atom_site_fract_z
 _atom_site_occupancy
  Na  Na0  1  0.62664371  0.93201920  0.36054537  1
  Na  Na1  1  0.37335629  0.43201920  0.13945463  1
  Na  Na2  1  0.37335629  0.06798080  0.63945463  1
  Na  Na3  1  0.62664371  0.56798080  0.86054537  1
  Fe  Fe4  1  0.50000000  0.00000000  0.00000000  1
  Fe  Fe5  1  0.50000000  0.50000000  0.50000000  1
  H  H6  1  0.26691078  0.86381417  0.15658233  1
  H  H7  1  0.73308922  0.36381417  0.34341767  1
  H  H8  1  0.73308922  0.13618583  0.84341767  1
  H  H9  1  0.26691078  0.63618583  0.65658233  1
  H  H10  1  0.26545661  0.05274887  0.18540529  1
  H  H11  1  0.73454339  0.55274887  0.31459471  1
  H  H12  1  0.73454339  0.94725113  0.81459471  1
  H  H13  1  0.26545661  0.44725113  0.68540529  1
  H  H14  1  0.17921938  0.80112867  0.85256294  1
  H  H15  1  0.82078062  0.30112867  0.64743706  1
  H  H16  1  0.82078062  0.19887133  0.14743706  1
  H  H17  1  0.17921938  0.69887133  0.35256294  1
  H  H18  1  0.25824860  0.72095804  0.97686164  1
  H  H19  1  0.74175140  0.22095804  0.52313836  1
  H  H20  1  0.74175140  0.27904196  0.02313836  1
  H  H21  1  0.25824860  0.77904196  0.47686164  1
  S  S22  1  0.87329284  0.71275860  0.13451969  1
  S  S23  1  0.12670716  0.21275860  0.36548031  1
  S  S24  1  0.12670716  0.28724140  0.86548031  1
  S  S25  1  0.87329284  0.78724140  0.63451969  1
  O  O26  1  0.81347789  0.87013331  0.07404818  1
  O  O27  1  0.18652211  0.37013331  0.42595182  1
  O  O28  1  0.18652211  0.12986669  0.92595182  1
  O  O29  1  0.81347789  0.62986669  0.57404818  1
  O  O30  1  0.71449298  0.58448170  0.07609973  1
  O  O31  1  0.28550702  0.08448170  0.42390027  1
  O  O32  1  0.28550702  0.41551830  0.92390027  1
  O  O33  1  0.71449298  0.91551830  0.57609973  1
  O  O34  1  0.13225982  0.67702031  0.12807441  1
  O  O35  1  0.86774018  0.17702031  0.37192559  1
  O  O36  1  0.86774018  0.32297969  0.87192559  1
  O  O37  1  0.13225982  0.82297969  0.62807441  1
  O  O38  1  0.85251788  0.72493094  0.26542279  1
  O  O39  1  0.14748212  0.22493094  0.23457721  1
  O  O40  1  0.14748212  0.27506906  0.73457721  1
  O  O41  1  0.85251788  0.77506906  0.76542279  1
  O  O42  1  0.36829682  0.96227781  0.16613459  1
  O  O43  1  0.63170318  0.46227781  0.33386541  1
  O  O44  1  0.63170318  0.03772219  0.83386541  1
  O  O45  1  0.36829682  0.53772219  0.66613459  1
  O  O46  1  0.32238503  0.78337923  0.91538550  1
  O  O47  1  0.67761497  0.28337923  0.58461450  1
  O  O48  1  0.67761497  0.21662077  0.08461450  1
  O  O49  1  0.32238503  0.71662077  0.41538550  1
