# generated using pymatgen
data_Ba3Li2B10(H3O11)2
_symmetry_space_group_name_H-M   'P 1'
_cell_length_a   6.85065032
_cell_length_b   6.85065032
_cell_length_c   20.82927311
_cell_angle_alpha   94.09363940
_cell_angle_beta   96.97922650
_cell_angle_gamma   114.42506486
_symmetry_Int_Tables_number   1
_chemical_formula_structural   Ba3Li2B10(H3O11)2
_chemical_formula_sum   'Ba6 Li4 B20 H12 O44'
_cell_volume   875.42676995
_cell_formula_units_Z   2
loop_
 _symmetry_equiv_pos_site_id
 _symmetry_equiv_pos_as_xyz
  1  'x, y, z'
loop_
 _atom_site_type_symbol
 _atom_site_label
 _atom_site_symmetry_multiplicity
 _atom_site_fract_x
 _atom_site_fract_y
 _atom_site_fract_z
 _atom_site_occupancy
  Ba  Ba0  1  0.45864213  0.07602336  0.59575525  1
  Ba  Ba1  1  0.98026811  0.86288689  0.90424475  1
  Ba  Ba2  1  0.54135787  0.92397664  0.40424475  1
  Ba  Ba3  1  0.01973189  0.13711311  0.09575525  1
  Ba  Ba4  1  0.49793132  0.74793132  0.75000000  1
  Ba  Ba5  1  0.50206868  0.25206868  0.25000000  1
  Li  Li6  1  0.81227369  0.81451799  0.53932725  1
  Li  Li7  1  0.77519074  0.27294644  0.96067275  1
  Li  Li8  1  0.18772631  0.18548201  0.46067275  1
  Li  Li9  1  0.22480926  0.72705356  0.03932725  1
  B  B10  1  0.01858641  0.58581833  0.63239730  1
  B  B11  1  0.45342103  0.38618911  0.86760270  1
  B  B12  1  0.98141359  0.41418167  0.36760270  1
  B  B13  1  0.54657897  0.61381089  0.13239730  1
  B  B14  1  0.92599333  0.59779801  0.74693110  1
  B  B15  1  0.35086690  0.17906223  0.75306890  1
  B  B16  1  0.07400667  0.40220199  0.25306890  1
  B  B17  1  0.64913310  0.82093777  0.24693110  1
  B  B18  1  0.34363441  0.54077531  0.58997365  1
  B  B19  1  0.45080166  0.75366076  0.91002635  1
  B  B20  1  0.65636559  0.45922469  0.41002635  1
  B  B21  1  0.54919834  0.24633924  0.08997365  1
  B  B22  1  0.95135249  0.26699908  0.54979456  1
  B  B23  1  0.21720452  0.40155793  0.95020544  1
  B  B24  1  0.04864751  0.73300092  0.45020544  1
  B  B25  1  0.78279548  0.59844207  0.04979456  1
  B  B26  1  0.97587852  0.91246963  0.68408476  1
  B  B27  1  0.72838488  0.29179376  0.81591524  1
  B  B28  1  0.02412148  0.08753037  0.31591524  1
  B  B29  1  0.27161512  0.70820624  0.18408476  1
  H  H30  1  0.36964661  0.62252953  0.50071072  1
  H  H31  1  0.62181881  0.86893588  0.99928928  1
  H  H32  1  0.63035339  0.37747047  0.49928928  1
  H  H33  1  0.37818119  0.13106412  0.00071072  1
  H  H34  1  0.65286022  0.58703551  0.62916789  1
  H  H35  1  0.45786762  0.02369233  0.87083211  1
  H  H36  1  0.34713978  0.41296449  0.37083211  1
  H  H37  1  0.54213238  0.97630767  0.12916789  1
  H  H38  1  0.90845809  0.17779719  0.68669715  1
  H  H39  1  0.99110004  0.22176094  0.81330285  1
  H  H40  1  0.09154191  0.82220281  0.31330285  1
  H  H41  1  0.00889996  0.77823906  0.18669715  1
  O  O42  1  0.24937294  0.66465791  0.62625614  1
  O  O43  1  0.53840177  0.62311681  0.87374386  1
  O  O44  1  0.75062706  0.33534209  0.37374386  1
  O  O45  1  0.46159823  0.37688319  0.12625614  1
  O  O46  1  0.93540140  0.75306614  0.62683688  1
  O  O47  1  0.62622926  0.30856452  0.87316312  1
  O  O48  1  0.06459860  0.24693386  0.37316312  1
  O  O49  1  0.37377074  0.69143548  0.12683688  1
  O  O50  1  0.17687616  0.33301633  0.55388726  1
  O  O51  1  0.27912907  0.62298890  0.94611274  1
  O  O52  1  0.82312384  0.66698367  0.44611274  1
  O  O53  1  0.72087093  0.37701110  0.05388726  1
  O  O54  1  0.91766327  0.79535253  0.74266712  1
  O  O55  1  0.55268542  0.17499616  0.75733288  1
  O  O56  1  0.08233673  0.20464747  0.25733288  1
  O  O57  1  0.44731458  0.82500384  0.24266712  1
  O  O58  1  0.87727679  0.40204748  0.58225590  1
  O  O59  1  0.31979158  0.29502089  0.91774410  1
  O  O60  1  0.12272321  0.59795252  0.41774410  1
  O  O61  1  0.68020842  0.70497911  0.08225590  1
  O  O62  1  0.47019051  0.67299147  0.54206276  1
  O  O63  1  0.63092871  0.92812775  0.95793724  1
  O  O64  1  0.52980949  0.32700853  0.45793724  1
  O  O65  1  0.36907129  0.07187225  0.04206276  1
  O  O66  1  0.50167208  0.50025681  0.63658155  1
  O  O67  1  0.36367526  0.86509052  0.86341845  1
  O  O68  1  0.49832792  0.49974319  0.36341845  1
  O  O69  1  0.63632474  0.13490948  0.13658155  1
  O  O70  1  0.86631913  0.51178608  0.80293176  1
  O  O71  1  0.20885432  0.06338737  0.69706824  1
  O  O72  1  0.13368087  0.48821392  0.19706824  1
  O  O73  1  0.79114568  0.93661263  0.30293176  1
  O  O74  1  0.83159774  0.02203326  0.67150760  1
  O  O75  1  0.85052566  0.16009014  0.82849240  1
  O  O76  1  0.16840226  0.97796674  0.32849240  1
  O  O77  1  0.14947434  0.83990986  0.17150760  1
  O  O78  1  0.80707948  0.07939973  0.51474431  1
  O  O79  1  0.06465542  0.29233517  0.98525569  1
  O  O80  1  0.19292052  0.92060027  0.48525569  1
  O  O81  1  0.93534458  0.70766483  0.01474431  1
  O  O82  1  0.99533233  0.50486968  0.69940096  1
  O  O83  1  0.30546872  0.29593137  0.80059904  1
  O  O84  1  0.00466767  0.49513032  0.30059904  1
  O  O85  1  0.69453128  0.70406863  0.19940096  1
