# generated using pymatgen
data_Sc5Sb3
_symmetry_space_group_name_H-M   'P 1'
_cell_length_a   7.66122066
_cell_length_b   8.77524657
_cell_length_c   11.18427682
_cell_angle_alpha   90.00000000
_cell_angle_beta   90.00000000
_cell_angle_gamma   90.00000000
_symmetry_Int_Tables_number   1
_chemical_formula_structural   Sc5Sb3
_chemical_formula_sum   'Sc20 Sb12'
_cell_volume   751.90886832
_cell_formula_units_Z   4
loop_
 _symmetry_equiv_pos_site_id
 _symmetry_equiv_pos_as_xyz
  1  'x, y, z'
loop_
 _atom_site_type_symbol
 _atom_site_label
 _atom_site_symmetry_multiplicity
 _atom_site_fract_x
 _atom_site_fract_y
 _atom_site_fract_z
 _atom_site_occupancy
  Sc  Sc0  1  0.69585152  0.93949749  0.43692298  1
  Sc  Sc1  1  0.80414848  0.56050251  0.93692298  1
  Sc  Sc2  1  0.30414848  0.43949749  0.56307702  1
  Sc  Sc3  1  0.19585152  0.06050251  0.06307702  1
  Sc  Sc4  1  0.30414848  0.06050251  0.56307702  1
  Sc  Sc5  1  0.19585152  0.43949749  0.06307702  1
  Sc  Sc6  1  0.69585152  0.56050251  0.43692298  1
  Sc  Sc7  1  0.80414848  0.93949749  0.93692298  1
  Sc  Sc8  1  0.32747876  0.75000000  0.27276734  1
  Sc  Sc9  1  0.17252124  0.75000000  0.77276734  1
  Sc  Sc10  1  0.67252124  0.25000000  0.72723266  1
  Sc  Sc11  1  0.82747876  0.25000000  0.22723266  1
  Sc  Sc12  1  0.02717693  0.75000000  0.49520941  1
  Sc  Sc13  1  0.47282307  0.75000000  0.99520941  1
  Sc  Sc14  1  0.97282307  0.25000000  0.50479059  1
  Sc  Sc15  1  0.52717693  0.25000000  0.00479059  1
  Sc  Sc16  1  0.84108829  0.75000000  0.21561358  1
  Sc  Sc17  1  0.65891171  0.75000000  0.71561358  1
  Sc  Sc18  1  0.15891171  0.25000000  0.78438642  1
  Sc  Sc19  1  0.34108829  0.25000000  0.28438642  1
  Sb  Sb20  1  0.09206853  0.75000000  0.02748138  1
  Sb  Sb21  1  0.40793147  0.75000000  0.52748138  1
  Sb  Sb22  1  0.90793147  0.25000000  0.97251862  1
  Sb  Sb23  1  0.59206853  0.25000000  0.47251862  1
  Sb  Sb24  1  0.56535758  0.99011791  0.17451747  1
  Sb  Sb25  1  0.93464242  0.50988209  0.67451747  1
  Sb  Sb26  1  0.43464242  0.49011791  0.82548253  1
  Sb  Sb27  1  0.06535758  0.00988209  0.32548253  1
  Sb  Sb28  1  0.43464242  0.00988209  0.82548253  1
  Sb  Sb29  1  0.06535758  0.49011791  0.32548253  1
  Sb  Sb30  1  0.56535758  0.50988209  0.17451747  1
  Sb  Sb31  1  0.93464242  0.99011791  0.67451747  1
