# generated using pymatgen
data_Ta3Bi7O18
_symmetry_space_group_name_H-M   'P 1'
_cell_length_a   6.70362926
_cell_length_b   7.67769168
_cell_length_c   16.78345439
_cell_angle_alpha   103.17290228
_cell_angle_beta   93.95018785
_cell_angle_gamma   90.06888780
_symmetry_Int_Tables_number   1
_chemical_formula_structural   Ta3Bi7O18
_chemical_formula_sum   'Ta6 Bi14 O36'
_cell_volume   838.96252836
_cell_formula_units_Z   2
loop_
 _symmetry_equiv_pos_site_id
 _symmetry_equiv_pos_as_xyz
  1  'x, y, z'
loop_
 _atom_site_type_symbol
 _atom_site_label
 _atom_site_symmetry_multiplicity
 _atom_site_fract_x
 _atom_site_fract_y
 _atom_site_fract_z
 _atom_site_occupancy
  Ta  Ta0  1  0.09504236  0.81563244  0.12217057  1
  Ta  Ta1  1  0.10040177  0.31122777  0.11825712  1
  Ta  Ta2  1  0.50257338  0.49793176  0.49826384  1
  Ta  Ta3  1  0.86458489  0.69715247  0.89699755  1
  Ta  Ta4  1  0.49711023  0.00177954  0.50055570  1
  Ta  Ta5  1  0.86220319  0.19913105  0.89552022  1
  Bi  Bi6  1  0.80358228  0.89912992  0.32229392  1
  Bi  Bi7  1  0.29102414  0.16229826  0.32375155  1
  Bi  Bi8  1  0.30206473  0.64837076  0.29438815  1
  Bi  Bi9  1  0.14174695  0.11070125  0.72220061  1
  Bi  Bi10  1  0.67326583  0.35646159  0.70815040  1
  Bi  Bi11  1  0.14770380  0.61133763  0.72346931  1
  Bi  Bi12  1  0.80489848  0.39236740  0.29252563  1
  Bi  Bi13  1  0.63716971  0.56811910  0.11076879  1
  Bi  Bi14  1  0.02644142  0.74544649  0.50087449  1
  Bi  Bi15  1  0.39413623  0.95064842  0.89633588  1
  Bi  Bi16  1  0.96736631  0.25879392  0.50631524  1
  Bi  Bi17  1  0.33603493  0.45434975  0.90693805  1
  Bi  Bi18  1  0.67370321  0.83919691  0.68252921  1
  Bi  Bi19  1  0.57671876  0.05751193  0.11824999  1
  O  O20  1  0.03733147  0.57372588  0.14263559  1
  O  O21  1  0.13236780  0.33424892  0.24247476  1
  O  O22  1  0.83304583  0.66982900  0.76839144  1
  O  O23  1  0.13416369  0.91523342  0.24290851  1
  O  O24  1  0.83562381  0.09561429  0.76925380  1
  O  O25  1  0.16361191  0.14684725  0.86577116  1
  O  O26  1  0.37500721  0.75843941  0.10851120  1
  O  O27  1  0.37114290  0.35947457  0.10406805  1
  O  O28  1  0.79703276  0.28686086  0.14974302  1
  O  O29  1  0.97477581  0.28364786  0.00622843  1
  O  O30  1  0.46735413  0.76479500  0.52786512  1
  O  O31  1  0.63719518  0.61586668  0.24070548  1
  O  O32  1  0.79622505  0.53059411  0.48388081  1
  O  O33  1  0.14639908  0.05262188  0.09989059  1
  O  O34  1  0.79230390  0.93862863  0.46612323  1
  O  O35  1  0.98407554  0.33580000  0.66877189  1
  O  O36  1  0.00054837  0.67695466  0.35231857  1
  O  O37  1  0.80601235  0.95425603  0.90813935  1
  O  O38  1  0.56038443  0.13559513  0.24668779  1
  O  O39  1  0.59822340  0.09853208  0.61532711  1
  O  O40  1  0.40570876  0.88644335  0.76835735  1
  O  O41  1  0.57019704  0.51733272  0.61970685  1
  O  O42  1  0.91055545  0.43413033  0.86748193  1
  O  O43  1  0.99217210  0.82846815  0.64109939  1
  O  O44  1  0.32507503  0.39288444  0.77658549  1
  O  O45  1  0.58213944  0.25057203  0.90619463  1
  O  O46  1  0.16380455  0.72218515  0.86409637  1
  O  O47  1  0.55453114  0.23686128  0.47233322  1
  O  O48  1  0.79394384  0.85909181  0.14230871  1
  O  O49  1  0.58526525  0.65785238  0.91032131  1
  O  O50  1  0.44324135  0.89894108  0.37613173  1
  O  O51  1  0.44844916  0.48754719  0.37796359  1
  O  O52  1  0.22147248  0.05773243  0.51353110  1
  O  O53  1  0.96231300  0.17842092  0.37023439  1
  O  O54  1  0.21571652  0.45773283  0.50836899  1
  O  O55  1  0.98727768  0.72325993  0.00463282  1
