# generated using pymatgen
data_Li5Ca9B7O21F2
_symmetry_space_group_name_H-M   'P 1'
_cell_length_a   3.60982451
_cell_length_b   12.96559123
_cell_length_c   12.96627620
_cell_angle_alpha   60.13108027
_cell_angle_beta   88.45754353
_cell_angle_gamma   88.46534637
_symmetry_Int_Tables_number   1
_chemical_formula_structural   Li5Ca9B7O21F2
_chemical_formula_sum   'Li5 Ca9 B7 O21 F2'
_cell_volume   526.00192766
_cell_formula_units_Z   1
loop_
 _symmetry_equiv_pos_site_id
 _symmetry_equiv_pos_as_xyz
  1  'x, y, z'
loop_
 _atom_site_type_symbol
 _atom_site_label
 _atom_site_symmetry_multiplicity
 _atom_site_fract_x
 _atom_site_fract_y
 _atom_site_fract_z
 _atom_site_occupancy
  Li  Li0  1  0.03038744  0.90747667  0.04583454  1
  Li  Li1  1  0.10043105  0.06268934  0.36644798  1
  Li  Li2  1  0.04590260  0.38633478  0.89194484  1
  Li  Li3  1  0.56272228  0.47366628  0.41489624  1
  Li  Li4  1  0.05946157  0.80922569  0.75325540  1
  Ca  Ca5  1  0.05464470  0.24031912  0.61363030  1
  Ca  Ca6  1  0.08371087  0.48619114  0.21632279  1
  Ca  Ca7  1  0.57291913  0.00780701  0.58756188  1
  Ca  Ca8  1  0.55743622  0.74619315  0.98324090  1
  Ca  Ca9  1  0.04068570  0.63682050  0.47152979  1
  Ca  Ca10  1  0.54579725  0.61037074  0.73085807  1
  Ca  Ca11  1  0.62961514  0.27341011  0.15848062  1
  Ca  Ca12  1  0.53509565  0.18178922  0.88611883  1
  Ca  Ca13  1  0.51200147  0.90731814  0.25502880  1
  B  B14  1  0.05184253  0.99787381  0.81528515  1
  B  B15  1  0.04811821  0.83434668  0.51153292  1
  B  B16  1  0.07684296  0.52794591  0.97913571  1
  B  B17  1  0.54849199  0.70664947  0.22237231  1
  B  B18  1  0.05821785  0.11677130  0.10270792  1
  B  B19  1  0.53946146  0.41283857  0.68908698  1
  B  B20  1  0.58988404  0.23949326  0.39216584  1
  O  O21  1  0.61393105  0.14111558  0.37563336  1
  O  O22  1  0.53269115  0.39651562  0.80380237  1
  O  O23  1  0.53150382  0.81961545  0.12322152  1
  O  O24  1  0.54463165  0.69376800  0.33555569  1
  O  O25  1  0.54115871  0.31231386  0.67643213  1
  O  O26  1  0.56349429  0.22184414  0.50651656  1
  O  O27  1  0.56866278  0.60691386  0.20894696  1
  O  O28  1  0.59216234  0.35241261  0.29268437  1
  O  O29  1  0.54564629  0.52677676  0.59237770  1
  O  O30  1  0.12114974  0.41032275  0.07225378  1
  O  O31  1  0.04648090  0.71663335  0.60251191  1
  O  O32  1  0.04715315  0.09196583  0.83890221  1
  O  O33  1  0.05992732  0.02364550  0.69716291  1
  O  O34  1  0.08936160  0.92504825  0.53760144  1
  O  O35  1  0.01091030  0.85915226  0.39438140  1
  O  O36  1  0.04808437  0.88085453  0.90605846  1
  O  O37  1  0.07104506  0.61831657  0.00770407  1
  O  O38  1  0.00474897  0.00467640  0.11865816  1
  O  O39  1  0.98623110  0.21685865  0.99408383  1
  O  O40  1  0.18533780  0.12872595  0.19627105  1
  O  O41  1  0.03659534  0.55228001  0.86391032  1
  F  F42  1  0.06276264  0.45425026  0.43404303  1
  F  F43  1  0.55915952  0.78874296  0.76806896  1
