# generated using pymatgen
data_RbBi3S5
_symmetry_space_group_name_H-M   'P 1'
_cell_length_a   13.13753019
_cell_length_b   18.70990365
_cell_length_c   4.17759554
_cell_angle_alpha   90.00000000
_cell_angle_beta   90.00000000
_cell_angle_gamma   90.00000000
_symmetry_Int_Tables_number   1
_chemical_formula_structural   RbBi3S5
_chemical_formula_sum   'Rb4 Bi12 S20'
_cell_volume   1026.86102165
_cell_formula_units_Z   4
loop_
 _symmetry_equiv_pos_site_id
 _symmetry_equiv_pos_as_xyz
  1  'x, y, z'
loop_
 _atom_site_type_symbol
 _atom_site_label
 _atom_site_symmetry_multiplicity
 _atom_site_fract_x
 _atom_site_fract_y
 _atom_site_fract_z
 _atom_site_occupancy
  Rb  Rb0  1  0.91977125  0.38482659  0.50000000  1
  Rb  Rb1  1  0.08022875  0.61517341  0.50000000  1
  Rb  Rb2  1  0.41977125  0.11517341  -0.00000000  1
  Rb  Rb3  1  0.58022875  0.88482659  -0.00000000  1
  Bi  Bi4  1  0.55524607  0.34606560  0.50000000  1
  Bi  Bi5  1  0.44475393  0.65393440  0.50000000  1
  Bi  Bi6  1  0.05524607  0.15393440  -0.00000000  1
  Bi  Bi7  1  0.94475393  0.84606560  -0.00000000  1
  Bi  Bi8  1  0.76805776  0.69395776  0.50000000  1
  Bi  Bi9  1  0.23194224  0.30604224  0.50000000  1
  Bi  Bi10  1  0.26805776  0.80604224  0.00000000  1
  Bi  Bi11  1  0.73194224  0.19395776  -0.00000000  1
  Bi  Bi12  1  0.83908849  0.02882159  0.50000000  1
  Bi  Bi13  1  0.16091151  0.97117841  0.50000000  1
  Bi  Bi14  1  0.33908849  0.47117841  0.00000000  1
  Bi  Bi15  1  0.66091151  0.52882159  0.00000000  1
  S  S16  1  0.50000000  0.50000000  0.50000000  1
  S  S17  1  -0.00000000  -0.00000000  -0.00000000  1
  S  S18  1  -0.00000000  0.50000000  -0.00000000  1
  S  S19  1  0.50000000  -0.00000000  0.50000000  1
  S  S20  1  0.20406808  0.44654978  0.50000000  1
  S  S21  1  0.79593192  0.55345022  0.50000000  1
  S  S22  1  0.70406808  0.05345022  0.00000000  1
  S  S23  1  0.29593192  0.94654978  -0.00000000  1
  S  S24  1  0.81128630  0.86877739  0.50000000  1
  S  S25  1  0.18871370  0.13122261  0.50000000  1
  S  S26  1  0.31128630  0.63122261  -0.00000000  1
  S  S27  1  0.68871370  0.36877739  -0.00000000  1
  S  S28  1  0.89324938  0.17242207  0.50000000  1
  S  S29  1  0.10675062  0.82757793  0.50000000  1
  S  S30  1  0.39324938  0.32757793  -0.00000000  1
  S  S31  1  0.60675062  0.67242207  -0.00000000  1
  S  S32  1  0.59595745  0.20371450  0.50000000  1
  S  S33  1  0.40404255  0.79628550  0.50000000  1
  S  S34  1  0.09595745  0.29628550  0.00000000  1
  S  S35  1  0.90404255  0.70371450  0.00000000  1
