# generated using pymatgen
data_B10H13
_symmetry_space_group_name_H-M   'P 1'
_cell_length_a   12.42659645
_cell_length_b   15.45839095
_cell_length_c   20.45796176
_cell_angle_alpha   90.00000000
_cell_angle_beta   90.00000847
_cell_angle_gamma   90.00000000
_symmetry_Int_Tables_number   1
_chemical_formula_structural   B10H13
_chemical_formula_sum   'B160 H208'
_cell_volume   3929.87597155
_cell_formula_units_Z   16
loop_
 _symmetry_equiv_pos_site_id
 _symmetry_equiv_pos_as_xyz
  1  'x, y, z'
loop_
 _atom_site_type_symbol
 _atom_site_label
 _atom_site_symmetry_multiplicity
 _atom_site_fract_x
 _atom_site_fract_y
 _atom_site_fract_z
 _atom_site_occupancy
  B  B0  1  0.19071642  0.95744020  0.37445535  1
  B  B1  1  0.80928358  0.45744020  0.12554465  1
  B  B2  1  0.30928355  0.04255992  0.87445524  1
  B  B3  1  0.69071645  0.54255992  0.62554476  1
  B  B4  1  0.80928358  0.04255980  0.62554465  1
  B  B5  1  0.19071642  0.54255980  0.87445535  1
  B  B6  1  0.69071645  0.95744008  0.12554476  1
  B  B7  1  0.30928355  0.45744008  0.37445524  1
  B  B8  1  0.19198352  0.84102256  0.37433197  1
  B  B9  1  0.80801648  0.34102256  0.12566803  1
  B  B10  1  0.30801638  0.15897740  0.87433183  1
  B  B11  1  0.69198362  0.65897740  0.62566817  1
  B  B12  1  0.80801648  0.15897744  0.62566803  1
  B  B13  1  0.19198352  0.65897744  0.87433197  1
  B  B14  1  0.69198362  0.84102260  0.12566817  1
  B  B15  1  0.30801638  0.34102260  0.37433183  1
  B  B16  1  0.31249000  0.90134024  0.39171486  1
  B  B17  1  0.68751000  0.40134024  0.10828514  1
  B  B18  1  0.18750965  0.09865973  0.89171486  1
  B  B19  1  0.81249035  0.59865973  0.60828514  1
  B  B20  1  0.68751000  0.09865976  0.60828514  1
  B  B21  1  0.31249000  0.59865976  0.89171486  1
  B  B22  1  0.81249035  0.90134027  0.10828514  1
  B  B23  1  0.18750965  0.40134027  0.39171486  1
  B  B24  1  0.29016138  0.00611949  0.42458610  1
  B  B25  1  0.70983862  0.50611949  0.07541390  1
  B  B26  1  0.20983861  0.99388058  0.92458601  1
  B  B27  1  0.79016139  0.49388058  0.57541399  1
  B  B28  1  0.70983862  0.99388051  0.57541390  1
  B  B29  1  0.29016138  0.49388051  0.92458610  1
  B  B30  1  0.79016139  0.00611942  0.07541399  1
  B  B31  1  0.20983861  0.50611942  0.42458601  1
  B  B32  1  0.08677608  0.90246179  0.41420177  1
  B  B33  1  0.91322392  0.40246179  0.08579823  1
  B  B34  1  0.41322382  0.09753824  0.91420187  1
  B  B35  1  0.58677618  0.59753824  0.58579813  1
  B  B36  1  0.91322392  0.09753821  0.58579823  1
  B  B37  1  0.08677608  0.59753821  0.91420177  1
  B  B38  1  0.58677618  0.90246176  0.08579813  1
  B  B39  1  0.41322382  0.40246176  0.41420187  1
  B  B40  1  0.13771643  0.80421895  0.44746538  1
  B  B41  1  0.86228357  0.30421895  0.05253462  1
  B  B42  1  0.36228339  0.19578091  0.94746539  1
  B  B43  1  0.63771661  0.69578091  0.55253461  1
  B  B44  1  0.86228357  0.19578105  0.55253462  1
  B  B45  1  0.13771643  0.69578105  0.94746538  1
  B  B46  1  0.63771661  0.80421909  0.05253461  1
  B  B47  1  0.36228339  0.30421909  0.44746539  1
  B  B48  1  0.28033385  0.81347524  0.44157755  1
  B  B49  1  0.71966615  0.31347524  0.05842245  1
  B  B50  1  0.21966621  0.18652478  0.94157754  1
  B  B51  1  0.78033379  0.68652478  0.55842246  1
  B  B52  1  0.71966615  0.18652476  0.55842245  1
  B  B53  1  0.28033385  0.68652476  0.94157755  1
  B  B54  1  0.78033379  0.81347522  0.05842246  1
  B  B55  1  0.21966621  0.31347522  0.44157754  1
  B  B56  1  0.34451106  0.92135660  0.47380426  1
  B  B57  1  0.65548894  0.42135660  0.02619574  1
  B  B58  1  0.15548897  0.07864330  0.97380414  1
  B  B59  1  0.84451103  0.57864330  0.52619586  1
  B  B60  1  0.65548894  0.07864340  0.52619574  1
  B  B61  1  0.34451106  0.57864340  0.97380426  1
  B  B62  1  0.84451103  0.92135670  0.02619586  1
  B  B63  1  0.15548897  0.42135670  0.47380414  1
  B  B64  1  0.25550065  0.00063718  0.50608962  1
  B  B65  1  0.74449935  0.50063718  0.99391038  1
  B  B66  1  0.24449940  0.99936271  0.00608964  1
  B  B67  1  0.75550060  0.49936271  0.49391036  1
  B  B68  1  0.74449935  0.99936282  0.49391038  1
  B  B69  1  0.25550065  0.49936282  0.00608962  1
  B  B70  1  0.75550060  0.00063729  0.99391036  1
  B  B71  1  0.24449940  0.50063729  0.50608964  1
  B  B72  1  0.15127874  0.00966671  0.44685016  1
  B  B73  1  0.84872126  0.50966671  0.05314984  1
  B  B74  1  0.34872115  0.99033357  0.94684995  1
  B  B75  1  0.65127885  0.49033357  0.55315005  1
  B  B76  1  0.84872126  0.99033329  0.55314984  1
  B  B77  1  0.15127874  0.49033329  0.94685016  1
  B  B78  1  0.65127885  0.00966643  0.05315005  1
  B  B79  1  0.34872115  0.50966643  0.44684995  1
  B  B80  1  0.12035562  0.76673153  0.16434919  1
  B  B81  1  0.87964438  0.26673153  0.33565081  1
  B  B82  1  0.37964461  0.23326840  0.66434911  1
  B  B83  1  0.62035539  0.73326840  0.83565089  1
  B  B84  1  0.87964438  0.23326847  0.83565081  1
  B  B85  1  0.12035562  0.73326847  0.66434919  1
  B  B86  1  0.62035539  0.76673160  0.33565089  1
  B  B87  1  0.37964461  0.26673160  0.16434911  1
  B  B88  1  0.07126030  0.79112273  0.24369855  1
  B  B89  1  0.92873970  0.29112273  0.25630145  1
  B  B90  1  0.42873996  0.20887755  0.74369845  1
  B  B91  1  0.57126004  0.70887755  0.75630155  1
  B  B92  1  0.92873970  0.20887727  0.75630145  1
  B  B93  1  0.07126030  0.70887727  0.74369855  1
  B  B94  1  0.57126004  0.79112245  0.25630155  1
  B  B95  1  0.42873996  0.29112245  0.24369845  1
  B  B96  1  0.04072493  0.69000039  0.20733839  1
  B  B97  1  0.95927507  0.19000039  0.29266161  1
  B  B98  1  0.45927530  0.30999943  0.70733845  1
  B  B99  1  0.54072470  0.80999943  0.79266155  1
  B  B100  1  0.95927507  0.30999961  0.79266161  1
  B  B101  1  0.04072493  0.80999961  0.70733839  1
  B  B102  1  0.54072470  0.69000057  0.29266155  1
  B  B103  1  0.45927530  0.19000057  0.20733845  1
  B  B104  1  0.13641746  0.65449463  0.14911968  1
  B  B105  1  0.86358254  0.15449463  0.35088032  1
  B  B106  1  0.36358285  0.34550535  0.64911971  1
  B  B107  1  0.63641715  0.84550535  0.85088029  1
  B  B108  1  0.86358254  0.34550537  0.85088032  1
  B  B109  1  0.13641746  0.84550537  0.64911968  1
  B  B110  1  0.63641715  0.65449465  0.35088029  1
  B  B111  1  0.36358285  0.15449465  0.14911971  1
  B  B112  1  0.20729571  0.81438786  0.22130603  1
  B  B113  1  0.79270429  0.31438786  0.27869397  1
  B  B114  1  0.29270435  0.18561220  0.72130609  1
  B  B115  1  0.70729565  0.68561220  0.77869391  1
  B  B116  1  0.79270429  0.18561214  0.77869397  1
  B  B117  1  0.20729571  0.68561214  0.72130603  1
  B  B118  1  0.70729565  0.81438780  0.27869391  1
  B  B119  1  0.29270435  0.31438780  0.22130609  1
  B  B120  1  0.17106382  0.78339706  0.30343910  1
  B  B121  1  0.82893618  0.28339706  0.19656090  1
  B  B122  1  0.32893633  0.21660288  0.80343905  1
  B  B123  1  0.67106367  0.71660288  0.69656095  1
  B  B124  1  0.82893618  0.21660294  0.69656090  1
  B  B125  1  0.17106382  0.71660294  0.80343910  1
  B  B126  1  0.67106367  0.78339712  0.19656095  1
  B  B127  1  0.32893633  0.28339712  0.30343905  1
  B  B128  1  0.08145949  0.69292004  0.28900507  1
  B  B129  1  0.91854051  0.19292004  0.21099493  1
  B  B130  1  0.41854073  0.30707992  0.78900501  1
  B  B131  1  0.58145927  0.80707992  0.71099499  1
  B  B132  1  0.91854051  0.30707996  0.71099493  1
  B  B133  1  0.08145949  0.80707996  0.78900507  1
  B  B134  1  0.58145927  0.69292008  0.21099499  1
  B  B135  1  0.41854073  0.19292008  0.28900501  1
  B  B136  1  0.12245314  0.60132059  0.22610943  1
  B  B137  1  0.87754686  0.10132059  0.27389057  1
  B  B138  1  0.37754705  0.39867936  0.72610936  1
  B  B139  1  0.62245295  0.89867936  0.77389064  1
  B  B140  1  0.87754686  0.39867941  0.77389057  1
  B  B141  1  0.12245314  0.89867941  0.72610943  1
  B  B142  1  0.62245295  0.60132064  0.27389064  1
  B  B143  1  0.37754705  0.10132064  0.22610936  1
  B  B144  1  0.24959725  0.61444856  0.18716117  1
  B  B145  1  0.75040275  0.11444856  0.31283883  1
  B  B146  1  0.25040239  0.38555136  0.68716140  1
  B  B147  1  0.74959761  0.88555136  0.81283860  1
  B  B148  1  0.75040275  0.38555144  0.81283883  1
  B  B149  1  0.24959725  0.88555144  0.68716117  1
  B  B150  1  0.74959761  0.61444864  0.31283860  1
  B  B151  1  0.25040239  0.11444864  0.18716140  1
  B  B152  1  0.25012771  0.72359395  0.15916457  1
  B  B153  1  0.74987229  0.22359395  0.34083543  1
  B  B154  1  0.24987244  0.27640622  0.65916456  1
  B  B155  1  0.75012756  0.77640622  0.84083544  1
  B  B156  1  0.74987229  0.27640605  0.84083543  1
  B  B157  1  0.25012771  0.77640605  0.65916457  1
  B  B158  1  0.75012756  0.72359378  0.34083544  1
  B  B159  1  0.24987244  0.22359378  0.15916456  1
  H  H160  1  0.16358638  0.99548403  0.32625256  1
  H  H161  1  0.83641362  0.49548403  0.17374744  1
  H  H162  1  0.33641361  0.00451596  0.82625264  1
  H  H163  1  0.66358639  0.50451596  0.67374736  1
  H  H164  1  0.83641362  0.00451597  0.67374744  1
  H  H165  1  0.16358638  0.50451597  0.82625256  1
  H  H166  1  0.66358639  0.99548404  0.17374736  1
  H  H167  1  0.33641361  0.49548404  0.32625264  1
  H  H168  1  0.39096976  0.89144919  0.35876857  1
  H  H169  1  0.60903024  0.39144919  0.14123143  1
  H  H170  1  0.10903029  0.10855073  0.85876872  1
  H  H171  1  0.89096971  0.60855073  0.64123128  1
  H  H172  1  0.60903024  0.10855081  0.64123143  1
  H  H173  1  0.39096976  0.60855081  0.85876857  1
  H  H174  1  0.89096971  0.89144927  0.14123128  1
  H  H175  1  0.10903029  0.39144927  0.35876872  1
  H  H176  1  0.34087903  0.06613572  0.40555003  1
  H  H177  1  0.65912097  0.56613572  0.09444997  1
  H  H178  1  0.15912096  0.93386428  0.90555011  1
  H  H179  1  0.84087904  0.43386428  0.59444989  1
  H  H180  1  0.65912097  0.93386428  0.59444997  1
  H  H181  1  0.34087903  0.43386428  0.90555003  1
  H  H182  1  0.84087904  0.06613572  0.09444989  1
  H  H183  1  0.15912096  0.56613572  0.40555011  1
  H  H184  1  0.99487884  0.90661623  0.39792080  1
  H  H185  1  0.00512116  0.40661623  0.10207920  1
  H  H186  1  0.50512112  0.09338376  0.89792077  1
  H  H187  1  0.49487888  0.59338376  0.60207923  1
  H  H188  1  0.00512116  0.09338377  0.60207920  1
  H  H189  1  0.99487884  0.59338377  0.89792080  1
  H  H190  1  0.49487888  0.90661624  0.10207923  1
  H  H191  1  0.50512112  0.40661624  0.39792077  1
  H  H192  1  0.08772332  0.74069748  0.45947786  1
  H  H193  1  0.91227668  0.24069748  0.04052214  1
  H  H194  1  0.41227663  0.25930259  0.95947791  1
  H  H195  1  0.58772337  0.75930259  0.54052209  1
  H  H196  1  0.91227668  0.25930252  0.54052214  1
  H  H197  1  0.08772332  0.75930252  0.95947786  1
  H  H198  1  0.58772337  0.74069741  0.04052209  1
  H  H199  1  0.41227663  0.24069741  0.45947791  1
  H  H200  1  0.33553870  0.75078062  0.44671650  1
  H  H201  1  0.66446130  0.25078062  0.05328350  1
  H  H202  1  0.16446142  0.24921945  0.94671648  1
  H  H203  1  0.83553858  0.74921945  0.55328352  1
  H  H204  1  0.66446130  0.24921938  0.55328350  1
  H  H205  1  0.33553870  0.74921938  0.94671650  1
  H  H206  1  0.83553858  0.75078055  0.05328352  1
  H  H207  1  0.16446142  0.25078055  0.44671648  1
  H  H208  1  0.43416983  0.91764765  0.49398417  1
  H  H209  1  0.56583017  0.41764765  0.00601583  1
  H  H210  1  0.06583011  0.08235219  0.99398416  1
  H  H211  1  0.93416989  0.58235219  0.50601584  1
  H  H212  1  0.56583017  0.08235235  0.50601583  1
  H  H213  1  0.43416983  0.58235235  0.99398417  1
  H  H214  1  0.93416989  0.91764781  0.00601584  1
  H  H215  1  0.06583011  0.41764781  0.49398416  1
  H  H216  1  0.27440039  0.05075388  0.54840861  1
  H  H217  1  0.72559961  0.55075388  0.95159139  1
  H  H218  1  0.22559950  0.94924614  0.04840860  1
  H  H219  1  0.77440050  0.44924614  0.45159140  1
  H  H220  1  0.72559961  0.94924612  0.45159139  1
  H  H221  1  0.27440039  0.44924612  0.04840861  1
  H  H222  1  0.77440050  0.05075386  0.95159140  1
  H  H223  1  0.22559950  0.55075386  0.54840860  1
  H  H224  1  0.09508506  0.07208332  0.44685601  1
  H  H225  1  0.90491494  0.57208332  0.05314399  1
  H  H226  1  0.40491505  0.92791662  0.94685598  1
  H  H227  1  0.59508495  0.42791662  0.55314402  1
  H  H228  1  0.90491494  0.92791668  0.55314399  1
  H  H229  1  0.09508506  0.42791668  0.94685601  1
  H  H230  1  0.59508495  0.07208338  0.05314402  1
  H  H231  1  0.40491505  0.57208338  0.44685598  1
  H  H232  1  0.08376299  0.87054557  0.47420231  1
  H  H233  1  0.91623701  0.37054557  0.02579769  1
  H  H234  1  0.41623684  0.12945447  0.97420232  1
  H  H235  1  0.58376316  0.62945447  0.52579768  1
  H  H236  1  0.91623701  0.12945443  0.52579769  1
  H  H237  1  0.08376299  0.62945443  0.97420231  1
  H  H238  1  0.58376316  0.87054553  0.02579768  1
  H  H239  1  0.41623684  0.37054553  0.47420232  1
  H  H240  1  0.21525907  0.81058022  0.49282095  1
  H  H241  1  0.78474093  0.31058022  0.00717905  1
  H  H242  1  0.28474097  0.18941978  0.99282100  1
  H  H243  1  0.71525903  0.68941978  0.50717900  1
  H  H244  1  0.78474093  0.18941978  0.50717905  1
  H  H245  1  0.21525907  0.68941978  0.99282095  1
  H  H246  1  0.71525903  0.81058022  0.00717900  1
  H  H247  1  0.28474097  0.31058022  0.49282100  1
  H  H248  1  0.28338641  0.92151121  0.52718195  1
  H  H249  1  0.71661359  0.42151121  0.97281805  1
  H  H250  1  0.21661368  0.07848879  0.02718196  1
  H  H251  1  0.78338632  0.57848879  0.47281804  1
  H  H252  1  0.71661359  0.07848879  0.47281805  1
  H  H253  1  0.28338641  0.57848879  0.02718195  1
  H  H254  1  0.78338632  0.92151121  0.97281804  1
  H  H255  1  0.21661368  0.42151121  0.52718196  1
  H  H256  1  0.14989179  0.98229541  0.50844892  1
  H  H257  1  0.85010821  0.48229541  0.99155108  1
  H  H258  1  0.35010835  0.01770463  0.00844898  1
  H  H259  1  0.64989165  0.51770463  0.49155102  1
  H  H260  1  0.85010821  0.01770459  0.49155108  1
  H  H261  1  0.14989179  0.51770459  0.00844892  1
  H  H262  1  0.64989165  0.98229537  0.99155102  1
  H  H263  1  0.35010835  0.48229537  0.50844898  1
  H  H264  1  0.09451269  0.81242460  0.12011743  1
  H  H265  1  0.90548731  0.31242460  0.37988257  1
  H  H266  1  0.40548736  0.18757547  0.62011742  1
  H  H267  1  0.59451264  0.68757547  0.87988258  1
  H  H268  1  0.90548731  0.18757540  0.87988257  1
  H  H269  1  0.09451269  0.68757540  0.62011743  1
  H  H270  1  0.59451264  0.81242453  0.37988258  1
  H  H271  1  0.40548736  0.31242453  0.12011742  1
  H  H272  1  0.00070962  0.84251224  0.24879138  1
  H  H273  1  0.99929038  0.34251224  0.25120862  1
  H  H274  1  0.49929056  0.15748792  0.74879134  1
  H  H275  1  0.50070944  0.65748792  0.75120866  1
  H  H276  1  0.99929038  0.15748776  0.75120862  1
  H  H277  1  0.00070962  0.65748776  0.74879138  1
  H  H278  1  0.50070944  0.84251208  0.25120866  1
  H  H279  1  0.49929056  0.34251208  0.24879134  1
  H  H280  1  0.94837123  0.67161600  0.19841667  1
  H  H281  1  0.05162877  0.17161600  0.30158333  1
  H  H282  1  0.55162897  0.32838393  0.69841676  1
  H  H283  1  0.44837103  0.82838393  0.80158324  1
  H  H284  1  0.05162877  0.32838400  0.80158333  1
  H  H285  1  0.94837123  0.82838400  0.69841667  1
  H  H286  1  0.44837103  0.67161607  0.30158324  1
  H  H287  1  0.55162897  0.17161607  0.19841676  1
  H  H288  1  0.10599076  0.62473122  0.09859388  1
  H  H289  1  0.89400924  0.12473122  0.40140612  1
  H  H290  1  0.39400917  0.37526879  0.59859391  1
  H  H291  1  0.60599083  0.87526879  0.90140609  1
  H  H292  1  0.89400924  0.37526878  0.90140612  1
  H  H293  1  0.10599076  0.87526878  0.59859388  1
  H  H294  1  0.60599083  0.62473121  0.40140609  1
  H  H295  1  0.39400917  0.12473121  0.09859391  1
  H  H296  1  0.24578735  0.88381721  0.21197183  1
  H  H297  1  0.75421265  0.38381721  0.28802817  1
  H  H298  1  0.25421274  0.11618276  0.71197183  1
  H  H299  1  0.74578726  0.61618276  0.78802817  1
  H  H300  1  0.75421265  0.11618279  0.78802817  1
  H  H301  1  0.24578735  0.61618279  0.71197183  1
  H  H302  1  0.74578726  0.88381724  0.28802817  1
  H  H303  1  0.25421274  0.38381724  0.21197183  1
  H  H304  1  0.02206863  0.66986237  0.33133634  1
  H  H305  1  0.97793137  0.16986237  0.16866366  1
  H  H306  1  0.47793140  0.33013759  0.83133626  1
  H  H307  1  0.52206860  0.83013759  0.66866374  1
  H  H308  1  0.97793137  0.33013763  0.66866366  1
  H  H309  1  0.02206863  0.83013763  0.83133634  1
  H  H310  1  0.52206860  0.66986241  0.16866374  1
  H  H311  1  0.47793140  0.16986241  0.33133626  1
  H  H312  1  0.08736846  0.53044336  0.23406740  1
  H  H313  1  0.91263154  0.03044336  0.26593260  1
  H  H314  1  0.41263156  0.46955660  0.73406739  1
  H  H315  1  0.58736844  0.96955660  0.76593261  1
  H  H316  1  0.91263154  0.46955664  0.76593260  1
  H  H317  1  0.08736846  0.96955664  0.73406740  1
  H  H318  1  0.58736844  0.53044340  0.26593261  1
  H  H319  1  0.41263156  0.03044340  0.23406739  1
  H  H320  1  0.30961938  0.55908592  0.17036349  1
  H  H321  1  0.69038062  0.05908592  0.32963651  1
  H  H322  1  0.19038072  0.44091409  0.67036354  1
  H  H323  1  0.80961928  0.94091409  0.82963646  1
  H  H324  1  0.69038062  0.44091408  0.82963651  1
  H  H325  1  0.30961938  0.94091408  0.67036349  1
  H  H326  1  0.80961928  0.55908591  0.32963646  1
  H  H327  1  0.19038072  0.05908591  0.17036354  1
  H  H328  1  0.31231725  0.74377579  0.11750674  1
  H  H329  1  0.68768275  0.24377579  0.38249326  1
  H  H330  1  0.18768279  0.25622424  0.61750669  1
  H  H331  1  0.81231721  0.75622424  0.88249331  1
  H  H332  1  0.68768275  0.25622421  0.88249326  1
  H  H333  1  0.31231725  0.75622421  0.61750674  1
  H  H334  1  0.81231721  0.74377576  0.38249331  1
  H  H335  1  0.18768279  0.24377576  0.11750669  1
  H  H336  1  0.26452308  0.78019183  0.26910224  1
  H  H337  1  0.73547692  0.28019183  0.23089776  1
  H  H338  1  0.23547694  0.21980823  0.76910220  1
  H  H339  1  0.76452306  0.71980823  0.73089780  1
  H  H340  1  0.73547692  0.21980817  0.73089776  1
  H  H341  1  0.26452308  0.71980817  0.76910224  1
  H  H342  1  0.76452306  0.78019177  0.23089780  1
  H  H343  1  0.23547694  0.28019177  0.26910220  1
  H  H344  1  0.17833606  0.69637803  0.31495885  1
  H  H345  1  0.82166394  0.19637803  0.18504115  1
  H  H346  1  0.32166388  0.30362188  0.81495883  1
  H  H347  1  0.67833612  0.80362188  0.68504117  1
  H  H348  1  0.82166394  0.30362197  0.68504115  1
  H  H349  1  0.17833606  0.80362197  0.81495885  1
  H  H350  1  0.67833612  0.69637812  0.18504117  1
  H  H351  1  0.32166388  0.19637812  0.31495883  1
  H  H352  1  0.22203673  0.59817236  0.24953639  1
  H  H353  1  0.77796327  0.09817236  0.25046361  1
  H  H354  1  0.27796318  0.40182764  0.74953629  1
  H  H355  1  0.72203682  0.90182764  0.75046371  1
  H  H356  1  0.77796327  0.40182764  0.75046361  1
  H  H357  1  0.22203673  0.90182764  0.74953639  1
  H  H358  1  0.72203682  0.59817236  0.25046371  1
  H  H359  1  0.27796318  0.09817236  0.24953629  1
  H  H360  1  0.30926626  0.68357211  0.20386052  1
  H  H361  1  0.69073374  0.18357211  0.29613948  1
  H  H362  1  0.19073380  0.31642808  0.70386067  1
  H  H363  1  0.80926620  0.81642808  0.79613933  1
  H  H364  1  0.69073374  0.31642789  0.79613948  1
  H  H365  1  0.30926626  0.81642789  0.70386052  1
  H  H366  1  0.80926620  0.68357192  0.29613933  1
  H  H367  1  0.19073380  0.18357192  0.20386067  1
