# generated using pymatgen
data_V2Ni(HO2)4
_symmetry_space_group_name_H-M   'P 1'
_cell_length_a   5.68466857
_cell_length_b   10.85626171
_cell_length_c   11.96344718
_cell_angle_alpha   90.00000000
_cell_angle_beta   90.00000000
_cell_angle_gamma   90.00000000
_symmetry_Int_Tables_number   1
_chemical_formula_structural   V2Ni(HO2)4
_chemical_formula_sum   'V8 Ni4 H16 O32'
_cell_volume   738.31516690
_cell_formula_units_Z   4
loop_
 _symmetry_equiv_pos_site_id
 _symmetry_equiv_pos_as_xyz
  1  'x, y, z'
loop_
 _atom_site_type_symbol
 _atom_site_label
 _atom_site_symmetry_multiplicity
 _atom_site_fract_x
 _atom_site_fract_y
 _atom_site_fract_z
 _atom_site_occupancy
  V  V0  1  0.69266728  0.53136957  0.17401581  1
  V  V1  1  0.19266728  0.96863043  0.32598419  1
  V  V2  1  0.30733272  0.03136957  0.82598419  1
  V  V3  1  0.80733272  0.46863043  0.67401581  1
  V  V4  1  0.30733272  0.46863043  0.82598419  1
  V  V5  1  0.80733272  0.03136957  0.67401581  1
  V  V6  1  0.69266728  0.96863043  0.17401581  1
  V  V7  1  0.19266728  0.53136957  0.32598419  1
  Ni  Ni8  1  0.52078918  0.25000000  0.03973571  1
  Ni  Ni9  1  0.02078918  0.25000000  0.46026429  1
  Ni  Ni10  1  0.47921082  0.75000000  0.96026429  1
  Ni  Ni11  1  0.97921082  0.75000000  0.53973571  1
  H  H12  1  0.87135186  0.32179103  0.90681990  1
  H  H13  1  0.37135186  0.17820897  0.59318010  1
  H  H14  1  0.12864814  0.82179103  0.09318010  1
  H  H15  1  0.62864814  0.67820897  0.40681990  1
  H  H16  1  0.12864814  0.67820897  0.09318010  1
  H  H17  1  0.62864814  0.82179103  0.40681990  1
  H  H18  1  0.87135186  0.17820897  0.90681990  1
  H  H19  1  0.37135186  0.32179103  0.59318010  1
  H  H20  1  0.06218275  0.25000000  0.08474291  1
  H  H21  1  0.56218275  0.25000000  0.41525709  1
  H  H22  1  0.93781725  0.75000000  0.91525709  1
  H  H23  1  0.43781725  0.75000000  0.58474291  1
  H  H24  1  0.19110028  0.25000000  0.20516572  1
  H  H25  1  0.69110028  0.25000000  0.29483428  1
  H  H26  1  0.80889972  0.75000000  0.79483428  1
  H  H27  1  0.30889972  0.75000000  0.70516572  1
  O  O28  1  0.61428242  0.61608067  0.06451278  1
  O  O29  1  0.11428242  0.88391933  0.43548722  1
  O  O30  1  0.38571758  0.11608067  0.93548722  1
  O  O31  1  0.88571758  0.38391933  0.56451278  1
  O  O32  1  0.38571758  0.38391933  0.93548722  1
  O  O33  1  0.88571758  0.11608067  0.56451278  1
  O  O34  1  0.61428242  0.88391933  0.06451278  1
  O  O35  1  0.11428242  0.61608067  0.43548722  1
  O  O36  1  0.66431330  0.38047640  0.14469002  1
  O  O37  1  0.16431330  0.11952360  0.35530998  1
  O  O38  1  0.33568670  0.88047640  0.85530998  1
  O  O39  1  0.83568670  0.61952360  0.64469002  1
  O  O40  1  0.33568670  0.61952360  0.85530998  1
  O  O41  1  0.83568670  0.88047640  0.64469002  1
  O  O42  1  0.66431330  0.11952360  0.14469002  1
  O  O43  1  0.16431330  0.38047640  0.35530998  1
  O  O44  1  0.49890373  0.57038431  0.29103026  1
  O  O45  1  0.99890373  0.92961569  0.20896974  1
  O  O46  1  0.50109627  0.07038431  0.70896974  1
  O  O47  1  0.00109627  0.42961569  0.79103026  1
  O  O48  1  0.50109627  0.42961569  0.70896974  1
  O  O49  1  0.00109627  0.07038431  0.79103026  1
  O  O50  1  0.49890373  0.92961569  0.29103026  1
  O  O51  1  0.99890373  0.57038431  0.20896974  1
  O  O52  1  0.84037564  0.25000000  0.95492628  1
  O  O53  1  0.34037564  0.25000000  0.54507372  1
  O  O54  1  0.15962436  0.75000000  0.04507372  1
  O  O55  1  0.65962436  0.75000000  0.45492628  1
  O  O56  1  0.21281870  0.25000000  0.12402116  1
  O  O57  1  0.71281870  0.25000000  0.37597884  1
  O  O58  1  0.78718130  0.75000000  0.87597884  1
  O  O59  1  0.28718130  0.75000000  0.62402116  1
