# generated using pymatgen
data_La2Co14B
_symmetry_space_group_name_H-M   'P 1'
_cell_length_a   8.62924240
_cell_length_b   8.62924240
_cell_length_c   11.88041109
_cell_angle_alpha   90.00000000
_cell_angle_beta   90.00000000
_cell_angle_gamma   90.00000000
_symmetry_Int_Tables_number   1
_chemical_formula_structural   La2Co14B
_chemical_formula_sum   'La8 Co56 B4'
_cell_volume   884.66084518
_cell_formula_units_Z   4
loop_
 _symmetry_equiv_pos_site_id
 _symmetry_equiv_pos_as_xyz
  1  'x, y, z'
loop_
 _atom_site_type_symbol
 _atom_site_label
 _atom_site_symmetry_multiplicity
 _atom_site_fract_x
 _atom_site_fract_y
 _atom_site_fract_z
 _atom_site_occupancy
  La  La0  1  0.22517251  0.77482749  0.50000000  1
  La  La1  1  0.77482749  0.22517251  0.50000000  1
  La  La2  1  0.27482749  0.27482749  0.00000000  1
  La  La3  1  0.72517251  0.72517251  0.00000000  1
  La  La4  1  0.64450516  0.64450516  0.50000000  1
  La  La5  1  0.35549484  0.35549484  0.50000000  1
  La  La6  1  0.85549484  0.14450516  0.00000000  1
  La  La7  1  0.14450516  0.85549484  0.00000000  1
  Co  Co8  1  0.00000000  0.50000000  0.50000000  1
  Co  Co9  1  0.50000000  -0.00000000  0.00000000  1
  Co  Co10  1  0.50000000  -0.00000000  0.50000000  1
  Co  Co11  1  0.00000000  0.50000000  0.00000000  1
  Co  Co12  1  0.50000000  0.50000000  0.11530519  1
  Co  Co13  1  0.00000000  -0.00000000  0.61530519  1
  Co  Co14  1  0.50000000  0.50000000  0.88469481  1
  Co  Co15  1  0.00000000  -0.00000000  0.38469481  1
  Co  Co16  1  0.18200939  0.81799061  0.25257082  1
  Co  Co17  1  0.81799061  0.18200939  0.25257082  1
  Co  Co18  1  0.31799061  0.31799061  0.75257082  1
  Co  Co19  1  0.68200939  0.68200939  0.75257082  1
  Co  Co20  1  0.81799061  0.18200939  0.74742918  1
  Co  Co21  1  0.18200939  0.81799061  0.74742918  1
  Co  Co22  1  0.68200939  0.68200939  0.24742918  1
  Co  Co23  1  0.31799061  0.31799061  0.24742918  1
  Co  Co24  1  0.40096832  0.59903168  0.29170200  1
  Co  Co25  1  0.59903168  0.40096832  0.29170200  1
  Co  Co26  1  0.09903168  0.09903168  0.79170200  1
  Co  Co27  1  0.90096832  0.90096832  0.79170200  1
  Co  Co28  1  0.59903168  0.40096832  0.70829800  1
  Co  Co29  1  0.40096832  0.59903168  0.70829800  1
  Co  Co30  1  0.90096832  0.90096832  0.20829800  1
  Co  Co31  1  0.09903168  0.09903168  0.20829800  1
  Co  Co32  1  0.13927151  0.53606392  0.32040991  1
  Co  Co33  1  0.86072849  0.46393608  0.32040991  1
  Co  Co34  1  0.36072849  0.03606392  0.82040991  1
  Co  Co35  1  0.63927151  0.96393608  0.82040991  1
  Co  Co36  1  0.86072849  0.46393608  0.67959009  1
  Co  Co37  1  0.13927151  0.53606392  0.67959009  1
  Co  Co38  1  0.63927151  0.96393608  0.17959009  1
  Co  Co39  1  0.36072849  0.03606392  0.17959009  1
  Co  Co40  1  0.53606392  0.13927151  0.32040991  1
  Co  Co41  1  0.46393608  0.86072849  0.32040991  1
  Co  Co42  1  0.03606392  0.36072849  0.82040991  1
  Co  Co43  1  0.96393608  0.63927151  0.82040991  1
  Co  Co44  1  0.46393608  0.86072849  0.67959009  1
  Co  Co45  1  0.53606392  0.13927151  0.67959009  1
  Co  Co46  1  0.96393608  0.63927151  0.17959009  1
  Co  Co47  1  0.03606392  0.36072849  0.17959009  1
  Co  Co48  1  0.92966054  0.72408506  0.37316966  1
  Co  Co49  1  0.07033946  0.27591494  0.37316966  1
  Co  Co50  1  0.57033946  0.22408506  0.87316966  1
  Co  Co51  1  0.42966054  0.77591494  0.87316966  1
  Co  Co52  1  0.07033946  0.27591494  0.62683034  1
  Co  Co53  1  0.92966054  0.72408506  0.62683034  1
  Co  Co54  1  0.42966054  0.77591494  0.12683034  1
  Co  Co55  1  0.57033946  0.22408506  0.12683034  1
  Co  Co56  1  0.72408506  0.92966054  0.37316966  1
  Co  Co57  1  0.27591494  0.07033946  0.37316966  1
  Co  Co58  1  0.22408506  0.57033946  0.87316966  1
  Co  Co59  1  0.77591494  0.42966054  0.87316966  1
  Co  Co60  1  0.27591494  0.07033946  0.62683034  1
  Co  Co61  1  0.72408506  0.92966054  0.62683034  1
  Co  Co62  1  0.77591494  0.42966054  0.12683034  1
  Co  Co63  1  0.22408506  0.57033946  0.12683034  1
  B  B64  1  0.87861559  0.87861559  0.50000000  1
  B  B65  1  0.12138441  0.12138441  0.50000000  1
  B  B66  1  0.62138441  0.37861559  0.00000000  1
  B  B67  1  0.37861559  0.62138441  0.00000000  1
