# generated using pymatgen
data_Cs8Fe2O7
_symmetry_space_group_name_H-M   'P 1'
_cell_length_a   7.37281404
_cell_length_b   7.50449380
_cell_length_c   18.32365962
_cell_angle_alpha   90.00000000
_cell_angle_beta   90.00000000
_cell_angle_gamma   119.26947951
_symmetry_Int_Tables_number   1
_chemical_formula_structural   Cs8Fe2O7
_chemical_formula_sum   'Cs16 Fe4 O14'
_cell_volume   884.39774256
_cell_formula_units_Z   2
loop_
 _symmetry_equiv_pos_site_id
 _symmetry_equiv_pos_as_xyz
  1  'x, y, z'
loop_
 _atom_site_type_symbol
 _atom_site_label
 _atom_site_symmetry_multiplicity
 _atom_site_fract_x
 _atom_site_fract_y
 _atom_site_fract_z
 _atom_site_occupancy
  Cs  Cs0  1  0.76893480  0.22883184  0.00790680  1
  Cs  Cs1  1  0.73106520  0.77116816  0.50790680  1
  Cs  Cs2  1  0.23106520  0.77116816  0.99209320  1
  Cs  Cs3  1  0.26893480  0.22883184  0.49209320  1
  Cs  Cs4  1  0.76317022  0.21711262  0.80824879  1
  Cs  Cs5  1  0.73682978  0.78288738  0.30824879  1
  Cs  Cs6  1  0.23682978  0.78288738  0.19175121  1
  Cs  Cs7  1  0.26317022  0.21711262  0.69175121  1
  Cs  Cs8  1  0.78683718  0.24316929  0.21456445  1
  Cs  Cs9  1  0.71316282  0.75683071  0.71456445  1
  Cs  Cs10  1  0.21316282  0.75683071  0.78543555  1
  Cs  Cs11  1  0.28683718  0.24316929  0.28543555  1
  Cs  Cs12  1  0.64478476  0.63995369  0.08283544  1
  Cs  Cs13  1  0.85521524  0.36004631  0.58283544  1
  Cs  Cs14  1  0.35521524  0.36004631  0.91716456  1
  Cs  Cs15  1  0.14478476  0.63995369  0.41716456  1
  Fe  Fe16  1  0.63613717  0.13681860  0.40517336  1
  Fe  Fe17  1  0.86386283  0.86318140  0.90517336  1
  Fe  Fe18  1  0.36386283  0.86318140  0.59482664  1
  Fe  Fe19  1  0.13613717  0.13681860  0.09482664  1
  O  O20  1  0.50000000  0.00000000  0.50000000  1
  O  O21  1  0.00000000  0.00000000  0.00000000  1
  O  O22  1  0.65932770  0.40266077  0.40208217  1
  O  O23  1  0.84067230  0.59733923  0.90208217  1
  O  O24  1  0.34067230  0.59733923  0.59791783  1
  O  O25  1  0.15932770  0.40266077  0.09791783  1
  O  O26  1  0.54142172  0.03228646  0.67354714  1
  O  O27  1  0.95857828  0.96771354  0.17354714  1
  O  O28  1  0.45857828  0.96771354  0.32645286  1
  O  O29  1  0.04142172  0.03228646  0.82645286  1
  O  O30  1  0.90216395  0.14841744  0.39569713  1
  O  O31  1  0.59783605  0.85158256  0.89569713  1
  O  O32  1  0.09783605  0.85158256  0.60430287  1
  O  O33  1  0.40216395  0.14841744  0.10430287  1
