# generated using pymatgen
data_Rb4WS3O14
_symmetry_space_group_name_H-M   'P 1'
_cell_length_a   9.87720143
_cell_length_b   11.09891051
_cell_length_c   14.34597740
_cell_angle_alpha   90.00000000
_cell_angle_beta   90.00000000
_cell_angle_gamma   90.46745635
_symmetry_Int_Tables_number   1
_chemical_formula_structural   Rb4WS3O14
_chemical_formula_sum   'Rb16 W4 S12 O56'
_cell_volume   1572.64228390
_cell_formula_units_Z   4
loop_
 _symmetry_equiv_pos_site_id
 _symmetry_equiv_pos_as_xyz
  1  'x, y, z'
loop_
 _atom_site_type_symbol
 _atom_site_label
 _atom_site_symmetry_multiplicity
 _atom_site_fract_x
 _atom_site_fract_y
 _atom_site_fract_z
 _atom_site_occupancy
  Rb  Rb0  1  0.81139630  0.15408323  0.19031157  1
  Rb  Rb1  1  0.31139630  0.65408323  0.30968843  1
  Rb  Rb2  1  0.18860370  0.84591677  0.80968843  1
  Rb  Rb3  1  0.68860370  0.34591677  0.69031157  1
  Rb  Rb4  1  0.00849487  0.29666959  0.48919634  1
  Rb  Rb5  1  0.50849487  0.79666959  0.01080366  1
  Rb  Rb6  1  0.99150513  0.70333041  0.51080366  1
  Rb  Rb7  1  0.49150513  0.20333041  0.98919634  1
  Rb  Rb8  1  0.69166962  0.01397818  0.48633478  1
  Rb  Rb9  1  0.19166962  0.51397818  0.01366522  1
  Rb  Rb10  1  0.30833038  0.98602182  0.51366522  1
  Rb  Rb11  1  0.80833038  0.48602182  0.98633478  1
  Rb  Rb12  1  0.26902621  0.24645253  0.27402187  1
  Rb  Rb13  1  0.76902621  0.74645253  0.22597813  1
  Rb  Rb14  1  0.73097379  0.75354747  0.72597813  1
  Rb  Rb15  1  0.23097379  0.25354747  0.77402187  1
  W  W16  1  0.66681602  0.41852175  0.38186870  1
  W  W17  1  0.16681602  0.91852175  0.11813130  1
  W  W18  1  0.33318398  0.58147825  0.61813130  1
  W  W19  1  0.83318398  0.08147825  0.88186870  1
  S  S20  1  0.42386952  0.30500377  0.51922178  1
  S  S21  1  0.92386952  0.80500377  0.98077822  1
  S  S22  1  0.57613048  0.69499623  0.48077822  1
  S  S23  1  0.07613048  0.19499623  0.01922178  1
  S  S24  1  0.95988518  0.47888114  0.27189547  1
  S  S25  1  0.45988518  0.97888114  0.22810453  1
  S  S26  1  0.04011482  0.52111886  0.72810453  1
  S  S27  1  0.54011482  0.02111886  0.77189547  1
  S  S28  1  0.53614747  0.44640446  0.15891674  1
  S  S29  1  0.03614747  0.94640446  0.34108326  1
  S  S30  1  0.46385253  0.55359554  0.84108326  1
  S  S31  1  0.96385253  0.05359554  0.65891674  1
  O  O32  1  0.71064901  0.26701591  0.36172667  1
  O  O33  1  0.21064901  0.76701591  0.13827333  1
  O  O34  1  0.28935099  0.73298409  0.63827333  1
  O  O35  1  0.78935099  0.23298409  0.86172667  1
  O  O36  1  0.75499827  0.44541586  0.48753759  1
  O  O37  1  0.25499827  0.94541586  0.01246241  1
  O  O38  1  0.24500173  0.55458414  0.51246241  1
  O  O39  1  0.74500173  0.05458414  0.98753759  1
  O  O40  1  0.80228840  0.49289152  0.29583487  1
  O  O41  1  0.30228840  0.99289152  0.20416513  1
  O  O42  1  0.19771160  0.50710848  0.70416513  1
  O  O43  1  0.69771160  0.00710848  0.79583487  1
  O  O44  1  0.48146869  0.38589517  0.44034189  1
  O  O45  1  0.98146869  0.88589517  0.05965811  1
  O  O46  1  0.51853131  0.61410483  0.55965811  1
  O  O47  1  0.01853131  0.11410483  0.94034189  1
  O  O48  1  0.53328584  0.44019132  0.26715739  1
  O  O49  1  0.03328584  0.94019132  0.23284261  1
  O  O50  1  0.46671416  0.55980868  0.73284261  1
  O  O51  1  0.96671416  0.05980868  0.76715739  1
  O  O52  1  0.59374097  0.61437191  0.39718089  1
  O  O53  1  0.09374097  0.11437191  0.10281911  1
  O  O54  1  0.40625903  0.38562809  0.60281911  1
  O  O55  1  0.90625903  0.88562809  0.89718089  1
  O  O56  1  0.63773957  0.36015356  0.12414855  1
  O  O57  1  0.13773957  0.86015356  0.37585145  1
  O  O58  1  0.36226043  0.63984644  0.87585145  1
  O  O59  1  0.86226043  0.13984644  0.62414855  1
  O  O60  1  0.98888964  0.34924973  0.27267659  1
  O  O61  1  0.48888964  0.84924973  0.22732341  1
  O  O62  1  0.01111036  0.65075027  0.72732341  1
  O  O63  1  0.51111036  0.15075027  0.77267659  1
  O  O64  1  0.03218154  0.54410949  0.34609820  1
  O  O65  1  0.53218154  0.04410949  0.15390180  1
  O  O66  1  0.96781846  0.45589051  0.65390180  1
  O  O67  1  0.46781846  0.95589051  0.84609820  1
  O  O68  1  0.39730593  0.41037100  0.13070615  1
  O  O69  1  0.89730593  0.91037100  0.36929385  1
  O  O70  1  0.60269407  0.58962900  0.86929385  1
  O  O71  1  0.10269407  0.08962900  0.63070615  1
  O  O72  1  0.52130352  0.21124771  0.54177369  1
  O  O73  1  0.02130352  0.71124771  0.95822631  1
  O  O74  1  0.47869648  0.78875229  0.45822631  1
  O  O75  1  0.97869648  0.28875229  0.04177369  1
  O  O76  1  0.97249193  0.53598571  0.18020016  1
  O  O77  1  0.47249193  0.03598571  0.31979984  1
  O  O78  1  0.02750807  0.46401429  0.81979984  1
  O  O79  1  0.52750807  0.96401429  0.68020016  1
  O  O80  1  0.56949585  0.57154224  0.13263816  1
  O  O81  1  0.06949585  0.07154224  0.36736184  1
  O  O82  1  0.43050415  0.42845776  0.86736184  1
  O  O83  1  0.93050415  0.92845776  0.63263816  1
  O  O84  1  0.29440765  0.25853446  0.48485341  1
  O  O85  1  0.79440765  0.75853446  0.01514659  1
  O  O86  1  0.70559235  0.74146554  0.51514659  1
  O  O87  1  0.20559235  0.24146554  0.98485341  1
