# generated using pymatgen
data_MnTl2H12(SO7)2
_symmetry_space_group_name_H-M   'P 1'
_cell_length_a   6.33954386
_cell_length_b   9.41103732
_cell_length_c   12.84318967
_cell_angle_alpha   90.00000000
_cell_angle_beta   90.00000000
_cell_angle_gamma   105.50472941
_symmetry_Int_Tables_number   1
_chemical_formula_structural   MnTl2H12(SO7)2
_chemical_formula_sum   'Mn2 Tl4 H24 S4 O28'
_cell_volume   738.36138451
_cell_formula_units_Z   2
loop_
 _symmetry_equiv_pos_site_id
 _symmetry_equiv_pos_as_xyz
  1  'x, y, z'
loop_
 _atom_site_type_symbol
 _atom_site_label
 _atom_site_symmetry_multiplicity
 _atom_site_fract_x
 _atom_site_fract_y
 _atom_site_fract_z
 _atom_site_occupancy
  Mn  Mn0  1  0.00000000  0.50000000  0.50000000  1
  Mn  Mn1  1  0.00000000  0.00000000  0.00000000  1
  Tl  Tl2  1  0.34414664  0.61872632  0.13662778  1
  Tl  Tl3  1  0.65585336  0.88127368  0.63662778  1
  Tl  Tl4  1  0.65585336  0.38127368  0.86337222  1
  Tl  Tl5  1  0.34414664  0.11872632  0.36337222  1
  H  H6  1  0.32727446  0.72170372  0.40086424  1
  H  H7  1  0.67272554  0.77829628  0.90086424  1
  H  H8  1  0.67272554  0.27829628  0.59913576  1
  H  H9  1  0.32727446  0.22170372  0.09913576  1
  H  H10  1  0.09502612  0.74856342  0.36871348  1
  H  H11  1  0.90497388  0.75143658  0.86871348  1
  H  H12  1  0.90497388  0.25143658  0.63128652  1
  H  H13  1  0.09502612  0.24856342  0.13128652  1
  H  H14  1  0.92764806  0.22406397  0.39567428  1
  H  H15  1  0.07235194  0.27593603  0.89567428  1
  H  H16  1  0.07235194  0.77593603  0.60432572  1
  H  H17  1  0.92764806  0.72406397  0.10432572  1
  H  H18  1  0.99124249  0.34871413  0.30916082  1
  H  H19  1  0.00875751  0.15128587  0.80916082  1
  H  H20  1  0.00875751  0.65128587  0.69083918  1
  H  H21  1  0.99124249  0.84871413  0.19083918  1
  H  H22  1  0.34928147  0.40094011  0.56593931  1
  H  H23  1  0.65071853  0.09905989  0.06593931  1
  H  H24  1  0.65071853  0.59905989  0.43406069  1
  H  H25  1  0.34928147  0.90094011  0.93406069  1
  H  H26  1  0.33416029  0.52447559  0.64662158  1
  H  H27  1  0.66583971  0.97552441  0.14662158  1
  H  H28  1  0.66583971  0.47552441  0.35337842  1
  H  H29  1  0.33416029  0.02447559  0.85337842  1
  S  S30  1  0.73487149  0.90503276  0.35996727  1
  S  S31  1  0.26512851  0.59496724  0.85996727  1
  S  S32  1  0.26512851  0.09496724  0.64003273  1
  S  S33  1  0.73487149  0.40503276  0.14003273  1
  O  O34  1  0.59417692  0.91600655  0.26881697  1
  O  O35  1  0.40582308  0.58399345  0.76881697  1
  O  O36  1  0.40582308  0.08399345  0.73118303  1
  O  O37  1  0.59417692  0.41600655  0.23118303  1
  O  O38  1  0.78149205  0.04279778  0.42348325  1
  O  O39  1  0.21850795  0.45720222  0.92348325  1
  O  O40  1  0.21850795  0.95720222  0.57651675  1
  O  O41  1  0.78149205  0.54279778  0.07651675  1
  O  O42  1  0.61232381  0.77940275  0.42744044  1
  O  O43  1  0.38767619  0.72059725  0.92744044  1
  O  O44  1  0.38767619  0.22059725  0.57255956  1
  O  O45  1  0.61232381  0.27940275  0.07255956  1
  O  O46  1  0.94578338  0.87782489  0.32316147  1
  O  O47  1  0.05421662  0.62217511  0.82316147  1
  O  O48  1  0.05421662  0.12217511  0.67683853  1
  O  O49  1  0.94578338  0.37782489  0.17683853  1
  O  O50  1  0.17044404  0.67246047  0.38696516  1
  O  O51  1  0.82955596  0.82753953  0.88696516  1
  O  O52  1  0.82955596  0.32753953  0.61303484  1
  O  O53  1  0.17044404  0.17246047  0.11303484  1
  O  O54  1  0.01955802  0.32611332  0.38263280  1
  O  O55  1  0.98044198  0.17388668  0.88263280  1
  O  O56  1  0.98044198  0.67388668  0.61736720  1
  O  O57  1  0.01955802  0.82611332  0.11736720  1
  O  O58  1  0.30703390  0.49450916  0.57238632  1
  O  O59  1  0.69296610  0.00549084  0.07238632  1
  O  O60  1  0.69296610  0.50549084  0.42761368  1
  O  O61  1  0.30703390  0.99450916  0.92761368  1
