# generated using pymatgen
data_B10H13I
_symmetry_space_group_name_H-M   'P 1'
_cell_length_a   7.42578318
_cell_length_b   12.14183344
_cell_length_c   14.23903972
_cell_angle_alpha   109.78565606
_cell_angle_beta   90.00000000
_cell_angle_gamma   90.00000000
_symmetry_Int_Tables_number   1
_chemical_formula_structural   B10H13I
_chemical_formula_sum   'B40 H52 I4'
_cell_volume   1208.03900494
_cell_formula_units_Z   4
loop_
 _symmetry_equiv_pos_site_id
 _symmetry_equiv_pos_as_xyz
  1  'x, y, z'
loop_
 _atom_site_type_symbol
 _atom_site_label
 _atom_site_symmetry_multiplicity
 _atom_site_fract_x
 _atom_site_fract_y
 _atom_site_fract_z
 _atom_site_occupancy
  B  B0  1  0.64676250  0.35126673  0.56258566  1
  B  B1  1  0.85323750  0.85126673  0.06258566  1
  B  B2  1  0.35323750  0.64873327  0.43741434  1
  B  B3  1  0.14676250  0.14873327  0.93741434  1
  B  B4  1  0.61330518  0.22093502  0.45940959  1
  B  B5  1  0.88669482  0.72093502  0.95940959  1
  B  B6  1  0.38669482  0.77906498  0.54059041  1
  B  B7  1  0.11330518  0.27906498  0.04059041  1
  B  B8  1  0.65150870  0.21267860  0.57978020  1
  B  B9  1  0.84849130  0.71267860  0.07978020  1
  B  B10  1  0.34849130  0.78732140  0.42021980  1
  B  B11  1  0.15150870  0.28732140  0.92021980  1
  B  B12  1  0.77790803  0.33188781  0.65960737  1
  B  B13  1  0.72209197  0.83188781  0.15960737  1
  B  B14  1  0.22209197  0.66811219  0.34039263  1
  B  B15  1  0.27790803  0.16811219  0.84039263  1
  B  B16  1  0.75459086  0.33549658  0.44950502  1
  B  B17  1  0.74540914  0.83549658  0.94950502  1
  B  B18  1  0.24540914  0.66450342  0.55049498  1
  B  B19  1  0.25459086  0.16450342  0.05049498  1
  B  B20  1  0.80374498  0.18392377  0.38691367  1
  B  B21  1  0.69625502  0.68392377  0.88691367  1
  B  B22  1  0.19625502  0.81607623  0.61308633  1
  B  B23  1  0.30374498  0.31607623  0.11308633  1
  B  B24  1  0.76422856  0.11491900  0.47776741  1
  B  B25  1  0.73577144  0.61491900  0.97776741  1
  B  B26  1  0.23577144  0.88508100  0.52223259  1
  B  B27  1  0.26422856  0.38508100  0.02223259  1
  B  B28  1  0.87304125  0.18797527  0.60946372  1
  B  B29  1  0.62695875  0.68797527  0.10946372  1
  B  B30  1  0.12695875  0.81202473  0.39053628  1
  B  B31  1  0.37304125  0.31202473  0.89053628  1
  B  B32  1  0.00298475  0.31638556  0.62735477  1
  B  B33  1  0.49701525  0.81638556  0.12735477  1
  B  B34  1  0.99701525  0.68361444  0.37264523  1
  B  B35  1  0.50298475  0.18361444  0.87264523  1
  B  B36  1  0.86668847  0.40708412  0.58066267  1
  B  B37  1  0.63331153  0.90708412  0.08066267  1
  B  B38  1  0.13331153  0.59291588  0.41933733  1
  B  B39  1  0.36668847  0.09291588  0.91933733  1
  H  H40  1  0.53041089  0.42334165  0.58469197  1
  H  H41  1  0.96958911  0.92334165  0.08469197  1
  H  H42  1  0.46958911  0.57665835  0.41530803  1
  H  H43  1  0.03041089  0.07665835  0.91530803  1
  H  H44  1  0.53907986  0.16670420  0.61412464  1
  H  H45  1  0.96092014  0.66670420  0.11412464  1
  H  H46  1  0.46092014  0.83329580  0.38587536  1
  H  H47  1  0.03907986  0.33329580  0.88587536  1
  H  H48  1  0.73208605  0.37811383  0.74413436  1
  H  H49  1  0.76791395  0.87811383  0.24413436  1
  H  H50  1  0.26791395  0.62188617  0.25586564  1
  H  H51  1  0.23208605  0.12188617  0.75586564  1
  H  H52  1  0.72305097  0.39660928  0.40112369  1
  H  H53  1  0.77694903  0.89660928  0.90112369  1
  H  H54  1  0.27694903  0.60339072  0.59887631  1
  H  H55  1  0.22305097  0.10339072  0.09887631  1
  H  H56  1  0.82127800  0.13598651  0.29949732  1
  H  H57  1  0.67872200  0.63598651  0.79949732  1
  H  H58  1  0.17872200  0.86401349  0.70050268  1
  H  H59  1  0.32127800  0.36401349  0.20050268  1
  H  H60  1  0.74149265  0.01166828  0.45095605  1
  H  H61  1  0.75850735  0.51166828  0.95095605  1
  H  H62  1  0.25850735  0.98833172  0.54904395  1
  H  H63  1  0.24149265  0.48833172  0.04904395  1
  H  H64  1  0.90776998  0.12560125  0.65603583  1
  H  H65  1  0.59223002  0.62560125  0.15603583  1
  H  H66  1  0.09223002  0.87439875  0.34396417  1
  H  H67  1  0.40776998  0.37439875  0.84396417  1
  H  H68  1  0.13424071  0.34455154  0.67736545  1
  H  H69  1  0.36575929  0.84455154  0.17736545  1
  H  H70  1  0.86575929  0.65544846  0.32263455  1
  H  H71  1  0.63424071  0.15544846  0.82263455  1
  H  H72  1  0.89772654  0.50936544  0.60524526  1
  H  H73  1  0.60227346  0.00936544  0.10524526  1
  H  H74  1  0.10227346  0.49063456  0.39475474  1
  H  H75  1  0.39772654  0.99063456  0.89475474  1
  H  H76  1  0.02467397  0.35627896  0.55064610  1
  H  H77  1  0.47532603  0.85627896  0.05064610  1
  H  H78  1  0.97532603  0.64372104  0.44935390  1
  H  H79  1  0.52467397  0.14372104  0.94935390  1
  H  H80  1  0.02915202  0.20362925  0.57059671  1
  H  H81  1  0.47084798  0.70362925  0.07059671  1
  H  H82  1  0.97084798  0.79637075  0.42940329  1
  H  H83  1  0.52915202  0.29637075  0.92940329  1
  H  H84  1  0.90572078  0.28118090  0.41155421  1
  H  H85  1  0.59427922  0.78118090  0.91155421  1
  H  H86  1  0.09427922  0.71881910  0.58844579  1
  H  H87  1  0.40572078  0.21881910  0.08844579  1
  H  H88  1  0.91327909  0.12908845  0.43198810  1
  H  H89  1  0.58672091  0.62908845  0.93198810  1
  H  H90  1  0.08672091  0.87091155  0.56801190  1
  H  H91  1  0.41327909  0.37091155  0.06801190  1
  I  I92  1  0.35070149  0.17879635  0.38310100  1
  I  I93  1  0.14929851  0.67879635  0.88310100  1
  I  I94  1  0.64929851  0.82120365  0.61689900  1
  I  I95  1  0.85070149  0.32120365  0.11689900  1
