# generated using pymatgen
data_DyAu6
_symmetry_space_group_name_H-M   'P 1'
_cell_length_a   9.93546725
_cell_length_b   10.51402772
_cell_length_c   10.51402772
_cell_angle_alpha   90.00000000
_cell_angle_beta   90.00000000
_cell_angle_gamma   90.00000000
_symmetry_Int_Tables_number   1
_chemical_formula_structural   DyAu6
_chemical_formula_sum   'Dy8 Au48'
_cell_volume   1098.31403039
_cell_formula_units_Z   8
loop_
 _symmetry_equiv_pos_site_id
 _symmetry_equiv_pos_as_xyz
  1  'x, y, z'
loop_
 _atom_site_type_symbol
 _atom_site_label
 _atom_site_symmetry_multiplicity
 _atom_site_fract_x
 _atom_site_fract_y
 _atom_site_fract_z
 _atom_site_occupancy
  Dy  Dy0  1  0.28808069  0.57546507  0.57546507  1
  Dy  Dy1  1  0.78808069  0.57546507  0.92453493  1
  Dy  Dy2  1  0.78808069  0.92453493  0.57546507  1
  Dy  Dy3  1  0.28808069  0.92453493  0.92453493  1
  Dy  Dy4  1  0.71191931  0.42453493  0.42453493  1
  Dy  Dy5  1  0.21191931  0.42453493  0.07546507  1
  Dy  Dy6  1  0.21191931  0.07546507  0.42453493  1
  Dy  Dy7  1  0.71191931  0.07546507  0.07546507  1
  Au  Au8  1  0.92066505  0.51297294  0.17993211  1
  Au  Au9  1  0.42066505  0.51297294  0.32006789  1
  Au  Au10  1  0.42066505  0.98702706  0.17993211  1
  Au  Au11  1  0.92066505  0.98702706  0.32006789  1
  Au  Au12  1  0.92066505  0.17993211  0.51297294  1
  Au  Au13  1  0.42066505  0.32006789  0.51297294  1
  Au  Au14  1  0.42066505  0.17993211  0.98702706  1
  Au  Au15  1  0.92066505  0.32006789  0.98702706  1
  Au  Au16  1  0.07933495  0.48702706  0.82006789  1
  Au  Au17  1  0.57933495  0.48702706  0.67993211  1
  Au  Au18  1  0.57933495  0.01297294  0.82006789  1
  Au  Au19  1  0.07933495  0.01297294  0.67993211  1
  Au  Au20  1  0.07933495  0.82006789  0.48702706  1
  Au  Au21  1  0.57933495  0.67993211  0.48702706  1
  Au  Au22  1  0.57933495  0.82006789  0.01297294  1
  Au  Au23  1  0.07933495  0.67993211  0.01297294  1
  Au  Au24  1  0.85510545  0.80000517  0.12275499  1
  Au  Au25  1  0.35510545  0.80000517  0.37724501  1
  Au  Au26  1  0.35510545  0.69999483  0.12275499  1
  Au  Au27  1  0.85510545  0.69999483  0.37724501  1
  Au  Au28  1  0.85510545  0.12275499  0.80000517  1
  Au  Au29  1  0.35510545  0.37724501  0.80000517  1
  Au  Au30  1  0.35510545  0.12275499  0.69999483  1
  Au  Au31  1  0.85510545  0.37724501  0.69999483  1
  Au  Au32  1  0.14489455  0.19999483  0.87724501  1
  Au  Au33  1  0.64489455  0.19999483  0.62275499  1
  Au  Au34  1  0.64489455  0.30000517  0.87724501  1
  Au  Au35  1  0.14489455  0.30000517  0.62275499  1
  Au  Au36  1  0.14489455  0.87724501  0.19999483  1
  Au  Au37  1  0.64489455  0.62275499  0.19999483  1
  Au  Au38  1  0.64489455  0.87724501  0.30000517  1
  Au  Au39  1  0.14489455  0.62275499  0.30000517  1
  Au  Au40  1  0.82057408  0.64721994  0.64721994  1
  Au  Au41  1  0.32057408  0.64721994  0.85278006  1
  Au  Au42  1  0.32057408  0.85278006  0.64721994  1
  Au  Au43  1  0.82057408  0.85278006  0.85278006  1
  Au  Au44  1  0.17942592  0.35278006  0.35278006  1
  Au  Au45  1  0.67942592  0.35278006  0.14721994  1
  Au  Au46  1  0.67942592  0.14721994  0.35278006  1
  Au  Au47  1  0.17942592  0.14721994  0.14721994  1
  Au  Au48  1  0.56756264  0.75000000  0.75000000  1
  Au  Au49  1  0.06756264  0.75000000  0.75000000  1
  Au  Au50  1  0.43243736  0.25000000  0.25000000  1
  Au  Au51  1  0.93243736  0.25000000  0.25000000  1
  Au  Au52  1  0.00000000  0.50000000  0.50000000  1
  Au  Au53  1  0.50000000  0.50000000  0.00000000  1
  Au  Au54  1  0.50000000  0.00000000  0.50000000  1
  Au  Au55  1  0.00000000  0.00000000  0.00000000  1
