# generated using pymatgen
data_Cs4PbO3
_symmetry_space_group_name_H-M   'P 1'
_cell_length_a   7.49358676
_cell_length_b   11.93156202
_cell_length_c   12.10983835
_cell_angle_alpha   111.26597046
_cell_angle_beta   89.94322446
_cell_angle_gamma   90.06245354
_symmetry_Int_Tables_number   1
_chemical_formula_structural   Cs4PbO3
_chemical_formula_sum   'Cs16 Pb4 O12'
_cell_volume   1009.01477813
_cell_formula_units_Z   4
loop_
 _symmetry_equiv_pos_site_id
 _symmetry_equiv_pos_as_xyz
  1  'x, y, z'
loop_
 _atom_site_type_symbol
 _atom_site_label
 _atom_site_symmetry_multiplicity
 _atom_site_fract_x
 _atom_site_fract_y
 _atom_site_fract_z
 _atom_site_occupancy
  Cs  Cs0  1  0.61041219  0.33986314  0.16301011  1
  Cs  Cs1  1  0.11047287  0.66038320  0.83749948  1
  Cs  Cs2  1  0.37458136  0.17465351  0.82885035  1
  Cs  Cs3  1  0.86787381  0.82295821  0.16980375  1
  Cs  Cs4  1  0.32182730  0.53770046  0.41344856  1
  Cs  Cs5  1  0.82173398  0.46245728  0.58674352  1
  Cs  Cs6  1  0.20082624  0.03973932  0.43646322  1
  Cs  Cs7  1  0.70169004  0.96004697  0.56320876  1
  Cs  Cs8  1  0.44561564  0.96663772  0.07678199  1
  Cs  Cs9  1  0.94737513  0.03440666  0.92326343  1
  Cs  Cs10  1  0.61731335  0.55330577  0.92228036  1
  Cs  Cs11  1  0.11771226  0.44594347  0.07722590  1
  Cs  Cs12  1  0.83801809  0.64025294  0.37459659  1
  Cs  Cs13  1  0.33765352  0.35976520  0.62543360  1
  Cs  Cs14  1  0.17077240  0.84598020  0.62056936  1
  Cs  Cs15  1  0.67087812  0.15426969  0.37972138  1
  Pb  Pb16  1  0.62019200  0.77614817  0.76607707  1
  Pb  Pb17  1  0.12100544  0.22407462  0.23331347  1
  Pb  Pb18  1  0.37354843  0.74608831  0.22572776  1
  Pb  Pb19  1  0.87571102  0.25385970  0.77453242  1
  O  O20  1  0.85637789  0.73669165  0.65112019  1
  O  O21  1  0.35643151  0.26346906  0.34867591  1
  O  O22  1  0.74707573  0.78961806  0.93911618  1
  O  O23  1  0.24897381  0.21024027  0.05983274  1
  O  O24  1  0.48834752  0.59996099  0.71219713  1
  O  O25  1  0.98871557  0.39997684  0.28794833  1
  O  O26  1  0.18248725  0.76922091  0.37028932  1
  O  O27  1  0.68252771  0.23033077  0.63065566  1
  O  O28  1  0.56022045  0.90055702  0.31461687  1
  O  O29  1  0.06443997  0.10056574  0.68691895  1
  O  O30  1  0.52212484  0.58162110  0.21012652  1
  O  O31  1  0.02206455  0.41921305  0.78995114  1
