# generated using pymatgen
data_Pr5Ni19
_symmetry_space_group_name_H-M   'P 1'
_cell_length_a   5.01317915
_cell_length_b   5.01317915
_cell_length_c   32.51338181
_cell_angle_alpha   90.00000000
_cell_angle_beta   90.00000000
_cell_angle_gamma   120.04797589
_symmetry_Int_Tables_number   1
_chemical_formula_structural   Pr5Ni19
_chemical_formula_sum   'Pr10 Ni38'
_cell_volume   707.30881192
_cell_formula_units_Z   2
loop_
 _symmetry_equiv_pos_site_id
 _symmetry_equiv_pos_as_xyz
  1  'x, y, z'
loop_
 _atom_site_type_symbol
 _atom_site_label
 _atom_site_symmetry_multiplicity
 _atom_site_fract_x
 _atom_site_fract_y
 _atom_site_fract_z
 _atom_site_occupancy
  Pr  Pr0  1  0.66665139  0.33334861  0.75000000  1
  Pr  Pr1  1  0.33334861  0.66665139  0.25000000  1
  Pr  Pr2  1  0.66667401  0.33332599  0.63283660  1
  Pr  Pr3  1  0.33332599  0.66667401  0.36716340  1
  Pr  Pr4  1  0.33332599  0.66667401  0.13283660  1
  Pr  Pr5  1  0.66667401  0.33332599  0.86716340  1
  Pr  Pr6  1  0.66672233  0.33327767  0.52266676  1
  Pr  Pr7  1  0.33327767  0.66672233  0.47733324  1
  Pr  Pr8  1  0.33327767  0.66672233  0.02266676  1
  Pr  Pr9  1  0.66672233  0.33327767  0.97733324  1
  Ni  Ni10  1  -0.00000000  -0.00000000  0.50000000  1
  Ni  Ni11  1  -0.00000000  -0.00000000  -0.00000000  1
  Ni  Ni12  1  0.00002194  0.99997806  0.75000000  1
  Ni  Ni13  1  0.99997806  0.00002194  0.25000000  1
  Ni  Ni14  1  0.66668586  0.33331414  0.25000000  1
  Ni  Ni15  1  0.33331414  0.66668586  0.75000000  1
  Ni  Ni16  1  -0.00004938  0.00004938  0.62795372  1
  Ni  Ni17  1  0.00004938  -0.00004938  0.37204628  1
  Ni  Ni18  1  0.00004938  -0.00004938  0.12795372  1
  Ni  Ni19  1  -0.00004938  0.00004938  0.87204628  1
  Ni  Ni20  1  0.66665297  0.33334703  0.37265082  1
  Ni  Ni21  1  0.33334703  0.66665297  0.62734918  1
  Ni  Ni22  1  0.33334703  0.66665297  0.87265082  1
  Ni  Ni23  1  0.66665297  0.33334703  0.12734918  1
  Ni  Ni24  1  0.16548654  0.33132567  0.56636471  1
  Ni  Ni25  1  0.16570852  0.83429148  0.56632262  1
  Ni  Ni26  1  0.66867433  0.83451346  0.56636471  1
  Ni  Ni27  1  0.83451346  0.66867433  0.43363529  1
  Ni  Ni28  1  0.83429148  0.16570852  0.43367738  1
  Ni  Ni29  1  0.33132567  0.16548654  0.43363529  1
  Ni  Ni30  1  0.83451346  0.66867433  0.06636471  1
  Ni  Ni31  1  0.83429148  0.16570852  0.06632262  1
  Ni  Ni32  1  0.33132567  0.16548654  0.06636471  1
  Ni  Ni33  1  0.16548654  0.33132567  0.93363529  1
  Ni  Ni34  1  0.16570852  0.83429148  0.93367738  1
  Ni  Ni35  1  0.66867433  0.83451346  0.93363529  1
  Ni  Ni36  1  0.16738199  0.33479222  0.68934303  1
  Ni  Ni37  1  0.16734425  0.83265575  0.68936300  1
  Ni  Ni38  1  0.66520778  0.83261801  0.68934303  1
  Ni  Ni39  1  0.83261801  0.66520778  0.31065697  1
  Ni  Ni40  1  0.83265575  0.16734425  0.31063700  1
  Ni  Ni41  1  0.33479222  0.16738199  0.31065697  1
  Ni  Ni42  1  0.83261801  0.66520778  0.18934303  1
  Ni  Ni43  1  0.83265575  0.16734425  0.18936300  1
  Ni  Ni44  1  0.33479222  0.16738199  0.18934303  1
  Ni  Ni45  1  0.16738199  0.33479222  0.81065697  1
  Ni  Ni46  1  0.16734425  0.83265575  0.81063700  1
  Ni  Ni47  1  0.66520778  0.83261801  0.81065697  1
