# generated using pymatgen
data_SnH8(ClO)4
_symmetry_space_group_name_H-M   'P 1'
_cell_length_a   6.92226783
_cell_length_b   12.08036262
_cell_length_c   12.89695686
_cell_angle_alpha   93.17549720
_cell_angle_beta   105.56719203
_cell_angle_gamma   90.00000000
_symmetry_Int_Tables_number   1
_chemical_formula_structural   SnH8(ClO)4
_chemical_formula_sum   'Sn4 H32 Cl16 O16'
_cell_volume   1037.20675404
_cell_formula_units_Z   4
loop_
 _symmetry_equiv_pos_site_id
 _symmetry_equiv_pos_as_xyz
  1  'x, y, z'
loop_
 _atom_site_type_symbol
 _atom_site_label
 _atom_site_symmetry_multiplicity
 _atom_site_fract_x
 _atom_site_fract_y
 _atom_site_fract_z
 _atom_site_occupancy
  Sn  Sn0  1  0.58883377  0.06037501  0.85294050  1
  Sn  Sn1  1  0.26410673  0.56037501  0.85294050  1
  Sn  Sn2  1  0.05043054  0.31106441  0.36008954  1
  Sn  Sn3  1  0.30965900  0.81106441  0.36008954  1
  H  H4  1  0.48238409  0.84128358  0.80176084  1
  H  H5  1  0.31937675  0.34128358  0.80176084  1
  H  H6  1  0.28579027  0.90863181  0.74391697  1
  H  H7  1  0.45812670  0.40863181  0.74391697  1
  H  H8  1  0.95380791  0.96523775  0.93265857  1
  H  H9  1  0.97885066  0.46523775  0.93265857  1
  H  H10  1  0.90758727  0.94083419  0.80126164  1
  H  H11  1  0.89367437  0.44083419  0.80126164  1
  H  H12  1  0.34439698  0.47638199  0.46381671  1
  H  H13  1  0.11941974  0.97638199  0.46381671  1
  H  H14  1  0.11803516  0.53067254  0.43347839  1
  H  H15  1  0.31544322  0.03067254  0.43347839  1
  H  H16  1  0.06495424  0.40837979  0.16918647  1
  H  H17  1  0.10423223  0.90837979  0.16918647  1
  H  H18  1  0.23015011  0.30894894  0.19215563  1
  H  H19  1  0.96200551  0.80894894  0.19215563  1
  H  H20  1  0.64376907  0.45859704  0.45628278  1
  H  H21  1  0.81251371  0.95859704  0.45628278  1
  H  H22  1  0.68166180  0.31189147  0.69370862  1
  H  H23  1  0.01204682  0.81189147  0.69370862  1
  H  H24  1  0.65418743  0.42599687  0.63711619  1
  H  H25  1  0.98292877  0.92599687  0.63711619  1
  H  H26  1  0.10432179  0.06710117  0.08563302  1
  H  H27  1  0.98131123  0.56710117  0.08563302  1
  H  H28  1  0.25862962  0.98720053  0.05506863  1
  H  H29  1  0.79643901  0.48720053  0.05506863  1
  H  H30  1  0.48331589  0.20105131  0.18026848  1
  H  H31  1  0.69695259  0.70105131  0.18026848  1
  H  H32  1  0.36936242  0.23568726  0.06584171  1
  H  H33  1  0.69647928  0.73568726  0.06584171  1
  H  H34  1  0.60878757  0.57305444  0.51319213  1
  H  H35  1  0.90440456  0.07305444  0.51319213  1
  Cl  Cl36  1  0.62282165  0.11100083  0.68007908  1
  Cl  Cl37  1  0.05725743  0.61100083  0.68007908  1
  Cl  Cl38  1  0.79352024  0.21192624  0.95179035  1
  Cl  Cl39  1  0.15827011  0.71192624  0.95179035  1
  Cl  Cl40  1  0.57301032  0.96947283  0.01516006  1
  Cl  Cl41  1  0.44214974  0.46947283  0.01516006  1
  Cl  Cl42  1  0.26555634  0.14776217  0.83336910  1
  Cl  Cl43  1  0.56781276  0.64776217  0.83336910  1
  Cl  Cl44  1  0.95872227  0.26968401  0.52319019  1
  Cl  Cl45  1  0.56446792  0.76968401  0.52319019  1
  Cl  Cl46  1  0.88685470  0.15011856  0.25504510  1
  Cl  Cl47  1  0.36819040  0.65011856  0.25504510  1
  Cl  Cl48  1  0.76960939  0.43418968  0.29880130  1
  Cl  Cl49  1  0.52919191  0.93418968  0.29880130  1
  Cl  Cl50  1  0.38205491  0.23151774  0.41578911  1
  Cl  Cl51  1  0.03373421  0.73151774  0.41578911  1
  O  O52  1  0.43773054  0.90925921  0.76409054  1
  O  O53  1  0.32636000  0.40925921  0.76409054  1
  O  O54  1  0.84616950  0.95267620  0.86321793  1
  O  O55  1  0.01704843  0.45267620  0.86321793  1
  O  O56  1  0.19343751  0.46186180  0.44569997  1
  O  O57  1  0.25226247  0.96186180  0.44569997  1
  O  O58  1  0.15599341  0.36605588  0.22665848  1
  O  O59  1  0.07066507  0.86605588  0.22665848  1
  O  O60  1  0.57861354  0.49297278  0.50900092  1
  O  O61  1  0.93038738  0.99297278  0.50900092  1
  O  O62  1  0.67311437  0.39237680  0.70787847  1
  O  O63  1  0.03476410  0.89237680  0.70787847  1
  O  O64  1  0.11997841  0.98993748  0.06168680  1
  O  O65  1  0.94170839  0.48993748  0.06168680  1
  O  O66  1  0.34930176  0.21736971  0.13494179  1
  O  O67  1  0.78564003  0.71736971  0.13494179  1
