# generated using pymatgen
data_NdInNi
_symmetry_space_group_name_H-M   'P 1'
_cell_length_a   7.88484496
_cell_length_b   7.88180375
_cell_length_c   3.79397079
_cell_angle_alpha   89.99926296
_cell_angle_beta   89.99972307
_cell_angle_gamma   119.35559974
_symmetry_Int_Tables_number   1
_chemical_formula_structural   NdInNi
_chemical_formula_sum   'Nd3 In3 Ni3'
_cell_volume   205.50716736
_cell_formula_units_Z   3
loop_
 _symmetry_equiv_pos_site_id
 _symmetry_equiv_pos_as_xyz
  1  'x, y, z'
loop_
 _atom_site_type_symbol
 _atom_site_label
 _atom_site_symmetry_multiplicity
 _atom_site_fract_x
 _atom_site_fract_y
 _atom_site_fract_z
 _atom_site_occupancy
  Nd  Nd0  1  0.33127546  0.33134269  0.50000898  1
  Nd  Nd1  1  0.67129028  0.00139860  0.50000263  1
  Nd  Nd2  1  0.00140676  0.67138386  0.50000366  1
  In  In3  1  0.66400578  0.66400126  0.99994894  1
  In  In4  1  0.33646200  0.00015917  0.00002781  1
  In  In5  1  0.00014302  0.33646821  0.99998903  1
  Ni  Ni6  1  0.99854061  0.99849555  0.00001285  1
  Ni  Ni7  1  0.66510657  0.33182134  0.00000404  1
  Ni  Ni8  1  0.33186952  0.66502932  0.00000207  1
