# generated using pymatgen
data_DyFe3(BO3)4
_symmetry_space_group_name_H-M   'P 1'
_cell_length_a   7.66837506
_cell_length_b   9.61802370
_cell_length_c   9.61802351
_cell_angle_alpha   120.00005238
_cell_angle_beta   90.00000359
_cell_angle_gamma   89.99999714
_symmetry_Int_Tables_number   1
_chemical_formula_structural   DyFe3(BO3)4
_chemical_formula_sum   'Dy3 Fe9 B12 O36'
_cell_volume   614.33523628
_cell_formula_units_Z   3
loop_
 _symmetry_equiv_pos_site_id
 _symmetry_equiv_pos_as_xyz
  1  'x, y, z'
loop_
 _atom_site_type_symbol
 _atom_site_label
 _atom_site_symmetry_multiplicity
 _atom_site_fract_x
 _atom_site_fract_y
 _atom_site_fract_z
 _atom_site_occupancy
  Dy  Dy0  1  0.66665338  0.66418140  0.66418073  1
  Dy  Dy1  1  0.99998729  0.33581939  0.00000076  1
  Dy  Dy2  1  0.33332010  0.99999921  0.33581863  1
  Fe  Fe3  1  0.66664864  0.11564786  0.11564350  1
  Fe  Fe4  1  0.99998280  0.88435684  0.00000499  1
  Fe  Fe5  1  0.33331482  0.99999627  0.88435305  1
  Fe  Fe6  1  0.67720754  0.66529057  0.21370184  1
  Fe  Fe7  1  0.01054159  0.78629890  0.45158934  1
  Fe  Fe8  1  0.34387412  0.54841056  0.33470902  1
  Fe  Fe9  1  0.98944738  0.33472788  0.54842628  1
  Fe  Fe10  1  0.32278080  0.45157370  0.78629999  1
  Fe  Fe11  1  0.65611349  0.21369823  0.66527179  1
  B  B12  1  0.16665530  0.66755618  0.66755630  1
  B  B13  1  0.49998924  0.33244372  -0.00000003  1
  B  B14  1  0.83332227  -0.00000002  0.33244364  1
  B  B15  1  0.48656282  0.32444844  0.44813262  1
  B  B16  1  0.81989675  0.55186741  0.87631586  1
  B  B17  1  0.15322974  0.12368427  0.67555150  1
  B  B18  1  0.18009650  0.67555475  0.12368625  1
  B  B19  1  0.51343039  0.87631381  0.55186865  1
  B  B20  1  0.84676345  0.44813139  0.32444502  1
  B  B21  1  0.16665202  0.22078632  0.22078644  1
  B  B22  1  0.49998592  0.77921352  -0.00000023  1
  B  B23  1  0.83331907  0.00000010  0.77921383  1
  O  O24  1  0.16663441  0.07704522  0.07704061  1
  O  O25  1  0.49996786  0.92295900  0.00000439  1
  O  O26  1  0.83330132  0.99999540  0.92295444  1
  O  O27  1  0.46276005  0.30734876  0.58179756  1
  O  O28  1  0.79609391  0.41820279  0.72555131  1
  O  O29  1  0.12942691  0.27444859  0.69265168  1
  O  O30  1  0.20390255  0.69265823  0.27444921  1
  O  O31  1  0.53723624  0.72555062  0.41820882  1
  O  O32  1  0.87056937  0.58179115  0.30734174  1
  O  O33  1  0.15329639  0.81741272  0.12340716  1
  O  O34  1  0.48663033  0.87659305  0.69400572  1
  O  O35  1  0.81996350  0.30599384  0.18258712  1
  O  O36  1  0.51335142  0.18258630  0.30599767  1
  O  O37  1  0.84668523  0.69400238  0.87658910  1
  O  O38  1  0.18001826  0.12341117  0.81741313  1
  O  O39  1  0.51545375  0.78689256  0.14774033  1
  O  O40  1  0.84878790  0.85225980  0.63915256  1
  O  O41  1  0.18212085  0.36084787  0.21310737  1
  O  O42  1  0.15119007  0.21310949  0.36084983  1
  O  O43  1  0.48452433  0.63915032  0.85225983  1
  O  O44  1  0.81785709  0.14773996  0.78689045  1
  O  O45  1  0.17561323  0.66944205  0.52484524  1
  O  O46  1  0.50894704  0.47515458  0.14459646  1
  O  O47  1  0.84227982  0.85540336  0.33055814  1
  O  O48  1  0.49104209  0.33055272  0.85540031  1
  O  O49  1  0.82437581  0.14459977  0.47515240  1
  O  O50  1  0.15770885  0.52484766  0.66944726  1
  O  O51  1  0.16664049  0.81160560  0.81160084  1
  O  O52  1  0.49997423  0.18839950  0.00000496  1
  O  O53  1  0.83330751  0.99999509  0.18839439  1
  O  O54  1  0.14814256  0.98976327  0.52465125  1
  O  O55  1  0.48147642  0.47534865  0.46511230  1
  O  O56  1  0.81480946  0.53488797  0.01023682  1
  O  O57  1  0.51851162  0.01023338  0.53488392  1
  O  O58  1  0.85184516  0.46511594  0.47534941  1
  O  O59  1  0.18517851  0.52465054  0.98976651  1
