# generated using pymatgen
data_Ho2ZrS5
_symmetry_space_group_name_H-M   'P 1'
_cell_length_a   7.25282099
_cell_length_b   7.73937748
_cell_length_c   11.58315707
_cell_angle_alpha   90.00000000
_cell_angle_beta   90.00000000
_cell_angle_gamma   90.00000000
_symmetry_Int_Tables_number   1
_chemical_formula_structural   Ho2ZrS5
_chemical_formula_sum   'Ho8 Zr4 S20'
_cell_volume   650.18947274
_cell_formula_units_Z   4
loop_
 _symmetry_equiv_pos_site_id
 _symmetry_equiv_pos_as_xyz
  1  'x, y, z'
loop_
 _atom_site_type_symbol
 _atom_site_label
 _atom_site_symmetry_multiplicity
 _atom_site_fract_x
 _atom_site_fract_y
 _atom_site_fract_z
 _atom_site_occupancy
  Ho  Ho0  1  0.97899661  0.00276561  0.17930022  1
  Ho  Ho1  1  0.52100339  0.49723439  0.67930022  1
  Ho  Ho2  1  0.02100339  0.50276561  0.82069978  1
  Ho  Ho3  1  0.47899661  0.99723439  0.32069978  1
  Ho  Ho4  1  0.02100339  0.99723439  0.82069978  1
  Ho  Ho5  1  0.47899661  0.50276561  0.32069978  1
  Ho  Ho6  1  0.97899661  0.49723439  0.17930022  1
  Ho  Ho7  1  0.52100339  0.00276561  0.67930022  1
  Zr  Zr8  1  0.42079034  0.75000000  0.00676780  1
  Zr  Zr9  1  0.07920966  0.75000000  0.50676780  1
  Zr  Zr10  1  0.57920966  0.25000000  0.99323220  1
  Zr  Zr11  1  0.92079034  0.25000000  0.49323220  1
  S  S12  1  0.66106402  0.53802325  0.90441641  1
  S  S13  1  0.83893598  0.96197675  0.40441641  1
  S  S14  1  0.33893598  0.03802325  0.09558359  1
  S  S15  1  0.16106402  0.46197675  0.59558359  1
  S  S16  1  0.33893598  0.46197675  0.09558359  1
  S  S17  1  0.16106402  0.03802325  0.59558359  1
  S  S18  1  0.66106402  0.96197675  0.90441641  1
  S  S19  1  0.83893598  0.53802325  0.40441641  1
  S  S20  1  0.66935471  0.75000000  0.18251432  1
  S  S21  1  0.83064529  0.75000000  0.68251432  1
  S  S22  1  0.33064529  0.25000000  0.81748568  1
  S  S23  1  0.16935471  0.25000000  0.31748568  1
  S  S24  1  0.04926473  0.75000000  0.00254409  1
  S  S25  1  0.45073527  0.75000000  0.50254409  1
  S  S26  1  0.95073527  0.25000000  0.99745591  1
  S  S27  1  0.54926473  0.25000000  0.49745591  1
  S  S28  1  0.30810059  0.75000000  0.79120095  1
  S  S29  1  0.19189941  0.75000000  0.29120095  1
  S  S30  1  0.69189941  0.25000000  0.20879905  1
  S  S31  1  0.80810059  0.25000000  0.70879905  1
