# generated using pymatgen
data_PrErS3
_symmetry_space_group_name_H-M   'P 1'
_cell_length_a   3.97553893
_cell_length_b   11.05039968
_cell_length_c   21.58709541
_cell_angle_alpha   101.49766558
_cell_angle_beta   90.00000000
_cell_angle_gamma   90.00000000
_symmetry_Int_Tables_number   1
_chemical_formula_structural   PrErS3
_chemical_formula_sum   'Pr8 Er8 S24'
_cell_volume   929.31835340
_cell_formula_units_Z   8
loop_
 _symmetry_equiv_pos_site_id
 _symmetry_equiv_pos_as_xyz
  1  'x, y, z'
loop_
 _atom_site_type_symbol
 _atom_site_label
 _atom_site_symmetry_multiplicity
 _atom_site_fract_x
 _atom_site_fract_y
 _atom_site_fract_z
 _atom_site_occupancy
  Pr  Pr0  1  0.25000000  0.69683102  0.76502277  1
  Pr  Pr1  1  0.75000000  0.30316898  0.23497723  1
  Pr  Pr2  1  0.25000000  0.09217141  0.86308808  1
  Pr  Pr3  1  0.75000000  0.90782859  0.13691192  1
  Pr  Pr4  1  0.25000000  0.30758594  0.73112098  1
  Pr  Pr5  1  0.75000000  0.69241406  0.26887902  1
  Pr  Pr6  1  0.25000000  0.20086527  0.53517314  1
  Pr  Pr7  1  0.75000000  0.79913473  0.46482686  1
  Er  Er8  1  0.25000000  0.44783340  0.41706093  1
  Er  Er9  1  0.75000000  0.55216660  0.58293907  1
  Er  Er10  1  0.25000000  0.02902684  0.35141676  1
  Er  Er11  1  0.75000000  0.97097316  0.64858324  1
  Er  Er12  1  0.25000000  0.17886895  0.04685186  1
  Er  Er13  1  0.75000000  0.82113105  0.95314814  1
  Er  Er14  1  0.25000000  0.52329428  0.08878113  1
  Er  Er15  1  0.75000000  0.47670572  0.91121887  1
  S  S16  1  0.25000000  0.91492580  0.03712339  1
  S  S17  1  0.75000000  0.08507420  0.96287661  1
  S  S18  1  0.25000000  0.79534303  0.36719194  1
  S  S19  1  0.75000000  0.20465697  0.63280806  1
  S  S20  1  0.25000000  0.25420747  0.32424527  1
  S  S21  1  0.75000000  0.74579253  0.67575473  1
  S  S22  1  0.25000000  0.36368289  0.96371610  1
  S  S23  1  0.75000000  0.63631711  0.03628390  1
  S  S24  1  0.25000000  0.49496953  0.22164844  1
  S  S25  1  0.75000000  0.50503047  0.77835156  1
  S  S26  1  0.25000000  0.74769278  0.17512260  1
  S  S27  1  0.75000000  0.25230722  0.82487740  1
  S  S28  1  0.25000000  0.12399110  0.16416792  1
  S  S29  1  0.75000000  0.87600890  0.83583208  1
  S  S30  1  0.25000000  0.64434948  0.51500609  1
  S  S31  1  0.75000000  0.35565052  0.48499391  1
  S  S32  1  0.25000000  0.94241355  0.55552177  1
  S  S33  1  0.75000000  0.05758645  0.44447823  1
  S  S34  1  0.25000000  0.03815895  0.72851238  1
  S  S35  1  0.75000000  0.96184105  0.27148762  1
  S  S36  1  0.25000000  0.45241086  0.63332149  1
  S  S37  1  0.75000000  0.54758914  0.36667851  1
  S  S38  1  0.25000000  0.65859292  0.90004626  1
  S  S39  1  0.75000000  0.34140708  0.09995374  1
