# generated using pymatgen
data_KNi3P3O11
_symmetry_space_group_name_H-M   'P 1'
_cell_length_a   9.49495397
_cell_length_b   9.98810602
_cell_length_c   10.09494820
_cell_angle_alpha   118.96987102
_cell_angle_beta   90.00000146
_cell_angle_gamma   89.99999117
_symmetry_Int_Tables_number   1
_chemical_formula_structural   KNi3P3O11
_chemical_formula_sum   'K4 Ni12 P12 O44'
_cell_volume   837.57917665
_cell_formula_units_Z   4
loop_
 _symmetry_equiv_pos_site_id
 _symmetry_equiv_pos_as_xyz
  1  'x, y, z'
loop_
 _atom_site_type_symbol
 _atom_site_label
 _atom_site_symmetry_multiplicity
 _atom_site_fract_x
 _atom_site_fract_y
 _atom_site_fract_z
 _atom_site_occupancy
  K  K0  1  0.76456783  0.00188287  0.91900509  1
  K  K1  1  0.73543341  0.50188345  0.41900500  1
  K  K2  1  0.23543217  0.99811713  0.08099491  1
  K  K3  1  0.26456659  0.49811655  0.58099500  1
  Ni  Ni4  1  0.37178575  0.36218242  0.12507881  1
  Ni  Ni5  1  0.12821626  0.86218239  0.62507665  1
  Ni  Ni6  1  0.62821425  0.63781758  0.87492119  1
  Ni  Ni7  1  0.87178374  0.13781761  0.37492335  1
  Ni  Ni8  1  0.86794649  0.50804293  0.10350929  1
  Ni  Ni9  1  0.63205201  0.00804099  0.60350929  1
  Ni  Ni10  1  0.13205351  0.49195707  0.89649071  1
  Ni  Ni11  1  0.36794799  0.99195901  0.39649071  1
  Ni  Ni12  1  0.36855396  0.17907946  0.76410162  1
  Ni  Ni13  1  0.13144901  0.67908177  0.26410186  1
  Ni  Ni14  1  0.63144604  0.82092054  0.23589838  1
  Ni  Ni15  1  0.86855099  0.32091823  0.73589814  1
  P  P16  1  0.66235849  0.32809756  0.93112090  1
  P  P17  1  0.83764165  0.82809764  0.43112082  1
  P  P18  1  0.33764151  0.67190244  0.06887910  1
  P  P19  1  0.16235835  0.17190236  0.56887918  1
  P  P20  1  0.07448884  0.19431088  0.92317346  1
  P  P21  1  0.42551094  0.69431105  0.42317361  1
  P  P22  1  0.92551116  0.80568912  0.07682654  1
  P  P23  1  0.57448906  0.30568895  0.57682639  1
  P  P24  1  0.05939472  0.35127141  0.25172114  1
  P  P25  1  0.44060533  0.85127143  0.75172113  1
  P  P26  1  0.94060528  0.64872859  0.74827886  1
  P  P27  1  0.55939467  0.14872857  0.24827887  1
  O  O28  1  0.72915692  0.46793282  0.91591039  1
  O  O29  1  0.77084296  0.96793292  0.41591050  1
  O  O30  1  0.27084308  0.53206718  0.08408961  1
  O  O31  1  0.22915704  0.03206708  0.58408950  1
  O  O32  1  0.49999454  0.32504296  0.93480959  1
  O  O33  1  0.00000525  0.82504298  0.43480971  1
  O  O34  1  0.50000546  0.67495704  0.06519041  1
  O  O35  1  -0.00000525  0.17495702  0.56519029  1
  O  O36  1  0.72847640  0.34342483  0.07609604  1
  O  O37  1  0.77152366  0.84342477  0.57609601  1
  O  O38  1  0.27152360  0.65657517  0.92390396  1
  O  O39  1  0.22847634  0.15657523  0.42390399  1
  O  O40  1  0.72447298  0.18777901  0.78560827  1
  O  O41  1  0.77552679  0.68777915  0.28560837  1
  O  O42  1  0.27552702  0.81222099  0.21439173  1
  O  O43  1  0.22447321  0.31222085  0.71439163  1
  O  O44  1  0.02189435  0.04161776  0.80110075  1
  O  O45  1  0.47810572  0.54161769  0.30110048  1
  O  O46  1  0.97810565  0.95838224  0.19889925  1
  O  O47  1  0.52189428  0.45838231  0.69889952  1
  O  O48  1  0.00402826  0.33387862  0.91541833  1
  O  O49  1  0.49597161  0.83387875  0.41541855  1
  O  O50  1  0.99597174  0.66612138  0.08458167  1
  O  O51  1  0.50402839  0.16612125  0.58458145  1
  O  O52  1  0.23629724  0.20877570  0.93676123  1
  O  O53  1  0.26370285  0.70877563  0.43676121  1
  O  O54  1  0.76370276  0.79122430  0.06323877  1
  O  O55  1  0.73629715  0.29122437  0.56323879  1
  O  O56  1  0.02037545  0.20875150  0.08099602  1
  O  O57  1  0.47962450  0.70875147  0.58099602  1
  O  O58  1  0.97962455  0.79124850  0.91900398  1
  O  O59  1  0.52037550  0.29124853  0.41900398  1
  O  O60  1  0.97556188  0.31716935  0.35897297  1
  O  O61  1  0.52443792  0.81716923  0.85897275  1
  O  O62  1  0.02443812  0.68283065  0.64102703  1
  O  O63  1  0.47556208  0.18283077  0.14102725  1
  O  O64  1  0.21874647  0.35294589  0.26623831  1
  O  O65  1  0.28125357  0.85294615  0.76623825  1
  O  O66  1  0.78125353  0.64705411  0.73376169  1
  O  O67  1  0.71874643  0.14705385  0.23376175  1
  O  O68  1  0.00849632  0.49840451  0.24924079  1
  O  O69  1  0.49150389  0.99840455  0.74924094  1
  O  O70  1  0.99150368  0.50159549  0.75075921  1
  O  O71  1  0.50849611  0.00159545  0.25075906  1
