# generated using pymatgen
data_NaTb(PO3)4
_symmetry_space_group_name_H-M   'P 1'
_cell_length_a   7.25246239
_cell_length_b   9.85797045
_cell_length_c   13.19355936
_cell_angle_alpha   90.00000000
_cell_angle_beta   90.00000000
_cell_angle_gamma   90.55244890
_symmetry_Int_Tables_number   1
_chemical_formula_structural   NaTb(PO3)4
_chemical_formula_sum   'Na4 Tb4 P16 O48'
_cell_volume   943.22387366
_cell_formula_units_Z   4
loop_
 _symmetry_equiv_pos_site_id
 _symmetry_equiv_pos_as_xyz
  1  'x, y, z'
loop_
 _atom_site_type_symbol
 _atom_site_label
 _atom_site_symmetry_multiplicity
 _atom_site_fract_x
 _atom_site_fract_y
 _atom_site_fract_z
 _atom_site_occupancy
  Na  Na0  1  0.49925525  0.56344016  0.27832000  1
  Na  Na1  1  0.99925525  0.06344016  0.22168000  1
  Na  Na2  1  0.50074475  0.43655984  0.72168000  1
  Na  Na3  1  0.00074475  0.93655984  0.77832000  1
  Tb  Tb4  1  0.01263930  0.47714002  0.28081613  1
  Tb  Tb5  1  0.51263930  0.97714002  0.21918387  1
  Tb  Tb6  1  0.98736070  0.52285998  0.71918387  1
  Tb  Tb7  1  0.48736070  0.02285998  0.78081613  1
  P  P8  1  0.74999866  0.74420775  0.39814695  1
  P  P9  1  0.24999866  0.24420775  0.10185305  1
  P  P10  1  0.25000134  0.25579225  0.60185305  1
  P  P11  1  0.75000134  0.75579225  0.89814695  1
  P  P12  1  0.37598748  0.26309736  0.38470795  1
  P  P13  1  0.87598748  0.76309736  0.11529205  1
  P  P14  1  0.62401252  0.73690264  0.61529205  1
  P  P15  1  0.12401252  0.23690264  0.88470795  1
  P  P16  1  0.14729649  0.80327678  0.37195383  1
  P  P17  1  0.64729649  0.30327678  0.12804617  1
  P  P18  1  0.85270351  0.19672322  0.62804617  1
  P  P19  1  0.35270351  0.69672322  0.87195383  1
  P  P20  1  0.76807436  0.20037791  0.40857305  1
  P  P21  1  0.26807436  0.70037791  0.09142695  1
  P  P22  1  0.23192564  0.79962209  0.59142695  1
  P  P23  1  0.73192564  0.29962209  0.90857305  1
  O  O24  1  0.72281292  0.39468591  0.20979781  1
  O  O25  1  0.22281292  0.89468591  0.29020219  1
  O  O26  1  0.27718708  0.60531409  0.79020219  1
  O  O27  1  0.77718708  0.10531409  0.70979781  1
  O  O28  1  0.58596920  0.29260663  0.41908048  1
  O  O29  1  0.08596920  0.79260663  0.08091952  1
  O  O30  1  0.41403080  0.70739337  0.58091952  1
  O  O31  1  0.91403080  0.20739337  0.91908048  1
  O  O32  1  0.86810702  0.64781496  0.18921595  1
  O  O33  1  0.36810702  0.14781496  0.31078405  1
  O  O34  1  0.13189298  0.35218504  0.81078405  1
  O  O35  1  0.63189298  0.85218504  0.68921595  1
  O  O36  1  0.29802290  0.39710665  0.35283085  1
  O  O37  1  0.79802290  0.89710665  0.14716915  1
  O  O38  1  0.70197710  0.60289335  0.64716915  1
  O  O39  1  0.20197710  0.10289335  0.85283085  1
  O  O40  1  0.92974797  0.83559441  0.37520784  1
  O  O41  1  0.42974797  0.33559441  0.12479216  1
  O  O42  1  0.07025203  0.16440559  0.62479216  1
  O  O43  1  0.57025203  0.66440559  0.87520784  1
  O  O44  1  0.59436244  0.79787992  0.33377619  1
  O  O45  1  0.09436244  0.29787992  0.16622381  1
  O  O46  1  0.40563756  0.20212008  0.66622381  1
  O  O47  1  0.90563756  0.70212008  0.83377619  1
  O  O48  1  0.78262089  0.13599111  0.52111509  1
  O  O49  1  0.28262089  0.63599111  0.97888491  1
  O  O50  1  0.21737911  0.86400889  0.47888491  1
  O  O51  1  0.71737911  0.36400889  0.02111509  1
  O  O52  1  0.28359910  0.20839536  0.48690353  1
  O  O53  1  0.78359910  0.70839536  0.01309647  1
  O  O54  1  0.71640090  0.79160464  0.51309647  1
  O  O55  1  0.21640090  0.29160464  0.98690353  1
  O  O56  1  0.23696703  0.58301438  0.16225552  1
  O  O57  1  0.73696703  0.08301438  0.33774448  1
  O  O58  1  0.76303297  0.41698562  0.83774448  1
  O  O59  1  0.26303297  0.91698562  0.66225552  1
  O  O60  1  0.78749929  0.59450813  0.39060810  1
  O  O61  1  0.28749929  0.09450813  0.10939190  1
  O  O62  1  0.21250071  0.40549187  0.60939190  1
  O  O63  1  0.71250071  0.90549187  0.89060810  1
  O  O64  1  0.17605167  0.65314828  0.36616469  1
  O  O65  1  0.67605167  0.15314828  0.13383531  1
  O  O66  1  0.82394833  0.34685172  0.63383531  1
  O  O67  1  0.32394833  0.84685172  0.86616469  1
  O  O68  1  0.92762558  0.29494602  0.38804367  1
  O  O69  1  0.42762558  0.79494602  0.11195633  1
  O  O70  1  0.07237442  0.70505398  0.61195633  1
  O  O71  1  0.57237442  0.20505398  0.88804367  1
