# generated using pymatgen
data_BaLuCo4O7
_symmetry_space_group_name_H-M   'P 1'
_cell_length_a   6.31003112
_cell_length_b   10.28391398
_cell_length_c   10.99559378
_cell_angle_alpha   90.00000000
_cell_angle_beta   90.00000000
_cell_angle_gamma   90.00000000
_symmetry_Int_Tables_number   1
_chemical_formula_structural   BaLuCo4O7
_chemical_formula_sum   'Ba4 Lu4 Co16 O28'
_cell_volume   713.52406212
_cell_formula_units_Z   4
loop_
 _symmetry_equiv_pos_site_id
 _symmetry_equiv_pos_as_xyz
  1  'x, y, z'
loop_
 _atom_site_type_symbol
 _atom_site_label
 _atom_site_symmetry_multiplicity
 _atom_site_fract_x
 _atom_site_fract_y
 _atom_site_fract_z
 _atom_site_occupancy
  Ba  Ba0  1  0.49339378  0.50244386  0.83617357  1
  Ba  Ba1  1  0.50660622  0.00244386  0.16382643  1
  Ba  Ba2  1  0.99339378  0.00244386  0.66382643  1
  Ba  Ba3  1  0.00660622  0.50244386  0.33617357  1
  Lu  Lu4  1  0.50280436  0.12733237  0.83008637  1
  Lu  Lu5  1  0.49719564  0.62733237  0.16991363  1
  Lu  Lu6  1  0.00280436  0.62733237  0.66991363  1
  Lu  Lu7  1  0.99719564  0.12733237  0.33008637  1
  Co  Co8  1  0.50048023  0.06081543  0.50068265  1
  Co  Co9  1  0.49951977  0.56081543  0.49931735  1
  Co  Co10  1  0.00048023  0.56081543  0.99931735  1
  Co  Co11  1  0.99951977  0.06081543  0.00068265  1
  Co  Co12  1  0.75768212  0.32007912  0.58299554  1
  Co  Co13  1  0.24231788  0.82007912  0.41700446  1
  Co  Co14  1  0.25768212  0.82007912  0.91700446  1
  Co  Co15  1  0.74231788  0.32007912  0.08299554  1
  Co  Co16  1  0.75473045  0.81538940  0.41090129  1
  Co  Co17  1  0.24526955  0.31538940  0.58909871  1
  Co  Co18  1  0.25473045  0.31538940  0.08909871  1
  Co  Co19  1  0.74526955  0.81538940  0.91090129  1
  Co  Co20  1  0.50147964  0.31720031  0.32729070  1
  Co  Co21  1  0.49852036  0.81720031  0.67270930  1
  Co  Co22  1  0.00147964  0.81720031  0.17270930  1
  Co  Co23  1  0.99852036  0.31720031  0.82729070  1
  O  O24  1  0.27518992  0.22120802  0.24435565  1
  O  O25  1  0.72481008  0.72120802  0.75564435  1
  O  O26  1  0.77518992  0.72120802  0.25564435  1
  O  O27  1  0.22481008  0.22120802  0.74435565  1
  O  O28  1  0.21883100  0.77896798  0.75270618  1
  O  O29  1  0.78116900  0.27896798  0.24729382  1
  O  O30  1  0.71883100  0.27896798  0.74729382  1
  O  O31  1  0.28116900  0.77896798  0.25270618  1
  O  O32  1  0.48985708  0.75927251  0.00639226  1
  O  O33  1  0.51014292  0.25927251  0.99360774  1
  O  O34  1  0.98985708  0.25927251  0.49360774  1
  O  O35  1  0.01014292  0.75927251  0.50639226  1
  O  O36  1  0.49300877  0.75653594  0.49892048  1
  O  O37  1  0.50699123  0.25653594  0.50107952  1
  O  O38  1  0.99300877  0.25653594  0.00107952  1
  O  O39  1  0.00699123  0.75653594  0.99892048  1
  O  O40  1  0.73619533  0.00525392  0.39963252  1
  O  O41  1  0.26380467  0.50525392  0.60036748  1
  O  O42  1  0.23619533  0.50525392  0.10036748  1
  O  O43  1  0.76380467  0.00525392  0.89963252  1
  O  O44  1  0.45428962  0.50454621  0.33134739  1
  O  O45  1  0.54571038  0.00454621  0.66865261  1
  O  O46  1  0.95428962  0.00454621  0.16865261  1
  O  O47  1  0.04571038  0.50454621  0.83134739  1
  O  O48  1  0.77629208  0.50295493  0.56584365  1
  O  O49  1  0.22370792  0.00295493  0.43415635  1
  O  O50  1  0.27629208  0.00295493  0.93415635  1
  O  O51  1  0.72370792  0.50295493  0.06584365  1
