# generated using pymatgen
data_Ga4HCl6
_symmetry_space_group_name_H-M   'P 1'
_cell_length_a   8.24374038
_cell_length_b   9.55975152
_cell_length_c   14.52859575
_cell_angle_alpha   90.00000000
_cell_angle_beta   90.00000000
_cell_angle_gamma   90.00000000
_symmetry_Int_Tables_number   1
_chemical_formula_structural   Ga4HCl6
_chemical_formula_sum   'Ga16 H4 Cl24'
_cell_volume   1144.97116661
_cell_formula_units_Z   4
loop_
 _symmetry_equiv_pos_site_id
 _symmetry_equiv_pos_as_xyz
  1  'x, y, z'
loop_
 _atom_site_type_symbol
 _atom_site_label
 _atom_site_symmetry_multiplicity
 _atom_site_fract_x
 _atom_site_fract_y
 _atom_site_fract_z
 _atom_site_occupancy
  Ga  Ga0  1  0.00513469  0.09483834  0.22769604  1
  Ga  Ga1  1  0.00513469  0.09483834  0.77230396  1
  Ga  Ga2  1  0.50513469  0.90516166  0.27230396  1
  Ga  Ga3  1  0.50513469  0.90516166  0.72769604  1
  Ga  Ga4  1  0.71707590  0.76712096  0.00000000  1
  Ga  Ga5  1  0.21707590  0.23287904  0.50000000  1
  Ga  Ga6  1  0.60495699  0.33789928  0.78241298  1
  Ga  Ga7  1  0.60495699  0.33789928  0.21758702  1
  Ga  Ga8  1  0.10495699  0.66210072  0.71758702  1
  Ga  Ga9  1  0.10495699  0.66210072  0.28241298  1
  Ga  Ga10  1  0.26957527  0.05930835  0.00000000  1
  Ga  Ga11  1  0.76957527  0.94069165  0.50000000  1
  Ga  Ga12  1  0.01858846  0.42673276  0.00000000  1
  Ga  Ga13  1  0.51858846  0.57326724  0.50000000  1
  Ga  Ga14  1  0.30512992  0.48683427  0.00000000  1
  Ga  Ga15  1  0.80512992  0.51316573  0.50000000  1
  H  H16  1  0.83550269  0.16383113  0.22091405  1
  H  H17  1  0.83550269  0.16383113  0.77908595  1
  H  H18  1  0.33550269  0.83616887  0.27908595  1
  H  H19  1  0.33550269  0.83616887  0.72091405  1
  Cl  Cl20  1  0.04125665  0.90216213  0.13929020  1
  Cl  Cl21  1  0.04125665  0.90216213  0.86070980  1
  Cl  Cl22  1  0.54125665  0.09783787  0.36070980  1
  Cl  Cl23  1  0.54125665  0.09783787  0.63929020  1
  Cl  Cl24  1  0.06711211  0.01151730  0.36933922  1
  Cl  Cl25  1  0.06711211  0.01151730  0.63066078  1
  Cl  Cl26  1  0.56711211  0.98848270  0.13066078  1
  Cl  Cl27  1  0.56711211  0.98848270  0.86933922  1
  Cl  Cl28  1  0.21262848  0.23630342  0.19283811  1
  Cl  Cl29  1  0.21262848  0.23630342  0.80716189  1
  Cl  Cl30  1  0.71262848  0.76369658  0.30716189  1
  Cl  Cl31  1  0.71262848  0.76369658  0.69283811  1
  Cl  Cl32  1  0.92605954  0.20732647  0.00000000  1
  Cl  Cl33  1  0.42605954  0.79267353  0.50000000  1
  Cl  Cl34  1  0.88300276  0.52941121  0.87866258  1
  Cl  Cl35  1  0.88300276  0.52941121  0.12133742  1
  Cl  Cl36  1  0.38300276  0.47058879  0.62133742  1
  Cl  Cl37  1  0.38300276  0.47058879  0.37866258  1
  Cl  Cl38  1  0.49797525  0.31637775  0.00000000  1
  Cl  Cl39  1  0.99797525  0.68362225  0.50000000  1
  Cl  Cl40  1  0.38857347  0.61533710  0.12259563  1
  Cl  Cl41  1  0.38857347  0.61533710  0.87740437  1
  Cl  Cl42  1  0.88857347  0.38466290  0.37740437  1
  Cl  Cl43  1  0.88857347  0.38466290  0.62259563  1
