# generated using pymatgen
data_Cs2Fe2P3O8F7
_symmetry_space_group_name_H-M   'P 1'
_cell_length_a   8.33778311
_cell_length_b   8.33778311
_cell_length_c   11.96887048
_cell_angle_alpha   90.00000000
_cell_angle_beta   90.00000000
_cell_angle_gamma   118.94144944
_symmetry_Int_Tables_number   1
_chemical_formula_structural   Cs2Fe2P3O8F7
_chemical_formula_sum   'Cs4 Fe4 P6 O16 F14'
_cell_volume   728.14743186
_cell_formula_units_Z   2
loop_
 _symmetry_equiv_pos_site_id
 _symmetry_equiv_pos_as_xyz
  1  'x, y, z'
loop_
 _atom_site_type_symbol
 _atom_site_label
 _atom_site_symmetry_multiplicity
 _atom_site_fract_x
 _atom_site_fract_y
 _atom_site_fract_z
 _atom_site_occupancy
  Cs  Cs0  1  0.30726267  0.96003250  0.34252617  1
  Cs  Cs1  1  0.03996750  0.69273733  0.65747383  1
  Cs  Cs2  1  0.80726267  0.46003250  0.15747383  1
  Cs  Cs3  1  0.53996750  0.19273733  0.84252617  1
  Fe  Fe4  1  0.76746763  0.80574517  0.43304053  1
  Fe  Fe5  1  0.19425483  0.23253237  0.56695947  1
  Fe  Fe6  1  0.26746763  0.30574517  0.06695947  1
  Fe  Fe7  1  0.69425483  0.73253237  0.93304053  1
  P  P8  1  0.79504744  0.20495256  0.50000000  1
  P  P9  1  0.29504744  0.70495256  0.00000000  1
  P  P10  1  0.35967751  0.47910136  0.33081714  1
  P  P11  1  0.52089864  0.64032249  0.66918286  1
  P  P12  1  0.85967751  0.97910136  0.16918286  1
  P  P13  1  0.02089864  0.14032249  0.83081714  1
  O  O14  1  0.30280948  0.32207163  0.41346631  1
  O  O15  1  0.67792837  0.69719052  0.58653369  1
  O  O16  1  0.80280948  0.82207163  0.08653369  1
  O  O17  1  0.17792837  0.19719052  0.91346631  1
  O  O18  1  0.51805116  0.66215917  0.36777653  1
  O  O19  1  0.33784083  0.48194884  0.63222347  1
  O  O20  1  0.01805116  0.16215917  0.13222347  1
  O  O21  1  0.83784083  0.98194884  0.86777653  1
  O  O22  1  0.88357261  0.92670037  0.28687421  1
  O  O23  1  0.07329963  0.11642739  0.71312579  1
  O  O24  1  0.38357261  0.42670037  0.21312579  1
  O  O25  1  0.57329963  0.61642739  0.78687421  1
  O  O26  1  0.69272042  0.00523544  0.47436737  1
  O  O27  1  0.99476456  0.30727958  0.52563263  1
  O  O28  1  0.19272042  0.50523544  0.02563263  1
  O  O29  1  0.49476456  0.80727958  0.97436737  1
  F  F30  1  0.87456553  0.65359342  0.41156839  1
  F  F31  1  0.34640658  0.12543447  0.58843161  1
  F  F32  1  0.37456553  0.15359342  0.08843161  1
  F  F33  1  0.84640658  0.62543447  0.91156839  1
  F  F34  1  0.19091512  0.52138607  0.32298673  1
  F  F35  1  0.47861393  0.80908488  0.67701327  1
  F  F36  1  0.69091512  0.02138607  0.17701327  1
  F  F37  1  0.97861393  0.30908488  0.82298673  1
  F  F38  1  0.01458038  0.98541962  0.50000000  1
  F  F39  1  0.51458038  0.48541962  0.00000000  1
  F  F40  1  0.74855958  0.30158441  0.40198863  1
  F  F41  1  0.69841559  0.25144042  0.59801137  1
  F  F42  1  0.24855958  0.80158441  0.09801137  1
  F  F43  1  0.19841559  0.75144042  0.90198863  1
