# generated using pymatgen
data_Er2Ni7
_symmetry_space_group_name_H-M   'P 1'
_cell_length_a   4.90719016
_cell_length_b   4.90719016
_cell_length_c   24.00387964
_cell_angle_alpha   90.00000000
_cell_angle_beta   90.00000000
_cell_angle_gamma   120.00068171
_symmetry_Int_Tables_number   1
_chemical_formula_structural   Er2Ni7
_chemical_formula_sum   'Er8 Ni28'
_cell_volume   500.58158041
_cell_formula_units_Z   4
loop_
 _symmetry_equiv_pos_site_id
 _symmetry_equiv_pos_as_xyz
  1  'x, y, z'
loop_
 _atom_site_type_symbol
 _atom_site_label
 _atom_site_symmetry_multiplicity
 _atom_site_fract_x
 _atom_site_fract_y
 _atom_site_fract_z
 _atom_site_occupancy
  Er  Er0  1  0.66670129  0.33329871  0.52887878  1
  Er  Er1  1  0.33329871  0.66670129  0.47112122  1
  Er  Er2  1  0.33329871  0.66670129  0.02887878  1
  Er  Er3  1  0.66670129  0.33329871  0.97112122  1
  Er  Er4  1  0.66666637  0.33333363  0.67303815  1
  Er  Er5  1  0.33333363  0.66666637  0.32696185  1
  Er  Er6  1  0.33333363  0.66666637  0.17303815  1
  Er  Er7  1  0.66666637  0.33333363  0.82696185  1
  Ni  Ni8  1  0.00000000  0.00000000  0.50000000  1
  Ni  Ni9  1  0.00000000  0.00000000  -0.00000000  1
  Ni  Ni10  1  0.16630735  0.33260971  0.75000000  1
  Ni  Ni11  1  0.16629474  0.83370526  0.75000000  1
  Ni  Ni12  1  0.66739029  0.83369265  0.75000000  1
  Ni  Ni13  1  0.83369265  0.66739029  0.25000000  1
  Ni  Ni14  1  0.83370526  0.16629474  0.25000000  1
  Ni  Ni15  1  0.33260971  0.16630735  0.25000000  1
  Ni  Ni16  1  0.16773908  0.33546990  0.58472069  1
  Ni  Ni17  1  0.16776873  0.83223127  0.58469607  1
  Ni  Ni18  1  0.66453010  0.83226092  0.58472069  1
  Ni  Ni19  1  0.83226092  0.66453010  0.41527931  1
  Ni  Ni20  1  0.83223127  0.16776873  0.41530393  1
  Ni  Ni21  1  0.33546990  0.16773908  0.41527931  1
  Ni  Ni22  1  0.83226092  0.66453010  0.08472069  1
  Ni  Ni23  1  0.83223127  0.16776873  0.08469607  1
  Ni  Ni24  1  0.33546990  0.16773908  0.08472069  1
  Ni  Ni25  1  0.16773908  0.33546990  0.91527931  1
  Ni  Ni26  1  0.16776873  0.83223127  0.91530393  1
  Ni  Ni27  1  0.66453010  0.83226092  0.91527931  1
  Ni  Ni28  1  0.00001894  -0.00001894  0.66725513  1
  Ni  Ni29  1  -0.00001894  0.00001894  0.33274487  1
  Ni  Ni30  1  -0.00001894  0.00001894  0.16725513  1
  Ni  Ni31  1  0.00001894  -0.00001894  0.83274487  1
  Ni  Ni32  1  0.66668547  0.33331453  0.33308777  1
  Ni  Ni33  1  0.33331453  0.66668547  0.66691223  1
  Ni  Ni34  1  0.33331453  0.66668547  0.83308777  1
  Ni  Ni35  1  0.66668547  0.33331453  0.16691223  1
