# generated using pymatgen
data_V2Co2Se2O11
_symmetry_space_group_name_H-M   'P 1'
_cell_length_a   4.89100976
_cell_length_b   9.01918261
_cell_length_c   10.72991992
_cell_angle_alpha   90.00000000
_cell_angle_beta   101.15686477
_cell_angle_gamma   90.00000000
_symmetry_Int_Tables_number   1
_chemical_formula_structural   V2Co2Se2O11
_chemical_formula_sum   'V4 Co4 Se4 O22'
_cell_volume   464.38261822
_cell_formula_units_Z   2
loop_
 _symmetry_equiv_pos_site_id
 _symmetry_equiv_pos_as_xyz
  1  'x, y, z'
loop_
 _atom_site_type_symbol
 _atom_site_label
 _atom_site_symmetry_multiplicity
 _atom_site_fract_x
 _atom_site_fract_y
 _atom_site_fract_z
 _atom_site_occupancy
  V  V0  1  0.53287906  0.93863337  0.84990961  1
  V  V1  1  0.46712094  0.43863337  0.15009039  1
  V  V2  1  0.46712094  0.06136663  0.15009039  1
  V  V3  1  0.53287906  0.56136663  0.84990961  1
  Co  Co4  1  0.95770187  0.07186406  0.63265142  1
  Co  Co5  1  0.04229813  0.57186406  0.36734858  1
  Co  Co6  1  0.04229813  0.92813594  0.36734858  1
  Co  Co7  1  0.95770187  0.42813594  0.63265142  1
  Se  Se8  1  0.38623346  0.25000000  0.45319392  1
  Se  Se9  1  0.61376654  0.75000000  0.54680608  1
  Se  Se10  1  0.14157588  0.25000000  0.89873332  1
  Se  Se11  1  0.85842412  0.75000000  0.10126668  1
  O  O12  1  0.69244407  0.25000000  0.56839355  1
  O  O13  1  0.30755593  0.75000000  0.43160645  1
  O  O14  1  0.76179621  0.04034423  0.78742306  1
  O  O15  1  0.23820379  0.54034423  0.21257694  1
  O  O16  1  0.23820379  0.95965577  0.21257694  1
  O  O17  1  0.76179621  0.45965577  0.78742306  1
  O  O18  1  0.37659807  0.09967921  0.95303427  1
  O  O19  1  0.62340193  0.59967921  0.04696573  1
  O  O20  1  0.62340193  0.90032079  0.04696573  1
  O  O21  1  0.37659807  0.40032079  0.95303427  1
  O  O22  1  0.20777872  0.40222097  0.49820828  1
  O  O23  1  0.79222128  0.90222097  0.50179172  1
  O  O24  1  0.79222128  0.59777903  0.50179172  1
  O  O25  1  0.20777872  0.09777903  0.49820828  1
  O  O26  1  0.17063330  0.25000000  0.74432452  1
  O  O27  1  0.82936670  0.75000000  0.25567548  1
  O  O28  1  0.24170182  0.92437345  0.73975594  1
  O  O29  1  0.75829818  0.42437345  0.26024406  1
  O  O30  1  0.75829818  0.07562655  0.26024406  1
  O  O31  1  0.24170182  0.57562655  0.73975594  1
  O  O32  1  0.67812022  0.75000000  0.85036237  1
  O  O33  1  0.32187978  0.25000000  0.14963763  1
