# generated using pymatgen
data_MnTeH18(SN2)3
_symmetry_space_group_name_H-M   'P 1'
_cell_length_a   7.54338687
_cell_length_b   11.11234273
_cell_length_c   17.64269126
_cell_angle_alpha   90.00000000
_cell_angle_beta   93.12069524
_cell_angle_gamma   90.00000000
_symmetry_Int_Tables_number   1
_chemical_formula_structural   MnTeH18(SN2)3
_chemical_formula_sum   'Mn4 Te4 H72 S12 N24'
_cell_volume   1476.70021330
_cell_formula_units_Z   4
loop_
 _symmetry_equiv_pos_site_id
 _symmetry_equiv_pos_as_xyz
  1  'x, y, z'
loop_
 _atom_site_type_symbol
 _atom_site_label
 _atom_site_symmetry_multiplicity
 _atom_site_fract_x
 _atom_site_fract_y
 _atom_site_fract_z
 _atom_site_occupancy
  Mn  Mn0  1  0.68171560  0.26510274  0.60948500  1
  Mn  Mn1  1  0.31828440  0.76510274  0.89051500  1
  Mn  Mn2  1  0.31828440  0.73489726  0.39051500  1
  Mn  Mn3  1  0.68171560  0.23489726  0.10948500  1
  Te  Te4  1  0.83043066  0.76982046  0.65372004  1
  Te  Te5  1  0.16956934  0.26982046  0.84627996  1
  Te  Te6  1  0.16956934  0.23017954  0.34627996  1
  Te  Te7  1  0.83043066  0.73017954  0.15372004  1
  H  H8  1  0.96811047  0.42498221  0.60080818  1
  H  H9  1  0.03188953  0.92498221  0.89919182  1
  H  H10  1  0.03188953  0.57501779  0.39919182  1
  H  H11  1  0.96811047  0.07501779  0.10080818  1
  H  H12  1  0.91168795  0.43142272  0.68886261  1
  H  H13  1  0.08831205  0.93142272  0.81113739  1
  H  H14  1  0.08831205  0.56857728  0.31113739  1
  H  H15  1  0.91168795  0.06857728  0.18886261  1
  H  H16  1  0.03231980  0.31546850  0.66102005  1
  H  H17  1  0.96768020  0.81546850  0.83897995  1
  H  H18  1  0.96768020  0.68453150  0.33897995  1
  H  H19  1  0.03231980  0.18453150  0.16102005  1
  H  H20  1  0.56628857  0.33625155  0.46099653  1
  H  H21  1  0.43371143  0.83625155  0.03900347  1
  H  H22  1  0.43371143  0.66374845  0.53900347  1
  H  H23  1  0.56628857  0.16374845  0.96099653  1
  H  H24  1  0.66861998  0.45236304  0.50631951  1
  H  H25  1  0.33138002  0.95236304  0.99368049  1
  H  H26  1  0.33138002  0.54763696  0.49368049  1
  H  H27  1  0.66861998  0.04763696  0.00631951  1
  H  H28  1  0.78699383  0.34619631  0.46853110  1
  H  H29  1  0.21300617  0.84619631  0.03146890  1
  H  H30  1  0.21300617  0.65380369  0.53146890  1
  H  H31  1  0.78699383  0.15380369  0.96853110  1
  H  H32  1  0.45490300  0.38171394  0.70767453  1
  H  H33  1  0.54509700  0.88171394  0.79232547  1
  H  H34  1  0.54509700  0.61828606  0.29232547  1
  H  H35  1  0.45490300  0.11828606  0.20767453  1
  H  H36  1  0.58049064  0.48577598  0.67242719  1
  H  H37  1  0.41950936  0.98577598  0.82757281  1
  H  H38  1  0.41950936  0.51422402  0.32757281  1
  H  H39  1  0.58049064  0.01422402  0.17242719  1
  H  H40  1  0.40548659  0.43427990  0.62102292  1
  H  H41  1  0.59451341  0.93427990  0.87897708  1
  H  H42  1  0.59451341  0.56572010  0.37897708  1
  H  H43  1  0.40548659  0.06572010  0.12102292  1
  H  H44  1  0.65151834  0.07653198  0.71079788  1
  H  H45  1  0.34848166  0.57653198  0.78920212  1
  H  H46  1  0.34848166  0.92346802  0.28920212  1
  H  H47  1  0.65151834  0.42346802  0.21079788  1
  H  H48  1  0.82206650  0.15874387  0.74335257  1
  H  H49  1  0.17793350  0.65874387  0.75664743  1
  H  H50  1  0.17793350  0.84125613  0.25664743  1
  H  H51  1  0.82206650  0.34125613  0.24335257  1
  H  H52  1  0.61507296  0.20051993  0.76013670  1
  H  H53  1  0.38492704  0.70051993  0.73986330  1
  H  H54  1  0.38492704  0.79948007  0.23986330  1
  H  H55  1  0.61507296  0.29948007  0.26013670  1
  H  H56  1  0.34867316  0.16168424  0.61627074  1
  H  H57  1  0.65132684  0.66168424  0.88372926  1
  H  H58  1  0.65132684  0.83831576  0.38372926  1
  H  H59  1  0.34867316  0.33831576  0.11627074  1
  H  H60  1  0.37840979  0.17816913  0.52418758  1
  H  H61  1  0.62159021  0.67816913  0.97581242  1
  H  H62  1  0.62159021  0.82183087  0.47581242  1
  H  H63  1  0.37840979  0.32183087  0.02418758  1
  H  H64  1  0.47181545  0.06322700  0.57356850  1
  H  H65  1  0.52818455  0.56322700  0.92643150  1
  H  H66  1  0.52818455  0.93677300  0.42643150  1
  H  H67  1  0.47181545  0.43677300  0.07356850  1
  H  H68  1  0.80773674  0.05445321  0.53615778  1
  H  H69  1  0.19226326  0.55445321  0.96384222  1
  H  H70  1  0.19226326  0.94554679  0.46384222  1
  H  H71  1  0.80773674  0.44554679  0.03615778  1
  H  H72  1  0.95177259  0.16610434  0.52417024  1
  H  H73  1  0.04822741  0.66610434  0.97582976  1
  H  H74  1  0.04822741  0.83389566  0.47582976  1
  H  H75  1  0.95177259  0.33389566  0.02417024  1
  H  H76  1  0.95251407  0.09243878  0.60583169  1
  H  H77  1  0.04748593  0.59243878  0.89416831  1
  H  H78  1  0.04748593  0.90756122  0.39416831  1
  H  H79  1  0.95251407  0.40756122  0.10583169  1
  S  S80  1  0.81858955  0.62739204  0.75401991  1
  S  S81  1  0.18141045  0.12739204  0.74598009  1
  S  S82  1  0.18141045  0.37260796  0.24598009  1
  S  S83  1  0.81858955  0.87260796  0.25401991  1
  S  S84  1  0.85637144  0.65882497  0.54039624  1
  S  S85  1  0.14362856  0.15882497  0.95960376  1
  S  S86  1  0.14362856  0.34117503  0.45960376  1
  S  S87  1  0.85637144  0.84117503  0.04039624  1
  S  S88  1  0.54374429  0.85637667  0.64353360  1
  S  S89  1  0.45625571  0.35637667  0.85646640  1
  S  S90  1  0.45625571  0.14362333  0.35646640  1
  S  S91  1  0.54374429  0.64362333  0.14353360  1
  N  N92  1  0.93006062  0.37250549  0.64488092  1
  N  N93  1  0.06993938  0.87250549  0.85511908  1
  N  N94  1  0.06993938  0.62749451  0.35511908  1
  N  N95  1  0.93006062  0.12749451  0.14488092  1
  N  N96  1  0.67242222  0.36150874  0.49620829  1
  N  N97  1  0.32757778  0.86150874  0.00379171  1
  N  N98  1  0.32757778  0.63849126  0.50379171  1
  N  N99  1  0.67242222  0.13849126  0.99620829  1
  N  N100  1  0.50800491  0.40974756  0.65816388  1
  N  N101  1  0.49199509  0.90974756  0.84183612  1
  N  N102  1  0.49199509  0.59025244  0.34183612  1
  N  N103  1  0.50800491  0.09025244  0.15816388  1
  N  N104  1  0.69395572  0.16326458  0.72054902  1
  N  N105  1  0.30604428  0.66326458  0.77945098  1
  N  N106  1  0.30604428  0.83673542  0.27945098  1
  N  N107  1  0.69395572  0.33673542  0.22054902  1
  N  N108  1  0.43939015  0.15292052  0.57519584  1
  N  N109  1  0.56060985  0.65292052  0.92480416  1
  N  N110  1  0.56060985  0.84707948  0.42480416  1
  N  N111  1  0.43939015  0.34707948  0.07519584  1
  N  N112  1  0.87172206  0.12555716  0.56216960  1
  N  N113  1  0.12827794  0.62555716  0.93783040  1
  N  N114  1  0.12827794  0.87444284  0.43783040  1
  N  N115  1  0.87172206  0.37444284  0.06216960  1
