# generated using pymatgen
data_Sr3TeO6
_symmetry_space_group_name_H-M   'P 1'
_cell_length_a   11.87288983
_cell_length_b   11.91685378
_cell_length_c   11.90936578
_cell_angle_alpha   119.88772138
_cell_angle_beta   119.61103589
_cell_angle_gamma   90.25443540
_symmetry_Int_Tables_number   1
_chemical_formula_structural   Sr3TeO6
_chemical_formula_sum   'Sr24 Te8 O48'
_cell_volume   1197.84472391
_cell_formula_units_Z   8
loop_
 _symmetry_equiv_pos_site_id
 _symmetry_equiv_pos_as_xyz
  1  'x, y, z'
loop_
 _atom_site_type_symbol
 _atom_site_label
 _atom_site_symmetry_multiplicity
 _atom_site_fract_x
 _atom_site_fract_y
 _atom_site_fract_z
 _atom_site_occupancy
  Sr  Sr0  1  0.72276086  0.72041504  0.50237817  1
  Sr  Sr1  1  0.27723914  0.27958496  0.49762183  1
  Sr  Sr2  1  0.27477194  0.77782522  0.05464121  1
  Sr  Sr3  1  0.72522806  0.22217478  0.94535879  1
  Sr  Sr4  1  0.21513191  0.26771819  0.99676603  1
  Sr  Sr5  1  0.78486809  0.73228181  0.00323397  1
  Sr  Sr6  1  0.72587223  0.26584257  0.53312807  1
  Sr  Sr7  1  0.27412777  0.73415743  0.46687193  1
  Sr  Sr8  1  0.36275636  0.12810949  0.20653491  1
  Sr  Sr9  1  0.63724364  0.87189051  0.79346509  1
  Sr  Sr10  1  0.38272404  0.60914242  0.22389181  1
  Sr  Sr11  1  0.61727596  0.39085758  0.77610819  1
  Sr  Sr12  1  0.87013547  0.07708050  0.71432053  1
  Sr  Sr13  1  0.12986453  0.92291950  0.28567947  1
  Sr  Sr14  1  0.64667733  0.88138414  0.25855941  1
  Sr  Sr15  1  0.35332267  0.11861586  0.74144059  1
  Sr  Sr16  1  0.91881288  0.62793987  0.75648881  1
  Sr  Sr17  1  0.08118712  0.37206013  0.24351119  1
  Sr  Sr18  1  0.62312455  0.35114368  0.23179492  1
  Sr  Sr19  1  0.37687545  0.64885632  0.76820508  1
  Sr  Sr20  1  0.86225284  0.13397646  0.27503598  1
  Sr  Sr21  1  0.13774716  0.86602354  0.72496402  1
  Sr  Sr22  1  0.11542233  0.36931153  0.72789148  1
  Sr  Sr23  1  0.88457767  0.63068847  0.27210852  1
  Te  Te24  1  0.50000000  0.50000000  0.50000000  1
  Te  Te25  1  0.50000000  -0.00000000  0.50000000  1
  Te  Te26  1  0.00000000  0.50000000  -0.00000000  1
  Te  Te27  1  0.50000000  -0.00000000  -0.00000000  1
  Te  Te28  1  0.00000000  -0.00000000  0.50000000  1
  Te  Te29  1  0.00000000  0.50000000  0.50000000  1
  Te  Te30  1  0.50000000  0.50000000  -0.00000000  1
  Te  Te31  1  0.00000000  -0.00000000  -0.00000000  1
  O  O32  1  0.40647390  0.37869481  0.26878097  1
  O  O33  1  0.59352610  0.62130519  0.73121903  1
  O  O34  1  0.67220538  0.51085658  0.51646777  1
  O  O35  1  0.32779462  0.48914342  0.48353223  1
  O  O36  1  0.50202019  0.33487785  0.50300993  1
  O  O37  1  0.49797981  0.66512215  0.49699007  1
  O  O38  1  0.62141465  0.89154356  0.47645218  1
  O  O39  1  0.37858535  0.10845644  0.52354782  1
  O  O40  1  0.48006750  0.00806070  0.33107848  1
  O  O41  1  0.51993250  0.99193930  0.66892152  1
  O  O42  1  0.66489810  0.16836448  0.66306731  1
  O  O43  1  0.33510190  0.83163552  0.33693269  1
  O  O44  1  0.11431918  0.57596191  0.96264738  1
  O  O45  1  0.88568082  0.42403809  0.03735262  1
  O  O46  1  0.00767678  0.68012385  0.15081097  1
  O  O47  1  0.99232322  0.31987615  0.84918903  1
  O  O48  1  0.83452085  0.49455736  0.82757059  1
  O  O49  1  0.16547915  0.50544264  0.17242941  1
  O  O50  1  0.39809431  0.12757681  0.98781299  1
  O  O51  1  0.60190569  0.87242319  0.01218701  1
  O  O52  1  0.35810295  0.89914087  0.98421099  1
  O  O53  1  0.64189705  0.10085913  0.01578901  1
  O  O54  1  0.60750242  0.12557032  0.23410349  1
  O  O55  1  0.39249758  0.87442968  0.76589651  1
  O  O56  1  0.89012478  0.87077790  0.49468654  1
  O  O57  1  0.10987522  0.12922210  0.50531346  1
  O  O58  1  0.88459179  0.89443480  0.27424434  1
  O  O59  1  0.11540821  0.10556520  0.72575566  1
  O  O60  1  0.87150033  0.10670566  0.49963076  1
  O  O61  1  0.12849967  0.89329434  0.50036924  1
  O  O62  1  0.13847881  0.60570986  0.72999482  1
  O  O63  1  0.86152119  0.39429014  0.27000518  1
  O  O64  1  0.91401769  0.63946635  0.53835216  1
  O  O65  1  0.08598231  0.36053365  0.46164784  1
  O  O66  1  0.89222225  0.39196708  0.52028513  1
  O  O67  1  0.10777775  0.60803292  0.47971487  1
  O  O68  1  0.34027698  0.39683482  0.96027859  1
  O  O69  1  0.65972302  0.60316518  0.03972141  1
  O  O70  1  0.44136521  0.66115346  0.05930432  1
  O  O71  1  0.55863479  0.33884654  0.94069568  1
  O  O72  1  0.60571138  0.56003072  0.21981489  1
  O  O73  1  0.39428862  0.43996928  0.78018511  1
  O  O74  1  0.09029851  0.86855636  0.02240104  1
  O  O75  1  0.90970149  0.13144364  0.97759896  1
  O  O76  1  0.10346196  0.04178644  0.93089227  1
  O  O77  1  0.89653804  0.95821356  0.06910773  1
  O  O78  1  0.14810557  0.14630187  0.21724280  1
  O  O79  1  0.85189443  0.85369813  0.78275720  1
