# generated using pymatgen
data_MnSeO3
_symmetry_space_group_name_H-M   'P 1'
_cell_length_a   5.36104336
_cell_length_b   8.43539137
_cell_length_c   14.02056172
_cell_angle_alpha   90.00000000
_cell_angle_beta   99.00915400
_cell_angle_gamma   90.00000000
_symmetry_Int_Tables_number   1
_chemical_formula_structural   MnSeO3
_chemical_formula_sum   'Mn8 Se8 O24'
_cell_volume   626.22283801
_cell_formula_units_Z   8
loop_
 _symmetry_equiv_pos_site_id
 _symmetry_equiv_pos_as_xyz
  1  'x, y, z'
loop_
 _atom_site_type_symbol
 _atom_site_label
 _atom_site_symmetry_multiplicity
 _atom_site_fract_x
 _atom_site_fract_y
 _atom_site_fract_z
 _atom_site_occupancy
  Mn  Mn0  1  0.91614322  0.41952476  0.60099910  1
  Mn  Mn1  1  0.08385678  0.91952476  0.89900090  1
  Mn  Mn2  1  0.08385678  0.58047524  0.39900090  1
  Mn  Mn3  1  0.91614322  0.08047524  0.10099910  1
  Mn  Mn4  1  0.52794620  0.22743393  0.75082055  1
  Mn  Mn5  1  0.47205380  0.72743393  0.74917945  1
  Mn  Mn6  1  0.47205380  0.77256607  0.24917945  1
  Mn  Mn7  1  0.52794620  0.27256607  0.25082055  1
  Se  Se8  1  0.36496882  0.21676770  0.49524111  1
  Se  Se9  1  0.63503118  0.71676770  0.00475889  1
  Se  Se10  1  0.63503118  0.78323230  0.50475889  1
  Se  Se11  1  0.36496882  0.28323230  0.99524111  1
  Se  Se12  1  0.98383462  0.53272170  0.81354497  1
  Se  Se13  1  0.01616538  0.03272170  0.68645503  1
  Se  Se14  1  0.01616538  0.46727830  0.18645503  1
  Se  Se15  1  0.98383462  0.96727830  0.31354497  1
  O  O16  1  0.16722233  0.55894034  0.72369132  1
  O  O17  1  0.83277767  0.05894034  0.77630868  1
  O  O18  1  0.83277767  0.44105966  0.27630868  1
  O  O19  1  0.16722233  0.94105966  0.22369132  1
  O  O20  1  0.72482355  0.45232759  0.74024245  1
  O  O21  1  0.27517645  0.95232759  0.75975755  1
  O  O22  1  0.27517645  0.54767241  0.25975755  1
  O  O23  1  0.72482355  0.04767241  0.24024245  1
  O  O24  1  0.85773127  0.72040834  0.82349218  1
  O  O25  1  0.14226873  0.22040834  0.67650782  1
  O  O26  1  0.14226873  0.27959166  0.17650782  1
  O  O27  1  0.85773127  0.77959166  0.32349218  1
  O  O28  1  0.61332575  0.24435994  0.59025347  1
  O  O29  1  0.38667425  0.74435994  0.90974653  1
  O  O30  1  0.38667425  0.75564006  0.40974653  1
  O  O31  1  0.61332575  0.25564006  0.09025347  1
  O  O32  1  0.18556261  0.39013276  0.49717818  1
  O  O33  1  0.81443739  0.89013276  0.00282182  1
  O  O34  1  0.81443739  0.60986724  0.50282182  1
  O  O35  1  0.18556261  0.10986724  0.99717818  1
  O  O36  1  0.51195194  0.24112901  0.39765464  1
  O  O37  1  0.48804806  0.74112901  0.10234536  1
  O  O38  1  0.48804806  0.75887099  0.60234536  1
  O  O39  1  0.51195194  0.25887099  0.89765464  1
