# generated using pymatgen
data_KIO3
_symmetry_space_group_name_H-M   'P 1'
_cell_length_a   9.08149374
_cell_length_b   9.08149350
_cell_length_c   9.08149397
_cell_angle_alpha   89.11829848
_cell_angle_beta   89.11829853
_cell_angle_gamma   89.11830132
_symmetry_Int_Tables_number   1
_chemical_formula_structural   KIO3
_chemical_formula_sum   'K8 I8 O24'
_cell_volume   748.71948822
_cell_formula_units_Z   8
loop_
 _symmetry_equiv_pos_site_id
 _symmetry_equiv_pos_as_xyz
  1  'x, y, z'
loop_
 _atom_site_type_symbol
 _atom_site_label
 _atom_site_symmetry_multiplicity
 _atom_site_fract_x
 _atom_site_fract_y
 _atom_site_fract_z
 _atom_site_occupancy
  K  K0  1  0.48775657  0.47255599  0.98246664  1
  K  K1  1  0.98246664  0.48775657  0.47255599  1
  K  K2  1  0.47255599  0.98246664  0.48775657  1
  K  K3  1  0.98962476  0.97143341  0.48378891  1
  K  K4  1  0.48378891  0.98962476  0.97143341  1
  K  K5  1  0.97143341  0.48378891  0.98962476  1
  K  K6  1  0.48040028  0.48040028  0.48040028  1
  K  K7  1  0.97913400  0.97913400  0.97913400  1
  I  I8  1  0.22901270  0.22901270  0.22901270  1
  I  I9  1  0.72493776  0.72493776  0.72493776  1
  I  I10  1  0.21994468  0.23551258  0.73048828  1
  I  I11  1  0.73048828  0.21994468  0.23551258  1
  I  I12  1  0.23551258  0.73048828  0.21994468  1
  I  I13  1  0.22516484  0.72157089  0.73802449  1
  I  I14  1  0.73802449  0.22516484  0.72157089  1
  I  I15  1  0.72157089  0.73802449  0.22516484  1
  O  O16  1  0.02497736  0.27080209  0.77565186  1
  O  O17  1  0.77565186  0.02497736  0.27080209  1
  O  O18  1  0.27080209  0.77565186  0.02497736  1
  O  O19  1  0.26708859  0.52527148  0.77417351  1
  O  O20  1  0.77417351  0.26708859  0.52527148  1
  O  O21  1  0.52527148  0.77417351  0.26708859  1
  O  O22  1  0.22114805  0.03333656  0.72626543  1
  O  O23  1  0.72626543  0.22114805  0.03333656  1
  O  O24  1  0.03333656  0.72626543  0.22114805  1
  O  O25  1  0.22033209  0.72083203  0.53521266  1
  O  O26  1  0.53521266  0.22033209  0.72083203  1
  O  O27  1  0.72083203  0.53521266  0.22033209  1
  O  O28  1  0.22203085  0.27664740  0.53121633  1
  O  O29  1  0.53121633  0.22203085  0.27664740  1
  O  O30  1  0.27664740  0.53121633  0.22203085  1
  O  O31  1  0.02656648  0.72728413  0.77928419  1
  O  O32  1  0.77928419  0.02656648  0.72728413  1
  O  O33  1  0.72728413  0.77928419  0.02656648  1
  O  O34  1  0.72331934  0.52557511  0.76523806  1
  O  O35  1  0.76523806  0.72331934  0.52557511  1
  O  O36  1  0.52557511  0.76523806  0.72331934  1
  O  O37  1  0.21509256  0.03260145  0.27800561  1
  O  O38  1  0.27800561  0.21509256  0.03260145  1
  O  O39  1  0.03260145  0.27800561  0.21509256  1
