# generated using pymatgen
data_Pr2Ni7
_symmetry_space_group_name_H-M   'P 1'
_cell_length_a   5.06763583
_cell_length_b   5.06763583
_cell_length_c   24.67016268
_cell_angle_alpha   90.00000000
_cell_angle_beta   90.00000000
_cell_angle_gamma   120.04117952
_symmetry_Int_Tables_number   1
_chemical_formula_structural   Pr2Ni7
_chemical_formula_sum   'Pr8 Ni28'
_cell_volume   548.44499760
_cell_formula_units_Z   4
loop_
 _symmetry_equiv_pos_site_id
 _symmetry_equiv_pos_as_xyz
  1  'x, y, z'
loop_
 _atom_site_type_symbol
 _atom_site_label
 _atom_site_symmetry_multiplicity
 _atom_site_fract_x
 _atom_site_fract_y
 _atom_site_fract_z
 _atom_site_occupancy
  Pr  Pr0  1  0.66665692  0.33334308  0.52983558  1
  Pr  Pr1  1  0.33334308  0.66665692  0.47016442  1
  Pr  Pr2  1  0.33334308  0.66665692  0.02983558  1
  Pr  Pr3  1  0.66665692  0.33334308  0.97016442  1
  Pr  Pr4  1  0.66666309  0.33333691  0.67441985  1
  Pr  Pr5  1  0.33333691  0.66666309  0.32558015  1
  Pr  Pr6  1  0.33333691  0.66666309  0.17441985  1
  Pr  Pr7  1  0.66666309  0.33333691  0.82558015  1
  Ni  Ni8  1  -0.00000000  -0.00000000  0.50000000  1
  Ni  Ni9  1  -0.00000000  -0.00000000  -0.00000000  1
  Ni  Ni10  1  0.16689142  0.33379404  0.75000000  1
  Ni  Ni11  1  0.16689091  0.83310909  0.75000000  1
  Ni  Ni12  1  0.66620596  0.83310858  0.75000000  1
  Ni  Ni13  1  0.83310858  0.66620596  0.25000000  1
  Ni  Ni14  1  0.83310909  0.16689091  0.25000000  1
  Ni  Ni15  1  0.33379404  0.16689142  0.25000000  1
  Ni  Ni16  1  0.16606613  0.33212797  0.58754588  1
  Ni  Ni17  1  0.16605260  0.83394740  0.58755938  1
  Ni  Ni18  1  0.66787203  0.83393387  0.58754588  1
  Ni  Ni19  1  0.83393387  0.66787203  0.41245412  1
  Ni  Ni20  1  0.83394740  0.16605260  0.41244062  1
  Ni  Ni21  1  0.33212797  0.16606613  0.41245412  1
  Ni  Ni22  1  0.83393387  0.66787203  0.08754588  1
  Ni  Ni23  1  0.83394740  0.16605260  0.08755938  1
  Ni  Ni24  1  0.33212797  0.16606613  0.08754588  1
  Ni  Ni25  1  0.16606613  0.33212797  0.91245412  1
  Ni  Ni26  1  0.16605260  0.83394740  0.91244062  1
  Ni  Ni27  1  0.66787203  0.83393387  0.91245412  1
  Ni  Ni28  1  0.99997841  0.00002159  0.66899818  1
  Ni  Ni29  1  0.00002159  0.99997841  0.33100182  1
  Ni  Ni30  1  0.00002159  0.99997841  0.16899818  1
  Ni  Ni31  1  0.99997841  0.00002159  0.83100182  1
  Ni  Ni32  1  0.66665351  0.33334649  0.33246450  1
  Ni  Ni33  1  0.33334649  0.66665351  0.66753550  1
  Ni  Ni34  1  0.33334649  0.66665351  0.83246450  1
  Ni  Ni35  1  0.66665351  0.33334649  0.16753550  1
