# generated using pymatgen
data_Rb2Y(NO3)5
_symmetry_space_group_name_H-M   'P 1'
_cell_length_a   9.47622205
_cell_length_b   11.34918849
_cell_length_c   11.34918849
_cell_angle_alpha   119.99999586
_cell_angle_beta   90.00000000
_cell_angle_gamma   90.00000000
_symmetry_Int_Tables_number   1
_chemical_formula_structural   Rb2Y(NO3)5
_chemical_formula_sum   'Rb6 Y3 N15 O45'
_cell_volume   1057.04991687
_cell_formula_units_Z   3
loop_
 _symmetry_equiv_pos_site_id
 _symmetry_equiv_pos_as_xyz
  1  'x, y, z'
loop_
 _atom_site_type_symbol
 _atom_site_label
 _atom_site_symmetry_multiplicity
 _atom_site_fract_x
 _atom_site_fract_y
 _atom_site_fract_z
 _atom_site_occupancy
  Rb  Rb0  1  0.37249878  0.87136482  0.66649525  1
  Rb  Rb1  1  0.70583278  0.33350475  0.20486957  1
  Rb  Rb2  1  0.03916578  0.79513043  0.12863518  1
  Rb  Rb3  1  0.53977336  0.60626757  0.93951649  1
  Rb  Rb4  1  0.87310736  0.06048351  0.66675108  1
  Rb  Rb5  1  0.20644036  0.33324892  0.39373243  1
  Y  Y6  1  0.20467394  0.33249191  0.99324012  1
  Y  Y7  1  0.53800794  0.00675988  0.33925179  1
  Y  Y8  1  0.87134094  0.66074821  0.66750809  1
  N  N9  1  0.93765622  0.66181771  0.41421040  1
  N  N10  1  0.27099022  0.58578960  0.24760730  1
  N  N11  1  0.60432322  0.75239270  0.33818229  1
  N  N12  1  0.13872077  0.08092688  0.99621440  1
  N  N13  1  0.47205477  0.00378560  0.08471248  1
  N  N14  1  0.80538777  0.91528752  0.91907312  1
  N  N15  1  0.49491165  0.23072216  0.92105279  1
  N  N16  1  0.82824565  0.07894721  0.30966938  1
  N  N17  1  0.16157865  0.69033062  0.76927784  1
  N  N18  1  0.58114945  0.58894829  0.56455462  1
  N  N19  1  0.91448345  0.43544538  0.02439367  1
  N  N20  1  0.24781645  0.97560633  0.41105171  1
  N  N21  1  0.20052437  0.33289933  0.74349283  1
  N  N22  1  0.53385837  0.25650717  0.58940650  1
  N  N23  1  0.86719137  0.41059350  0.66710067  1
  O  O24  1  0.61381742  0.86627529  0.44975478  1
  O  O25  1  0.94715142  0.55024522  0.41652050  1
  O  O26  1  0.28048442  0.58347950  0.13372471  1
  O  O27  1  0.23492928  0.47187011  0.23917322  1
  O  O28  1  0.56826328  0.76082678  0.23269689  1
  O  O29  1  0.90159628  0.76730311  0.52812989  1
  O  O30  1  0.29263602  0.68918351  0.35805960  1
  O  O31  1  0.62597002  0.64194040  0.33112391  1
  O  O32  1  0.95930302  0.66887609  0.31081649  1
  O  O33  1  0.12991944  0.08430309  0.88518052  1
  O  O34  1  0.46325344  0.11481948  0.19912257  1
  O  O35  1  0.79658644  0.80087743  0.91569691  1
  O  O36  1  0.17674245  0.19354039  0.10185295  1
  O  O37  1  0.51007645  0.89814705  0.09168744  1
  O  O38  1  0.84340945  0.90831256  0.80645961  1
  O  O39  1  0.78088599  0.02505944  0.02281943  1
  O  O40  1  0.11421999  0.97718057  0.00224000  1
  O  O41  1  0.44755299  0.99776000  0.97494056  1
  O  O42  1  0.39138305  0.17306748  0.83931873  1
  O  O43  1  0.72471705  0.16068127  0.33374875  1
  O  O44  1  0.05805005  0.66625125  0.82693252  1
  O  O45  1  0.46240711  0.33836879  0.03506824  1
  O  O46  1  0.79574111  0.96493176  0.30330054  1
  O  O47  1  0.12907411  0.69669946  0.66163122  1
  O  O48  1  0.61660639  0.18708297  0.89479175  1
  O  O49  1  0.94994039  0.10520825  0.29229122  1
  O  O50  1  0.28327339  0.70770878  0.81291703  1
  O  O51  1  0.61333803  0.70287395  0.67245495  1
  O  O52  1  0.94667203  0.32754505  0.03041900  1
  O  O53  1  0.28000503  0.96958100  0.29712605  1
  O  O54  1  0.68428830  0.50635891  0.50825962  1
  O  O55  1  0.01762230  0.49174038  0.99809929  1
  O  O56  1  0.35095530  0.00190071  0.49364109  1
  O  O57  1  0.45995051  0.56355436  0.51933655  1
  O  O58  1  0.79328451  0.48066345  0.04421782  1
  O  O59  1  0.12661751  0.95578218  0.43644564  1
  O  O60  1  0.79728597  0.51573492  0.75448055  1
  O  O61  1  0.13061997  0.24551945  0.76125437  1
  O  O62  1  0.46395297  0.23874563  0.48426508  1
  O  O63  1  0.60721720  0.15389091  0.57300443  1
  O  O64  1  0.94055120  0.42699557  0.58088649  1
  O  O65  1  0.27388420  0.41911351  0.84610909  1
  O  O66  1  0.19689329  0.33371730  0.63589954  1
  O  O67  1  0.53022729  0.36410046  0.69781777  1
  O  O68  1  0.86356029  0.30218223  0.66628270  1
