# generated using pymatgen
data_Er3Ni19B10
_symmetry_space_group_name_H-M   'P 1'
_cell_length_a   5.75221597
_cell_length_b   7.85645781
_cell_length_c   7.85645781
_cell_angle_alpha   66.96653650
_cell_angle_beta   88.90634815
_cell_angle_gamma   88.90634815
_symmetry_Int_Tables_number   1
_chemical_formula_structural   Er3Ni19B10
_chemical_formula_sum   'Er3 Ni19 B10'
_cell_volume   326.65802159
_cell_formula_units_Z   1
loop_
 _symmetry_equiv_pos_site_id
 _symmetry_equiv_pos_as_xyz
  1  'x, y, z'
loop_
 _atom_site_type_symbol
 _atom_site_label
 _atom_site_symmetry_multiplicity
 _atom_site_fract_x
 _atom_site_fract_y
 _atom_site_fract_z
 _atom_site_occupancy
  Er  Er0  1  0.00000000  -0.00000000  -0.00000000  1
  Er  Er1  1  0.61596474  0.62541166  0.62541166  1
  Er  Er2  1  0.38403526  0.37458834  0.37458834  1
  Ni  Ni3  1  0.50000000  -0.00000000  -0.00000000  1
  Ni  Ni4  1  0.12829257  0.62220325  0.62220325  1
  Ni  Ni5  1  0.87170743  0.37779675  0.37779675  1
  Ni  Ni6  1  0.29635835  0.16254506  0.16254506  1
  Ni  Ni7  1  0.70364165  0.83745494  0.83745494  1
  Ni  Ni8  1  0.72941775  0.18191183  0.18191183  1
  Ni  Ni9  1  0.27058225  0.81808817  0.81808817  1
  Ni  Ni10  1  0.30262665  0.95511658  0.48308681  1
  Ni  Ni11  1  0.30262665  0.48308681  0.95511658  1
  Ni  Ni12  1  0.69737335  0.04488342  0.51691319  1
  Ni  Ni13  1  0.69737335  0.51691319  0.04488342  1
  Ni  Ni14  1  0.07327955  0.62338695  0.12208628  1
  Ni  Ni15  1  0.07327955  0.12208628  0.62338695  1
  Ni  Ni16  1  0.92672045  0.37661305  0.87791372  1
  Ni  Ni17  1  0.92672045  0.87791372  0.37661305  1
  Ni  Ni18  1  0.30169099  0.28958341  0.77000617  1
  Ni  Ni19  1  0.30169099  0.77000617  0.28958341  1
  Ni  Ni20  1  0.69830901  0.71041659  0.22999383  1
  Ni  Ni21  1  0.69830901  0.22999383  0.71041659  1
  B  B22  1  0.00000000  0.61538943  0.38461057  1
  B  B23  1  -0.00000000  0.38461057  0.61538943  1
  B  B24  1  0.97470865  0.85764175  0.65019943  1
  B  B25  1  0.97470865  0.65019943  0.85764175  1
  B  B26  1  0.02529135  0.14235825  0.34980057  1
  B  B27  1  0.02529135  0.34980057  0.14235825  1
  B  B28  1  0.56955920  0.30086180  0.93487318  1
  B  B29  1  0.56955920  0.93487318  0.30086180  1
  B  B30  1  0.43044080  0.69913820  0.06512682  1
  B  B31  1  0.43044080  0.06512682  0.69913820  1
