# generated using pymatgen
data_SmFeSb3
_symmetry_space_group_name_H-M   'P 1'
_cell_length_a   6.15207766
_cell_length_b   12.13662810
_cell_length_c   12.72170499
_cell_angle_alpha   90.00000000
_cell_angle_beta   90.00000000
_cell_angle_gamma   90.00000000
_symmetry_Int_Tables_number   1
_chemical_formula_structural   SmFeSb3
_chemical_formula_sum   'Sm8 Fe8 Sb24'
_cell_volume   949.87219171
_cell_formula_units_Z   8
loop_
 _symmetry_equiv_pos_site_id
 _symmetry_equiv_pos_as_xyz
  1  'x, y, z'
loop_
 _atom_site_type_symbol
 _atom_site_label
 _atom_site_symmetry_multiplicity
 _atom_site_fract_x
 _atom_site_fract_y
 _atom_site_fract_z
 _atom_site_occupancy
  Sm  Sm0  1  0.25000000  0.50000000  0.70224553  1
  Sm  Sm1  1  0.75000000  0.00000000  0.29775447  1
  Sm  Sm2  1  0.75000000  0.50000000  0.29775447  1
  Sm  Sm3  1  0.25000000  0.00000000  0.70224553  1
  Sm  Sm4  1  0.22256587  0.25000000  0.30286388  1
  Sm  Sm5  1  0.77743413  0.75000000  0.69713612  1
  Sm  Sm6  1  0.27743413  0.75000000  0.30286388  1
  Sm  Sm7  1  0.72256587  0.25000000  0.69713612  1
  Fe  Fe8  1  0.46253087  0.36115485  0.10075261  1
  Fe  Fe9  1  0.53746913  0.86115485  0.89924739  1
  Fe  Fe10  1  0.03746913  0.63884515  0.10075261  1
  Fe  Fe11  1  0.96253087  0.13884515  0.89924739  1
  Fe  Fe12  1  0.53746913  0.63884515  0.89924739  1
  Fe  Fe13  1  0.46253087  0.13884515  0.10075261  1
  Fe  Fe14  1  0.96253087  0.36115485  0.89924739  1
  Fe  Fe15  1  0.03746913  0.86115485  0.10075261  1
  Sb  Sb16  1  0.25000000  0.50000000  0.97223674  1
  Sb  Sb17  1  0.75000000  0.00000000  0.02776326  1
  Sb  Sb18  1  0.75000000  0.50000000  0.02776326  1
  Sb  Sb19  1  0.25000000  0.00000000  0.97223674  1
  Sb  Sb20  1  0.23316098  0.25000000  0.78381089  1
  Sb  Sb21  1  0.76683902  0.75000000  0.21618911  1
  Sb  Sb22  1  0.26683902  0.75000000  0.78381089  1
  Sb  Sb23  1  0.73316098  0.25000000  0.21618911  1
  Sb  Sb24  1  0.98660430  0.37561857  0.50325542  1
  Sb  Sb25  1  0.01339570  0.87561857  0.49674458  1
  Sb  Sb26  1  0.51339570  0.62438143  0.50325542  1
  Sb  Sb27  1  0.48660430  0.12438143  0.49674458  1
  Sb  Sb28  1  0.01339570  0.62438143  0.49674458  1
  Sb  Sb29  1  0.98660430  0.12438143  0.50325542  1
  Sb  Sb30  1  0.48660430  0.37561857  0.49674458  1
  Sb  Sb31  1  0.51339570  0.87561857  0.50325542  1
  Sb  Sb32  1  0.25000000  0.50000000  0.21907891  1
  Sb  Sb33  1  0.75000000  0.00000000  0.78092109  1
  Sb  Sb34  1  0.75000000  0.50000000  0.78092109  1
  Sb  Sb35  1  0.25000000  0.00000000  0.21907891  1
  Sb  Sb36  1  0.61416985  0.25000000  0.94317272  1
  Sb  Sb37  1  0.38583015  0.75000000  0.05682728  1
  Sb  Sb38  1  0.88583015  0.75000000  0.94317272  1
  Sb  Sb39  1  0.11416985  0.25000000  0.05682728  1
