# generated using pymatgen
data_K2P2PdS6
_symmetry_space_group_name_H-M   'P 1'
_cell_length_a   7.21356452
_cell_length_b   10.26941436
_cell_length_c   15.94654774
_cell_angle_alpha   90.00000000
_cell_angle_beta   90.00000000
_cell_angle_gamma   90.00000000
_symmetry_Int_Tables_number   1
_chemical_formula_structural   K2P2PdS6
_chemical_formula_sum   'K8 P8 Pd4 S24'
_cell_volume   1181.30563469
_cell_formula_units_Z   4
loop_
 _symmetry_equiv_pos_site_id
 _symmetry_equiv_pos_as_xyz
  1  'x, y, z'
loop_
 _atom_site_type_symbol
 _atom_site_label
 _atom_site_symmetry_multiplicity
 _atom_site_fract_x
 _atom_site_fract_y
 _atom_site_fract_z
 _atom_site_occupancy
  K  K0  1  0.25000000  0.08625439  0.18315631  1
  K  K1  1  0.25000000  0.41374561  0.68315631  1
  K  K2  1  0.75000000  0.91374561  0.81684369  1
  K  K3  1  0.75000000  0.58625439  0.31684369  1
  K  K4  1  0.25000000  0.56455842  0.11898742  1
  K  K5  1  0.25000000  0.93544158  0.61898742  1
  K  K6  1  0.75000000  0.43544158  0.88101258  1
  K  K7  1  0.75000000  0.06455842  0.38101258  1
  P  P8  1  0.75000000  0.71888315  0.05646070  1
  P  P9  1  0.75000000  0.78111685  0.55646070  1
  P  P10  1  0.25000000  0.28111685  0.94353930  1
  P  P11  1  0.25000000  0.21888315  0.44353930  1
  P  P12  1  0.25000000  0.14980859  0.83187206  1
  P  P13  1  0.25000000  0.35019141  0.33187206  1
  P  P14  1  0.75000000  0.85019141  0.16812794  1
  P  P15  1  0.75000000  0.64980859  0.66812794  1
  Pd  Pd16  1  0.50000000  0.00000000  -0.00000000  1
  Pd  Pd17  1  0.00000000  0.50000000  0.50000000  1
  Pd  Pd18  1  0.00000000  0.00000000  -0.00000000  1
  Pd  Pd19  1  0.50000000  0.50000000  0.50000000  1
  S  S20  1  0.51277132  0.76969570  0.99202829  1
  S  S21  1  0.98722868  0.73030430  0.49202829  1
  S  S22  1  0.01277132  0.23030430  0.00797171  1
  S  S23  1  0.48722868  0.26969570  0.50797171  1
  S  S24  1  0.48722868  0.23030430  0.00797171  1
  S  S25  1  0.01277132  0.26969570  0.50797171  1
  S  S26  1  0.98722868  0.76969570  0.99202829  1
  S  S27  1  0.51277132  0.73030430  0.49202829  1
  S  S28  1  0.48511095  0.16632969  0.76731582  1
  S  S29  1  0.01488905  0.33367031  0.26731582  1
  S  S30  1  0.98511095  0.83367031  0.23268418  1
  S  S31  1  0.51488905  0.66632969  0.73268418  1
  S  S32  1  0.51488905  0.83367031  0.23268418  1
  S  S33  1  0.98511095  0.66632969  0.73268418  1
  S  S34  1  0.01488905  0.16632969  0.76731582  1
  S  S35  1  0.48511095  0.33367031  0.26731582  1
  S  S36  1  0.25000000  0.97323001  0.90527621  1
  S  S37  1  0.25000000  0.52676999  0.40527621  1
  S  S38  1  0.75000000  0.02676999  0.09472379  1
  S  S39  1  0.75000000  0.47323001  0.59472379  1
  S  S40  1  0.75000000  0.53276926  0.09022726  1
  S  S41  1  0.75000000  0.96723074  0.59022726  1
  S  S42  1  0.25000000  0.46723074  0.90977274  1
  S  S43  1  0.25000000  0.03276926  0.40977274  1
