# generated using pymatgen
data_HC2N3
_symmetry_space_group_name_H-M   'P 1'
_cell_length_a   8.43639666
_cell_length_b   9.49654115
_cell_length_c   12.74769946
_cell_angle_alpha   89.91516534
_cell_angle_beta   90.00000000
_cell_angle_gamma   116.37105354
_symmetry_Int_Tables_number   1
_chemical_formula_structural   HC2N3
_chemical_formula_sum   'H12 C24 N36'
_cell_volume   915.02043244
_cell_formula_units_Z   12
loop_
 _symmetry_equiv_pos_site_id
 _symmetry_equiv_pos_as_xyz
  1  'x, y, z'
loop_
 _atom_site_type_symbol
 _atom_site_label
 _atom_site_symmetry_multiplicity
 _atom_site_fract_x
 _atom_site_fract_y
 _atom_site_fract_z
 _atom_site_occupancy
  H  H0  1  0.42142065  0.84284130  0.95086140  1
  H  H1  1  0.37415792  0.74831584  0.82502200  1
  H  H2  1  0.57784917  0.15569834  0.05629132  1
  H  H3  1  0.62465069  0.24930138  0.18204891  1
  H  H4  1  0.38098558  0.76197117  0.61584881  1
  H  H5  1  0.61854774  0.23709547  0.39469759  1
  H  H6  1  0.08009271  0.16018542  0.44574674  1
  H  H7  1  0.12348998  0.24697996  0.31757058  1
  H  H8  1  0.92443638  0.84887276  0.55671314  1
  H  H9  1  0.87565175  0.75130351  0.68142280  1
  H  H10  1  0.11780312  0.23560624  0.11260691  1
  H  H11  1  0.87910038  0.75820075  0.89332569  1
  C  C12  1  0.16237422  0.32474844  0.96554369  1
  C  C13  1  0.07358643  0.14717285  0.83073392  1
  C  C14  1  0.21613874  0.43227749  0.80314715  1
  C  C15  1  0.12931695  0.25863391  0.65317465  1
  C  C16  1  0.26222586  0.52445172  0.63394924  1
  C  C17  1  0.33856422  0.67712845  0.46584330  1
  C  C18  1  0.42690159  0.85380319  0.33027585  1
  C  C19  1  0.23759313  0.47518626  0.13470406  1
  C  C20  1  0.37090387  0.74180775  0.15306919  1
  C  C21  1  0.50406841  0.00813682  0.18099718  1
  C  C22  1  0.49469037  0.98938074  0.82625883  1
  C  C23  1  0.62763361  0.25526721  0.85555930  1
  C  C24  1  0.76039720  0.52079440  0.87477496  1
  C  C25  1  0.57255042  0.14510084  0.67799837  1
  C  C26  1  0.71499407  0.42998815  0.70575871  1
  C  C27  1  0.66157064  0.32314128  0.54343209  1
  C  C28  1  0.73767272  0.47534543  0.37516828  1
  C  C29  1  0.87061505  0.74123009  0.35542700  1
  C  C30  1  0.78324393  0.56648787  0.20589119  1
  C  C31  1  0.92524960  0.85049919  0.17701027  1
  C  C32  1  0.83642194  0.67284388  0.04287851  1
  C  C33  1  0.99645144  0.99290288  0.68215206  1
  C  C34  1  0.28416593  0.56833186  0.30375066  1
  C  C35  1  0.00333497  0.00666994  0.32450565  1
  N  N36  1  0.22729458  0.45458917  0.90606353  1
  N  N37  1  0.08674802  0.17349605  0.93412854  1
  N  N38  1  0.13984442  0.27968884  0.76251925  1
  N  N39  1  0.27776695  0.55553389  0.73822688  1
  N  N40  1  0.05822201  0.11644401  0.61356377  1
  N  N41  1  0.19177351  0.38354703  0.58924252  1
  N  N42  1  0.32966887  0.65933774  0.57371054  1
  N  N43  1  0.27350573  0.54701146  0.40662961  1
  N  N44  1  0.41410954  0.82821908  0.43391661  1
  N  N45  1  0.49853171  0.99706342  0.28841008  1
  N  N46  1  0.36046191  0.72092383  0.26247352  1
  N  N47  1  0.22214445  0.44428890  0.23907443  1
  N  N48  1  0.17057661  0.34115322  0.07354549  1
  N  N49  1  0.30815911  0.61631821  0.08980488  1
  N  N50  1  0.44207193  0.88414386  0.11285041  1
  N  N51  1  0.57460567  0.14921133  0.13697815  1
  N  N52  1  0.42419923  0.84839846  0.87022906  1
  N  N53  1  0.55621709  0.11243418  0.89489684  1
  N  N54  1  0.68981075  0.37962151  0.91966742  1
  N  N55  1  0.82759683  0.65519366  0.93508380  1
  N  N56  1  0.50064552  0.00129103  0.71900856  1
  N  N57  1  0.63854292  0.27708584  0.74629584  1
  N  N58  1  0.77646562  0.55293123  0.77063670  1
  N  N59  1  0.58583770  0.17167539  0.57462520  1
  N  N60  1  0.72634263  0.45268526  0.60284010  1
  N  N61  1  0.67034314  0.34068629  0.43572288  1
  N  N62  1  0.80835644  0.61671288  0.41968961  1
  N  N63  1  0.94238790  0.88477580  0.39427522  1
  N  N64  1  0.72171548  0.44343095  0.27107451  1
  N  N65  1  0.85961456  0.71922912  0.24611422  1
  N  N66  1  0.77180944  0.54361887  0.10296465  1
  N  N67  1  0.91207166  0.82414333  0.07367314  1
  N  N68  1  0.99714549  0.99429098  0.21750313  1
  N  N69  1  0.92623887  0.85247773  0.63741736  1
  N  N70  1  0.00180723  0.00361447  0.78946279  1
  N  N71  1  0.07476508  0.14953016  0.36562076  1
