# generated using pymatgen
data_Cd3Pb2Se4(IO6)2
_symmetry_space_group_name_H-M   'P 1'
_cell_length_a   5.51473620
_cell_length_b   11.35540400
_cell_length_c   15.08329517
_cell_angle_alpha   101.96175868
_cell_angle_beta   90.00000000
_cell_angle_gamma   90.00000000
_symmetry_Int_Tables_number   1
_chemical_formula_structural   Cd3Pb2Se4(IO6)2
_chemical_formula_sum   'Cd6 Pb4 Se8 I4 O24'
_cell_volume   924.03722733
_cell_formula_units_Z   2
loop_
 _symmetry_equiv_pos_site_id
 _symmetry_equiv_pos_as_xyz
  1  'x, y, z'
loop_
 _atom_site_type_symbol
 _atom_site_label
 _atom_site_symmetry_multiplicity
 _atom_site_fract_x
 _atom_site_fract_y
 _atom_site_fract_z
 _atom_site_occupancy
  Cd  Cd0  1  0.30187728  0.25000000  0.75000000  1
  Cd  Cd1  1  0.69812272  0.75000000  0.25000000  1
  Cd  Cd2  1  0.21868418  0.58659545  0.09058547  1
  Cd  Cd3  1  0.21868418  0.91340455  0.40941453  1
  Cd  Cd4  1  0.78131582  0.41340455  0.90941453  1
  Cd  Cd5  1  0.78131582  0.08659545  0.59058547  1
  Pb  Pb6  1  0.74901673  0.78778437  0.99158781  1
  Pb  Pb7  1  0.74901673  0.71221563  0.50841219  1
  Pb  Pb8  1  0.25098327  0.21221563  0.00841219  1
  Pb  Pb9  1  0.25098327  0.28778437  0.49158781  1
  Se  Se10  1  0.25794791  0.57292514  0.86913193  1
  Se  Se11  1  0.25794791  0.92707486  0.63086807  1
  Se  Se12  1  0.74205209  0.42707486  0.13086807  1
  Se  Se13  1  0.74205209  0.07292514  0.36913193  1
  Se  Se14  1  0.25545402  0.88700162  0.15174940  1
  Se  Se15  1  0.25545402  0.61299838  0.34825060  1
  Se  Se16  1  0.74454598  0.11299838  0.84825060  1
  Se  Se17  1  0.74454598  0.38700162  0.65174940  1
  I  I18  1  0.25484294  0.90523167  0.89640477  1
  I  I19  1  0.25484294  0.59476833  0.60359523  1
  I  I20  1  0.74515706  0.09476833  0.10359523  1
  I  I21  1  0.74515706  0.40523167  0.39640477  1
  O  O22  1  0.18319823  0.42238215  0.85004867  1
  O  O23  1  0.18319823  0.07761785  0.64995133  1
  O  O24  1  0.81680177  0.57761785  0.14995133  1
  O  O25  1  0.81680177  0.92238215  0.35004867  1
  O  O26  1  0.04281353  0.61482509  0.95647023  1
  O  O27  1  0.04281353  0.88517491  0.54352977  1
  O  O28  1  0.95718647  0.38517491  0.04352977  1
  O  O29  1  0.95718647  0.11482509  0.45647023  1
  O  O30  1  0.51790706  0.58251938  0.93527398  1
  O  O31  1  0.51790706  0.91748062  0.56472602  1
  O  O32  1  0.48209294  0.41748062  0.06472602  1
  O  O33  1  0.48209294  0.08251938  0.43527398  1
  O  O34  1  0.46600906  0.76764403  0.11334989  1
  O  O35  1  0.46600906  0.73235597  0.38665011  1
  O  O36  1  0.53399094  0.23235597  0.88665011  1
  O  O37  1  0.53399094  0.26764403  0.61334989  1
  O  O38  1  0.99639287  0.79724920  0.13940224  1
  O  O39  1  0.99639287  0.70275080  0.36059776  1
  O  O40  1  0.00360713  0.20275080  0.86059776  1
  O  O41  1  0.00360713  0.29724920  0.63940224  1
  O  O42  1  0.33501726  0.91307419  0.26299432  1
  O  O43  1  0.33501726  0.58692581  0.23700568  1
  O  O44  1  0.66498274  0.08692581  0.73700568  1
  O  O45  1  0.66498274  0.41307419  0.76299432  1
