# generated using pymatgen
data_NClO3
_symmetry_space_group_name_H-M   'P 1'
_cell_length_a   5.90381711
_cell_length_b   3.99731588
_cell_length_c   5.03439678
_cell_angle_alpha   81.68647220
_cell_angle_beta   125.89831456
_cell_angle_gamma   104.27603106
_symmetry_Int_Tables_number   1
_chemical_formula_structural   NClO3
_chemical_formula_sum   'N1 Cl1 O3'
_cell_volume   93.27011116
_cell_formula_units_Z   1
loop_
 _symmetry_equiv_pos_site_id
 _symmetry_equiv_pos_as_xyz
  1  'x, y, z'
loop_
 _atom_site_type_symbol
 _atom_site_label
 _atom_site_symmetry_multiplicity
 _atom_site_fract_x
 _atom_site_fract_y
 _atom_site_fract_z
 _atom_site_occupancy
  N  N0  1  0.44911350  0.48383767  1.00000000  1
  Cl  Cl1  1  0.91434765  0.78756425  1.00000000  1
  O  O2  1  0.64624997  0.85479050  0.00000000  1
  O  O3  1  0.25405249  0.38440429  0.72781610  1
  O  O4  1  0.52623639  0.38440429  0.27218390  1
