# generated using pymatgen
data_Ce2MgNi2
_symmetry_space_group_name_H-M   'P 1'
_cell_length_a   7.56932241
_cell_length_b   10.42141182
_cell_length_c   10.42419015
_cell_angle_alpha   92.75590236
_cell_angle_beta   90.00000000
_cell_angle_gamma   90.00000000
_symmetry_Int_Tables_number   1
_chemical_formula_structural   Ce2MgNi2
_chemical_formula_sum   'Ce16 Mg8 Ni16'
_cell_volume   821.34063206
_cell_formula_units_Z   8
loop_
 _symmetry_equiv_pos_site_id
 _symmetry_equiv_pos_as_xyz
  1  'x, y, z'
loop_
 _atom_site_type_symbol
 _atom_site_label
 _atom_site_symmetry_multiplicity
 _atom_site_fract_x
 _atom_site_fract_y
 _atom_site_fract_z
 _atom_site_occupancy
  Ce  Ce0  1  0.16588963  0.16815887  0.82774455  1
  Ce  Ce1  1  0.66588963  0.83184113  0.67225545  1
  Ce  Ce2  1  0.83411037  0.83184113  0.17225545  1
  Ce  Ce3  1  0.33411037  0.16815887  0.32774455  1
  Ce  Ce4  1  0.17097808  0.41590595  0.08210067  1
  Ce  Ce5  1  0.67097808  0.58409405  0.41789933  1
  Ce  Ce6  1  0.82902192  0.58409405  0.91789933  1
  Ce  Ce7  1  0.32902192  0.41590595  0.58210067  1
  Ce  Ce8  1  0.66864853  0.08496108  0.91313997  1
  Ce  Ce9  1  0.16864853  0.91503892  0.58686003  1
  Ce  Ce10  1  0.33135147  0.91503892  0.08686003  1
  Ce  Ce11  1  0.83135147  0.08496108  0.41313997  1
  Ce  Ce12  1  0.83273982  0.33276357  0.66344879  1
  Ce  Ce13  1  0.33273982  0.66723643  0.83655121  1
  Ce  Ce14  1  0.16726018  0.66723643  0.33655121  1
  Ce  Ce15  1  0.66726018  0.33276357  0.16344879  1
  Mg  Mg16  1  0.00061655  0.12294137  0.12056639  1
  Mg  Mg17  1  0.50061655  0.87705863  0.37943361  1
  Mg  Mg18  1  0.99938345  0.87705863  0.87943361  1
  Mg  Mg19  1  0.49938345  0.12294137  0.62056639  1
  Mg  Mg20  1  0.00049287  0.37411445  0.37123940  1
  Mg  Mg21  1  0.50049287  0.62588555  0.12876060  1
  Mg  Mg22  1  0.99950713  0.62588555  0.62876060  1
  Mg  Mg23  1  0.49950713  0.37411445  0.87123940  1
  Ni  Ni24  1  0.37246013  0.18857209  0.05027730  1
  Ni  Ni25  1  0.87246013  0.81142791  0.44972270  1
  Ni  Ni26  1  0.62753987  0.81142791  0.94972270  1
  Ni  Ni27  1  0.12753987  0.18857209  0.55027730  1
  Ni  Ni28  1  0.12590418  0.68703750  0.06132934  1
  Ni  Ni29  1  0.62590418  0.31296250  0.43867066  1
  Ni  Ni30  1  0.87409582  0.31296250  0.93867066  1
  Ni  Ni31  1  0.37409582  0.68703750  0.56132934  1
  Ni  Ni32  1  0.13040780  0.94239473  0.31520320  1
  Ni  Ni33  1  0.63040780  0.05760527  0.18479680  1
  Ni  Ni34  1  0.86959220  0.05760527  0.68479680  1
  Ni  Ni35  1  0.36959220  0.94239473  0.81520320  1
  Ni  Ni36  1  0.37027599  0.44338015  0.31053318  1
  Ni  Ni37  1  0.87027599  0.55661985  0.18946682  1
  Ni  Ni38  1  0.62972401  0.55661985  0.68946682  1
  Ni  Ni39  1  0.12972401  0.44338015  0.81053318  1
