# generated using pymatgen
data_Gd3InS6
_symmetry_space_group_name_H-M   'P 1'
_cell_length_a   3.92866241
_cell_length_b   13.59880952
_cell_length_c   16.71370724
_cell_angle_alpha   90.00000000
_cell_angle_beta   90.00000000
_cell_angle_gamma   90.00000000
_symmetry_Int_Tables_number   1
_chemical_formula_structural   Gd3InS6
_chemical_formula_sum   'Gd12 In4 S24'
_cell_volume   892.93201186
_cell_formula_units_Z   4
loop_
 _symmetry_equiv_pos_site_id
 _symmetry_equiv_pos_as_xyz
  1  'x, y, z'
loop_
 _atom_site_type_symbol
 _atom_site_label
 _atom_site_symmetry_multiplicity
 _atom_site_fract_x
 _atom_site_fract_y
 _atom_site_fract_z
 _atom_site_occupancy
  Gd  Gd0  1  0.25319571  0.03628747  0.77705914  1
  Gd  Gd1  1  0.25319571  0.96371253  0.22294086  1
  Gd  Gd2  1  0.74680429  0.46371253  0.27705914  1
  Gd  Gd3  1  0.74680429  0.53628747  0.72294086  1
  Gd  Gd4  1  0.26252289  0.24714469  0.61040541  1
  Gd  Gd5  1  0.26252289  0.75285531  0.38959459  1
  Gd  Gd6  1  0.73747711  0.25285531  0.11040541  1
  Gd  Gd7  1  0.73747711  0.74714469  0.88959459  1
  Gd  Gd8  1  0.75000363  0.30938896  0.85676980  1
  Gd  Gd9  1  0.75000363  0.69061104  0.14323020  1
  Gd  Gd10  1  0.24999637  0.19061104  0.35676980  1
  Gd  Gd11  1  0.24999637  0.80938896  0.64323020  1
  In  In12  1  0.75287209  0.00000000  0.50000000  1
  In  In13  1  0.24712791  0.50000000  -0.00000000  1
  In  In14  1  0.39231083  0.50000000  0.50000000  1
  In  In15  1  0.60768917  -0.00000000  0.00000000  1
  S  S16  1  0.76898109  0.39720370  0.59201943  1
  S  S17  1  0.76898109  0.60279630  0.40798057  1
  S  S18  1  0.23101891  0.10279630  0.09201943  1
  S  S19  1  0.23101891  0.89720370  0.90798057  1
  S  S20  1  0.24917280  0.30788974  0.98089905  1
  S  S21  1  0.24917280  0.69211026  0.01910095  1
  S  S22  1  0.75082720  0.19211026  0.48089905  1
  S  S23  1  0.75082720  0.80788974  0.51910095  1
  S  S24  1  0.75199099  0.10767222  0.88568541  1
  S  S25  1  0.75199099  0.89232778  0.11431459  1
  S  S26  1  0.24800901  0.39232778  0.38568541  1
  S  S27  1  0.24800901  0.60767222  0.61431459  1
  S  S28  1  0.75904004  0.17848600  0.71712155  1
  S  S29  1  0.75904004  0.82151400  0.28287845  1
  S  S30  1  0.24095996  0.32151400  0.21712155  1
  S  S31  1  0.24095996  0.67848600  0.78287845  1
  S  S32  1  0.25083799  0.38549680  0.75649625  1
  S  S33  1  0.25083799  0.61450320  0.24350375  1
  S  S34  1  0.74916201  0.11450320  0.25649625  1
  S  S35  1  0.74916201  0.88549680  0.74350375  1
  S  S36  1  0.25291702  0.02067596  0.60503833  1
  S  S37  1  0.25291702  0.97932404  0.39496167  1
  S  S38  1  0.74708298  0.47932404  0.10503833  1
  S  S39  1  0.74708298  0.52067596  0.89496167  1
