# generated using pymatgen
data_BaPr2In2O7
_symmetry_space_group_name_H-M   'P 1'
_cell_length_a   5.99061806
_cell_length_b   5.99061806
_cell_length_c   20.84855459
_cell_angle_alpha   90.00000000
_cell_angle_beta   90.00000000
_cell_angle_gamma   90.00000000
_symmetry_Int_Tables_number   1
_chemical_formula_structural   BaPr2In2O7
_chemical_formula_sum   'Ba4 Pr8 In8 O28'
_cell_volume   748.20260169
_cell_formula_units_Z   4
loop_
 _symmetry_equiv_pos_site_id
 _symmetry_equiv_pos_as_xyz
  1  'x, y, z'
loop_
 _atom_site_type_symbol
 _atom_site_label
 _atom_site_symmetry_multiplicity
 _atom_site_fract_x
 _atom_site_fract_y
 _atom_site_fract_z
 _atom_site_occupancy
  Ba  Ba0  1  0.23838441  0.76161559  0.50000000  1
  Ba  Ba1  1  0.76161559  0.23838441  0.50000000  1
  Ba  Ba2  1  0.26161559  0.26161559  0.00000000  1
  Ba  Ba3  1  0.73838441  0.73838441  0.00000000  1
  Pr  Pr4  1  0.22131199  0.77868801  0.31440040  1
  Pr  Pr5  1  0.77868801  0.22131199  0.31440040  1
  Pr  Pr6  1  0.27868801  0.27868801  0.81440040  1
  Pr  Pr7  1  0.72131199  0.72131199  0.81440040  1
  Pr  Pr8  1  0.77868801  0.22131199  0.68559960  1
  Pr  Pr9  1  0.22131199  0.77868801  0.68559960  1
  Pr  Pr10  1  0.72131199  0.72131199  0.18559960  1
  Pr  Pr11  1  0.27868801  0.27868801  0.18559960  1
  In  In12  1  0.24024222  0.75975778  0.10285186  1
  In  In13  1  0.75975778  0.24024222  0.10285186  1
  In  In14  1  0.25975778  0.25975778  0.60285186  1
  In  In15  1  0.74024222  0.74024222  0.60285186  1
  In  In16  1  0.75975778  0.24024222  0.89714814  1
  In  In17  1  0.24024222  0.75975778  0.89714814  1
  In  In18  1  0.74024222  0.74024222  0.39714814  1
  In  In19  1  0.25975778  0.25975778  0.39714814  1
  O  O20  1  0.29761404  0.29761404  0.50000000  1
  O  O21  1  0.70238596  0.70238596  0.50000000  1
  O  O22  1  0.20238596  0.79761404  -0.00000000  1
  O  O23  1  0.79761404  0.20238596  0.00000000  1
  O  O24  1  0.31904739  0.68095261  0.21107273  1
  O  O25  1  0.68095261  0.31904739  0.21107273  1
  O  O26  1  0.18095261  0.18095261  0.71107273  1
  O  O27  1  0.81904739  0.81904739  0.71107273  1
  O  O28  1  0.68095261  0.31904739  0.78892727  1
  O  O29  1  0.31904739  0.68095261  0.78892727  1
  O  O30  1  0.81904739  0.81904739  0.28892727  1
  O  O31  1  0.18095261  0.18095261  0.28892727  1
  O  O32  1  -0.00000000  0.50000000  0.38237040  1
  O  O33  1  0.50000000  0.00000000  0.88237040  1
  O  O34  1  -0.00000000  0.50000000  0.61762960  1
  O  O35  1  0.50000000  0.00000000  0.11762960  1
  O  O36  1  0.50000000  0.00000000  0.38237040  1
  O  O37  1  -0.00000000  0.50000000  0.88237040  1
  O  O38  1  0.50000000  0.00000000  0.61762960  1
  O  O39  1  -0.00000000  0.50000000  0.11762960  1
  O  O40  1  0.50000000  0.50000000  0.36322311  1
  O  O41  1  -0.00000000  0.00000000  0.86322311  1
  O  O42  1  0.50000000  0.50000000  0.63677689  1
  O  O43  1  -0.00000000  0.00000000  0.13677689  1
  O  O44  1  0.50000000  0.50000000  0.09114955  1
  O  O45  1  -0.00000000  0.00000000  0.59114955  1
  O  O46  1  0.50000000  0.50000000  0.90885045  1
  O  O47  1  -0.00000000  0.00000000  0.40885045  1
