# generated using pymatgen
data_MnFeH4NF6
_symmetry_space_group_name_H-M   'P 1'
_cell_length_a   10.91316210
_cell_length_b   7.95892147
_cell_length_c   13.23850710
_cell_angle_alpha   90.00000000
_cell_angle_beta   90.00000000
_cell_angle_gamma   90.00000000
_symmetry_Int_Tables_number   1
_chemical_formula_structural   MnFeH4NF6
_chemical_formula_sum   'Mn8 Fe8 H32 N8 F48'
_cell_volume   1149.85701308
_cell_formula_units_Z   8
loop_
 _symmetry_equiv_pos_site_id
 _symmetry_equiv_pos_as_xyz
  1  'x, y, z'
loop_
 _atom_site_type_symbol
 _atom_site_label
 _atom_site_symmetry_multiplicity
 _atom_site_fract_x
 _atom_site_fract_y
 _atom_site_fract_z
 _atom_site_occupancy
  Mn  Mn0  1  0.31362476  0.72772217  0.62056240  1
  Mn  Mn1  1  0.68637524  0.27227783  0.62056240  1
  Mn  Mn2  1  0.68637524  0.22772217  0.12056240  1
  Mn  Mn3  1  0.31362476  0.77227783  0.12056240  1
  Mn  Mn4  1  0.81240292  0.75437009  0.87662049  1
  Mn  Mn5  1  0.18759708  0.24562991  0.87662049  1
  Mn  Mn6  1  0.18759708  0.25437009  0.37662049  1
  Mn  Mn7  1  0.81240292  0.74562991  0.37662049  1
  Fe  Fe8  1  0.32645925  0.23668892  0.59514139  1
  Fe  Fe9  1  0.67354075  0.76331108  0.59514139  1
  Fe  Fe10  1  0.67354075  0.73668892  0.09514139  1
  Fe  Fe11  1  0.32645925  0.26331108  0.09514139  1
  Fe  Fe12  1  0.84209908  0.25429157  0.88652237  1
  Fe  Fe13  1  0.15790092  0.74570843  0.88652237  1
  Fe  Fe14  1  0.15790092  0.75429157  0.38652237  1
  Fe  Fe15  1  0.84209908  0.24570843  0.38652237  1
  H  H16  1  0.63698970  0.38730234  0.97635644  1
  H  H17  1  0.36301030  0.61269766  0.97635644  1
  H  H18  1  0.36301030  0.88730234  0.47635644  1
  H  H19  1  0.63698970  0.11269766  0.47635644  1
  H  H20  1  0.55965913  0.56106841  0.84191691  1
  H  H21  1  0.44034087  0.43893159  0.84191691  1
  H  H22  1  0.44034087  0.06106841  0.34191591  1
  H  H23  1  0.55965913  0.93893159  0.34191591  1
  H  H24  1  0.53336773  0.40558674  0.36469197  1
  H  H25  1  0.46663227  0.59441326  0.36469197  1
  H  H26  1  0.46663227  0.90558674  0.86469197  1
  H  H27  1  0.53336773  0.09441326  0.86469197  1
  H  H28  1  0.43020457  0.44975261  0.27538149  1
  H  H29  1  0.56979543  0.55024739  0.27538149  1
  H  H30  1  0.56979543  0.94975261  0.77538149  1
  H  H31  1  0.43020457  0.05024739  0.77538149  1
  H  H32  1  0.05578375  0.42510175  0.58895686  1
  H  H33  1  0.94421625  0.57489825  0.58895686  1
  H  H34  1  0.94421625  0.92510175  0.08895686  1
  H  H35  1  0.05578375  0.07489825  0.08895686  1
  H  H36  1  0.94743304  0.42456663  0.67927456  1
  H  H37  1  0.05256696  0.57543337  0.67927456  1
  H  H38  1  0.05256696  0.92456663  0.17927456  1
  H  H39  1  0.94743304  0.07543337  0.17927456  1
  H  H40  1  0.05098799  0.41945519  0.11529031  1
  H  H41  1  0.94901201  0.58054481  0.11529031  1
  H  H42  1  0.94901201  0.91945519  0.61529031  1
  H  H43  1  0.05098799  0.08054481  0.61529031  1
  H  H44  1  0.94072884  0.43117452  0.20516899  1
  H  H45  1  0.05927116  0.56882548  0.20516899  1
  H  H46  1  0.05927116  0.93117452  0.70516899  1
  H  H47  1  0.94072884  0.06882548  0.70516899  1
  N  N48  1  0.50000000  0.50000000  0.79344512  1
  N  N49  1  0.50000000  -0.00000000  0.29344512  1
  N  N50  1  0.50000000  0.50000000  0.31907983  1
  N  N51  1  0.50000000  -0.00000000  0.81907983  1
  N  N52  1  -0.00000000  0.50000000  0.63347095  1
  N  N53  1  -0.00000000  -0.00000000  0.13347095  1
  N  N54  1  -0.00000000  0.50000000  0.16069700  1
  N  N55  1  -0.00000000  -0.00000000  0.66069700  1
  F  F56  1  0.49701258  0.23846220  0.63506982  1
  F  F57  1  0.50298742  0.76153780  0.63506982  1
  F  F58  1  0.50298742  0.73846220  0.13506982  1
  F  F59  1  0.49701258  0.26153780  0.13506982  1
  F  F60  1  0.36192808  0.21808006  0.95305358  1
  F  F61  1  0.63807192  0.78191994  0.95305358  1
  F  F62  1  0.63807192  0.71808006  0.45305358  1
  F  F63  1  0.36192808  0.28191994  0.45305358  1
  F  F64  1  0.85301813  0.26344164  0.03688103  1
  F  F65  1  0.14698187  0.73655836  0.03688103  1
  F  F66  1  0.14698187  0.76344164  0.53688103  1
  F  F67  1  0.85301813  0.23655836  0.53688103  1
  F  F68  1  0.78416877  0.20464053  0.74465181  1
  F  F69  1  0.21583123  0.79535947  0.74465181  1
  F  F70  1  0.21583123  0.70464053  0.24465181  1
  F  F71  1  0.78416877  0.29535947  0.24465181  1
  F  F72  1  0.29555302  0.47091624  0.62216222  1
  F  F73  1  0.70444698  0.52908376  0.62216222  1
  F  F74  1  0.70444698  0.97091624  0.12216222  1
  F  F75  1  0.29555302  0.02908376  0.12216222  1
  F  F76  1  0.79744311  0.49216118  0.86732753  1
  F  F77  1  0.20255689  0.50783882  0.86732753  1
  F  F78  1  0.20255689  0.99216118  0.36732753  1
  F  F79  1  0.79744311  0.00783882  0.36732753  1
  F  F80  1  0.00765200  0.28034061  0.82541798  1
  F  F81  1  0.99234800  0.71965939  0.82541798  1
  F  F82  1  0.99234800  0.78034061  0.32541798  1
  F  F83  1  0.00765200  0.21965939  0.32541798  1
  F  F84  1  0.36520952  0.72753186  0.93851593  1
  F  F85  1  0.63479048  0.27246814  0.93851593  1
  F  F86  1  0.63479048  0.22753186  0.43851593  1
  F  F87  1  0.36520952  0.77246814  0.43851593  1
  F  F88  1  0.84793720  0.72263878  0.05007766  1
  F  F89  1  0.15206280  0.27736122  0.05007766  1
  F  F90  1  0.15206280  0.22263878  0.55007766  1
  F  F91  1  0.84793720  0.77736122  0.55007766  1
  F  F92  1  0.71611572  0.82714868  0.73400078  1
  F  F93  1  0.28388428  0.17285132  0.73400078  1
  F  F94  1  0.28388428  0.32714868  0.23400078  1
  F  F95  1  0.71611572  0.67285132  0.23400078  1
  F  F96  1  0.34561546  0.99018045  0.55654816  1
  F  F97  1  0.65438454  0.00981955  0.55654816  1
  F  F98  1  0.65438454  0.49018045  0.05654816  1
  F  F99  1  0.34561546  0.50981955  0.05654816  1
  F  F100  1  0.84942228  0.00887245  0.90256235  1
  F  F101  1  0.15057772  0.99112755  0.90256235  1
  F  F102  1  0.15057772  0.50887245  0.40256235  1
  F  F103  1  0.84942228  0.49112755  0.40256235  1
