# generated using pymatgen
data_CoRe3H22(N3O7)2
_symmetry_space_group_name_H-M   'P 1'
_cell_length_a   8.32434471
_cell_length_b   8.32434471
_cell_length_c   15.44555697
_cell_angle_alpha   97.55560490
_cell_angle_beta   97.55560490
_cell_angle_gamma   103.01181048
_symmetry_Int_Tables_number   1
_chemical_formula_structural   CoRe3H22(N3O7)2
_chemical_formula_sum   'Co2 Re6 H44 N12 O28'
_cell_volume   1019.28035804
_cell_formula_units_Z   2
loop_
 _symmetry_equiv_pos_site_id
 _symmetry_equiv_pos_as_xyz
  1  'x, y, z'
loop_
 _atom_site_type_symbol
 _atom_site_label
 _atom_site_symmetry_multiplicity
 _atom_site_fract_x
 _atom_site_fract_y
 _atom_site_fract_z
 _atom_site_occupancy
  Co  Co0  1  0.00000000  0.50000000  0.50000000  1
  Co  Co1  1  0.50000000  -0.00000000  0.00000000  1
  Re  Re2  1  0.13685900  0.43260315  0.13966669  1
  Re  Re3  1  0.56739685  0.86314100  0.36033331  1
  Re  Re4  1  0.86314100  0.56739685  0.86033331  1
  Re  Re5  1  0.43260315  0.13685900  0.63966669  1
  Re  Re6  1  0.04249681  0.95750319  0.25000000  1
  Re  Re7  1  0.95750319  0.04249681  0.75000000  1
  H  H8  1  0.59145873  0.55956494  0.18209323  1
  H  H9  1  0.44043506  0.40854127  0.31790677  1
  H  H10  1  0.40854127  0.44043506  0.81790677  1
  H  H11  1  0.55956494  0.59145873  0.68209323  1
  H  H12  1  0.73271477  0.48763079  0.14477518  1
  H  H13  1  0.51236921  0.26728523  0.35522482  1
  H  H14  1  0.26728523  0.51236921  0.85522482  1
  H  H15  1  0.48763079  0.73271477  0.64477518  1
  H  H16  1  0.20025959  0.34518928  0.43952608  1
  H  H17  1  0.65481072  0.79974041  0.06047392  1
  H  H18  1  0.79974041  0.65481072  0.56047392  1
  H  H19  1  0.34518928  0.20025959  0.93952608  1
  H  H20  1  0.77620438  0.42218291  0.36023826  1
  H  H21  1  0.57781709  0.22379562  0.13976174  1
  H  H22  1  0.22379562  0.57781709  0.63976174  1
  H  H23  1  0.42218291  0.77620438  0.86023826  1
  H  H24  1  0.09599328  0.81538028  0.54489177  1
  H  H25  1  0.18461972  0.90400672  0.95510823  1
  H  H26  1  0.90400672  0.18461972  0.45510823  1
  H  H27  1  0.81538028  0.09599328  0.04489177  1
  H  H28  1  0.93124321  0.33112968  0.34536717  1
  H  H29  1  0.66887032  0.06875679  0.15463283  1
  H  H30  1  0.06875679  0.66887032  0.65463283  1
  H  H31  1  0.33112968  0.93124321  0.84536717  1
  H  H32  1  0.25652541  0.54173238  0.42451221  1
  H  H33  1  0.45826762  0.74347459  0.07548779  1
  H  H34  1  0.74347459  0.45826762  0.57548779  1
  H  H35  1  0.54173238  0.25652541  0.92451221  1
  H  H36  1  0.16568157  0.76268942  0.45248626  1
  H  H37  1  0.23731058  0.83431843  0.04751374  1
  H  H38  1  0.83431843  0.23731058  0.54751374  1
  H  H39  1  0.76268942  0.16568157  0.95248626  1
  H  H40  1  0.30728310  0.49228530  0.52277009  1
  H  H41  1  0.50771470  0.69271690  0.97722991  1
  H  H42  1  0.69271690  0.50771470  0.47722991  1
  H  H43  1  0.49228530  0.30728310  0.02277009  1
  H  H44  1  0.95287405  0.53089303  0.33685751  1
  H  H45  1  0.46910697  0.04712595  0.16314249  1
  H  H46  1  0.04712595  0.46910697  0.66314249  1
  H  H47  1  0.53089303  0.95287405  0.83685751  1
  H  H48  1  0.96640499  0.76877791  0.44986424  1
  H  H49  1  0.23122209  0.03359501  0.05013576  1
  H  H50  1  0.03359501  0.23122209  0.55013576  1
  H  H51  1  0.76877791  0.96640499  0.94986424  1
  N  N52  1  0.06498054  0.73679297  0.48504663  1
  N  N53  1  0.26320703  0.93501946  0.01495337  1
  N  N54  1  0.93501946  0.26320703  0.51495337  1
  N  N55  1  0.73679297  0.06498054  0.98504663  1
  N  N56  1  0.90458068  0.43993660  0.37199716  1
  N  N57  1  0.56006340  0.09541932  0.12800284  1
  N  N58  1  0.09541932  0.56006340  0.62800284  1
  N  N59  1  0.43993660  0.90458068  0.87199716  1
  N  N60  1  0.21378195  0.46660155  0.46852312  1
  N  N61  1  0.53339845  0.78621805  0.03147688  1
  N  N62  1  0.78621805  0.53339845  0.53147688  1
  N  N63  1  0.46660155  0.21378195  0.96852312  1
  O  O64  1  0.99614158  0.75622781  0.27757641  1
  O  O65  1  0.24377219  0.00385842  0.22242359  1
  O  O66  1  0.00385842  0.24377219  0.72242359  1
  O  O67  1  0.75622781  0.99614158  0.77757641  1
  O  O68  1  0.61100236  0.46995923  0.13961237  1
  O  O69  1  0.53004077  0.38899764  0.36038763  1
  O  O70  1  0.38899764  0.53004077  0.86038763  1
  O  O71  1  0.46995923  0.61100236  0.63961237  1
  O  O72  1  0.91846138  0.38746604  0.13401573  1
  O  O73  1  0.61253396  0.08153862  0.36598427  1
  O  O74  1  0.08153862  0.61253396  0.86598427  1
  O  O75  1  0.38746604  0.91846138  0.63401573  1
  O  O76  1  0.18679681  0.27090417  0.07191361  1
  O  O77  1  0.72909583  0.81320319  0.42808639  1
  O  O78  1  0.81320319  0.72909583  0.92808639  1
  O  O79  1  0.27090417  0.18679681  0.57191361  1
  O  O80  1  0.20817383  0.62218350  0.10229241  1
  O  O81  1  0.37781650  0.79182617  0.39770759  1
  O  O82  1  0.79182617  0.37781650  0.89770759  1
  O  O83  1  0.62218350  0.20817383  0.60229241  1
  O  O84  1  0.23193048  0.44262225  0.24923410  1
  O  O85  1  0.55737775  0.76806952  0.25076590  1
  O  O86  1  0.76806952  0.55737775  0.75076590  1
  O  O87  1  0.44262225  0.23193048  0.74923410  1
  O  O88  1  0.89543025  0.96730767  0.15916494  1
  O  O89  1  0.03269233  0.10456975  0.34083506  1
  O  O90  1  0.10456975  0.03269233  0.84083506  1
  O  O91  1  0.96730767  0.89543025  0.65916494  1
