# generated using pymatgen
data_Ce4Se3N2
_symmetry_space_group_name_H-M   'P 1'
_cell_length_a   6.90377469
_cell_length_b   10.79041697
_cell_length_c   11.17575365
_cell_angle_alpha   90.00000000
_cell_angle_beta   90.00000000
_cell_angle_gamma   90.00000000
_symmetry_Int_Tables_number   1
_chemical_formula_structural   Ce4Se3N2
_chemical_formula_sum   'Ce16 Se12 N8'
_cell_volume   832.53338248
_cell_formula_units_Z   4
loop_
 _symmetry_equiv_pos_site_id
 _symmetry_equiv_pos_as_xyz
  1  'x, y, z'
loop_
 _atom_site_type_symbol
 _atom_site_label
 _atom_site_symmetry_multiplicity
 _atom_site_fract_x
 _atom_site_fract_y
 _atom_site_fract_z
 _atom_site_occupancy
  Ce  Ce0  1  0.39707797  0.16548122  0.75000000  1
  Ce  Ce1  1  0.89707797  0.33451878  0.75000000  1
  Ce  Ce2  1  0.60292203  0.83451878  0.25000000  1
  Ce  Ce3  1  0.10292203  0.66548122  0.25000000  1
  Ce  Ce4  1  0.29452399  0.52815314  0.75000000  1
  Ce  Ce5  1  0.79452399  0.97184686  0.75000000  1
  Ce  Ce6  1  0.70547601  0.47184686  0.25000000  1
  Ce  Ce7  1  0.20547601  0.02815314  0.25000000  1
  Ce  Ce8  1  0.33856108  0.88295803  0.55286339  1
  Ce  Ce9  1  0.83856108  0.61704197  0.94713661  1
  Ce  Ce10  1  0.66143892  0.11704197  0.05286339  1
  Ce  Ce11  1  0.16143892  0.38295803  0.44713661  1
  Ce  Ce12  1  0.66143892  0.11704197  0.44713661  1
  Ce  Ce13  1  0.16143892  0.38295803  0.05286339  1
  Ce  Ce14  1  0.33856108  0.88295803  0.94713661  1
  Ce  Ce15  1  0.83856108  0.61704197  0.55286339  1
  Se  Se16  1  0.07522113  0.76225924  0.75000000  1
  Se  Se17  1  0.57522113  0.73774076  0.75000000  1
  Se  Se18  1  0.92477887  0.23774076  0.25000000  1
  Se  Se19  1  0.42477887  0.26225924  0.25000000  1
  Se  Se20  1  0.44008934  0.63636229  0.42000344  1
  Se  Se21  1  0.94008934  0.86363771  0.07999656  1
  Se  Se22  1  0.55991066  0.36363771  0.92000344  1
  Se  Se23  1  0.05991066  0.13636229  0.57999656  1
  Se  Se24  1  0.55991066  0.36363771  0.57999656  1
  Se  Se25  1  0.05991066  0.13636229  0.92000344  1
  Se  Se26  1  0.44008934  0.63636229  0.07999656  1
  Se  Se27  1  0.94008934  0.86363771  0.42000344  1
  N  N28  1  0.44477111  0.96662247  0.38053001  1
  N  N29  1  0.94477111  0.53337753  0.11946999  1
  N  N30  1  0.55522889  0.03337753  0.88053001  1
  N  N31  1  0.05522889  0.46662247  0.61946999  1
  N  N32  1  0.55522889  0.03337753  0.61946999  1
  N  N33  1  0.05522889  0.46662247  0.88053001  1
  N  N34  1  0.44477111  0.96662247  0.11946999  1
  N  N35  1  0.94477111  0.53337753  0.38053001  1
