# generated using pymatgen
data_FeCo2BO5
_symmetry_space_group_name_H-M   'P 1'
_cell_length_a   3.07234862
_cell_length_b   9.41770671
_cell_length_c   12.41582276
_cell_angle_alpha   90.00000000
_cell_angle_beta   90.00000000
_cell_angle_gamma   90.00000000
_symmetry_Int_Tables_number   1
_chemical_formula_structural   FeCo2BO5
_chemical_formula_sum   'Fe4 Co8 B4 O20'
_cell_volume   359.24535316
_cell_formula_units_Z   4
loop_
 _symmetry_equiv_pos_site_id
 _symmetry_equiv_pos_as_xyz
  1  'x, y, z'
loop_
 _atom_site_type_symbol
 _atom_site_label
 _atom_site_symmetry_multiplicity
 _atom_site_fract_x
 _atom_site_fract_y
 _atom_site_fract_z
 _atom_site_occupancy
  Fe  Fe0  1  0.50000000  0.74038576  0.38523283  1
  Fe  Fe1  1  0.50000000  0.25961424  0.61476717  1
  Fe  Fe2  1  0.50000000  0.24038576  0.11476717  1
  Fe  Fe3  1  0.50000000  0.75961424  0.88523283  1
  Co  Co4  1  0.00000000  0.50000000  0.50000000  1
  Co  Co5  1  0.00000000  -0.00000000  0.00000000  1
  Co  Co6  1  0.50000000  -0.00000000  0.50000000  1
  Co  Co7  1  0.50000000  0.50000000  0.00000000  1
  Co  Co8  1  -0.00000000  0.49924592  0.21959889  1
  Co  Co9  1  0.00000000  0.50075408  0.78040111  1
  Co  Co10  1  -0.00000000  0.99924592  0.28040111  1
  Co  Co11  1  0.00000000  0.00075408  0.71959889  1
  B  B12  1  0.50000000  0.72850875  0.63862587  1
  B  B13  1  0.50000000  0.27149125  0.36137413  1
  B  B14  1  0.50000000  0.22850875  0.86137413  1
  B  B15  1  0.50000000  0.77149125  0.13862587  1
  O  O16  1  0.00000000  0.60809607  0.35657913  1
  O  O17  1  -0.00000000  0.39190393  0.64342087  1
  O  O18  1  0.00000000  0.10809607  0.14342087  1
  O  O19  1  0.00000000  0.89190393  0.85657913  1
  O  O20  1  0.50000000  0.87592232  0.63965464  1
  O  O21  1  0.50000000  0.12407768  0.36034536  1
  O  O22  1  0.50000000  0.37592232  0.86034536  1
  O  O23  1  0.50000000  0.62407768  0.13965464  1
  O  O24  1  0.00000000  0.38152001  0.07838540  1
  O  O25  1  0.00000000  0.61847999  0.92161460  1
  O  O26  1  0.00000000  0.88152001  0.42161460  1
  O  O27  1  0.00000000  0.11847999  0.57838540  1
  O  O28  1  0.50000000  0.65520805  0.73619641  1
  O  O29  1  0.50000000  0.34479195  0.26380359  1
  O  O30  1  0.50000000  0.15520805  0.76380359  1
  O  O31  1  0.50000000  0.84479195  0.23619641  1
  O  O32  1  0.50000000  0.65277366  0.54212294  1
  O  O33  1  0.50000000  0.34722634  0.45787706  1
  O  O34  1  0.50000000  0.15277366  0.95787706  1
  O  O35  1  0.50000000  0.84722634  0.04212294  1
