# generated using pymatgen
data_RbLiSO4
_symmetry_space_group_name_H-M   'P 1'
_cell_length_a   5.38784256
_cell_length_b   9.35577126
_cell_length_c   17.80313513
_cell_angle_alpha   89.86711811
_cell_angle_beta   90.00000000
_cell_angle_gamma   90.00000000
_symmetry_Int_Tables_number   1
_chemical_formula_structural   RbLiSO4
_chemical_formula_sum   'Rb8 Li8 S8 O32'
_cell_volume   897.40774259
_cell_formula_units_Z   8
loop_
 _symmetry_equiv_pos_site_id
 _symmetry_equiv_pos_as_xyz
  1  'x, y, z'
loop_
 _atom_site_type_symbol
 _atom_site_label
 _atom_site_symmetry_multiplicity
 _atom_site_fract_x
 _atom_site_fract_y
 _atom_site_fract_z
 _atom_site_occupancy
  Rb  Rb0  1  0.74685419  0.21542216  0.75096638  1
  Rb  Rb1  1  0.24685419  0.78457784  0.74903362  1
  Rb  Rb2  1  0.25314581  0.78457784  0.24903362  1
  Rb  Rb3  1  0.75314581  0.21542216  0.25096638  1
  Rb  Rb4  1  0.75953048  0.28331596  0.00093073  1
  Rb  Rb5  1  0.25953048  0.71668404  0.49906927  1
  Rb  Rb6  1  0.24046952  0.71668404  0.99906927  1
  Rb  Rb7  1  0.74046952  0.28331596  0.50093073  1
  Li  Li8  1  0.25463487  0.41638227  0.66213690  1
  Li  Li9  1  0.75463487  0.58361773  0.83786310  1
  Li  Li10  1  0.74536513  0.58361773  0.33786310  1
  Li  Li11  1  0.24536513  0.41638227  0.16213690  1
  Li  Li12  1  0.25728838  0.08441476  0.91144757  1
  Li  Li13  1  0.75728838  0.91558524  0.58855243  1
  Li  Li14  1  0.74271162  0.91558524  0.08855243  1
  Li  Li15  1  0.24271162  0.08441476  0.41144757  1
  S  S16  1  0.25571990  0.08229795  0.60250721  1
  S  S17  1  0.75571990  0.91770205  0.89749279  1
  S  S18  1  0.74428010  0.91770205  0.39749279  1
  S  S19  1  0.24428010  0.08229795  0.10250721  1
  S  S20  1  0.25486635  0.41622453  0.85283707  1
  S  S21  1  0.75486635  0.58377547  0.64716293  1
  S  S22  1  0.74513365  0.58377547  0.14716293  1
  S  S23  1  0.24513365  0.41622453  0.35283707  1
  O  O24  1  0.24740958  0.08854281  0.51939396  1
  O  O25  1  0.74740958  0.91145719  0.98060604  1
  O  O26  1  0.75259042  0.91145719  0.48060604  1
  O  O27  1  0.25259042  0.08854281  0.01939396  1
  O  O28  1  0.25282915  0.40308516  0.76985516  1
  O  O29  1  0.75282915  0.59691484  0.73014484  1
  O  O30  1  0.74717085  0.59691484  0.23014484  1
  O  O31  1  0.24717085  0.40308516  0.26985516  1
  O  O32  1  0.34079844  0.22295997  0.63207934  1
  O  O33  1  0.84079844  0.77704003  0.86792066  1
  O  O34  1  0.65920156  0.77704003  0.36792066  1
  O  O35  1  0.15920156  0.22295997  0.13207934  1
  O  O36  1  0.34205285  0.27953994  0.88658223  1
  O  O37  1  0.84205285  0.72046006  0.61341777  1
  O  O38  1  0.65794715  0.72046006  0.11341777  1
  O  O39  1  0.15794715  0.27953994  0.38658223  1
  O  O40  1  0.00429732  0.04694438  0.63285553  1
  O  O41  1  0.50429732  0.95305562  0.86714447  1
  O  O42  1  0.99570268  0.95305562  0.36714447  1
  O  O43  1  0.49570268  0.04694438  0.13285553  1
  O  O44  1  0.99890120  0.44968746  0.88033705  1
  O  O45  1  0.49890120  0.55031254  0.61966295  1
  O  O46  1  0.00109880  0.55031254  0.11966295  1
  O  O47  1  0.50109880  0.44968746  0.38033705  1
  O  O48  1  0.43426860  0.96925733  0.62753291  1
  O  O49  1  0.93426860  0.03074267  0.87246709  1
  O  O50  1  0.56573140  0.03074267  0.37246709  1
  O  O51  1  0.06573140  0.96925733  0.12753291  1
  O  O52  1  0.42655913  0.53369781  0.87612914  1
  O  O53  1  0.92655913  0.46630219  0.62387086  1
  O  O54  1  0.57344087  0.46630219  0.12387086  1
  O  O55  1  0.07344087  0.53369781  0.37612914  1
