# generated using pymatgen
data_BaSn2S5
_symmetry_space_group_name_H-M   'P 1'
_cell_length_a   6.75197012
_cell_length_b   10.82900695
_cell_length_c   11.64012594
_cell_angle_alpha   90.00000000
_cell_angle_beta   90.00000000
_cell_angle_gamma   90.00000000
_symmetry_Int_Tables_number   1
_chemical_formula_structural   BaSn2S5
_chemical_formula_sum   'Ba4 Sn8 S20'
_cell_volume   851.09261735
_cell_formula_units_Z   4
loop_
 _symmetry_equiv_pos_site_id
 _symmetry_equiv_pos_as_xyz
  1  'x, y, z'
loop_
 _atom_site_type_symbol
 _atom_site_label
 _atom_site_symmetry_multiplicity
 _atom_site_fract_x
 _atom_site_fract_y
 _atom_site_fract_z
 _atom_site_occupancy
  Ba  Ba0  1  0.25000000  0.25000000  0.80187696  1
  Ba  Ba1  1  0.75000000  0.75000000  0.69812304  1
  Ba  Ba2  1  0.75000000  0.75000000  0.19812304  1
  Ba  Ba3  1  0.25000000  0.25000000  0.30187696  1
  Sn  Sn4  1  0.24637189  0.55934219  0.52727648  1
  Sn  Sn5  1  0.25362811  0.94065781  0.52727648  1
  Sn  Sn6  1  0.74637189  0.44065781  0.97272352  1
  Sn  Sn7  1  0.75362811  0.05934219  0.97272352  1
  Sn  Sn8  1  0.75362811  0.44065781  0.47272352  1
  Sn  Sn9  1  0.74637189  0.05934219  0.47272352  1
  Sn  Sn10  1  0.25362811  0.55934219  0.02727648  1
  Sn  Sn11  1  0.24637189  0.94065781  0.02727648  1
  S  S12  1  0.07139723  0.13447630  0.56429346  1
  S  S13  1  0.42860277  0.36552370  0.56429346  1
  S  S14  1  0.57139723  0.86552370  0.93570654  1
  S  S15  1  0.92860277  0.63447630  0.93570654  1
  S  S16  1  0.92860277  0.86552370  0.43570654  1
  S  S17  1  0.57139723  0.63447630  0.43570654  1
  S  S18  1  0.42860277  0.13447630  0.06429346  1
  S  S19  1  0.07139723  0.36552370  0.06429346  1
  S  S20  1  0.04957712  0.97181300  0.85177957  1
  S  S21  1  0.45042288  0.52818700  0.85177957  1
  S  S22  1  0.54957712  0.02818700  0.64822043  1
  S  S23  1  0.95042288  0.47181300  0.64822043  1
  S  S24  1  0.95042288  0.02818700  0.14822043  1
  S  S25  1  0.54957712  0.47181300  0.14822043  1
  S  S26  1  0.45042288  0.97181300  0.35177957  1
  S  S27  1  0.04957712  0.52818700  0.35177957  1
  S  S28  1  0.75000000  0.25000000  0.84713049  1
  S  S29  1  0.25000000  0.75000000  0.65286951  1
  S  S30  1  0.25000000  0.75000000  0.15286951  1
  S  S31  1  0.75000000  0.25000000  0.34713049  1
