# generated using pymatgen
data_BaTmCo4O7
_symmetry_space_group_name_H-M   'P 1'
_cell_length_a   6.37052455
_cell_length_b   10.24844828
_cell_length_c   11.04359253
_cell_angle_alpha   90.00000000
_cell_angle_beta   90.00000000
_cell_angle_gamma   90.00000000
_symmetry_Int_Tables_number   1
_chemical_formula_structural   BaTmCo4O7
_chemical_formula_sum   'Ba4 Tm4 Co16 O28'
_cell_volume   721.01397376
_cell_formula_units_Z   4
loop_
 _symmetry_equiv_pos_site_id
 _symmetry_equiv_pos_as_xyz
  1  'x, y, z'
loop_
 _atom_site_type_symbol
 _atom_site_label
 _atom_site_symmetry_multiplicity
 _atom_site_fract_x
 _atom_site_fract_y
 _atom_site_fract_z
 _atom_site_occupancy
  Ba  Ba0  1  0.50112172  0.50009191  0.16490713  1
  Ba  Ba1  1  0.49887828  0.00009191  0.83509287  1
  Ba  Ba2  1  0.00112172  0.00009191  0.33509287  1
  Ba  Ba3  1  0.99887828  0.50009191  0.66490713  1
  Tm  Tm4  1  0.51050579  0.87013969  0.16911409  1
  Tm  Tm5  1  0.48949421  0.37013969  0.83088591  1
  Tm  Tm6  1  0.01050579  0.37013969  0.33088591  1
  Tm  Tm7  1  0.98949421  0.87013969  0.66911409  1
  Co  Co8  1  0.49227315  0.68873148  0.67139401  1
  Co  Co9  1  0.50772685  0.18873148  0.32860599  1
  Co  Co10  1  0.99227315  0.18873148  0.82860599  1
  Co  Co11  1  0.00772685  0.68873148  0.17139401  1
  Co  Co12  1  0.75590568  0.19246204  0.58594835  1
  Co  Co13  1  0.24409432  0.69246204  0.41405165  1
  Co  Co14  1  0.25590568  0.69246204  0.91405165  1
  Co  Co15  1  0.74409432  0.19246204  0.08594835  1
  Co  Co16  1  0.75418577  0.68513854  0.41887904  1
  Co  Co17  1  0.24581423  0.18513854  0.58112096  1
  Co  Co18  1  0.25418577  0.18513854  0.08112096  1
  Co  Co19  1  0.74581423  0.68513854  0.91887904  1
  Co  Co20  1  0.49721335  0.94539327  0.50102075  1
  Co  Co21  1  0.50278665  0.44539327  0.49897925  1
  Co  Co22  1  0.99721335  0.44539327  0.99897925  1
  Co  Co23  1  0.00278665  0.94539327  0.00102075  1
  O  O24  1  0.50163790  0.25556870  0.49825067  1
  O  O25  1  0.49836210  0.75556870  0.50174933  1
  O  O26  1  0.00163790  0.75556870  0.00174933  1
  O  O27  1  0.99836210  0.25556870  0.99825067  1
  O  O28  1  0.44325863  0.49687047  0.66008584  1
  O  O29  1  0.55674137  0.99687047  0.33991416  1
  O  O30  1  0.94325863  0.99687047  0.83991416  1
  O  O31  1  0.05674137  0.49687047  0.16008584  1
  O  O32  1  0.72790382  0.99921569  0.59613161  1
  O  O33  1  0.27209618  0.49921569  0.40386839  1
  O  O34  1  0.22790382  0.49921569  0.90386839  1
  O  O35  1  0.77209618  0.99921569  0.09613161  1
  O  O36  1  0.76654372  0.49197714  0.43945127  1
  O  O37  1  0.23345628  0.99197714  0.56054873  1
  O  O38  1  0.26654372  0.99197714  0.06054873  1
  O  O39  1  0.73345628  0.49197714  0.93945127  1
  O  O40  1  0.49930773  0.24447753  0.99177854  1
  O  O41  1  0.50069227  0.74447753  0.00822146  1
  O  O42  1  0.99930773  0.74447753  0.50822146  1
  O  O43  1  0.00069227  0.24447753  0.49177854  1
  O  O44  1  0.26616342  0.78091484  0.75701253  1
  O  O45  1  0.73383658  0.28091484  0.24298747  1
  O  O46  1  0.76616342  0.28091484  0.74298747  1
  O  O47  1  0.23383658  0.78091484  0.25701253  1
  O  O48  1  0.23682186  0.22861872  0.25263909  1
  O  O49  1  0.76317814  0.72861872  0.74736091  1
  O  O50  1  0.73682186  0.72861872  0.24736091  1
  O  O51  1  0.26317814  0.22861872  0.75263909  1
