# generated using pymatgen
data_La6InCo13
_symmetry_space_group_name_H-M   'P 1'
_cell_length_a   8.06230558
_cell_length_b   8.06230558
_cell_length_c   12.94320683
_cell_angle_alpha   108.14659652
_cell_angle_beta   108.14659652
_cell_angle_gamma   90.00000000
_symmetry_Int_Tables_number   1
_chemical_formula_structural   La6InCo13
_chemical_formula_sum   'La12 In2 Co26'
_cell_volume   755.31402241
_cell_formula_units_Z   2
loop_
 _symmetry_equiv_pos_site_id
 _symmetry_equiv_pos_as_xyz
  1  'x, y, z'
loop_
 _atom_site_type_symbol
 _atom_site_label
 _atom_site_symmetry_multiplicity
 _atom_site_fract_x
 _atom_site_fract_y
 _atom_site_fract_z
 _atom_site_occupancy
  La  La0  1  0.34200717  0.51719250  0.35919967  1
  La  La1  1  0.01719250  0.84200717  0.35919967  1
  La  La2  1  0.51719250  0.01719250  0.35919967  1
  La  La3  1  0.84200717  0.34200717  0.35919967  1
  La  La4  1  0.65799283  0.48280750  0.64080033  1
  La  La5  1  0.98280750  0.15799283  0.64080033  1
  La  La6  1  0.48280750  0.98280750  0.64080033  1
  La  La7  1  0.15799283  0.65799283  0.64080033  1
  La  La8  1  0.10049832  0.10049832  0.20099664  1
  La  La9  1  0.60049832  0.60049832  0.20099664  1
  La  La10  1  0.89950168  0.89950168  0.79900336  1
  La  La11  1  0.39950168  0.39950168  0.79900336  1
  In  In12  1  0.25000000  0.25000000  0.50000000  1
  In  In13  1  0.75000000  0.75000000  0.50000000  1
  Co  Co14  1  0.23253806  0.37851368  0.11105175  1
  Co  Co15  1  0.87851368  0.73253806  0.11105175  1
  Co  Co16  1  0.37851368  0.87851368  0.11105175  1
  Co  Co17  1  0.73253806  0.23253806  0.11105175  1
  Co  Co18  1  0.76746194  0.62148632  0.88894825  1
  Co  Co19  1  0.12148632  0.26746194  0.88894825  1
  Co  Co20  1  0.62148632  0.12148632  0.88894825  1
  Co  Co21  1  0.26746194  0.76746194  0.88894825  1
  Co  Co22  1  0.21355604  0.06450598  0.00000000  1
  Co  Co23  1  0.78644396  0.93549402  1.00000000  1
  Co  Co24  1  0.28644396  0.56450598  0.00000000  1
  Co  Co25  1  0.71355604  0.43549402  1.00000000  1
  Co  Co26  1  0.06450598  0.78644396  0.00000000  1
  Co  Co27  1  0.93549402  0.21355604  1.00000000  1
  Co  Co28  1  0.56450598  0.71355604  0.00000000  1
  Co  Co29  1  0.43549402  0.28644396  1.00000000  1
  Co  Co30  1  0.47461998  0.20089256  0.17551255  1
  Co  Co31  1  0.70089256  0.97461998  0.17551255  1
  Co  Co32  1  0.20089256  0.70089256  0.17551255  1
  Co  Co33  1  0.97461998  0.47461998  0.17551255  1
  Co  Co34  1  0.52538002  0.79910744  0.82448745  1
  Co  Co35  1  0.29910744  0.02538002  0.82448745  1
  Co  Co36  1  0.79910744  0.29910744  0.82448745  1
  Co  Co37  1  0.02538002  0.52538002  0.82448745  1
  Co  Co38  1  0.50000000  0.00000000  -0.00000000  1
  Co  Co39  1  -0.00000000  0.50000000  -0.00000000  1
