# generated using pymatgen
data_K2Mg4U3(H13O12)4
_symmetry_space_group_name_H-M   'P 1'
_cell_length_a   6.63989056
_cell_length_b   8.38874409
_cell_length_c   18.35492831
_cell_angle_alpha   94.80274497
_cell_angle_beta   93.16385407
_cell_angle_gamma   95.12930649
_symmetry_Int_Tables_number   1
_chemical_formula_structural   K2Mg4U3(H13O12)4
_chemical_formula_sum   'K2 Mg4 U3 H52 O48'
_cell_volume   1012.68096522
_cell_formula_units_Z   1
loop_
 _symmetry_equiv_pos_site_id
 _symmetry_equiv_pos_as_xyz
  1  'x, y, z'
loop_
 _atom_site_type_symbol
 _atom_site_label
 _atom_site_symmetry_multiplicity
 _atom_site_fract_x
 _atom_site_fract_y
 _atom_site_fract_z
 _atom_site_occupancy
  K  K0  1  0.47497209  0.99725626  0.86545990  1
  K  K1  1  0.52502791  0.00274374  0.13454010  1
  Mg  Mg2  1  0.50000000  0.50000000  0.00000000  1
  Mg  Mg3  1  0.46882740  0.54597348  0.72132720  1
  Mg  Mg4  1  0.53117260  0.45402652  0.27867280  1
  Mg  Mg5  1  0.50000000  -0.00000000  0.50000000  1
  U  U6  1  -0.00000000  -0.00000000  0.00000000  1
  U  U7  1  0.97993744  0.03476097  0.73939008  1
  U  U8  1  0.02006256  0.96523903  0.26060992  1
  H  H9  1  0.21720915  0.64920059  0.50608252  1
  H  H10  1  0.78279085  0.35079941  0.49391748  1
  H  H11  1  0.27895678  0.49204626  0.46409704  1
  H  H12  1  0.72104322  0.50795374  0.53590296  1
  H  H13  1  0.86730630  0.58473406  0.94778371  1
  H  H14  1  0.13269370  0.41526594  0.05221629  1
  H  H15  1  0.81446031  0.39631281  0.93075838  1
  H  H16  1  0.18553969  0.60368719  0.06924162  1
  H  H17  1  0.15315126  0.35338403  0.65476519  1
  H  H18  1  0.84684874  0.64661597  0.34523481  1
  H  H19  1  0.25886255  0.45022264  0.59043151  1
  H  H20  1  0.74113745  0.54977736  0.40956849  1
  H  H21  1  0.50919217  0.80258133  0.97902952  1
  H  H22  1  0.49080783  0.19741867  0.02097048  1
  H  H23  1  0.27605067  0.72342759  0.96035720  1
  H  H24  1  0.72394933  0.27657241  0.03964280  1
  H  H25  1  0.77740892  0.73981655  0.80769922  1
  H  H26  1  0.22259108  0.26018345  0.19230078  1
  H  H27  1  0.64923868  0.62236125  0.85330759  1
  H  H28  1  0.35076132  0.37763875  0.14669241  1
  H  H29  1  0.69255767  0.32237065  0.76928526  1
  H  H30  1  0.30744233  0.67762935  0.23071474  1
  H  H31  1  0.45999651  0.23796795  0.75417517  1
  H  H32  1  0.54000349  0.76203205  0.24582483  1
  H  H33  1  0.32356845  0.40249472  0.86901531  1
  H  H34  1  0.67643155  0.59750528  0.13098469  1
  H  H35  1  0.18882219  0.31333485  0.92584002  1
  H  H36  1  0.81117781  0.68666515  0.07415998  1
  H  H37  1  0.80237719  0.44237332  0.66427159  1
  H  H38  1  0.19762281  0.55762668  0.33572841  1
  H  H39  1  0.83127466  0.63338542  0.66144334  1
  H  H40  1  0.16872534  0.36661458  0.33855666  1
  H  H41  1  0.16273858  0.64983044  0.80727997  1
  H  H42  1  0.83726142  0.35016956  0.19272003  1
  H  H43  1  0.09861627  0.46238862  0.78106464  1
  H  H44  1  0.90138373  0.53761138  0.21893536  1
  H  H45  1  0.48429887  0.85231872  0.69858409  1
  H  H46  1  0.51570113  0.14768128  0.30141591  1
  H  H47  1  0.25561787  0.77605210  0.67066693  1
  H  H48  1  0.74438213  0.22394790  0.32933307  1
  H  H49  1  0.56176922  0.10618505  0.64649528  1
  H  H50  1  0.43823078  0.89381495  0.35350472  1
  H  H51  1  0.41733850  0.22590050  0.61211722  1
  H  H52  1  0.58266150  0.77409950  0.38788278  1
  H  H53  1  0.76387593  0.85409827  0.57733046  1
  H  H54  1  0.23612407  0.14590173  0.42266954  1
  H  H55  1  0.54058519  0.77551374  0.58764404  1
  H  H56  1  0.45941481  0.22448626  0.41235596  1
  H  H57  1  0.11904293  0.89460123  0.46870002  1
  H  H58  1  0.88095707  0.10539877  0.53129998  1
  H  H59  1  0.12767620  0.90244521  0.55671587  1
  H  H60  1  0.87232380  0.09755479  0.44328413  1
  O  O61  1  0.94148052  0.27618930  0.68494229  1
  O  O62  1  0.05851948  0.72381070  0.31505771  1
  O  O63  1  0.03695529  0.73177482  0.97021719  1
  O  O64  1  0.96304471  0.26822518  0.02978281  1
  O  O65  1  0.96159832  0.24186797  0.94988484  1
  O  O66  1  0.03840168  0.75813203  0.05011516  1
  O  O67  1  0.93820620  0.30832171  0.76526628  1
  O  O68  1  0.06179380  0.69167829  0.23473372  1
  O  O69  1  0.01444903  0.79807517  0.66679591  1
  O  O70  1  0.98555097  0.20192483  0.33320409  1
  O  O71  1  0.98447569  0.92386798  0.61713462  1
  O  O72  1  0.01552431  0.07613202  0.38286538  1
  O  O73  1  0.99751611  0.98006876  0.86420795  1
  O  O74  1  0.00248389  0.01993124  0.13579205  1
  O  O75  1  0.01090757  0.83262324  0.81662141  1
  O  O76  1  0.98909243  0.16737676  0.18337859  1
  O  O77  1  0.28335169  0.04437628  0.00476309  1
  O  O78  1  0.71664831  0.95562372  0.99523691  1
  O  O79  1  0.26255774  0.08332119  0.74572974  1
  O  O80  1  0.73744226  0.91667881  0.25427026  1
  O  O81  1  0.69473500  0.99359938  0.73218772  1
  O  O82  1  0.30526500  0.00640062  0.26781228  1
  O  O83  1  0.23716389  0.53594052  0.51131184  1
  O  O84  1  0.76283611  0.46405948  0.48868816  1
  O  O85  1  0.75054844  0.49982666  0.93335684  1
  O  O86  1  0.24945156  0.50017334  0.06664316  1
  O  O87  1  0.28718057  0.39882593  0.63712682  1
  O  O88  1  0.71281943  0.60117407  0.36287318  1
  O  O89  1  0.42383609  0.70720239  0.95531707  1
  O  O90  1  0.57616391  0.29279761  0.04468293  1
  O  O91  1  0.63695005  0.68445479  0.81012237  1
  O  O92  1  0.36304995  0.31554521  0.18987763  1
  O  O93  1  0.54440495  0.34122392  0.76708235  1
  O  O94  1  0.45559505  0.65877608  0.23291765  1
  O  O95  1  0.33170714  0.35279041  0.91524428  1
  O  O96  1  0.66829286  0.64720959  0.08475572  1
  O  O97  1  0.72726538  0.53846582  0.65755889  1
  O  O98  1  0.27273462  0.46153418  0.34244111  1
  O  O99  1  0.21712080  0.54899675  0.78912902  1
  O  O100  1  0.78287920  0.45100325  0.21087098  1
  O  O101  1  0.40423295  0.75474530  0.67371987  1
  O  O102  1  0.59576705  0.24525470  0.32628013  1
  O  O103  1  0.49541523  0.13231539  0.60055992  1
  O  O104  1  0.50458477  0.86768461  0.39944008  1
  O  O105  1  0.62862233  0.81854774  0.55057811  1
  O  O106  1  0.37137767  0.18145226  0.44942189  1
  O  O107  1  0.20901531  0.88089738  0.51077700  1
  O  O108  1  0.79098469  0.11910262  0.48922300  1
