# generated using pymatgen
data_Cs3Bi2Cl9
_symmetry_space_group_name_H-M   'P 1'
_cell_length_a   7.79380256
_cell_length_b   13.53939281
_cell_length_c   19.19159486
_cell_angle_alpha   90.00000000
_cell_angle_beta   90.00000000
_cell_angle_gamma   90.00000000
_symmetry_Int_Tables_number   1
_chemical_formula_structural   Cs3Bi2Cl9
_chemical_formula_sum   'Cs12 Bi8 Cl36'
_cell_volume   2025.16146483
_cell_formula_units_Z   4
loop_
 _symmetry_equiv_pos_site_id
 _symmetry_equiv_pos_as_xyz
  1  'x, y, z'
loop_
 _atom_site_type_symbol
 _atom_site_label
 _atom_site_symmetry_multiplicity
 _atom_site_fract_x
 _atom_site_fract_y
 _atom_site_fract_z
 _atom_site_occupancy
  Cs  Cs0  1  0.25000000  0.09078855  0.58957263  1
  Cs  Cs1  1  0.25000000  0.40921145  0.08957263  1
  Cs  Cs2  1  0.75000000  0.90921145  0.41042737  1
  Cs  Cs3  1  0.75000000  0.59078855  0.91042737  1
  Cs  Cs4  1  0.25000000  0.74743951  0.25118872  1
  Cs  Cs5  1  0.25000000  0.75256049  0.75118872  1
  Cs  Cs6  1  0.75000000  0.25256049  0.74881128  1
  Cs  Cs7  1  0.75000000  0.24743951  0.24881128  1
  Cs  Cs8  1  0.25000000  0.07822242  0.91334254  1
  Cs  Cs9  1  0.25000000  0.42177758  0.41334254  1
  Cs  Cs10  1  0.75000000  0.92177758  0.08665746  1
  Cs  Cs11  1  0.75000000  0.57822242  0.58665746  1
  Bi  Bi12  1  0.25000000  0.73903048  0.50133154  1
  Bi  Bi13  1  0.25000000  0.76096952  0.00133154  1
  Bi  Bi14  1  0.75000000  0.26096952  0.49866846  1
  Bi  Bi15  1  0.75000000  0.23903048  0.99866846  1
  Bi  Bi16  1  0.25000000  0.42120711  0.81798530  1
  Bi  Bi17  1  0.25000000  0.07879289  0.31798530  1
  Bi  Bi18  1  0.75000000  0.57879289  0.18201470  1
  Bi  Bi19  1  0.75000000  0.92120711  0.68201470  1
  Cl  Cl20  1  0.25000000  0.91090287  0.41136119  1
  Cl  Cl21  1  0.25000000  0.58909713  0.91136119  1
  Cl  Cl22  1  0.75000000  0.08909713  0.58863881  1
  Cl  Cl23  1  0.75000000  0.41090287  0.08863881  1
  Cl  Cl24  1  0.25000000  0.26031689  0.74233634  1
  Cl  Cl25  1  0.25000000  0.23968311  0.24233634  1
  Cl  Cl26  1  0.75000000  0.73968311  0.25766366  1
  Cl  Cl27  1  0.75000000  0.76031689  0.75766366  1
  Cl  Cl28  1  0.25000000  0.91605836  0.08056951  1
  Cl  Cl29  1  0.25000000  0.58394164  0.58056951  1
  Cl  Cl30  1  0.75000000  0.08394164  0.91943049  1
  Cl  Cl31  1  0.75000000  0.41605836  0.41943049  1
  Cl  Cl32  1  0.99085407  0.33549620  0.57649197  1
  Cl  Cl33  1  0.50914593  0.16450380  0.07649197  1
  Cl  Cl34  1  0.49085407  0.66450380  0.42350803  1
  Cl  Cl35  1  0.00914593  0.83549620  0.92350803  1
  Cl  Cl36  1  0.00914593  0.66450380  0.42350803  1
  Cl  Cl37  1  0.49085407  0.83549620  0.92350803  1
  Cl  Cl38  1  0.50914593  0.33549620  0.57649197  1
  Cl  Cl39  1  0.99085407  0.16450380  0.07649197  1
  Cl  Cl40  1  0.99614469  0.50827478  0.75220735  1
  Cl  Cl41  1  0.50385531  0.99172522  0.25220735  1
  Cl  Cl42  1  0.49614469  0.49172522  0.24779265  1
  Cl  Cl43  1  0.00385531  0.00827478  0.74779265  1
  Cl  Cl44  1  0.00385531  0.49172522  0.24779265  1
  Cl  Cl45  1  0.49614469  0.00827478  0.74779265  1
  Cl  Cl46  1  0.50385531  0.50827478  0.75220735  1
  Cl  Cl47  1  0.99614469  0.99172522  0.25220735  1
  Cl  Cl48  1  0.00350772  0.33251416  0.91044486  1
  Cl  Cl49  1  0.49649228  0.16748584  0.41044486  1
  Cl  Cl50  1  0.50350772  0.66748584  0.08955514  1
  Cl  Cl51  1  0.99649228  0.83251416  0.58955514  1
  Cl  Cl52  1  0.99649228  0.66748584  0.08955514  1
  Cl  Cl53  1  0.50350772  0.83251416  0.58955514  1
  Cl  Cl54  1  0.49649228  0.33251416  0.91044486  1
  Cl  Cl55  1  0.00350772  0.16748584  0.41044486  1
