# generated using pymatgen
data_Cs3SbH2S4O
_symmetry_space_group_name_H-M   'P 1'
_cell_length_a   10.02653486
_cell_length_b   10.20640720
_cell_length_c   13.17478765
_cell_angle_alpha   90.00000000
_cell_angle_beta   91.63456578
_cell_angle_gamma   90.00000000
_symmetry_Int_Tables_number   1
_chemical_formula_structural   Cs3SbH2S4O
_chemical_formula_sum   'Cs12 Sb4 H8 S16 O4'
_cell_volume   1347.69192988
_cell_formula_units_Z   4
loop_
 _symmetry_equiv_pos_site_id
 _symmetry_equiv_pos_as_xyz
  1  'x, y, z'
loop_
 _atom_site_type_symbol
 _atom_site_label
 _atom_site_symmetry_multiplicity
 _atom_site_fract_x
 _atom_site_fract_y
 _atom_site_fract_z
 _atom_site_occupancy
  Cs  Cs0  1  0.60214237  0.86891332  0.70348706  1
  Cs  Cs1  1  0.89785763  0.36891332  0.79651294  1
  Cs  Cs2  1  0.39785763  0.13108668  0.29651294  1
  Cs  Cs3  1  0.10214237  0.63108668  0.20348706  1
  Cs  Cs4  1  0.26282266  0.57835355  0.54680397  1
  Cs  Cs5  1  0.23717734  0.07835355  0.95319603  1
  Cs  Cs6  1  0.73717734  0.42164645  0.45319603  1
  Cs  Cs7  1  0.76282266  0.92164645  0.04680397  1
  Cs  Cs8  1  0.34404082  0.58355722  0.92054609  1
  Cs  Cs9  1  0.15595918  0.08355722  0.57945391  1
  Cs  Cs10  1  0.65595918  0.41644278  0.07945391  1
  Cs  Cs11  1  0.84404082  0.91644278  0.42054609  1
  Sb  Sb12  1  0.02229109  0.79194835  0.77450468  1
  Sb  Sb13  1  0.47770891  0.29194835  0.72549532  1
  Sb  Sb14  1  0.97770891  0.20805165  0.22549532  1
  Sb  Sb15  1  0.52229109  0.70805165  0.27450468  1
  H  H16  1  0.77736596  0.65570802  0.90662704  1
  H  H17  1  0.72263404  0.15570802  0.59337296  1
  H  H18  1  0.22263404  0.34429198  0.09337296  1
  H  H19  1  0.27736596  0.84429198  0.40662704  1
  H  H20  1  0.65627628  0.59755357  0.84182488  1
  H  H21  1  0.84372372  0.09755357  0.65817512  1
  H  H22  1  0.34372372  0.40244643  0.15817512  1
  H  H23  1  0.15627628  0.90244643  0.34182488  1
  S  S24  1  0.50267976  0.16946266  0.57418895  1
  S  S25  1  0.99732024  0.66946266  0.92581105  1
  S  S26  1  0.49732024  0.83053734  0.42581105  1
  S  S27  1  0.00267976  0.33053734  0.07418895  1
  S  S28  1  0.57980502  0.49836528  0.69975781  1
  S  S29  1  0.92019498  0.99836528  0.80024219  1
  S  S30  1  0.42019498  0.50163472  0.30024219  1
  S  S31  1  0.07980502  0.00163472  0.19975781  1
  S  S32  1  0.25211453  0.82685639  0.74840991  1
  S  S33  1  0.24788547  0.32685639  0.75159009  1
  S  S34  1  0.74788547  0.17314361  0.25159009  1
  S  S35  1  0.75211453  0.67314361  0.24840991  1
  S  S36  1  0.91973672  0.68312306  0.63586288  1
  S  S37  1  0.58026328  0.18312306  0.86413712  1
  S  S38  1  0.08026328  0.31687694  0.36413712  1
  S  S39  1  0.41973672  0.81687694  0.13586288  1
  O  O40  1  0.67793832  0.64904549  0.90408954  1
  O  O41  1  0.82206168  0.14904549  0.59591046  1
  O  O42  1  0.32206168  0.35095451  0.09591046  1
  O  O43  1  0.17793832  0.85095451  0.40408954  1
