# generated using pymatgen
data_UH18N5F7
_symmetry_space_group_name_H-M   'P 1'
_cell_length_a   6.78352571
_cell_length_b   12.42522183
_cell_length_c   13.45751706
_cell_angle_alpha   90.00000000
_cell_angle_beta   94.84353860
_cell_angle_gamma   90.00000000
_symmetry_Int_Tables_number   1
_chemical_formula_structural   UH18N5F7
_chemical_formula_sum   'U4 H72 N20 F28'
_cell_volume   1130.24063708
_cell_formula_units_Z   4
loop_
 _symmetry_equiv_pos_site_id
 _symmetry_equiv_pos_as_xyz
  1  'x, y, z'
loop_
 _atom_site_type_symbol
 _atom_site_label
 _atom_site_symmetry_multiplicity
 _atom_site_fract_x
 _atom_site_fract_y
 _atom_site_fract_z
 _atom_site_occupancy
  U  U0  1  0.29888325  0.26037012  0.40317762  1
  U  U1  1  0.79888325  0.23962988  0.90317762  1
  U  U2  1  0.70111675  0.73962988  0.59682238  1
  U  U3  1  0.20111675  0.76037012  0.09682238  1
  H  H4  1  0.73505207  0.30604691  0.34340850  1
  H  H5  1  0.23505207  0.19395309  0.84340850  1
  H  H6  1  0.26494793  0.69395309  0.65659150  1
  H  H7  1  0.76494793  0.80604691  0.15659150  1
  H  H8  1  0.63245842  0.24120286  0.24616080  1
  H  H9  1  0.13245842  0.25879714  0.74616080  1
  H  H10  1  0.36754158  0.75879714  0.75383920  1
  H  H11  1  0.86754158  0.74120286  0.25383920  1
  H  H12  1  0.72683916  0.17551651  0.34558941  1
  H  H13  1  0.22683916  0.32448349  0.84558941  1
  H  H14  1  0.27316084  0.82448349  0.65441059  1
  H  H15  1  0.77316084  0.67551651  0.15441059  1
  H  H16  1  0.46802627  0.58267152  0.28342122  1
  H  H17  1  0.96802627  0.91732848  0.78342122  1
  H  H18  1  0.53197373  0.41732848  0.71657878  1
  H  H19  1  0.03197373  0.08267152  0.21657878  1
  H  H20  1  0.66212367  0.61351578  0.36615689  1
  H  H21  1  0.16212367  0.88648422  0.86615689  1
  H  H22  1  0.33787633  0.38648422  0.63384311  1
  H  H23  1  0.83787633  0.11351578  0.13384311  1
  H  H24  1  0.54829697  0.49245229  0.37208195  1
  H  H25  1  0.04829697  0.00754771  0.87208195  1
  H  H26  1  0.45170303  0.50754771  0.62791805  1
  H  H27  1  0.95170303  0.99245229  0.12791805  1
  H  H28  1  0.68868276  0.51699022  0.27372685  1
  H  H29  1  0.18868276  0.98300978  0.77372685  1
  H  H30  1  0.31131724  0.48300978  0.72627315  1
  H  H31  1  0.81131724  0.01699022  0.22627315  1
  H  H32  1  0.40394317  0.01372936  0.09202158  1
  H  H33  1  0.90394317  0.48627064  0.59202158  1
  H  H34  1  0.59605683  0.98627064  0.90797842  1
  H  H35  1  0.09605683  0.51372936  0.40797842  1
  H  H36  1  0.48867322  0.14012781  0.06811566  1
  H  H37  1  0.98867322  0.35987219  0.56811566  1
  H  H38  1  0.51132678  0.85987219  0.93188434  1
  H  H39  1  0.01132678  0.64012781  0.43188434  1
  H  H40  1  0.32997928  0.12019787  0.15957017  1
  H  H41  1  0.82997928  0.37980213  0.65957017  1
  H  H42  1  0.67002072  0.87980213  0.84042983  1
  H  H43  1  0.17002072  0.62019787  0.34042983  1
  H  H44  1  0.24632402  0.10693663  0.03767943  1
  H  H45  1  0.74632402  0.39306337  0.53767943  1
  H  H46  1  0.75367598  0.89306337  0.96232057  1
  H  H47  1  0.25367598  0.60693663  0.46232057  1
  H  H48  1  0.31406724  0.91213291  0.45476583  1
  H  H49  1  0.81406724  0.58786709  0.95476583  1
  H  H50  1  0.68593276  0.08786709  0.54523417  1
  H  H51  1  0.18593276  0.41213291  0.04523417  1
  H  H52  1  0.16632240  0.89628900  0.34702764  1
  H  H53  1  0.66632240  0.60371100  0.84702764  1
  H  H54  1  0.83367760  0.10371100  0.65297236  1
  H  H55  1  0.33367760  0.39628900  0.15297236  1
  H  H56  1  0.92658288  0.11396143  0.53521343  1
  H  H57  1  0.42658288  0.38603857  0.03521343  1
  H  H58  1  0.07341712  0.88603857  0.46478657  1
  H  H59  1  0.57341712  0.61396143  0.96478657  1
  H  H60  1  0.13869427  0.00644906  0.42000986  1
  H  H61  1  0.63869427  0.49355094  0.92000986  1
  H  H62  1  0.86130573  0.99355094  0.57999014  1
  H  H63  1  0.36130573  0.50644906  0.07999014  1
  H  H64  1  0.68678294  0.89394085  0.34933987  1
  H  H65  1  0.18678294  0.60605915  0.84933987  1
  H  H66  1  0.31321706  0.10605915  0.65066013  1
  H  H67  1  0.81321706  0.39394085  0.15066013  1
  H  H68  1  0.57809457  0.01029073  0.35654224  1
  H  H69  1  0.07809457  0.48970927  0.85654224  1
  H  H70  1  0.42190543  0.98970927  0.64345776  1
  H  H71  1  0.92190543  0.51029073  0.14345776  1
  H  H72  1  0.52384759  0.93197506  0.25990672  1
  H  H73  1  0.02384759  0.56802494  0.75990672  1
  H  H74  1  0.47615241  0.06802494  0.74009328  1
  H  H75  1  0.97615241  0.43197506  0.24009328  1
  N  N76  1  0.64646312  0.24184198  0.32248641  1
  N  N77  1  0.14646312  0.25815802  0.82248641  1
  N  N78  1  0.35353688  0.75815802  0.67751359  1
  N  N79  1  0.85353688  0.74184198  0.17751359  1
  N  N80  1  0.36825115  0.09584416  0.08902026  1
  N  N81  1  0.86825115  0.40415584  0.58902026  1
  N  N82  1  0.63174885  0.90415584  0.91097974  1
  N  N83  1  0.13174885  0.59584416  0.41097974  1
  N  N84  1  0.17177125  0.92448961  0.42089344  1
  N  N85  1  0.67177125  0.57551039  0.92089344  1
  N  N86  1  0.82822875  0.07551039  0.57910656  1
  N  N87  1  0.32822875  0.42448961  0.07910656  1
  N  N88  1  0.63901380  0.95938656  0.30761885  1
  N  N89  1  0.13901380  0.54061344  0.80761885  1
  N  N90  1  0.36098620  0.04061344  0.69238115  1
  N  N91  1  0.86098620  0.45938656  0.19238115  1
  N  N92  1  0.59227508  0.55116926  0.32399880  1
  N  N93  1  0.09227508  0.94883074  0.82399880  1
  N  N94  1  0.40772492  0.44883074  0.67600120  1
  N  N95  1  0.90772492  0.05116926  0.17600120  1
  F  F96  1  0.04740013  0.13943873  0.42910217  1
  F  F97  1  0.54740013  0.36056127  0.92910217  1
  F  F98  1  0.95259987  0.86056127  0.57089783  1
  F  F99  1  0.45259987  0.63943873  0.07089783  1
  F  F100  1  0.04043691  0.38046732  0.39945541  1
  F  F101  1  0.54043691  0.11953268  0.89945541  1
  F  F102  1  0.95956309  0.61953268  0.60054459  1
  F  F103  1  0.45956309  0.88046732  0.10054459  1
  F  F104  1  0.21554106  0.28561656  0.57129060  1
  F  F105  1  0.71554106  0.21438344  0.07129060  1
  F  F106  1  0.78445894  0.71438344  0.42870940  1
  F  F107  1  0.28445894  0.78561656  0.92870940  1
  F  F108  1  0.31418042  0.37251028  0.27072285  1
  F  F109  1  0.81418042  0.12748972  0.77072285  1
  F  F110  1  0.68581958  0.62748972  0.72927715  1
  F  F111  1  0.18581958  0.87251028  0.22927715  1
  F  F112  1  0.51540612  0.38492693  0.46754704  1
  F  F113  1  0.01540612  0.11507307  0.96754704  1
  F  F114  1  0.48459388  0.61507307  0.53245296  1
  F  F115  1  0.98459388  0.88492693  0.03245296  1
  F  F116  1  0.47390083  0.12734488  0.47730200  1
  F  F117  1  0.97390083  0.37265512  0.97730200  1
  F  F118  1  0.52609917  0.87265512  0.52269800  1
  F  F119  1  0.02609917  0.62734488  0.02269800  1
  F  F120  1  0.24717668  0.14718769  0.26782379  1
  F  F121  1  0.74717668  0.35281231  0.76782379  1
  F  F122  1  0.75282332  0.85281231  0.73217621  1
  F  F123  1  0.25282332  0.64718769  0.23217621  1
