# generated using pymatgen
data_Mn5As4(HO2)10
_symmetry_space_group_name_H-M   'P 1'
_cell_length_a   9.44849940
_cell_length_b   9.95338822
_cell_length_c   10.35930234
_cell_angle_alpha   95.51629477
_cell_angle_beta   117.13182902
_cell_angle_gamma   90.00000000
_symmetry_Int_Tables_number   1
_chemical_formula_structural   Mn5As4(HO2)10
_chemical_formula_sum   'Mn10 As8 H20 O40'
_cell_volume   861.95816544
_cell_formula_units_Z   2
loop_
 _symmetry_equiv_pos_site_id
 _symmetry_equiv_pos_as_xyz
  1  'x, y, z'
loop_
 _atom_site_type_symbol
 _atom_site_label
 _atom_site_symmetry_multiplicity
 _atom_site_fract_x
 _atom_site_fract_y
 _atom_site_fract_z
 _atom_site_occupancy
  Mn  Mn0  1  0.10469171  0.25000000  -0.00000000  1
  Mn  Mn1  1  0.89530829  0.75000000  -0.00000000  1
  Mn  Mn2  1  0.22625335  0.68587058  0.62725638  1
  Mn  Mn3  1  0.59899696  0.81412942  0.37274362  1
  Mn  Mn4  1  0.77374665  0.31412942  0.37274362  1
  Mn  Mn5  1  0.40100304  0.18587058  0.62725638  1
  Mn  Mn6  1  0.85422808  0.63713108  0.65144444  1
  Mn  Mn7  1  0.20278363  0.86286892  0.34855556  1
  Mn  Mn8  1  0.14577192  0.36286892  0.34855556  1
  Mn  Mn9  1  0.79721637  0.13713108  0.65144444  1
  As  As10  1  0.09660870  0.91204456  0.83032204  1
  As  As11  1  0.26628666  0.58795544  0.16967796  1
  As  As12  1  0.90339130  0.08795544  0.16967796  1
  As  As13  1  0.73371334  0.41204456  0.83032204  1
  As  As14  1  0.42131111  0.12546859  0.31905602  1
  As  As15  1  0.10225510  0.37453141  0.68094398  1
  As  As16  1  0.57868889  0.87453141  0.68094398  1
  As  As17  1  0.89774490  0.62546859  0.31905602  1
  H  H18  1  0.30945238  0.01423668  0.03848668  1
  H  H19  1  0.27096570  0.48576332  0.96151332  1
  H  H20  1  0.69054762  0.98576332  0.96151332  1
  H  H21  1  0.72903430  0.51423668  0.03848668  1
  H  H22  1  0.83307686  0.02516342  0.41389235  1
  H  H23  1  0.41918451  0.47483658  0.58610765  1
  H  H24  1  0.16692314  0.97483658  0.58610765  1
  H  H25  1  0.58081549  0.52516342  0.41389235  1
  H  H26  1  0.91148063  0.91551143  0.52858603  1
  H  H27  1  0.38289460  0.58448857  0.47141397  1
  H  H28  1  0.08851937  0.08448857  0.47141397  1
  H  H29  1  0.61710540  0.41551143  0.52858603  1
  H  H30  1  0.48426300  0.27606860  0.13949875  1
  H  H31  1  0.34476425  0.22393140  0.86050125  1
  H  H32  1  0.51573700  0.72393140  0.86050125  1
  H  H33  1  0.65523575  0.77606860  0.13949875  1
  H  H34  1  0.59994193  0.34700004  0.08381778  1
  H  H35  1  0.51612415  0.15299996  0.91618222  1
  H  H36  1  0.40005807  0.65299996  0.91618222  1
  H  H37  1  0.48387585  0.84700004  0.08381778  1
  O  O38  1  0.98452357  0.78649847  0.84603639  1
  O  O39  1  0.13848718  0.71350153  0.15396361  1
  O  O40  1  0.01547643  0.21350153  0.15396361  1
  O  O41  1  0.86151282  0.28649847  0.84603639  1
  O  O42  1  0.10928917  0.86568479  0.67187037  1
  O  O43  1  0.43741880  0.63431521  0.32812963  1
  O  O44  1  0.89071083  0.13431521  0.32812963  1
  O  O45  1  0.56258120  0.36568479  0.67187037  1
  O  O46  1  0.01910863  0.06783505  0.83037271  1
  O  O47  1  0.18873593  0.43216495  0.16962729  1
  O  O48  1  0.98089137  0.93216495  0.16962729  1
  O  O49  1  0.81126407  0.56783505  0.83037271  1
  O  O50  1  0.40137513  0.95374693  0.32890691  1
  O  O51  1  0.07246822  0.54625307  0.67109309  1
  O  O52  1  0.59862487  0.04625307  0.67109309  1
  O  O53  1  0.92753178  0.45374693  0.32890691  1
  O  O54  1  0.61843287  0.17800233  0.41405347  1
  O  O55  1  0.20437940  0.32199767  0.58594653  1
  O  O56  1  0.38156713  0.82199767  0.58594653  1
  O  O57  1  0.79562060  0.67800233  0.41405347  1
  O  O58  1  0.32277100  0.21136374  0.40338311  1
  O  O59  1  0.91938790  0.28863626  0.59661689  1
  O  O60  1  0.67722900  0.78863626  0.59661689  1
  O  O61  1  0.08061210  0.71136374  0.40338311  1
  O  O62  1  0.34199948  0.15787691  0.13745730  1
  O  O63  1  0.20454218  0.34212309  0.86254270  1
  O  O64  1  0.65800052  0.84212309  0.86254270  1
  O  O65  1  0.79545782  0.65787691  0.13745730  1
  O  O66  1  0.28947752  0.92190516  0.97856791  1
  O  O67  1  0.31090962  0.57809484  0.02143209  1
  O  O68  1  0.71052248  0.07809484  0.02143209  1
  O  O69  1  0.68909038  0.42190516  0.97856791  1
  O  O70  1  0.81798260  0.97216070  0.48509721  1
  O  O71  1  0.33288539  0.52783930  0.51490279  1
  O  O72  1  0.18201740  0.02783930  0.51490279  1
  O  O73  1  0.66711461  0.47216070  0.48509721  1
  O  O74  1  0.57655352  0.34095697  0.16624693  1
  O  O75  1  0.41030659  0.15904303  0.83375307  1
  O  O76  1  0.42344648  0.65904303  0.83375307  1
  O  O77  1  0.58969341  0.84095697  0.16624693  1
