# generated using pymatgen
data_FeH24C6(IO3)2
_symmetry_space_group_name_H-M   'P 1'
_cell_length_a   8.43544103
_cell_length_b   8.44474243
_cell_length_c   7.37592937
_cell_angle_alpha   90.37627542
_cell_angle_beta   89.98690145
_cell_angle_gamma   119.85499566
_symmetry_Int_Tables_number   1
_chemical_formula_structural   FeH24C6(IO3)2
_chemical_formula_sum   'Fe1 H24 C6 I2 O6'
_cell_volume   455.68241490
_cell_formula_units_Z   1
loop_
 _symmetry_equiv_pos_site_id
 _symmetry_equiv_pos_as_xyz
  1  'x, y, z'
loop_
 _atom_site_type_symbol
 _atom_site_label
 _atom_site_symmetry_multiplicity
 _atom_site_fract_x
 _atom_site_fract_y
 _atom_site_fract_z
 _atom_site_occupancy
  Fe  Fe0  1  0.00000000  -0.00000000  -0.00000000  1
  H  H1  1  0.88701908  0.22472681  0.82317399  1
  H  H2  1  0.33849501  0.11419655  0.82385531  1
  H  H3  1  0.77594734  0.66202236  0.82246438  1
  H  H4  1  0.11298092  0.77527319  0.17682601  1
  H  H5  1  0.66150499  0.88580345  0.17614469  1
  H  H6  1  0.22405266  0.33797764  0.17753562  1
  H  H7  1  0.10329365  0.43623697  0.66700513  1
  H  H8  1  0.33308563  0.89655493  0.66794829  1
  H  H9  1  0.56310458  0.66670709  0.66670561  1
  H  H10  1  0.89670635  0.56376303  0.33299487  1
  H  H11  1  0.66691437  0.10344507  0.33205171  1
  H  H12  1  0.43689542  0.33329291  0.33329439  1
  H  H13  1  0.25916342  0.42573236  0.82630793  1
  H  H14  1  0.16681024  0.74223872  0.82653125  1
  H  H15  1  0.57492071  0.83336527  0.82713710  1
  H  H16  1  0.74083658  0.57426764  0.17369207  1
  H  H17  1  0.83318976  0.25776128  0.17346875  1
  H  H18  1  0.42507929  0.16663473  0.17286290  1
  H  H19  1  0.18956809  0.28311538  0.62757942  1
  H  H20  1  0.09388273  0.81110807  0.62887981  1
  H  H21  1  0.71629574  0.90504302  0.62937732  1
  H  H22  1  0.81043191  0.71688462  0.37242058  1
  H  H23  1  0.90611727  0.18889193  0.37112019  1
  H  H24  1  0.28370426  0.09495698  0.37062268  1
  C  C25  1  0.14545993  0.34631920  0.73221912  1
  C  C26  1  0.20106554  0.85520370  0.73298238  1
  C  C27  1  0.65351710  0.79840228  0.73295217  1
  C  C28  1  0.85454007  0.65368080  0.26778088  1
  C  C29  1  0.79893446  0.14479630  0.26701762  1
  C  C30  1  0.34648290  0.20159772  0.26704783  1
  I  I31  1  0.66645744  0.33285864  0.76155921  1
  I  I32  1  0.33354256  0.66714136  0.23844079  1
  O  O33  1  0.99328850  0.20455567  0.83005433  1
  O  O34  1  0.21239792  0.00840807  0.83295718  1
  O  O35  1  0.79542464  0.78777187  0.83210149  1
  O  O36  1  0.00671150  0.79544433  0.16994567  1
  O  O37  1  0.78760208  0.99159193  0.16704282  1
  O  O38  1  0.20457536  0.21222813  0.16789851  1
