# generated using pymatgen
data_Na7Fe3(P2O7)4
_symmetry_space_group_name_H-M   'P 1'
_cell_length_a   8.46412304
_cell_length_b   15.06403435
_cell_length_c   28.58986908
_cell_angle_alpha   81.50176638
_cell_angle_beta   81.48755774
_cell_angle_gamma   73.68423799
_symmetry_Int_Tables_number   1
_chemical_formula_structural   Na7Fe3(P2O7)4
_chemical_formula_sum   'Na42 Fe18 P48 O168'
_cell_volume   3438.24963506
_cell_formula_units_Z   6
loop_
 _symmetry_equiv_pos_site_id
 _symmetry_equiv_pos_as_xyz
  1  'x, y, z'
loop_
 _atom_site_type_symbol
 _atom_site_label
 _atom_site_symmetry_multiplicity
 _atom_site_fract_x
 _atom_site_fract_y
 _atom_site_fract_z
 _atom_site_occupancy
  Na  Na0  1  0.47385725  0.36668079  0.94483372  1
  Na  Na1  1  0.78536622  0.13332870  0.55516836  1
  Na  Na2  1  0.52614275  0.63331921  0.05516628  1
  Na  Na3  1  0.21463378  0.86667130  0.44483164  1
  Na  Na4  1  0.14631640  0.03018505  0.94302736  1
  Na  Na5  1  0.11952368  0.46981591  0.55697391  1
  Na  Na6  1  0.85368360  0.96981495  0.05697264  1
  Na  Na7  1  0.88047632  0.53018409  0.44302609  1
  Na  Na8  1  0.82307843  0.69310954  0.93941655  1
  Na  Na9  1  0.45562076  0.80688102  0.56057981  1
  Na  Na10  1  0.17692157  0.30689046  0.06058345  1
  Na  Na11  1  0.54437924  0.19311898  0.43942019  1
  Na  Na12  1  0.37360557  0.57179462  0.85972433  1
  Na  Na13  1  0.80512612  0.92820966  0.64027197  1
  Na  Na14  1  0.62639443  0.42820538  0.14027567  1
  Na  Na15  1  0.19487388  0.07179034  0.35972803  1
  Na  Na16  1  0.07144423  0.21761797  0.85489704  1
  Na  Na17  1  0.14397639  0.28237379  0.64510126  1
  Na  Na18  1  0.92855577  0.78238203  0.14510296  1
  Na  Na19  1  0.85602361  0.71762621  0.35489874  1
  Na  Na20  1  0.76355698  0.86957311  0.85215918  1
  Na  Na21  1  0.48529575  0.63043338  0.64783699  1
  Na  Na22  1  0.23644302  0.13042689  0.14784082  1
  Na  Na23  1  0.51470425  0.36956662  0.35216301  1
  Na  Na24  1  0.00244116  0.58605034  0.80855664  1
  Na  Na25  1  0.39704586  0.91394225  0.69144251  1
  Na  Na26  1  0.99755884  0.41394966  0.19144336  1
  Na  Na27  1  0.60295414  0.08605775  0.30855749  1
  Na  Na28  1  0.75170652  0.25000075  0.75000396  1
  Na  Na29  1  0.24829348  0.74999925  0.24999604  1
  Na  Na30  1  0.30518994  0.89038556  0.82747704  1
  Na  Na31  1  0.02303081  0.60961247  0.67252355  1
  Na  Na32  1  0.69481006  0.10961444  0.17252296  1
  Na  Na33  1  0.97696919  0.39038753  0.32747645  1
  Na  Na34  1  0.70442364  0.41772680  0.84352763  1
  Na  Na35  1  0.96567157  0.08226739  0.65647118  1
  Na  Na36  1  0.29557636  0.58227320  0.15647237  1
  Na  Na37  1  0.03432843  0.91773261  0.34352882  1
  Na  Na38  1  0.49083099  0.10906872  0.85200584  1
  Na  Na39  1  0.45189755  0.39093463  0.64799118  1
  Na  Na40  1  0.50916901  0.89093128  0.14799416  1
  Na  Na41  1  0.54810245  0.60906537  0.35200882  1
  Fe  Fe42  1  0.35085638  0.25000277  0.74999820  1
  Fe  Fe43  1  0.64914362  0.74999723  0.25000180  1
  Fe  Fe44  1  0.01002034  0.91376567  0.75166221  1
  Fe  Fe45  1  0.67543803  0.58623948  0.74833758  1
  Fe  Fe46  1  0.98997966  0.08623433  0.24833779  1
  Fe  Fe47  1  0.32456197  0.41376052  0.25166242  1
  Fe  Fe48  1  0.05759182  0.39952153  0.93593079  1
  Fe  Fe49  1  0.39304777  0.10047848  0.56406870  1
  Fe  Fe50  1  0.94240818  0.60047847  0.06406921  1
  Fe  Fe51  1  0.60695223  0.89952152  0.43593130  1
  Fe  Fe52  1  0.72727974  0.06417273  0.93856602  1
  Fe  Fe53  1  0.73002096  0.43582791  0.56143344  1
  Fe  Fe54  1  0.27272026  0.93582727  0.06143398  1
  Fe  Fe55  1  0.26997904  0.56417209  0.43856656  1
  Fe  Fe56  1  0.38943162  0.73254472  0.93818551  1
  Fe  Fe57  1  0.06015578  0.76745994  0.56181463  1
  Fe  Fe58  1  0.61056838  0.26745528  0.06181449  1
  Fe  Fe59  1  0.93984422  0.23254006  0.43818537  1
  P  P60  1  0.42547626  0.45236196  0.74511560  1
  P  P61  1  0.62296189  0.04763599  0.75488434  1
  P  P62  1  0.57452374  0.54763804  0.25488440  1
  P  P63  1  0.37703811  0.95236401  0.24511566  1
  P  P64  1  0.09989426  0.11494790  0.74734085  1
  P  P65  1  0.96218246  0.38505241  0.75265916  1
  P  P66  1  0.90010574  0.88505210  0.25265915  1
  P  P67  1  0.03781754  0.61494759  0.24734084  1
  P  P68  1  0.75162182  0.78503041  0.74659686  1
  P  P69  1  0.28323168  0.71496538  0.75340655  1
  P  P70  1  0.24837818  0.21496959  0.25340314  1
  P  P71  1  0.71676832  0.28503462  0.24659345  1
  P  P72  1  0.29931393  0.37340958  0.83641598  1
  P  P73  1  0.50914448  0.12658867  0.66358269  1
  P  P74  1  0.70068607  0.62659042  0.16358402  1
  P  P75  1  0.49085552  0.87341133  0.33641731  1
  P  P76  1  0.96183384  0.03700715  0.83768287  1
  P  P77  1  0.83652993  0.46299196  0.66231823  1
  P  P78  1  0.03816616  0.96299285  0.16231713  1
  P  P79  1  0.16347007  0.53700804  0.33768177  1
  P  P80  1  0.62562879  0.70092747  0.83641062  1
  P  P81  1  0.16297305  0.79907280  0.66359105  1
  P  P82  1  0.37437121  0.29907253  0.16358938  1
  P  P83  1  0.83702695  0.20092720  0.33640895  1
  P  P84  1  0.01170367  0.85710764  0.94427054  1
  P  P85  1  0.81309054  0.64289049  0.55572693  1
  P  P86  1  0.98829633  0.14289236  0.05572946  1
  P  P87  1  0.18690946  0.35710951  0.44427307  1
  P  P88  1  0.67953172  0.52571975  0.94274953  1
  P  P89  1  0.14800036  0.97428046  0.55724833  1
  P  P90  1  0.32046828  0.47428025  0.05725047  1
  P  P91  1  0.85199964  0.02571954  0.44275167  1
  P  P92  1  0.34609372  0.19121344  0.94405505  1
  P  P93  1  0.48135185  0.30878695  0.55594502  1
  P  P94  1  0.65390628  0.80878656  0.05594495  1
  P  P95  1  0.51864815  0.69121305  0.44405498  1
  P  P96  1  0.80754027  0.43193903  0.03323566  1
  P  P97  1  0.27271163  0.06806494  0.46676424  1
  P  P98  1  0.19245973  0.56806097  0.96676434  1
  P  P99  1  0.72728837  0.93193506  0.53323576  1
  P  P100  1  0.47179868  0.09886637  0.03540053  1
  P  P101  1  0.60606270  0.40113101  0.46459862  1
  P  P102  1  0.52820132  0.90113363  0.96459947  1
  P  P103  1  0.39393730  0.59886899  0.53540138  1
  P  P104  1  0.14071251  0.76494774  0.03546566  1
  P  P105  1  0.94113066  0.73504765  0.46453408  1
  P  P106  1  0.85928749  0.23505226  0.96453434  1
  P  P107  1  0.05886934  0.26495235  0.53546592  1
  O  O108  1  0.35318295  0.51367280  0.70255711  1
  O  O109  1  0.56941007  0.98632665  0.79744252  1
  O  O110  1  0.64681705  0.48632720  0.29744289  1
  O  O111  1  0.43058993  0.01367335  0.20255748  1
  O  O112  1  0.01779207  0.17851052  0.70639977  1
  O  O113  1  0.90268717  0.32148979  0.79359956  1
  O  O114  1  0.98220793  0.82148948  0.29360023  1
  O  O115  1  0.09731283  0.67851021  0.20640044  1
  O  O116  1  0.67355017  0.84793458  0.70566247  1
  O  O117  1  0.22713252  0.65206182  0.79434203  1
  O  O118  1  0.32644983  0.15206542  0.29433753  1
  O  O119  1  0.77286748  0.34793818  0.20565797  1
  O  O120  1  0.55941595  0.48282031  0.76529758  1
  O  O121  1  0.80753678  0.01718086  0.73470234  1
  O  O122  1  0.44058405  0.51717969  0.23470242  1
  O  O123  1  0.19246322  0.98281914  0.26529766  1
  O  O124  1  0.22818158  0.15023826  0.76695182  1
  O  O125  1  0.14537632  0.34976263  0.73304945  1
  O  O126  1  0.77181842  0.84976174  0.23304818  1
  O  O127  1  0.85462368  0.65023737  0.26695055  1
  O  O128  1  0.88109285  0.81847227  0.76726133  1
  O  O129  1  0.46680621  0.68152909  0.73274053  1
  O  O130  1  0.11890715  0.18152773  0.23273867  1
  O  O131  1  0.53319379  0.31847091  0.26725947  1
  O  O132  1  0.48890308  0.34806098  0.73543739  1
  O  O133  1  0.57238549  0.15193819  0.76456300  1
  O  O134  1  0.51109692  0.65193902  0.26456261  1
  O  O135  1  0.42761451  0.84806181  0.23543700  1
  O  O136  1  0.15992678  0.01167905  0.73759363  1
  O  O137  1  0.90919574  0.48832078  0.76240619  1
  O  O138  1  0.84007322  0.98832095  0.26240637  1
  O  O139  1  0.09080426  0.51167922  0.23759381  1
  O  O140  1  0.81981723  0.68045726  0.73831789  1
  O  O141  1  0.23859486  0.81953924  0.76168306  1
  O  O142  1  0.18018277  0.31954274  0.26168211  1
  O  O143  1  0.76140514  0.18046076  0.23831694  1
  O  O144  1  0.27851336  0.45194256  0.78961625  1
  O  O145  1  0.52007865  0.04805426  0.71038199  1
  O  O146  1  0.72148664  0.54805744  0.21038375  1
  O  O147  1  0.47992135  0.95194574  0.28961801  1
  O  O148  1  0.94933330  0.11708766  0.79176214  1
  O  O149  1  0.85819127  0.38291069  0.70823883  1
  O  O150  1  0.05066670  0.88291234  0.20823786  1
  O  O151  1  0.14180873  0.61708931  0.29176117  1
  O  O152  1  0.60409422  0.78308421  0.79151132  1
  O  O153  1  0.17869559  0.71691324  0.70848893  1
  O  O154  1  0.39590578  0.21691579  0.20848868  1
  O  O155  1  0.82130441  0.28308676  0.29151107  1
  O  O156  1  0.31651038  0.27803731  0.81844373  1
  O  O157  1  0.41299195  0.22196313  0.68155527  1
  O  O158  1  0.68348962  0.72196269  0.18155627  1
  O  O159  1  0.58700805  0.77803687  0.31844473  1
  O  O160  1  0.98045406  0.94310013  0.81832295  1
  O  O161  1  0.74187473  0.55689732  0.68167767  1
  O  O162  1  0.01954594  0.05689987  0.18167705  1
  O  O163  1  0.25812527  0.44310268  0.31832233  1
  O  O164  1  0.63497686  0.60797019  0.81715867  1
  O  O165  1  0.06011199  0.89202845  0.68284279  1
  O  O166  1  0.36502314  0.39202981  0.18284133  1
  O  O167  1  0.93988801  0.10797155  0.31715721  1
  O  O168  1  0.44498018  0.37904998  0.85924981  1
  O  O169  1  0.68328119  0.12095037  0.64075004  1
  O  O170  1  0.55501982  0.62095002  0.14075019  1
  O  O171  1  0.31671881  0.87904963  0.35924996  1
  O  O172  1  0.11172563  0.03630002  0.86058885  1
  O  O173  1  0.00861589  0.46370164  0.63941082  1
  O  O174  1  0.88827437  0.96369998  0.13941115  1
  O  O175  1  0.99138411  0.53629836  0.36058918  1
  O  O176  1  0.77955091  0.69838219  0.85760977  1
  O  O177  1  0.33554733  0.80162088  0.64239176  1
  O  O178  1  0.22044909  0.30161781  0.14239023  1
  O  O179  1  0.66445267  0.19837912  0.35760824  1
  O  O180  1  0.12797571  0.40413269  0.86543924  1
  O  O181  1  0.39754731  0.09586801  0.63455941  1
  O  O182  1  0.87202429  0.59586731  0.13456076  1
  O  O183  1  0.60245269  0.90413199  0.36544059  1
  O  O184  1  0.79141948  0.06646618  0.86688424  1
  O  O185  1  0.72477903  0.43353438  0.63311647  1
  O  O186  1  0.20858052  0.93353382  0.13311576  1
  O  O187  1  0.27522097  0.56646562  0.36688353  1
  O  O188  1  0.45769030  0.73257121  0.86693777  1
  O  O189  1  0.05718111  0.76743276  0.63306464  1
  O  O190  1  0.54230970  0.26742879  0.13306223  1
  O  O191  1  0.94281889  0.23256724  0.36693536  1
  O  O192  1  0.86476457  0.51260351  0.92488752  1
  O  O193  1  0.30225971  0.98738887  0.57511201  1
  O  O194  1  0.13523543  0.48739649  0.07511248  1
  O  O195  1  0.69774029  0.01261113  0.42488799  1
  O  O196  1  0.53181175  0.17691858  0.92581913  1
  O  O197  1  0.63454639  0.32307970  0.57418227  1
  O  O198  1  0.46818825  0.82308142  0.07418087  1
  O  O199  1  0.36545361  0.67692030  0.42581773  1
  O  O200  1  0.19757639  0.84532178  0.92613292  1
  O  O201  1  0.96903492  0.65467927  0.57386464  1
  O  O202  1  0.80242361  0.15467822  0.07386708  1
  O  O203  1  0.03096508  0.34532073  0.42613536  1
  O  O204  1  0.59618840  0.62704434  0.95307500  1
  O  O205  1  0.17631182  0.87295211  0.54692429  1
  O  O206  1  0.40381160  0.37295566  0.04692500  1
  O  O207  1  0.82368818  0.12704789  0.45307571  1
  O  O208  1  0.26207009  0.29335678  0.95230360  1
  O  O209  1  0.50774165  0.20664135  0.54769748  1
  O  O210  1  0.73792991  0.70664322  0.04769640  1
  O  O211  1  0.49225835  0.79335865  0.45230252  1
  O  O212  1  0.92967754  0.95903265  0.95478222  1
  O  O213  1  0.84350382  0.54096240  0.54521715  1
  O  O214  1  0.07032246  0.04096735  0.04521778  1
  O  O215  1  0.15649618  0.45903760  0.45478285  1
  O  O216  1  0.58716205  0.48750168  0.91276078  1
  O  O217  1  0.98742920  0.01250008  0.58723865  1
  O  O218  1  0.41283795  0.51249832  0.08723922  1
  O  O219  1  0.01257080  0.98749992  0.41276135  1
  O  O220  1  0.25870143  0.15109228  0.91341536  1
  O  O221  1  0.32319745  0.34891057  0.58658369  1
  O  O222  1  0.74129857  0.84890772  0.08658464  1
  O  O223  1  0.67680255  0.65108943  0.41341631  1
  O  O224  1  0.91805615  0.81930891  0.91535373  1
  O  O225  1  0.65272105  0.68068922  0.58464722  1
  O  O226  1  0.08194385  0.18069109  0.08464627  1
  O  O227  1  0.34727895  0.31931078  0.41535278  1
  O  O228  1  0.67450063  0.46600791  0.99521424  1
  O  O229  1  0.13571283  0.03399414  0.50478575  1
  O  O230  1  0.32549937  0.53399209  0.00478576  1
  O  O231  1  0.86428717  0.96600586  0.49521425  1
  O  O232  1  0.34005012  0.13348905  0.99691436  1
  O  O233  1  0.47045756  0.36651042  0.50308690  1
  O  O234  1  0.65994988  0.86651095  0.00308564  1
  O  O235  1  0.52954244  0.63348958  0.49691310  1
  O  O236  1  0.00990909  0.79730181  0.99705481  1
  O  O237  1  0.80427320  0.70269810  0.50294660  1
  O  O238  1  0.99009091  0.20269819  0.00294519  1
  O  O239  1  0.19572680  0.29730190  0.49705340  1
  O  O240  1  0.97947668  0.39524202  0.00660674  1
  O  O241  1  0.38133422  0.10475794  0.49339262  1
  O  O242  1  0.02052332  0.60475798  0.99339326  1
  O  O243  1  0.61866578  0.89524206  0.50660738  1
  O  O244  1  0.64408660  0.06183702  0.00864971  1
  O  O245  1  0.71455457  0.43816465  0.49135077  1
  O  O246  1  0.35591340  0.93816298  0.99135029  1
  O  O247  1  0.28544543  0.56183535  0.50864923  1
  O  O248  1  0.31386600  0.72801357  0.00919184  1
  O  O249  1  0.05107098  0.77198350  0.49080929  1
  O  O250  1  0.68613400  0.27198643  0.99080816  1
  O  O251  1  0.94892902  0.22801650  0.50919071  1
  O  O252  1  0.79709913  0.51472816  0.06008662  1
  O  O253  1  0.37190202  0.98527203  0.43991490  1
  O  O254  1  0.20290087  0.48527184  0.93991338  1
  O  O255  1  0.62809798  0.01472797  0.56008510  1
  O  O256  1  0.46255827  0.18203739  0.06176977  1
  O  O257  1  0.70636356  0.31795719  0.43823133  1
  O  O258  1  0.53744173  0.81796261  0.93823023  1
  O  O259  1  0.29363644  0.68204281  0.56176867  1
  O  O260  1  0.12849439  0.84979601  0.06094422  1
  O  O261  1  0.03922703  0.65019994  0.43905529  1
  O  O262  1  0.87150561  0.15020399  0.93905578  1
  O  O263  1  0.96077297  0.34980006  0.56094471  1
  O  O264  1  0.74733003  0.35704096  0.06771492  1
  O  O265  1  0.17209351  0.14296291  0.43228454  1
  O  O266  1  0.25266997  0.64295904  0.93228508  1
  O  O267  1  0.82790649  0.85703709  0.56771546  1
  O  O268  1  0.41286336  0.02329514  0.06983937  1
  O  O269  1  0.50600162  0.47670461  0.43015933  1
  O  O270  1  0.58713664  0.97670486  0.93016063  1
  O  O271  1  0.49399838  0.52329539  0.56984067  1
  O  O272  1  0.08163013  0.69056306  0.07104253  1
  O  O273  1  0.84323480  0.80943489  0.42895869  1
  O  O274  1  0.91836987  0.30943694  0.92895747  1
  O  O275  1  0.15676520  0.19056511  0.57104131  1
