# generated using pymatgen
data_LiYb8Ge13
_symmetry_space_group_name_H-M   'P 1'
_cell_length_a   11.07736812
_cell_length_b   11.56213635
_cell_length_c   15.88665343
_cell_angle_alpha   106.37849323
_cell_angle_beta   90.00000000
_cell_angle_gamma   90.00000000
_symmetry_Int_Tables_number   1
_chemical_formula_structural   LiYb8Ge13
_chemical_formula_sum   'Li4 Yb32 Ge52'
_cell_volume   1952.16181358
_cell_formula_units_Z   4
loop_
 _symmetry_equiv_pos_site_id
 _symmetry_equiv_pos_as_xyz
  1  'x, y, z'
loop_
 _atom_site_type_symbol
 _atom_site_label
 _atom_site_symmetry_multiplicity
 _atom_site_fract_x
 _atom_site_fract_y
 _atom_site_fract_z
 _atom_site_occupancy
  Li  Li0  1  0.08091445  0.11903108  0.62960387  1
  Li  Li1  1  0.58091445  0.88096892  0.87039613  1
  Li  Li2  1  0.91908555  0.88096892  0.37039613  1
  Li  Li3  1  0.41908555  0.11903108  0.12960387  1
  Yb  Yb4  1  0.85397918  0.38045182  0.19764475  1
  Yb  Yb5  1  0.35397918  0.61954818  0.30235525  1
  Yb  Yb6  1  0.14602082  0.61954818  0.80235525  1
  Yb  Yb7  1  0.64602082  0.38045182  0.69764475  1
  Yb  Yb8  1  0.98262029  0.37074282  0.56776532  1
  Yb  Yb9  1  0.48262029  0.62925718  0.93223468  1
  Yb  Yb10  1  0.01737971  0.62925718  0.43223468  1
  Yb  Yb11  1  0.51737971  0.37074282  0.06776532  1
  Yb  Yb12  1  0.81046654  0.11756282  0.31822247  1
  Yb  Yb13  1  0.31046654  0.88243718  0.18177753  1
  Yb  Yb14  1  0.18953346  0.88243718  0.68177753  1
  Yb  Yb15  1  0.68953346  0.11756282  0.81822247  1
  Yb  Yb16  1  0.22909758  0.40362833  0.92984763  1
  Yb  Yb17  1  0.72909758  0.59637167  0.57015237  1
  Yb  Yb18  1  0.77090242  0.59637167  0.07015237  1
  Yb  Yb19  1  0.27090242  0.40362833  0.42984763  1
  Yb  Yb20  1  0.93735846  0.35705823  0.82659770  1
  Yb  Yb21  1  0.43735846  0.64294177  0.67340230  1
  Yb  Yb22  1  0.06264154  0.64294177  0.17340230  1
  Yb  Yb23  1  0.56264154  0.35705823  0.32659770  1
  Yb  Yb24  1  0.01245425  0.14490683  0.95784398  1
  Yb  Yb25  1  0.51245425  0.85509317  0.54215602  1
  Yb  Yb26  1  0.98754575  0.85509317  0.04215602  1
  Yb  Yb27  1  0.48754575  0.14490683  0.45784398  1
  Yb  Yb28  1  0.10953207  0.16522686  0.19682652  1
  Yb  Yb29  1  0.60953207  0.83477314  0.30317348  1
  Yb  Yb30  1  0.89046793  0.83477314  0.80317348  1
  Yb  Yb31  1  0.39046793  0.16522686  0.69682652  1
  Yb  Yb32  1  0.14371222  0.09570276  0.40001075  1
  Yb  Yb33  1  0.64371222  0.90429724  0.09998925  1
  Yb  Yb34  1  0.85628778  0.90429724  0.59998925  1
  Yb  Yb35  1  0.35628778  0.09570276  0.90001075  1
  Ge  Ge36  1  0.81561642  0.42477061  0.39589433  1
  Ge  Ge37  1  0.31561642  0.57522939  0.10410567  1
  Ge  Ge38  1  0.18438358  0.57522939  0.60410567  1
  Ge  Ge39  1  0.68438358  0.42477061  0.89589433  1
  Ge  Ge40  1  0.15933523  0.16635744  0.79710220  1
  Ge  Ge41  1  0.65933523  0.83364256  0.70289780  1
  Ge  Ge42  1  0.84066477  0.83364256  0.20289780  1
  Ge  Ge43  1  0.34066477  0.16635744  0.29710220  1
  Ge  Ge44  1  0.95663927  0.06668900  0.76077889  1
  Ge  Ge45  1  0.45663927  0.93331100  0.73922111  1
  Ge  Ge46  1  0.04336073  0.93331100  0.23922111  1
  Ge  Ge47  1  0.54336073  0.06668900  0.26077889  1
  Ge  Ge48  1  0.25036089  0.25631627  0.06072194  1
  Ge  Ge49  1  0.75036089  0.74368373  0.43927806  1
  Ge  Ge50  1  0.74963911  0.74368373  0.93927806  1
  Ge  Ge51  1  0.24963911  0.25631627  0.56072194  1
  Ge  Ge52  1  0.91967304  0.09631832  0.49903050  1
  Ge  Ge53  1  0.41967304  0.90368168  0.00096950  1
  Ge  Ge54  1  0.08032696  0.90368168  0.50096950  1
  Ge  Ge55  1  0.58032696  0.09631832  0.99903050  1
  Ge  Ge56  1  0.21284704  0.01050794  0.03846542  1
  Ge  Ge57  1  0.71284704  0.98949206  0.46153458  1
  Ge  Ge58  1  0.78715296  0.98949206  0.96153458  1
  Ge  Ge59  1  0.28715296  0.01050794  0.53846542  1
  Ge  Ge60  1  0.01812726  0.32744202  0.36275736  1
  Ge  Ge61  1  0.51812726  0.67255798  0.13724264  1
  Ge  Ge62  1  0.98187274  0.67255798  0.63724264  1
  Ge  Ge63  1  0.48187274  0.32744202  0.86275736  1
  Ge  Ge64  1  0.84659568  0.18830599  0.66211080  1
  Ge  Ge65  1  0.34659568  0.81169401  0.83788920  1
  Ge  Ge66  1  0.15340432  0.81169401  0.33788920  1
  Ge  Ge67  1  0.65340432  0.18830599  0.16211080  1
  Ge  Ge68  1  0.99215501  0.41395178  0.03671359  1
  Ge  Ge69  1  0.49215501  0.58604822  0.46328641  1
  Ge  Ge70  1  0.00784499  0.58604822  0.96328641  1
  Ge  Ge71  1  0.50784499  0.41395178  0.53671359  1
  Ge  Ge72  1  0.12266132  0.44913584  0.27100124  1
  Ge  Ge73  1  0.62266132  0.55086416  0.22899876  1
  Ge  Ge74  1  0.87733868  0.55086416  0.72899876  1
  Ge  Ge75  1  0.37733868  0.44913584  0.77100124  1
  Ge  Ge76  1  0.78305419  0.30669504  0.99298253  1
  Ge  Ge77  1  0.28305419  0.69330496  0.50701747  1
  Ge  Ge78  1  0.21694581  0.69330496  0.00701747  1
  Ge  Ge79  1  0.71694581  0.30669504  0.49298253  1
  Ge  Ge80  1  0.86359137  0.09605049  0.11874205  1
  Ge  Ge81  1  0.36359137  0.90394951  0.38125795  1
  Ge  Ge82  1  0.13640863  0.90394951  0.88125795  1
  Ge  Ge83  1  0.63640863  0.09605049  0.61874205  1
  Ge  Ge84  1  0.32736947  0.34460561  0.21970423  1
  Ge  Ge85  1  0.82736947  0.65539439  0.28029577  1
  Ge  Ge86  1  0.67263053  0.65539439  0.78029577  1
  Ge  Ge87  1  0.17263053  0.34460561  0.71970423  1
