# generated using pymatgen
data_UH10(SeO7)2
_symmetry_space_group_name_H-M   'P 1'
_cell_length_a   8.34807246
_cell_length_b   11.17654536
_cell_length_c   13.14093470
_cell_angle_alpha   90.00000000
_cell_angle_beta   102.58544566
_cell_angle_gamma   90.00000000
_symmetry_Int_Tables_number   1
_chemical_formula_structural   UH10(SeO7)2
_chemical_formula_sum   'U4 H40 Se8 O56'
_cell_volume   1196.62335436
_cell_formula_units_Z   4
loop_
 _symmetry_equiv_pos_site_id
 _symmetry_equiv_pos_as_xyz
  1  'x, y, z'
loop_
 _atom_site_type_symbol
 _atom_site_label
 _atom_site_symmetry_multiplicity
 _atom_site_fract_x
 _atom_site_fract_y
 _atom_site_fract_z
 _atom_site_occupancy
  U  U0  1  0.36869438  0.80036689  0.82655830  1
  U  U1  1  0.86869438  0.69963311  0.32655830  1
  U  U2  1  0.63130562  0.19963311  0.17344170  1
  U  U3  1  0.13130562  0.30036689  0.67344170  1
  H  H4  1  0.55729036  0.09023979  0.72462481  1
  H  H5  1  0.05729036  0.40976021  0.22462481  1
  H  H6  1  0.44270964  0.90976021  0.27537519  1
  H  H7  1  0.94270964  0.59023979  0.77537519  1
  H  H8  1  0.39789217  0.63814482  0.38245174  1
  H  H9  1  0.89789217  0.86185518  0.88245174  1
  H  H10  1  0.60210783  0.36185518  0.61754826  1
  H  H11  1  0.10210783  0.13814482  0.11754826  1
  H  H12  1  0.26433174  0.01792461  0.49198321  1
  H  H13  1  0.76433174  0.48207539  0.99198321  1
  H  H14  1  0.73566826  0.98207539  0.50801679  1
  H  H15  1  0.23566826  0.51792461  0.00801679  1
  H  H16  1  0.25902635  0.94971332  0.59989100  1
  H  H17  1  0.75902635  0.55028668  0.09989100  1
  H  H18  1  0.74097365  0.05028668  0.40010900  1
  H  H19  1  0.24097365  0.44971332  0.90010900  1
  H  H20  1  0.51299258  0.69986022  0.51937761  1
  H  H21  1  0.01299258  0.80013978  0.01937761  1
  H  H22  1  0.48700742  0.30013978  0.48062239  1
  H  H23  1  0.98700742  0.19986022  0.98062239  1
  H  H24  1  0.45017914  0.02694260  0.60168204  1
  H  H25  1  0.95017914  0.47305740  0.10168204  1
  H  H26  1  0.54982086  0.97305740  0.39831796  1
  H  H27  1  0.04982086  0.52694260  0.89831796  1
  H  H28  1  0.58217967  0.15799606  0.62100900  1
  H  H29  1  0.08217967  0.34200394  0.12100900  1
  H  H30  1  0.41782033  0.84200394  0.37899100  1
  H  H31  1  0.91782033  0.65799606  0.87899100  1
  H  H32  1  0.61961923  0.61909704  0.62913423  1
  H  H33  1  0.11961923  0.88090296  0.12913423  1
  H  H34  1  0.38038077  0.38090296  0.37086577  1
  H  H35  1  0.88038077  0.11909704  0.87086577  1
  H  H36  1  0.27925142  0.70106723  0.45099739  1
  H  H37  1  0.77925142  0.79893277  0.95099739  1
  H  H38  1  0.72074858  0.29893277  0.54900261  1
  H  H39  1  0.22074858  0.20106723  0.04900261  1
  H  H40  1  0.71239787  0.73844458  0.59364624  1
  H  H41  1  0.21239787  0.76155542  0.09364624  1
  H  H42  1  0.28760213  0.26155542  0.40635376  1
  H  H43  1  0.78760213  0.23844458  0.90635376  1
  Se  Se44  1  0.60921867  0.87678401  0.10174821  1
  Se  Se45  1  0.10921867  0.62321599  0.60174821  1
  Se  Se46  1  0.39078133  0.12321599  0.89825179  1
  Se  Se47  1  0.89078133  0.37678401  0.39825179  1
  Se  Se48  1  0.52874932  0.47836781  0.80451089  1
  Se  Se49  1  0.02874932  0.02163219  0.30451089  1
  Se  Se50  1  0.47125068  0.52163219  0.19548911  1
  Se  Se51  1  0.97125068  0.97836781  0.69548911  1
  O  O52  1  0.44561918  0.86416745  0.15213623  1
  O  O53  1  0.94561918  0.63583255  0.65213623  1
  O  O54  1  0.55438082  0.13583255  0.84786377  1
  O  O55  1  0.05438082  0.36416745  0.34786377  1
  O  O56  1  0.58874582  0.80675136  0.98592739  1
  O  O57  1  0.08874582  0.69324864  0.48592739  1
  O  O58  1  0.41125418  0.19324864  0.01407261  1
  O  O59  1  0.91125418  0.30675136  0.51407261  1
  O  O60  1  0.34043355  0.98019364  0.91648409  1
  O  O61  1  0.84043355  0.51980636  0.41648409  1
  O  O62  1  0.65956645  0.01980636  0.08351591  1
  O  O63  1  0.15956645  0.48019364  0.58351591  1
  O  O64  1  0.16323650  0.92051679  0.70671966  1
  O  O65  1  0.66323650  0.57948321  0.20671966  1
  O  O66  1  0.83676350  0.07948321  0.29328034  1
  O  O67  1  0.33676350  0.42051679  0.79328034  1
  O  O68  1  0.27761498  0.68518663  0.67583184  1
  O  O69  1  0.77761498  0.81481337  0.17583184  1
  O  O70  1  0.72238502  0.31481337  0.32416816  1
  O  O71  1  0.22238502  0.18518663  0.82416816  1
  O  O72  1  0.65736967  0.40081760  0.89446431  1
  O  O73  1  0.15736967  0.09918240  0.39446431  1
  O  O74  1  0.34263033  0.59918240  0.10553569  1
  O  O75  1  0.84263033  0.90081760  0.60553569  1
  O  O76  1  0.57953444  0.47972125  0.68789438  1
  O  O77  1  0.07953444  0.02027875  0.18789438  1
  O  O78  1  0.42046556  0.52027875  0.31210562  1
  O  O79  1  0.92046556  0.97972125  0.81210562  1
  O  O80  1  0.52445946  0.61913149  0.84842727  1
  O  O81  1  0.02445946  0.88086851  0.34842727  1
  O  O82  1  0.47554054  0.38086851  0.15157273  1
  O  O83  1  0.97554054  0.11913149  0.65157273  1
  O  O84  1  0.51829005  0.86796262  0.76443069  1
  O  O85  1  0.01829005  0.63203738  0.26443069  1
  O  O86  1  0.48170995  0.13203738  0.23556931  1
  O  O87  1  0.98170995  0.36796262  0.73556931  1
  O  O88  1  0.21575046  0.73939558  0.88994354  1
  O  O89  1  0.71575046  0.76060442  0.38994354  1
  O  O90  1  0.78424954  0.26060442  0.11005646  1
  O  O91  1  0.28424954  0.23939558  0.61005646  1
  O  O92  1  0.33185169  0.97058637  0.55176039  1
  O  O93  1  0.83185169  0.52941363  0.05176039  1
  O  O94  1  0.66814831  0.02941363  0.44823961  1
  O  O95  1  0.16814831  0.47058637  0.94823961  1
  O  O96  1  0.39001637  0.70467098  0.43346570  1
  O  O97  1  0.89001637  0.79532902  0.93346570  1
  O  O98  1  0.60998363  0.29532902  0.56653430  1
  O  O99  1  0.10998363  0.20467098  0.06653430  1
  O  O100  1  0.56938681  0.07743113  0.65121227  1
  O  O101  1  0.06938681  0.42256887  0.15121227  1
  O  O102  1  0.43061319  0.92256887  0.34878773  1
  O  O103  1  0.93061319  0.57743113  0.84878773  1
  O  O104  1  0.60652671  0.69894662  0.59368230  1
  O  O105  1  0.10652671  0.80105338  0.09368230  1
  O  O106  1  0.39347329  0.30105338  0.40631770  1
  O  O107  1  0.89347329  0.19894662  0.90631770  1
