# generated using pymatgen
data_SmAgS2
_symmetry_space_group_name_H-M   'P 1'
_cell_length_a   7.76332993
_cell_length_b   7.76679132
_cell_length_c   13.12343210
_cell_angle_alpha   89.87664085
_cell_angle_beta   90.00000000
_cell_angle_gamma   90.00000000
_symmetry_Int_Tables_number   1
_chemical_formula_structural   SmAgS2
_chemical_formula_sum   'Sm8 Ag8 S16'
_cell_volume   791.29077398
_cell_formula_units_Z   8
loop_
 _symmetry_equiv_pos_site_id
 _symmetry_equiv_pos_as_xyz
  1  'x, y, z'
loop_
 _atom_site_type_symbol
 _atom_site_label
 _atom_site_symmetry_multiplicity
 _atom_site_fract_x
 _atom_site_fract_y
 _atom_site_fract_z
 _atom_site_occupancy
  Sm  Sm0  1  0.49505661  0.25429830  0.99613908  1
  Sm  Sm1  1  0.99505661  0.74570170  0.00386092  1
  Sm  Sm2  1  0.74299042  0.99699911  0.24683449  1
  Sm  Sm3  1  0.24299042  0.00300089  0.75316551  1
  Sm  Sm4  1  0.25172230  0.49663974  0.25311038  1
  Sm  Sm5  1  0.75172230  0.50336026  0.74688962  1
  Sm  Sm6  1  0.99712783  0.24698960  0.49664028  1
  Sm  Sm7  1  0.49712783  0.75301040  0.50335972  1
  Ag  Ag8  1  0.74940391  0.50160018  0.20148064  1
  Ag  Ag9  1  0.24940391  0.49839982  0.79851936  1
  Ag  Ag10  1  0.24682508  0.00291117  0.31079733  1
  Ag  Ag11  1  0.74682508  0.99708883  0.68920267  1
  Ag  Ag12  1  0.99822248  0.24481850  0.95622945  1
  Ag  Ag13  1  0.49822248  0.75518150  0.04377055  1
  Ag  Ag14  1  0.49921387  0.25858953  0.45850459  1
  Ag  Ag15  1  0.99921387  0.74141047  0.54149541  1
  S  S16  1  0.21641577  0.97006551  0.53733265  1
  S  S17  1  0.71641577  0.02993449  0.46266735  1
  S  S18  1  0.77215283  0.52458727  0.53080214  1
  S  S19  1  0.27215283  0.47541273  0.46919786  1
  S  S20  1  0.47207634  0.27802749  0.78039793  1
  S  S21  1  0.97207634  0.72197251  0.21960207  1
  S  S22  1  0.52744088  0.27807999  0.21123680  1
  S  S23  1  0.02744088  0.72192001  0.78876320  1
  S  S24  1  0.02316650  0.22060178  0.28157424  1
  S  S25  1  0.52316650  0.77939822  0.71842576  1
  S  S26  1  0.46712643  0.77813955  0.28884387  1
  S  S27  1  0.96712643  0.22186045  0.71115613  1
  S  S28  1  0.72105184  0.97656580  0.03148945  1
  S  S29  1  0.22105184  0.02343420  0.96851055  1
  S  S30  1  0.27700691  0.53091662  0.03834467  1
  S  S31  1  0.77700691  0.46908338  0.96165533  1
