# generated using pymatgen
data_CaTiGeO5
_symmetry_space_group_name_H-M   'P 1'
_cell_length_a   5.60933416
_cell_length_b   5.60933416
_cell_length_c   7.21346458
_cell_angle_alpha   104.03247997
_cell_angle_beta   104.03247997
_cell_angle_gamma   106.25842646
_symmetry_Int_Tables_number   1
_chemical_formula_structural   CaTiGeO5
_chemical_formula_sum   'Ca2 Ti2 Ge2 O10'
_cell_volume   199.30812283
_cell_formula_units_Z   2
loop_
 _symmetry_equiv_pos_site_id
 _symmetry_equiv_pos_as_xyz
  1  'x, y, z'
loop_
 _atom_site_type_symbol
 _atom_site_label
 _atom_site_symmetry_multiplicity
 _atom_site_fract_x
 _atom_site_fract_y
 _atom_site_fract_z
 _atom_site_occupancy
  Ca  Ca0  1  0.32739204  0.17260796  0.75000000  1
  Ca  Ca1  1  0.67260796  0.82739204  0.25000000  1
  Ti  Ti2  1  -0.00000000  0.50000000  0.00000000  1
  Ti  Ti3  1  -0.00000000  0.50000000  0.50000000  1
  Ge  Ge4  1  0.31669558  0.18330442  0.25000000  1
  Ge  Ge5  1  0.68330442  0.81669558  0.75000000  1
  O  O6  1  0.93253561  0.56746439  0.25000000  1
  O  O7  1  0.06746439  0.43253561  0.75000000  1
  O  O8  1  0.63081697  0.24934337  0.42108243  1
  O  O9  1  0.25065663  0.86918303  0.07891757  1
  O  O10  1  0.36918303  0.75065663  0.57891757  1
  O  O11  1  0.74934337  0.13081697  0.92108243  1
  O  O12  1  0.68533088  0.59961546  0.89196964  1
  O  O13  1  0.90038454  0.81466912  0.60803036  1
  O  O14  1  0.31466912  0.40038454  0.10803036  1
  O  O15  1  0.09961546  0.18533088  0.39196964  1
