# generated using pymatgen
data_LuCuPbSe3
_symmetry_space_group_name_H-M   'P 1'
_cell_length_a   4.03460881
_cell_length_b   7.09053708
_cell_length_c   10.45569609
_cell_angle_alpha   90.00000000
_cell_angle_beta   90.00000000
_cell_angle_gamma   106.52935630
_symmetry_Int_Tables_number   1
_chemical_formula_structural   LuCuPbSe3
_chemical_formula_sum   'Lu2 Cu2 Pb2 Se6'
_cell_volume   286.75071277
_cell_formula_units_Z   2
loop_
 _symmetry_equiv_pos_site_id
 _symmetry_equiv_pos_as_xyz
  1  'x, y, z'
loop_
 _atom_site_type_symbol
 _atom_site_label
 _atom_site_symmetry_multiplicity
 _atom_site_fract_x
 _atom_site_fract_y
 _atom_site_fract_z
 _atom_site_occupancy
  Lu  Lu0  1  0.50000000  0.50000000  0.00000000  1
  Lu  Lu1  1  0.50000000  0.50000000  0.50000000  1
  Cu  Cu2  1  0.96787594  0.43575187  0.25000000  1
  Cu  Cu3  1  0.03212406  0.56424813  0.75000000  1
  Pb  Pb4  1  0.25671823  0.01343645  0.25000000  1
  Pb  Pb5  1  0.74328177  0.98656355  0.75000000  1
  Se  Se6  1  0.42157177  0.34314353  0.75000000  1
  Se  Se7  1  0.57842823  0.65685647  0.25000000  1
  Se  Se8  1  0.13882254  0.77764507  0.93961503  1
  Se  Se9  1  0.86117746  0.22235493  0.43961503  1
  Se  Se10  1  0.86117746  0.22235493  0.06038497  1
  Se  Se11  1  0.13882254  0.77764507  0.56038497  1
