# generated using pymatgen
data_CrMoF6
_symmetry_space_group_name_H-M   'P 1'
_cell_length_a   5.62634531
_cell_length_b   5.62670440
_cell_length_c   5.64340979
_cell_angle_alpha   118.55599481
_cell_angle_beta   118.43177523
_cell_angle_gamma   90.23553131
_symmetry_Int_Tables_number   1
_chemical_formula_structural   CrMoF6
_chemical_formula_sum   'Cr1 Mo1 F6'
_cell_volume   131.64169813
_cell_formula_units_Z   1
loop_
 _symmetry_equiv_pos_site_id
 _symmetry_equiv_pos_as_xyz
  1  'x, y, z'
loop_
 _atom_site_type_symbol
 _atom_site_label
 _atom_site_symmetry_multiplicity
 _atom_site_fract_x
 _atom_site_fract_y
 _atom_site_fract_z
 _atom_site_occupancy
  Cr  Cr0  1  0.00000000  0.00000000  0.00000000  1
  Mo  Mo1  1  0.50000000  0.50000000  0.00000000  1
  F  F2  1  0.33981275  0.25812825  0.53493232  1
  F  F3  1  0.66018725  0.74187175  0.46506768  1
  F  F4  1  0.82229241  0.73754199  0.06129734  1
  F  F5  1  0.17770759  0.26245801  0.93870266  1
  F  F6  1  0.74627034  0.25456594  0.07652333  1
  F  F7  1  0.25372966  0.74543406  0.92347667  1
