# generated using pymatgen
data_Zn10Cu(B4Rh9)2
_symmetry_space_group_name_H-M   'P 1'
_cell_length_a   2.87856540
_cell_length_b   17.88408281
_cell_length_c   17.88408281
_cell_angle_alpha   90.00000000
_cell_angle_beta   90.00000000
_cell_angle_gamma   90.00000000
_symmetry_Int_Tables_number   1
_chemical_formula_structural   Zn10Cu(B4Rh9)2
_chemical_formula_sum   'Zn20 Cu2 B16 Rh36'
_cell_volume   920.68156065
_cell_formula_units_Z   2
loop_
 _symmetry_equiv_pos_site_id
 _symmetry_equiv_pos_as_xyz
  1  'x, y, z'
loop_
 _atom_site_type_symbol
 _atom_site_label
 _atom_site_symmetry_multiplicity
 _atom_site_fract_x
 _atom_site_fract_y
 _atom_site_fract_z
 _atom_site_occupancy
  Zn  Zn0  1  0.00000000  0.05025881  0.55025881  1
  Zn  Zn1  1  -0.00000000  0.94974119  0.44974119  1
  Zn  Zn2  1  -0.00000000  0.44974119  0.05025881  1
  Zn  Zn3  1  0.00000000  0.55025881  0.94974119  1
  Zn  Zn4  1  0.00000000  0.18709604  0.03180596  1
  Zn  Zn5  1  -0.00000000  0.81290396  0.96819404  1
  Zn  Zn6  1  -0.00000000  0.96819404  0.18709604  1
  Zn  Zn7  1  -0.00000000  0.31290396  0.53180596  1
  Zn  Zn8  1  0.00000000  0.03180596  0.81290396  1
  Zn  Zn9  1  0.00000000  0.68709604  0.46819404  1
  Zn  Zn10  1  -0.00000000  0.53180596  0.68709604  1
  Zn  Zn11  1  0.00000000  0.46819404  0.31290396  1
  Zn  Zn12  1  -0.00000000  0.70945990  0.20945990  1
  Zn  Zn13  1  0.00000000  0.29054010  0.79054010  1
  Zn  Zn14  1  0.00000000  0.79054010  0.70945990  1
  Zn  Zn15  1  -0.00000000  0.20945990  0.29054010  1
  Zn  Zn16  1  0.00000000  0.16892127  0.66892127  1
  Zn  Zn17  1  -0.00000000  0.83107873  0.33107873  1
  Zn  Zn18  1  -0.00000000  0.33107873  0.16892127  1
  Zn  Zn19  1  0.00000000  0.66892127  0.83107873  1
  Cu  Cu20  1  -0.00000000  -0.00000000  -0.00000000  1
  Cu  Cu21  1  -0.00000000  0.50000000  0.50000000  1
  B  B22  1  0.00000000  0.03900302  0.33384635  1
  B  B23  1  -0.00000000  0.96099698  0.66615365  1
  B  B24  1  0.00000000  0.66615365  0.03900302  1
  B  B25  1  0.00000000  0.46099698  0.83384635  1
  B  B26  1  -0.00000000  0.33384635  0.96099698  1
  B  B27  1  -0.00000000  0.53900302  0.16615365  1
  B  B28  1  -0.00000000  0.83384635  0.53900302  1
  B  B29  1  0.00000000  0.16615365  0.46099698  1
  B  B30  1  -0.00000000  0.12326595  0.16506689  1
  B  B31  1  0.00000000  0.87673405  0.83493311  1
  B  B32  1  0.00000000  0.83493311  0.12326595  1
  B  B33  1  0.00000000  0.37673405  0.66506689  1
  B  B34  1  -0.00000000  0.16506689  0.87673405  1
  B  B35  1  -0.00000000  0.62326595  0.33493311  1
  B  B36  1  -0.00000000  0.66506689  0.62326595  1
  B  B37  1  0.00000000  0.33493311  0.37673405  1
  Rh  Rh38  1  0.50000000  0.08795279  0.25576589  1
  Rh  Rh39  1  0.50000000  0.91204721  0.74423411  1
  Rh  Rh40  1  0.50000000  0.74423411  0.08795279  1
  Rh  Rh41  1  0.50000000  0.41204721  0.75576589  1
  Rh  Rh42  1  0.50000000  0.25576589  0.91204721  1
  Rh  Rh43  1  0.50000000  0.58795279  0.24423411  1
  Rh  Rh44  1  0.50000000  0.75576589  0.58795279  1
  Rh  Rh45  1  0.50000000  0.24423411  0.41204721  1
  Rh  Rh46  1  0.50000000  0.32601937  0.04771879  1
  Rh  Rh47  1  0.50000000  0.67398063  0.95228121  1
  Rh  Rh48  1  0.50000000  0.95228121  0.32601937  1
  Rh  Rh49  1  0.50000000  0.17398063  0.54771879  1
  Rh  Rh50  1  0.50000000  0.04771879  0.67398063  1
  Rh  Rh51  1  0.50000000  0.82601937  0.45228121  1
  Rh  Rh52  1  0.50000000  0.54771879  0.82601937  1
  Rh  Rh53  1  0.50000000  0.45228121  0.17398063  1
  Rh  Rh54  1  0.50000000  0.21110219  0.16052954  1
  Rh  Rh55  1  0.50000000  0.78889781  0.83947046  1
  Rh  Rh56  1  0.50000000  0.83947046  0.21110219  1
  Rh  Rh57  1  0.50000000  0.28889781  0.66052954  1
  Rh  Rh58  1  0.50000000  0.16052954  0.78889781  1
  Rh  Rh59  1  0.50000000  0.71110219  0.33947046  1
  Rh  Rh60  1  0.50000000  0.66052954  0.71110219  1
  Rh  Rh61  1  0.50000000  0.33947046  0.28889781  1
  Rh  Rh62  1  0.50000000  0.06754247  0.09917932  1
  Rh  Rh63  1  0.50000000  0.93245753  0.90082068  1
  Rh  Rh64  1  0.50000000  0.90082068  0.06754247  1
  Rh  Rh65  1  0.50000000  0.43245753  0.59917932  1
  Rh  Rh66  1  0.50000000  0.09917932  0.93245753  1
  Rh  Rh67  1  0.50000000  0.56754247  0.40082068  1
  Rh  Rh68  1  0.50000000  0.59917932  0.56754247  1
  Rh  Rh69  1  0.50000000  0.40082068  0.43245753  1
  Rh  Rh70  1  0.50000000  0.58220322  0.08220322  1
  Rh  Rh71  1  0.50000000  0.41779678  0.91779678  1
  Rh  Rh72  1  0.50000000  0.91779678  0.58220322  1
  Rh  Rh73  1  0.50000000  0.08220322  0.41779678  1
