# generated using pymatgen
data_Tl5V3O10
_symmetry_space_group_name_H-M   'P 1'
_cell_length_a   8.45936701
_cell_length_b   8.45936701
_cell_length_c   19.58281339
_cell_angle_alpha   90.00000000
_cell_angle_beta   90.00000000
_cell_angle_gamma   90.00000000
_symmetry_Int_Tables_number   1
_chemical_formula_structural   Tl5V3O10
_chemical_formula_sum   'Tl20 V12 O40'
_cell_volume   1401.36355900
_cell_formula_units_Z   4
loop_
 _symmetry_equiv_pos_site_id
 _symmetry_equiv_pos_as_xyz
  1  'x, y, z'
loop_
 _atom_site_type_symbol
 _atom_site_label
 _atom_site_symmetry_multiplicity
 _atom_site_fract_x
 _atom_site_fract_y
 _atom_site_fract_z
 _atom_site_occupancy
  Tl  Tl0  1  0.47791289  0.00714922  0.13052173  1
  Tl  Tl1  1  0.52208711  0.99285078  0.63052173  1
  Tl  Tl2  1  0.49285078  0.97791289  0.38052173  1
  Tl  Tl3  1  0.02208711  0.50714922  0.11947827  1
  Tl  Tl4  1  0.50714922  0.02208711  0.88052173  1
  Tl  Tl5  1  0.97791289  0.49285078  0.61947827  1
  Tl  Tl6  1  0.00714922  0.47791289  0.86947827  1
  Tl  Tl7  1  0.99285078  0.52208711  0.36947827  1
  Tl  Tl8  1  0.99959525  0.02866189  0.10628668  1
  Tl  Tl9  1  0.00040475  0.97133811  0.60628668  1
  Tl  Tl10  1  0.47133811  0.49959525  0.35628668  1
  Tl  Tl11  1  0.50040475  0.52866189  0.14371332  1
  Tl  Tl12  1  0.52866189  0.50040475  0.85628668  1
  Tl  Tl13  1  0.49959525  0.47133811  0.64371332  1
  Tl  Tl14  1  0.02866189  0.99959525  0.89371332  1
  Tl  Tl15  1  0.97133811  0.00040475  0.39371332  1
  Tl  Tl16  1  0.75902775  0.75902775  -0.00000000  1
  Tl  Tl17  1  0.24097225  0.24097225  0.50000000  1
  Tl  Tl18  1  0.74097225  0.25902775  0.25000000  1
  Tl  Tl19  1  0.25902775  0.74097225  0.75000000  1
  V  V20  1  0.23007013  0.23211583  0.26714718  1
  V  V21  1  0.76992987  0.76788417  0.76714718  1
  V  V22  1  0.26788417  0.73007013  0.51714718  1
  V  V23  1  0.26992987  0.73211583  0.98285282  1
  V  V24  1  0.73211583  0.26992987  0.01714718  1
  V  V25  1  0.73007013  0.26788417  0.48285282  1
  V  V26  1  0.23211583  0.23007013  0.73285282  1
  V  V27  1  0.76788417  0.76992987  0.23285282  1
  V  V28  1  0.30976951  0.30976951  -0.00000000  1
  V  V29  1  0.69023049  0.69023049  0.50000000  1
  V  V30  1  0.19023049  0.80976951  0.25000000  1
  V  V31  1  0.80976951  0.19023049  0.75000000  1
  O  O32  1  0.06597275  0.32690592  0.23654759  1
  O  O33  1  0.93402725  0.67309408  0.73654759  1
  O  O34  1  0.17309408  0.56597275  0.48654759  1
  O  O35  1  0.43402725  0.82690592  0.01345241  1
  O  O36  1  0.82690592  0.43402725  0.98654759  1
  O  O37  1  0.56597275  0.17309408  0.51345241  1
  O  O38  1  0.32690592  0.06597275  0.76345241  1
  O  O39  1  0.67309408  0.93402725  0.26345241  1
  O  O40  1  0.23967432  0.21864470  0.07064869  1
  O  O41  1  0.76032568  0.78135530  0.57064869  1
  O  O42  1  0.28135530  0.73967432  0.32064869  1
  O  O43  1  0.26032568  0.71864470  0.17935131  1
  O  O44  1  0.71864470  0.26032568  0.82064869  1
  O  O45  1  0.73967432  0.28135530  0.67935131  1
  O  O46  1  0.21864470  0.23967432  0.92935131  1
  O  O47  1  0.78135530  0.76032568  0.42935131  1
  O  O48  1  0.23050307  0.24469205  0.35468437  1
  O  O49  1  0.76949693  0.75530795  0.85468437  1
  O  O50  1  0.25530795  0.73050307  0.60468437  1
  O  O51  1  0.26949693  0.74469205  0.89531563  1
  O  O52  1  0.74469205  0.26949693  0.10468437  1
  O  O53  1  0.73050307  0.25530795  0.39531563  1
  O  O54  1  0.24469205  0.23050307  0.64531563  1
  O  O55  1  0.75530795  0.76949693  0.14531563  1
  O  O56  1  0.22718147  0.01938228  0.24076594  1
  O  O57  1  0.77281853  0.98061772  0.74076594  1
  O  O58  1  0.48061772  0.72718147  0.49076594  1
  O  O59  1  0.27281853  0.51938228  0.00923406  1
  O  O60  1  0.51938228  0.27281853  0.99076594  1
  O  O61  1  0.72718147  0.48061772  0.50923406  1
  O  O62  1  0.01938228  0.22718147  0.75923406  1
  O  O63  1  0.98061772  0.77281853  0.25923406  1
  O  O64  1  0.40080879  0.32092334  0.23827255  1
  O  O65  1  0.59919121  0.67907666  0.73827255  1
  O  O66  1  0.17907666  0.90080879  0.48827255  1
  O  O67  1  0.09919121  0.82092334  0.01172745  1
  O  O68  1  0.82092334  0.09919121  0.98827255  1
  O  O69  1  0.90080879  0.17907666  0.51172745  1
  O  O70  1  0.32092334  0.40080879  0.76172745  1
  O  O71  1  0.67907666  0.59919121  0.26172745  1
