# generated using pymatgen
data_TlFe(SO4)2
_symmetry_space_group_name_H-M   'P 1'
_cell_length_a   4.93349836
_cell_length_b   4.93349836
_cell_length_c   8.71469191
_cell_angle_alpha   90.00000000
_cell_angle_beta   90.00000000
_cell_angle_gamma   120.00000084
_symmetry_Int_Tables_number   1
_chemical_formula_structural   TlFe(SO4)2
_chemical_formula_sum   'Tl1 Fe1 S2 O8'
_cell_volume   183.69301525
_cell_formula_units_Z   1
loop_
 _symmetry_equiv_pos_site_id
 _symmetry_equiv_pos_as_xyz
  1  'x, y, z'
loop_
 _atom_site_type_symbol
 _atom_site_label
 _atom_site_symmetry_multiplicity
 _atom_site_fract_x
 _atom_site_fract_y
 _atom_site_fract_z
 _atom_site_occupancy
  Tl  Tl0  1  -0.00000000  0.00000000  0.50000000  1
  Fe  Fe1  1  -0.00000000  0.00000000  -0.00000000  1
  S  S2  1  0.66666700  0.33333300  0.79358591  1
  S  S3  1  0.33333300  0.66666700  0.20641409  1
  O  O4  1  0.91209120  0.26574479  0.85116951  1
  O  O5  1  0.35365358  0.08790880  0.85116951  1
  O  O6  1  0.64634642  0.73425521  0.14883049  1
  O  O7  1  0.73425521  0.64634642  0.85116951  1
  O  O8  1  0.26574479  0.91209120  0.14883049  1
  O  O9  1  0.08790880  0.35365358  0.14883049  1
  O  O10  1  0.66666700  0.33333300  0.62511174  1
  O  O11  1  0.33333300  0.66666700  0.37488826  1
