# generated using pymatgen
data_Fe8H10O17
_symmetry_space_group_name_H-M   'P 1'
_cell_length_a   10.73562049
_cell_length_b   6.16817534
_cell_length_c   10.55339372
_cell_angle_alpha   90.88268014
_cell_angle_beta   89.87882593
_cell_angle_gamma   90.15400238
_symmetry_Int_Tables_number   1
_chemical_formula_structural   Fe8H10O17
_chemical_formula_sum   'Fe16 H20 O34'
_cell_volume   698.75022616
_cell_formula_units_Z   2
loop_
 _symmetry_equiv_pos_site_id
 _symmetry_equiv_pos_as_xyz
  1  'x, y, z'
loop_
 _atom_site_type_symbol
 _atom_site_label
 _atom_site_symmetry_multiplicity
 _atom_site_fract_x
 _atom_site_fract_y
 _atom_site_fract_z
 _atom_site_occupancy
  Fe  Fe0  1  0.34310351  0.00345309  0.10479432  1
  Fe  Fe1  1  0.14664839  0.00450213  0.61151682  1
  Fe  Fe2  1  0.85696401  0.25816657  0.58601807  1
  Fe  Fe3  1  0.69279239  0.28940098  0.09088421  1
  Fe  Fe4  1  0.67810366  0.00789779  0.77444293  1
  Fe  Fe5  1  0.88187059  0.00203937  0.28651691  1
  Fe  Fe6  1  0.16608466  0.25200740  0.30845285  1
  Fe  Fe7  1  0.34876228  0.25381748  0.80728159  1
  Fe  Fe8  1  0.33601608  0.48828061  0.10180013  1
  Fe  Fe9  1  0.15269059  0.50376942  0.60679532  1
  Fe  Fe10  1  0.86254898  0.75233193  0.58753456  1
  Fe  Fe11  1  0.82826263  0.74765126  0.97601671  1
  Fe  Fe12  1  0.67076736  0.51813626  0.78358757  1
  Fe  Fe13  1  0.86989388  0.50246722  0.28456658  1
  Fe  Fe14  1  0.16377968  0.74793290  0.31729879  1
  Fe  Fe15  1  0.36803566  0.75422515  0.80246809  1
  H  H16  1  0.36805717  0.98424155  0.37190295  1
  H  H17  1  0.39714388  0.99974096  0.59727274  1
  H  H18  1  0.53740214  0.26111561  0.66514298  1
  H  H19  1  0.67308822  0.95471952  0.50823541  1
  H  H20  1  0.61842767  0.01638183  0.30788718  1
  H  H21  1  0.68423091  0.85367773  0.20748108  1
  H  H22  1  0.60391297  0.94395286  0.99188677  1
  H  H23  1  0.50091503  0.27727310  0.21075401  1
  H  H24  1  0.09971520  0.28762738  0.82011078  1
  H  H25  1  0.36715703  0.51625030  0.36971904  1
  H  H26  1  0.41026616  0.51795158  0.59983371  1
  H  H27  1  0.67853289  0.51522450  0.49836416  1
  H  H28  1  0.13546005  0.74146995  0.07193701  1
  H  H29  1  0.52335739  0.69790526  0.05771443  1
  H  H30  1  0.09881201  0.72044906  0.81360969  1
  H  H31  1  0.90501510  0.39808309  0.86886726  1
  H  H32  1  0.95247145  0.41030040  0.01233368  1
  H  H33  1  0.05638751  0.00399511  0.96016908  1
  H  H34  1  0.94108264  0.10454165  0.04069039  1
  H  H35  1  0.60368486  0.57028138  0.23176785  1
  O  O36  1  0.31125789  0.99452018  0.30118549  1
  O  O37  1  0.06026383  0.99713175  0.28659942  1
  O  O38  1  0.34045174  0.00439380  0.66865977  1
  O  O39  1  0.35630191  0.00573099  0.92015618  1
  O  O40  1  0.79142346  0.26851493  0.77200880  1
  O  O41  1  0.54055355  0.25852895  0.75780245  1
  O  O42  1  0.86581508  0.25348636  0.13860647  1
  O  O43  1  0.84970050  0.25106423  0.39881793  1
  O  O44  1  0.71242621  0.00913169  0.58497580  1
  O  O45  1  0.96750753  0.00683822  0.61255812  1
  O  O46  1  0.67531038  0.00678950  0.23662466  1
  O  O47  1  0.68351657  0.01481234  0.97307181  1
  O  O48  1  0.22390803  0.24204925  0.11794082  1
  O  O49  1  0.48023993  0.24937326  0.12116122  1
  O  O50  1  0.16347719  0.25947626  0.75593997  1
  O  O51  1  0.18193203  0.24961182  0.49760503  1
  O  O52  1  0.30705980  0.50348805  0.30166980  1
  O  O53  1  0.05508289  0.50079443  0.28895470  1
  O  O54  1  0.34706530  0.50452631  0.66488132  1
  O  O55  1  0.35331822  0.50442573  0.91816370  1
  O  O56  1  0.79931629  0.76207274  0.78497079  1
  O  O57  1  0.54938468  0.76498835  0.77358273  1
  O  O58  1  0.85220239  0.74958363  0.15336817  1
  O  O59  1  0.84169976  0.75595144  0.40193492  1
  O  O60  1  0.71411711  0.51043535  0.58321098  1
  O  O61  1  0.97127773  0.50617200  0.61337300  1
  O  O62  1  0.68663928  0.52877771  0.97443340  1
  O  O63  1  0.21457716  0.74665627  0.11637938  1
  O  O64  1  0.46646217  0.73716400  0.12769543  1
  O  O65  1  0.16577213  0.75154496  0.75414414  1
  O  O66  1  0.18476334  0.75506164  0.49987606  1
  O  O67  1  0.95634946  0.49066378  0.93103303  1
  O  O68  1  0.96564549  0.00504606  0.96547487  1
  O  O69  1  0.66021634  0.45276963  0.25470997  1
