# generated using pymatgen
data_VCo2BO5
_symmetry_space_group_name_H-M   'P 1'
_cell_length_a   3.07611237
_cell_length_b   9.42146609
_cell_length_c   12.39998322
_cell_angle_alpha   90.00000000
_cell_angle_beta   90.00000000
_cell_angle_gamma   90.00000000
_symmetry_Int_Tables_number   1
_chemical_formula_structural   VCo2BO5
_chemical_formula_sum   'V4 Co8 B4 O20'
_cell_volume   359.36996964
_cell_formula_units_Z   4
loop_
 _symmetry_equiv_pos_site_id
 _symmetry_equiv_pos_as_xyz
  1  'x, y, z'
loop_
 _atom_site_type_symbol
 _atom_site_label
 _atom_site_symmetry_multiplicity
 _atom_site_fract_x
 _atom_site_fract_y
 _atom_site_fract_z
 _atom_site_occupancy
  V  V0  1  -0.00000000  0.24165707  0.38636721  1
  V  V1  1  0.00000000  0.75834293  0.61363279  1
  V  V2  1  0.00000000  0.25834293  0.88636721  1
  V  V3  1  -0.00000000  0.74165707  0.11363279  1
  Co  Co4  1  0.50000000  0.00000000  0.50000000  1
  Co  Co5  1  0.50000000  0.50000000  -0.00000000  1
  Co  Co6  1  0.50000000  0.00170092  0.21950566  1
  Co  Co7  1  0.50000000  0.99829908  0.78049434  1
  Co  Co8  1  0.50000000  0.49829908  0.71950566  1
  Co  Co9  1  0.50000000  0.50170092  0.28049434  1
  Co  Co10  1  -0.00000000  0.00000000  0.00000000  1
  Co  Co11  1  -0.00000000  0.50000000  0.50000000  1
  B  B12  1  0.00000000  0.27389856  0.13927768  1
  B  B13  1  0.00000000  0.72610144  0.86072232  1
  B  B14  1  0.00000000  0.22610144  0.63927768  1
  B  B15  1  -0.00000000  0.77389856  0.36072232  1
  O  O16  1  0.50000000  0.10974045  0.35769764  1
  O  O17  1  0.50000000  0.89025955  0.64230236  1
  O  O18  1  0.50000000  0.39025955  0.85769764  1
  O  O19  1  0.50000000  0.60974045  0.14230236  1
  O  O20  1  -0.00000000  0.12620559  0.13993497  1
  O  O21  1  -0.00000000  0.87379441  0.86006503  1
  O  O22  1  -0.00000000  0.37379441  0.63993497  1
  O  O23  1  0.00000000  0.62620559  0.36006503  1
  O  O24  1  0.50000000  0.38286413  0.42165912  1
  O  O25  1  0.50000000  0.61713587  0.57834088  1
  O  O26  1  0.50000000  0.11713587  0.92165912  1
  O  O27  1  0.50000000  0.88286413  0.07834088  1
  O  O28  1  -0.00000000  0.34737515  0.23624728  1
  O  O29  1  0.00000000  0.65262485  0.76375272  1
  O  O30  1  0.00000000  0.15262485  0.73624728  1
  O  O31  1  -0.00000000  0.84737515  0.26375272  1
  O  O32  1  -0.00000000  0.34868393  0.04267207  1
  O  O33  1  0.00000000  0.65131607  0.95732793  1
  O  O34  1  0.00000000  0.15131607  0.54267207  1
  O  O35  1  -0.00000000  0.84868393  0.45732793  1
