# generated using pymatgen
data_Ta6Bi2O19
_symmetry_space_group_name_H-M   'P 1'
_cell_length_a   6.34050567
_cell_length_b   6.34050567
_cell_length_c   20.58786820
_cell_angle_alpha   90.00000000
_cell_angle_beta   90.00000000
_cell_angle_gamma   120.00000321
_symmetry_Int_Tables_number   1
_chemical_formula_structural   Ta6Bi2O19
_chemical_formula_sum   'Ta12 Bi4 O38'
_cell_volume   716.78645040
_cell_formula_units_Z   2
loop_
 _symmetry_equiv_pos_site_id
 _symmetry_equiv_pos_as_xyz
  1  'x, y, z'
loop_
 _atom_site_type_symbol
 _atom_site_label
 _atom_site_symmetry_multiplicity
 _atom_site_fract_x
 _atom_site_fract_y
 _atom_site_fract_z
 _atom_site_occupancy
  Ta  Ta0  1  0.64566038  0.64566038  0.84279306  1
  Ta  Ta1  1  0.35433962  0.35433962  0.15720694  1
  Ta  Ta2  1  1.00000000  0.35433962  0.84279306  1
  Ta  Ta3  1  0.35433962  0.35433962  0.34279306  1
  Ta  Ta4  1  1.00000000  0.35433962  0.65720694  1
  Ta  Ta5  1  0.00000000  0.64566038  0.15720694  1
  Ta  Ta6  1  0.64566038  0.64566038  0.65720694  1
  Ta  Ta7  1  0.00000000  0.64566038  0.34279306  1
  Ta  Ta8  1  0.35433962  1.00000000  0.84279306  1
  Ta  Ta9  1  0.64566038  0.00000000  0.15720694  1
  Ta  Ta10  1  0.64566038  0.00000000  0.34279306  1
  Ta  Ta11  1  0.35433962  1.00000000  0.65720694  1
  Bi  Bi12  1  0.66666700  0.33333300  -0.00000000  1
  Bi  Bi13  1  0.33333300  0.66666700  -0.00000000  1
  Bi  Bi14  1  0.33333300  0.66666700  0.50000000  1
  Bi  Bi15  1  0.66666700  0.33333300  0.50000000  1
  O  O16  1  0.59989124  0.59989124  0.94158463  1
  O  O17  1  0.40010876  0.40010876  0.05841537  1
  O  O18  1  0.00000000  0.40010876  0.94158463  1
  O  O19  1  0.40010876  0.40010876  0.44158463  1
  O  O20  1  0.00000000  0.40010876  0.55841537  1
  O  O21  1  1.00000000  0.59989124  0.05841537  1
  O  O22  1  0.59989124  0.59989124  0.55841537  1
  O  O23  1  1.00000000  0.59989124  0.44158463  1
  O  O24  1  0.40010876  0.00000000  0.94158463  1
  O  O25  1  0.59989124  1.00000000  0.05841537  1
  O  O26  1  0.59989124  1.00000000  0.44158463  1
  O  O27  1  0.40010876  0.00000000  0.55841537  1
  O  O28  1  0.66666700  0.33333300  0.84995183  1
  O  O29  1  0.33333300  0.66666700  0.15004817  1
  O  O30  1  0.33333300  0.66666700  0.34995183  1
  O  O31  1  0.33333300  0.66666700  0.65004817  1
  O  O32  1  0.66666700  0.33333300  0.65004817  1
  O  O33  1  0.66666700  0.33333300  0.34995183  1
  O  O34  1  0.66666700  0.33333300  0.15004817  1
  O  O35  1  0.33333300  0.66666700  0.84995183  1
  O  O36  1  0.75923809  0.75923809  0.34523274  1
  O  O37  1  0.24076191  0.24076191  0.65476726  1
  O  O38  1  0.00000000  0.24076191  0.34523274  1
  O  O39  1  0.24076191  0.24076191  0.84523274  1
  O  O40  1  0.00000000  0.24076191  0.15476726  1
  O  O41  1  1.00000000  0.75923809  0.65476726  1
  O  O42  1  0.75923809  0.75923809  0.15476726  1
  O  O43  1  1.00000000  0.75923809  0.84523274  1
  O  O44  1  0.24076191  0.00000000  0.34523274  1
  O  O45  1  0.75923809  1.00000000  0.65476726  1
  O  O46  1  0.75923809  1.00000000  0.84523274  1
  O  O47  1  0.24076191  0.00000000  0.15476726  1
  O  O48  1  0.60458115  0.60458115  0.75000000  1
  O  O49  1  0.39541885  0.39541885  0.25000000  1
  O  O50  1  1.00000000  0.39541885  0.75000000  1
  O  O51  1  0.00000000  0.60458115  0.25000000  1
  O  O52  1  0.39541885  1.00000000  0.75000000  1
  O  O53  1  0.60458115  0.00000000  0.25000000  1
