# generated using pymatgen
data_U6Ni20P13
_symmetry_space_group_name_H-M   'P 1'
_cell_length_a   3.76332285
_cell_length_b   12.81196299
_cell_length_c   12.81196298
_cell_angle_alpha   120.00000265
_cell_angle_beta   90.00000000
_cell_angle_gamma   90.00000000
_symmetry_Int_Tables_number   1
_chemical_formula_structural   U6Ni20P13
_chemical_formula_sum   'U6 Ni20 P13'
_cell_volume   534.97495142
_cell_formula_units_Z   1
loop_
 _symmetry_equiv_pos_site_id
 _symmetry_equiv_pos_as_xyz
  1  'x, y, z'
loop_
 _atom_site_type_symbol
 _atom_site_label
 _atom_site_symmetry_multiplicity
 _atom_site_fract_x
 _atom_site_fract_y
 _atom_site_fract_z
 _atom_site_occupancy
  U  U0  1  -0.00000000  0.52921355  0.81054324  1
  U  U1  1  0.00000000  0.28132969  0.47078645  1
  U  U2  1  0.00000000  0.18945676  0.71867031  1
  U  U3  1  0.50000000  0.81184517  0.28084118  1
  U  U4  1  0.50000000  0.46899601  0.18815483  1
  U  U5  1  0.50000000  0.71915882  0.53100399  1
  Ni  Ni6  1  -0.00000000  0.80407398  0.90831774  1
  Ni  Ni7  1  -0.00000000  0.10424376  0.19592602  1
  Ni  Ni8  1  0.00000000  0.09168226  0.89575624  1
  Ni  Ni9  1  0.50000000  0.33333300  0.66666700  1
  Ni  Ni10  1  0.50000000  0.92374179  0.08198209  1
  Ni  Ni11  1  0.50000000  0.15824031  0.07625821  1
  Ni  Ni12  1  0.50000000  0.91801791  0.84175969  1
  Ni  Ni13  1  0.00000000  0.66666700  0.33333300  1
  Ni  Ni14  1  0.00000000  0.56089242  0.58335559  1
  Ni  Ni15  1  0.00000000  0.02246317  0.43910758  1
  Ni  Ni16  1  -0.00000000  0.41664441  0.97753683  1
  Ni  Ni17  1  0.50000000  0.68033207  0.74863740  1
  Ni  Ni18  1  0.50000000  0.06830533  0.31966793  1
  Ni  Ni19  1  0.50000000  0.25136260  0.93169467  1
  Ni  Ni20  1  0.50000000  0.97796640  0.56452616  1
  Ni  Ni21  1  0.50000000  0.58655976  0.02203360  1
  Ni  Ni22  1  0.50000000  0.43547384  0.41344024  1
  Ni  Ni23  1  0.00000000  0.75448422  0.07577713  1
  Ni  Ni24  1  -0.00000000  0.32129291  0.24551578  1
  Ni  Ni25  1  0.00000000  0.92422287  0.67870709  1
  P  P26  1  0.50000000  0.47642265  0.61272359  1
  P  P27  1  0.50000000  0.13630093  0.52357735  1
  P  P28  1  0.50000000  0.38727641  0.86369907  1
  P  P29  1  0.50000000  0.72003575  0.95019421  1
  P  P30  1  0.50000000  0.23015846  0.27996425  1
  P  P31  1  0.50000000  0.04980579  0.76984154  1
  P  P32  1  0.00000000  0.86374083  0.47684447  1
  P  P33  1  -0.00000000  0.61310364  0.13625917  1
  P  P34  1  0.00000000  0.52315553  0.38689636  1
  P  P35  1  0.00000000  0.94987990  0.23214295  1
  P  P36  1  -0.00000000  0.28226305  0.05012010  1
  P  P37  1  -0.00000000  0.76785705  0.71773695  1
  P  P38  1  -0.00000000  0.00000000  0.00000000  1
