# generated using pymatgen
data_ReF6
_symmetry_space_group_name_H-M   'P 1'
_cell_length_a   5.01659708
_cell_length_b   8.68700708
_cell_length_c   9.48487826
_cell_angle_alpha   90.00000000
_cell_angle_beta   90.00000000
_cell_angle_gamma   90.00000000
_symmetry_Int_Tables_number   1
_chemical_formula_structural   ReF6
_chemical_formula_sum   'Re4 F24'
_cell_volume   413.34354279
_cell_formula_units_Z   4
loop_
 _symmetry_equiv_pos_site_id
 _symmetry_equiv_pos_as_xyz
  1  'x, y, z'
loop_
 _atom_site_type_symbol
 _atom_site_label
 _atom_site_symmetry_multiplicity
 _atom_site_fract_x
 _atom_site_fract_y
 _atom_site_fract_z
 _atom_site_occupancy
  Re  Re0  1  0.58053175  0.75000000  0.87060965  1
  Re  Re1  1  0.41946825  0.25000000  0.12939035  1
  Re  Re2  1  0.08053175  0.25000000  0.62939035  1
  Re  Re3  1  0.91946825  0.75000000  0.37060965  1
  F  F4  1  0.27819826  0.75000000  0.98504025  1
  F  F5  1  0.72180174  0.25000000  0.01495975  1
  F  F6  1  0.77819826  0.25000000  0.51495975  1
  F  F7  1  0.22180174  0.75000000  0.48504025  1
  F  F8  1  0.88280076  0.75000000  0.75558766  1
  F  F9  1  0.11719924  0.25000000  0.24441234  1
  F  F10  1  0.38280076  0.25000000  0.74441234  1
  F  F11  1  0.61719924  0.75000000  0.25558766  1
  F  F12  1  0.73528095  0.90184410  0.98327628  1
  F  F13  1  0.26471905  0.09815590  0.01672372  1
  F  F14  1  0.23528095  0.09815590  0.51672372  1
  F  F15  1  0.26471905  0.40184410  0.01672372  1
  F  F16  1  0.76471905  0.90184410  0.48327628  1
  F  F17  1  0.73528095  0.59815590  0.98327628  1
  F  F18  1  0.76471905  0.59815590  0.48327628  1
  F  F19  1  0.23528095  0.40184410  0.51672372  1
  F  F20  1  0.42715494  0.90227011  0.75816805  1
  F  F21  1  0.57284506  0.09772989  0.24183195  1
  F  F22  1  0.92715494  0.09772989  0.74183195  1
  F  F23  1  0.57284506  0.40227011  0.24183195  1
  F  F24  1  0.07284506  0.90227011  0.25816805  1
  F  F25  1  0.42715494  0.59772989  0.75816805  1
  F  F26  1  0.07284506  0.59772989  0.25816805  1
  F  F27  1  0.92715494  0.40227011  0.74183195  1
