# generated using pymatgen
data_Rb3Au3I8
_symmetry_space_group_name_H-M   'P 1'
_cell_length_a   8.09441359
_cell_length_b   8.09441359
_cell_length_c   20.73222830
_cell_angle_alpha   84.28013807
_cell_angle_beta   84.28013807
_cell_angle_gamma   65.21070748
_symmetry_Int_Tables_number   1
_chemical_formula_structural   Rb3Au3I8
_chemical_formula_sum   'Rb6 Au6 I16'
_cell_volume   1224.53926977
_cell_formula_units_Z   2
loop_
 _symmetry_equiv_pos_site_id
 _symmetry_equiv_pos_as_xyz
  1  'x, y, z'
loop_
 _atom_site_type_symbol
 _atom_site_label
 _atom_site_symmetry_multiplicity
 _atom_site_fract_x
 _atom_site_fract_y
 _atom_site_fract_z
 _atom_site_occupancy
  Rb  Rb0  1  0.32312216  0.31360891  0.58503598  1
  Rb  Rb1  1  0.67687784  0.68639109  0.41496402  1
  Rb  Rb2  1  0.68639109  0.67687784  0.91496402  1
  Rb  Rb3  1  0.31360891  0.32312216  0.08503598  1
  Rb  Rb4  1  0.01558760  0.98441240  0.75000000  1
  Rb  Rb5  1  0.98441240  0.01558760  0.25000000  1
  Au  Au6  1  0.00000000  0.00000000  0.00000000  1
  Au  Au7  1  0.00000000  0.00000000  0.50000000  1
  Au  Au8  1  0.38431814  0.38008242  0.81071393  1
  Au  Au9  1  0.61568186  0.61991758  0.18928607  1
  Au  Au10  1  0.61991758  0.61568186  0.68928607  1
  Au  Au11  1  0.38008242  0.38431814  0.31071393  1
  I  I12  1  0.67323258  0.24389348  0.87667143  1
  I  I13  1  0.32676742  0.75610652  0.12332857  1
  I  I14  1  0.75610652  0.32676742  0.62332857  1
  I  I15  1  0.24389348  0.67323258  0.37667143  1
  I  I16  1  0.50105781  0.90439028  0.75507549  1
  I  I17  1  0.49894219  0.09560972  0.24492451  1
  I  I18  1  0.09560972  0.49894219  0.74492451  1
  I  I19  1  0.90439028  0.50105781  0.25507549  1
  I  I20  1  0.21234786  0.15237896  0.93472430  1
  I  I21  1  0.78765214  0.84762104  0.06527570  1
  I  I22  1  0.84762104  0.78765214  0.56527570  1
  I  I23  1  0.15237896  0.21234786  0.43472430  1
  I  I24  1  0.29283478  0.84095793  0.57285975  1
  I  I25  1  0.70716522  0.15904207  0.42714025  1
  I  I26  1  0.15904207  0.70716522  0.92714025  1
  I  I27  1  0.84095793  0.29283478  0.07285975  1
