# generated using pymatgen
data_Sr2TlBr5
_symmetry_space_group_name_H-M   'P 1'
_cell_length_a   8.51012860
_cell_length_b   9.44169162
_cell_length_c   13.51189003
_cell_angle_alpha   90.02809755
_cell_angle_beta   90.00000000
_cell_angle_gamma   90.00000000
_symmetry_Int_Tables_number   1
_chemical_formula_structural   Sr2TlBr5
_chemical_formula_sum   'Sr8 Tl4 Br20'
_cell_volume   1085.68036761
_cell_formula_units_Z   4
loop_
 _symmetry_equiv_pos_site_id
 _symmetry_equiv_pos_as_xyz
  1  'x, y, z'
loop_
 _atom_site_type_symbol
 _atom_site_label
 _atom_site_symmetry_multiplicity
 _atom_site_fract_x
 _atom_site_fract_y
 _atom_site_fract_z
 _atom_site_occupancy
  Sr  Sr0  1  0.97700294  0.99984122  0.67900675  1
  Sr  Sr1  1  0.02299706  0.00015878  0.32099325  1
  Sr  Sr2  1  0.47700294  0.00015878  0.82099325  1
  Sr  Sr3  1  0.52299706  0.99984122  0.17900675  1
  Sr  Sr4  1  0.92494581  0.75161272  0.99318890  1
  Sr  Sr5  1  0.07505419  0.24838728  0.00681110  1
  Sr  Sr6  1  0.42494581  0.24838728  0.50681110  1
  Sr  Sr7  1  0.57505419  0.75161272  0.49318890  1
  Tl  Tl8  1  0.98519037  0.50881807  0.67801601  1
  Tl  Tl9  1  0.01480963  0.49118193  0.32198399  1
  Tl  Tl10  1  0.48519037  0.49118193  0.82198399  1
  Tl  Tl11  1  0.51480963  0.50881807  0.17801601  1
  Br  Br12  1  0.83792029  0.46266481  0.91008823  1
  Br  Br13  1  0.16207971  0.53733519  0.08991177  1
  Br  Br14  1  0.33792029  0.53733519  0.58991177  1
  Br  Br15  1  0.66207971  0.46266481  0.41008823  1
  Br  Br16  1  0.16201665  0.78153904  0.81553027  1
  Br  Br17  1  0.83798335  0.21846096  0.18446973  1
  Br  Br18  1  0.66201665  0.21846096  0.68446973  1
  Br  Br19  1  0.33798335  0.78153904  0.31553027  1
  Br  Br20  1  0.69441767  0.77384869  0.71645639  1
  Br  Br21  1  0.30558233  0.22615131  0.28354361  1
  Br  Br22  1  0.19441767  0.22615131  0.78354361  1
  Br  Br23  1  0.80558233  0.77384869  0.21645639  1
  Br  Br24  1  0.54502771  0.78328877  0.99715410  1
  Br  Br25  1  0.45497229  0.21671123  0.00284590  1
  Br  Br26  1  0.04502771  0.21671123  0.50284590  1
  Br  Br27  1  0.95497229  0.78328877  0.49715410  1
  Br  Br28  1  0.33873133  0.95779042  0.59879130  1
  Br  Br29  1  0.66126867  0.04220958  0.40120870  1
  Br  Br30  1  0.83873133  0.04220958  0.90120870  1
  Br  Br31  1  0.16126867  0.95779042  0.09879130  1
