# generated using pymatgen
data_Sr3Sn4Bi
_symmetry_space_group_name_H-M   'P 1'
_cell_length_a   8.99729815
_cell_length_b   8.99729815
_cell_length_c   9.08274331
_cell_angle_alpha   119.68928697
_cell_angle_beta   119.68928697
_cell_angle_gamma   90.00000000
_symmetry_Int_Tables_number   1
_chemical_formula_structural   Sr3Sn4Bi
_chemical_formula_sum   'Sr6 Sn8 Bi2'
_cell_volume   524.75317294
_cell_formula_units_Z   2
loop_
 _symmetry_equiv_pos_site_id
 _symmetry_equiv_pos_as_xyz
  1  'x, y, z'
loop_
 _atom_site_type_symbol
 _atom_site_label
 _atom_site_symmetry_multiplicity
 _atom_site_fract_x
 _atom_site_fract_y
 _atom_site_fract_z
 _atom_site_occupancy
  Sr  Sr0  1  0.25000000  0.25000000  0.50000000  1
  Sr  Sr1  1  0.75000000  0.75000000  0.50000000  1
  Sr  Sr2  1  0.66402842  0.16402842  0.00000000  1
  Sr  Sr3  1  0.33597158  0.83597158  1.00000000  1
  Sr  Sr4  1  0.83597158  0.66402842  0.00000000  1
  Sr  Sr5  1  0.16402842  0.33597158  0.00000000  1
  Sn  Sn6  1  0.32895427  0.82895427  0.37436802  1
  Sn  Sn7  1  0.67104573  0.17104573  0.62563198  1
  Sn  Sn8  1  0.04541375  0.54541375  0.37436802  1
  Sn  Sn9  1  0.54541375  0.32895427  0.37436802  1
  Sn  Sn10  1  0.17104573  0.95458625  0.62563198  1
  Sn  Sn11  1  0.95458625  0.45458625  0.62563198  1
  Sn  Sn12  1  0.45458625  0.67104573  0.62563198  1
  Sn  Sn13  1  0.82895427  0.04541375  0.37436802  1
  Bi  Bi14  1  0.00000000  0.00000000  0.00000000  1
  Bi  Bi15  1  0.50000000  0.50000000  0.00000000  1
