# generated using pymatgen
data_Pr(Al5Fe)2
_symmetry_space_group_name_H-M   'P 1'
_cell_length_a   6.86250890
_cell_length_b   6.86250890
_cell_length_c   9.12634587
_cell_angle_alpha   90.00000000
_cell_angle_beta   90.00000000
_cell_angle_gamma   97.23641544
_symmetry_Int_Tables_number   1
_chemical_formula_structural   Pr(Al5Fe)2
_chemical_formula_sum   'Pr2 Al20 Fe4'
_cell_volume   426.37299583
_cell_formula_units_Z   2
loop_
 _symmetry_equiv_pos_site_id
 _symmetry_equiv_pos_as_xyz
  1  'x, y, z'
loop_
 _atom_site_type_symbol
 _atom_site_label
 _atom_site_symmetry_multiplicity
 _atom_site_fract_x
 _atom_site_fract_y
 _atom_site_fract_z
 _atom_site_occupancy
  Pr  Pr0  1  0.87619971  0.12380029  0.75000000  1
  Pr  Pr1  1  0.12380029  0.87619971  0.25000000  1
  Al  Al2  1  0.62486013  0.37513987  0.95328437  1
  Al  Al3  1  0.37513987  0.62486013  0.04671563  1
  Al  Al4  1  0.37513987  0.62486013  0.45328437  1
  Al  Al5  1  0.62486013  0.37513987  0.54671563  1
  Al  Al6  1  0.77067529  0.77067529  -0.00000000  1
  Al  Al7  1  0.22932471  0.22932471  -0.00000000  1
  Al  Al8  1  0.22932471  0.22932471  0.50000000  1
  Al  Al9  1  0.77067529  0.77067529  0.50000000  1
  Al  Al10  1  0.84028552  0.15971448  0.40196222  1
  Al  Al11  1  0.15971448  0.84028552  0.59803778  1
  Al  Al12  1  0.15971448  0.84028552  0.90196222  1
  Al  Al13  1  0.84028552  0.15971448  0.09803778  1
  Al  Al14  1  0.41353879  0.13359732  0.75000000  1
  Al  Al15  1  0.58646121  0.86640268  0.25000000  1
  Al  Al16  1  0.86640268  0.58646121  0.75000000  1
  Al  Al17  1  0.13359732  0.41353879  0.25000000  1
  Al  Al18  1  0.51999378  0.77848899  0.75000000  1
  Al  Al19  1  0.48000622  0.22151101  0.25000000  1
  Al  Al20  1  0.22151101  0.48000622  0.75000000  1
  Al  Al21  1  0.77848899  0.51999378  0.25000000  1
  Fe  Fe22  1  0.50000000  0.00000000  -0.00000000  1
  Fe  Fe23  1  0.50000000  -0.00000000  0.50000000  1
  Fe  Fe24  1  0.00000000  0.50000000  0.50000000  1
  Fe  Fe25  1  0.00000000  0.50000000  -0.00000000  1
