# generated using pymatgen
data_NdZr6(PO4)9
_symmetry_space_group_name_H-M   'P 1'
_cell_length_a   8.92211208
_cell_length_b   8.92211208
_cell_length_c   23.32313324
_cell_angle_alpha   90.00000000
_cell_angle_beta   90.00000000
_cell_angle_gamma   119.99999731
_symmetry_Int_Tables_number   1
_chemical_formula_structural   NdZr6(PO4)9
_chemical_formula_sum   'Nd2 Zr12 P18 O72'
_cell_volume   1607.87723258
_cell_formula_units_Z   2
loop_
 _symmetry_equiv_pos_site_id
 _symmetry_equiv_pos_as_xyz
  1  'x, y, z'
loop_
 _atom_site_type_symbol
 _atom_site_label
 _atom_site_symmetry_multiplicity
 _atom_site_fract_x
 _atom_site_fract_y
 _atom_site_fract_z
 _atom_site_occupancy
  Nd  Nd0  1  -0.00000000  0.00000000  0.00000000  1
  Nd  Nd1  1  -0.00000000  0.00000000  0.50000000  1
  Zr  Zr2  1  0.66666700  0.33333300  0.97478320  1
  Zr  Zr3  1  0.33333300  0.66666700  0.02521680  1
  Zr  Zr4  1  0.33333300  0.66666700  0.52521680  1
  Zr  Zr5  1  0.66666700  0.33333300  0.47478320  1
  Zr  Zr6  1  -0.00000000  0.00000000  0.84954940  1
  Zr  Zr7  1  -0.00000000  0.00000000  0.15045060  1
  Zr  Zr8  1  -0.00000000  0.00000000  0.65045060  1
  Zr  Zr9  1  -0.00000000  0.00000000  0.34954940  1
  Zr  Zr10  1  0.66666700  0.33333300  0.68689559  1
  Zr  Zr11  1  0.33333300  0.66666700  0.31310441  1
  Zr  Zr12  1  0.33333300  0.66666700  0.81310441  1
  Zr  Zr13  1  0.66666700  0.33333300  0.18689559  1
  P  P14  1  0.62557856  0.94785566  0.92041812  1
  P  P15  1  0.37442144  0.05214434  0.07958188  1
  P  P16  1  0.32227710  0.37442144  0.92041812  1
  P  P17  1  0.67772290  0.05214434  0.57958188  1
  P  P18  1  0.67772290  0.62557856  0.07958188  1
  P  P19  1  0.32227710  0.94785566  0.42041812  1
  P  P20  1  0.05214434  0.67772290  0.92041812  1
  P  P21  1  0.94785566  0.62557856  0.57958188  1
  P  P22  1  0.94785566  0.32227710  0.07958188  1
  P  P23  1  0.05214434  0.37442144  0.42041812  1
  P  P24  1  0.37442144  0.32227710  0.57958188  1
  P  P25  1  0.62557856  0.67772290  0.42041812  1
  P  P26  1  0.70774006  0.70774006  0.75000000  1
  P  P27  1  0.29225994  0.29225994  0.25000000  1
  P  P28  1  1.00000000  0.29225994  0.75000000  1
  P  P29  1  0.00000000  0.70774006  0.25000000  1
  P  P30  1  0.29225994  1.00000000  0.75000000  1
  P  P31  1  0.70774006  0.00000000  0.25000000  1
  O  O32  1  0.54922006  0.82799269  0.97276725  1
  O  O33  1  0.45077994  0.17200731  0.02723275  1
  O  O34  1  0.27877263  0.45077994  0.97276725  1
  O  O35  1  0.72122737  0.17200731  0.52723275  1
  O  O36  1  0.72122737  0.54922006  0.02723275  1
  O  O37  1  0.27877263  0.82799269  0.47276725  1
  O  O38  1  0.17200731  0.72122737  0.97276725  1
  O  O39  1  0.82799269  0.54922006  0.52723275  1
  O  O40  1  0.82799269  0.27877263  0.02723275  1
  O  O41  1  0.17200731  0.45077994  0.47276725  1
  O  O42  1  0.45077994  0.27877263  0.52723275  1
  O  O43  1  0.54922006  0.72122737  0.47276725  1
  O  O44  1  0.62211269  0.11720349  0.92835845  1
  O  O45  1  0.37788731  0.88279651  0.07164155  1
  O  O46  1  0.49509079  0.37788731  0.92835845  1
  O  O47  1  0.50490921  0.88279651  0.57164155  1
  O  O48  1  0.50490921  0.62211269  0.07164155  1
  O  O49  1  0.49509079  0.11720349  0.42835845  1
  O  O50  1  0.88279651  0.50490921  0.92835845  1
  O  O51  1  0.11720349  0.62211269  0.57164155  1
  O  O52  1  0.11720349  0.49509079  0.07164155  1
  O  O53  1  0.88279651  0.37788731  0.42835845  1
  O  O54  1  0.37788731  0.49509079  0.57164155  1
  O  O55  1  0.62211269  0.50490921  0.42835845  1
  O  O56  1  0.82210723  0.99508633  0.91832280  1
  O  O57  1  0.17789277  0.00491367  0.08167720  1
  O  O58  1  0.17297910  0.17789277  0.91832280  1
  O  O59  1  0.82702090  0.00491367  0.58167720  1
  O  O60  1  0.82702090  0.82210723  0.08167720  1
  O  O61  1  0.17297910  0.99508633  0.41832280  1
  O  O62  1  0.00491367  0.82702090  0.91832280  1
  O  O63  1  0.99508633  0.82210723  0.58167720  1
  O  O64  1  0.99508633  0.17297910  0.08167720  1
  O  O65  1  0.00491367  0.17789277  0.41832280  1
  O  O66  1  0.17789277  0.17297910  0.58167720  1
  O  O67  1  0.82210723  0.82702090  0.41832280  1
  O  O68  1  0.96974146  0.17487841  0.80322550  1
  O  O69  1  0.03025854  0.82512159  0.19677450  1
  O  O70  1  0.20513695  0.03025854  0.80322550  1
  O  O71  1  0.79486305  0.82512159  0.69677450  1
  O  O72  1  0.79486305  0.96974146  0.19677450  1
  O  O73  1  0.20513695  0.17487841  0.30322550  1
  O  O74  1  0.82512159  0.79486305  0.80322550  1
  O  O75  1  0.17487841  0.96974146  0.69677450  1
  O  O76  1  0.17487841  0.20513695  0.19677450  1
  O  O77  1  0.82512159  0.03025854  0.30322550  1
  O  O78  1  0.03025854  0.20513695  0.69677450  1
  O  O79  1  0.96974146  0.79486305  0.30322550  1
  O  O80  1  0.53208766  0.85816076  0.86507881  1
  O  O81  1  0.46791234  0.14183924  0.13492119  1
  O  O82  1  0.32607310  0.46791234  0.86507881  1
  O  O83  1  0.67392690  0.14183924  0.63492119  1
  O  O84  1  0.67392690  0.53208766  0.13492119  1
  O  O85  1  0.32607310  0.85816076  0.36507881  1
  O  O86  1  0.14183924  0.67392690  0.86507881  1
  O  O87  1  0.85816076  0.53208766  0.63492119  1
  O  O88  1  0.85816076  0.32607310  0.13492119  1
  O  O89  1  0.14183924  0.46791234  0.36507881  1
  O  O90  1  0.46791234  0.32607310  0.63492119  1
  O  O91  1  0.53208766  0.67392690  0.36507881  1
  O  O92  1  0.53082691  0.69028900  0.76036384  1
  O  O93  1  0.46917309  0.30971100  0.23963616  1
  O  O94  1  0.15946210  0.46917309  0.76036384  1
  O  O95  1  0.84053790  0.30971100  0.73963616  1
  O  O96  1  0.84053790  0.53082691  0.23963616  1
  O  O97  1  0.15946210  0.69028900  0.26036384  1
  O  O98  1  0.30971100  0.84053790  0.76036384  1
  O  O99  1  0.69028900  0.53082691  0.73963616  1
  O  O100  1  0.69028900  0.15946210  0.23963616  1
  O  O101  1  0.30971100  0.46917309  0.26036384  1
  O  O102  1  0.46917309  0.15946210  0.73963616  1
  O  O103  1  0.53082691  0.84053790  0.26036384  1
