# generated using pymatgen
data_NdZr3F15
_symmetry_space_group_name_H-M   'P 1'
_cell_length_a   6.20960213
_cell_length_b   7.51138472
_cell_length_c   7.51138514
_cell_angle_alpha   112.71184411
_cell_angle_beta   105.99562805
_cell_angle_gamma   105.99562898
_symmetry_Int_Tables_number   1
_chemical_formula_structural   NdZr3F15
_chemical_formula_sum   'Nd1 Zr3 F15'
_cell_volume   280.37333526
_cell_formula_units_Z   1
loop_
 _symmetry_equiv_pos_site_id
 _symmetry_equiv_pos_as_xyz
  1  'x, y, z'
loop_
 _atom_site_type_symbol
 _atom_site_label
 _atom_site_symmetry_multiplicity
 _atom_site_fract_x
 _atom_site_fract_y
 _atom_site_fract_z
 _atom_site_occupancy
  Nd  Nd0  1  0.99952306  0.00000000  0.00000000  1
  Zr  Zr1  1  0.36013721  1.00000000  0.56930203  1
  Zr  Zr2  1  0.36013721  0.56930203  0.00000000  1
  Zr  Zr3  1  0.79083518  0.43069797  0.43069797  1
  F  F4  1  0.64691012  0.54334799  0.21369177  1
  F  F5  1  0.10356213  0.67034378  0.45665201  1
  F  F6  1  0.10356213  0.45665201  0.67034378  1
  F  F7  1  0.43321835  0.78630823  0.32965622  1
  F  F8  1  0.43321835  0.32965622  0.78630823  1
  F  F9  1  0.64691012  0.21369177  0.54334799  1
  F  F10  1  0.10147305  1.00000000  0.33955355  1
  F  F11  1  0.10147305  0.33955355  0.00000000  1
  F  F12  1  0.76191951  0.66044645  0.66044645  1
  F  F13  1  0.64384129  0.00000000  0.77898298  1
  F  F14  1  0.64384129  0.77898298  1.00000000  1
  F  F15  1  0.86485832  0.22101702  0.22101702  1
  F  F16  1  0.18400664  0.00000000  0.76451028  1
  F  F17  1  0.18400664  0.76451028  1.00000000  1
  F  F18  1  0.41949636  0.23548972  0.23548972  1
