# generated using pymatgen
data_NaMo3(PO7)2
_symmetry_space_group_name_H-M   'P 1'
_cell_length_a   6.48546374
_cell_length_b   8.68854555
_cell_length_c   10.73623884
_cell_angle_alpha   111.58979444
_cell_angle_beta   90.00000000
_cell_angle_gamma   90.00000000
_symmetry_Int_Tables_number   1
_chemical_formula_structural   NaMo3(PO7)2
_chemical_formula_sum   'Na2 Mo6 P4 O28'
_cell_volume   562.53488578
_cell_formula_units_Z   2
loop_
 _symmetry_equiv_pos_site_id
 _symmetry_equiv_pos_as_xyz
  1  'x, y, z'
loop_
 _atom_site_type_symbol
 _atom_site_label
 _atom_site_symmetry_multiplicity
 _atom_site_fract_x
 _atom_site_fract_y
 _atom_site_fract_z
 _atom_site_occupancy
  Na  Na0  1  0.75000000  0.00952829  0.24490192  1
  Na  Na1  1  0.25000000  0.99047171  0.75509808  1
  Mo  Mo2  1  0.75000000  0.74874159  0.83003014  1
  Mo  Mo3  1  0.25000000  0.25125841  0.16996986  1
  Mo  Mo4  1  0.75000000  0.33443108  0.87693355  1
  Mo  Mo5  1  0.25000000  0.66556892  0.12306645  1
  Mo  Mo6  1  0.75000000  0.73565815  0.50684165  1
  Mo  Mo7  1  0.25000000  0.26434185  0.49315835  1
  P  P8  1  0.75000000  0.38403251  0.19893339  1
  P  P9  1  0.25000000  0.61596749  0.80106661  1
  P  P10  1  0.75000000  0.35119011  0.56274112  1
  P  P11  1  0.25000000  0.64880989  0.43725888  1
  O  O12  1  0.75000000  0.56759259  0.88707169  1
  O  O13  1  0.25000000  0.43240741  0.11292831  1
  O  O14  1  0.75000000  0.91669320  0.97741800  1
  O  O15  1  0.25000000  0.08330680  0.02258200  1
  O  O16  1  0.43834450  0.72912385  0.81003272  1
  O  O17  1  0.56165550  0.27087615  0.18996728  1
  O  O18  1  0.93834450  0.27087615  0.18996728  1
  O  O19  1  0.06165550  0.72912385  0.81003272  1
  O  O20  1  0.75000000  0.85455464  0.70517907  1
  O  O21  1  0.25000000  0.14544536  0.29482093  1
  O  O22  1  0.75000000  0.89140388  0.44546297  1
  O  O23  1  0.25000000  0.10859612  0.55453703  1
  O  O24  1  0.96823606  0.21620386  0.86666255  1
  O  O25  1  0.03176394  0.78379614  0.13333745  1
  O  O26  1  0.46823606  0.78379614  0.13333745  1
  O  O27  1  0.53176394  0.21620386  0.86666255  1
  O  O28  1  0.43831168  0.72111820  0.52788644  1
  O  O29  1  0.56168832  0.27888180  0.47211356  1
  O  O30  1  0.93831168  0.27888180  0.47211356  1
  O  O31  1  0.06168832  0.72111820  0.52788644  1
  O  O32  1  0.75000000  0.53419399  0.33026228  1
  O  O33  1  0.25000000  0.46580601  0.66973772  1
  O  O34  1  0.75000000  0.44634747  0.08076179  1
  O  O35  1  0.25000000  0.55365253  0.91923821  1
  O  O36  1  0.75000000  0.28852827  0.67976154  1
  O  O37  1  0.25000000  0.71147173  0.32023846  1
  O  O38  1  0.75000000  0.54189637  0.61474160  1
  O  O39  1  0.25000000  0.45810363  0.38525840  1
