# generated using pymatgen
data_Nd23Cd4Ir7
_symmetry_space_group_name_H-M   'P 1'
_cell_length_a   10.05121486
_cell_length_b   10.05121486
_cell_length_c   22.64135376
_cell_angle_alpha   90.00000000
_cell_angle_beta   90.00000000
_cell_angle_gamma   120.00000252
_symmetry_Int_Tables_number   1
_chemical_formula_structural   Nd23Cd4Ir7
_chemical_formula_sum   'Nd46 Cd8 Ir14'
_cell_volume   1980.93454163
_cell_formula_units_Z   2
loop_
 _symmetry_equiv_pos_site_id
 _symmetry_equiv_pos_as_xyz
  1  'x, y, z'
loop_
 _atom_site_type_symbol
 _atom_site_label
 _atom_site_symmetry_multiplicity
 _atom_site_fract_x
 _atom_site_fract_y
 _atom_site_fract_z
 _atom_site_occupancy
  Nd  Nd0  1  0.20635394  0.41270789  0.72037133  1
  Nd  Nd1  1  0.20635394  0.79364606  0.72037133  1
  Nd  Nd2  1  0.79364606  0.58729211  0.22037133  1
  Nd  Nd3  1  0.58729211  0.79364606  0.72037133  1
  Nd  Nd4  1  0.79364606  0.20635394  0.22037133  1
  Nd  Nd5  1  0.41270789  0.20635394  0.22037133  1
  Nd  Nd6  1  0.79359612  0.58719224  0.94649849  1
  Nd  Nd7  1  0.79359612  0.20640388  0.94649849  1
  Nd  Nd8  1  0.20640388  0.41280776  0.44649849  1
  Nd  Nd9  1  0.41280776  0.20640388  0.94649849  1
  Nd  Nd10  1  0.20640388  0.79359612  0.44649849  1
  Nd  Nd11  1  0.58719224  0.79359612  0.44649849  1
  Nd  Nd12  1  0.20849058  0.41698117  0.98967414  1
  Nd  Nd13  1  0.20849058  0.79150942  0.98967414  1
  Nd  Nd14  1  0.79150942  0.58301883  0.48967414  1
  Nd  Nd15  1  0.58301883  0.79150942  0.98967414  1
  Nd  Nd16  1  0.79150942  0.20849058  0.48967414  1
  Nd  Nd17  1  0.41698117  0.20849058  0.48967414  1
  Nd  Nd18  1  0.87263241  0.74526481  0.63601488  1
  Nd  Nd19  1  0.87263241  0.12736759  0.63601488  1
  Nd  Nd20  1  0.12736759  0.25473519  0.13601488  1
  Nd  Nd21  1  0.25473519  0.12736759  0.63601488  1
  Nd  Nd22  1  0.12736759  0.87263241  0.13601488  1
  Nd  Nd23  1  0.74526481  0.87263241  0.13601488  1
  Nd  Nd24  1  0.46035885  0.92071771  0.85586484  1
  Nd  Nd25  1  0.46035885  0.53964115  0.85586484  1
  Nd  Nd26  1  0.53964115  0.07928229  0.35586484  1
  Nd  Nd27  1  0.07928229  0.53964115  0.85586484  1
  Nd  Nd28  1  0.53964115  0.46035885  0.35586484  1
  Nd  Nd29  1  0.92071771  0.46035885  0.35586484  1
  Nd  Nd30  1  -0.00000000  0.00000000  0.99782943  1
  Nd  Nd31  1  -0.00000000  0.00000000  0.49782943  1
  Nd  Nd32  1  0.46119667  0.92239334  0.58572063  1
  Nd  Nd33  1  0.46119667  0.53880333  0.58572063  1
  Nd  Nd34  1  0.53880333  0.07760666  0.08572063  1
  Nd  Nd35  1  0.07760666  0.53880333  0.58572063  1
  Nd  Nd36  1  0.53880333  0.46119667  0.08572063  1
  Nd  Nd37  1  0.92239334  0.46119667  0.08572063  1
  Nd  Nd38  1  0.79803766  0.59607531  0.78243283  1
  Nd  Nd39  1  0.79803766  0.20196234  0.78243283  1
  Nd  Nd40  1  0.20196234  0.40392469  0.28243283  1
  Nd  Nd41  1  0.40392469  0.20196234  0.78243283  1
  Nd  Nd42  1  0.20196234  0.79803766  0.28243283  1
  Nd  Nd43  1  0.59607531  0.79803766  0.28243283  1
  Nd  Nd44  1  0.66666700  0.33333300  0.64539113  1
  Nd  Nd45  1  0.33333300  0.66666700  0.14539113  1
  Cd  Cd46  1  -0.00000000  0.00000000  0.74965213  1
  Cd  Cd47  1  -0.00000000  0.00000000  0.24965213  1
  Cd  Cd48  1  0.10694144  0.21388288  0.86348566  1
  Cd  Cd49  1  0.10694144  0.89305856  0.86348566  1
  Cd  Cd50  1  0.89305856  0.78611712  0.36348566  1
  Cd  Cd51  1  0.78611712  0.89305856  0.86348566  1
  Cd  Cd52  1  0.89305856  0.10694144  0.36348566  1
  Cd  Cd53  1  0.21388288  0.10694144  0.36348566  1
  Ir  Ir54  1  0.52066230  0.04132459  0.71019329  1
  Ir  Ir55  1  0.52066230  0.47933770  0.71019329  1
  Ir  Ir56  1  0.47933770  0.95867541  0.21019329  1
  Ir  Ir57  1  0.95867541  0.47933770  0.71019329  1
  Ir  Ir58  1  0.47933770  0.52066230  0.21019329  1
  Ir  Ir59  1  0.04132459  0.52066230  0.21019329  1
  Ir  Ir60  1  0.66666700  0.33333300  0.86389507  1
  Ir  Ir61  1  0.33333300  0.66666700  0.36389507  1
  Ir  Ir62  1  0.14392892  0.28785785  0.56306133  1
  Ir  Ir63  1  0.14392892  0.85607108  0.56306133  1
  Ir  Ir64  1  0.85607108  0.71214215  0.06306133  1
  Ir  Ir65  1  0.71214215  0.85607108  0.56306133  1
  Ir  Ir66  1  0.85607108  0.14392892  0.06306133  1
  Ir  Ir67  1  0.28785785  0.14392892  0.06306133  1
