# generated using pymatgen
data_P3(PbO3)4
_symmetry_space_group_name_H-M   'P 1'
_cell_length_a   9.18610705
_cell_length_b   9.18610705
_cell_length_c   9.18610705
_cell_angle_alpha   109.47122063
_cell_angle_beta   109.47122063
_cell_angle_gamma   109.47122063
_symmetry_Int_Tables_number   1
_chemical_formula_structural   P3(PbO3)4
_chemical_formula_sum   'P6 Pb8 O24'
_cell_volume   596.72277825
_cell_formula_units_Z   2
loop_
 _symmetry_equiv_pos_site_id
 _symmetry_equiv_pos_as_xyz
  1  'x, y, z'
loop_
 _atom_site_type_symbol
 _atom_site_label
 _atom_site_symmetry_multiplicity
 _atom_site_fract_x
 _atom_site_fract_y
 _atom_site_fract_z
 _atom_site_occupancy
  P  P0  1  0.62500000  0.37500000  0.75000000  1
  P  P1  1  0.87500000  0.12500000  0.25000000  1
  P  P2  1  0.37500000  0.75000000  0.62500000  1
  P  P3  1  0.12500000  0.25000000  0.87500000  1
  P  P4  1  0.75000000  0.62500000  0.37500000  1
  P  P5  1  0.25000000  0.87500000  0.12500000  1
  Pb  Pb6  1  0.84962369  0.84962369  0.84962369  1
  Pb  Pb7  1  0.65037631  0.00000000  0.50000000  1
  Pb  Pb8  1  0.50000000  0.65037631  -0.00000000  1
  Pb  Pb9  1  0.34962369  0.34962369  0.34962369  1
  Pb  Pb10  1  0.00000000  0.50000000  0.65037631  1
  Pb  Pb11  1  0.15037631  -0.00000000  0.50000000  1
  Pb  Pb12  1  0.00000000  0.50000000  0.15037631  1
  Pb  Pb13  1  0.50000000  0.15037631  -0.00000000  1
  O  O14  1  0.80742494  0.65483751  0.56725461  1
  O  O15  1  0.69257506  0.75982967  0.34741257  1
  O  O16  1  0.41241709  0.84516249  0.15258743  1
  O  O17  1  0.65483751  0.56725461  0.80742494  1
  O  O18  1  0.30742494  0.06725461  0.15483751  1
  O  O19  1  0.08758291  0.74017033  0.93274539  1
  O  O20  1  0.75982967  0.34741257  0.69257506  1
  O  O21  1  0.19257506  0.84741257  0.25982967  1
  O  O22  1  0.84516249  0.15258743  0.41241709  1
  O  O23  1  0.91241709  0.65258743  0.34516249  1
  O  O24  1  0.74017033  0.93274539  0.08758291  1
  O  O25  1  0.58758291  0.43274539  0.24017033  1
  O  O26  1  0.56725461  0.80742494  0.65483751  1
  O  O27  1  0.15483751  0.30742494  0.06725461  1
  O  O28  1  0.15258743  0.41241709  0.84516249  1
  O  O29  1  0.34516249  0.91241709  0.65258743  1
  O  O30  1  0.93274539  0.08758291  0.74017033  1
  O  O31  1  0.24017033  0.58758291  0.43274539  1
  O  O32  1  0.34741257  0.69257506  0.75982967  1
  O  O33  1  0.25982967  0.19257506  0.84741257  1
  O  O34  1  0.06725461  0.15483751  0.30742494  1
  O  O35  1  0.84741257  0.25982967  0.19257506  1
  O  O36  1  0.43274539  0.24017033  0.58758291  1
  O  O37  1  0.65258743  0.34516249  0.91241709  1
