# generated using pymatgen
data_Nd3VGeO9
_symmetry_space_group_name_H-M   'P 1'
_cell_length_a   7.13762552
_cell_length_b   9.42391088
_cell_length_c   12.61552473
_cell_angle_alpha   90.00000000
_cell_angle_beta   90.00000000
_cell_angle_gamma   107.70945141
_symmetry_Int_Tables_number   1
_chemical_formula_structural   Nd3VGeO9
_chemical_formula_sum   'Nd12 V4 Ge4 O36'
_cell_volume   808.36217587
_cell_formula_units_Z   4
loop_
 _symmetry_equiv_pos_site_id
 _symmetry_equiv_pos_as_xyz
  1  'x, y, z'
loop_
 _atom_site_type_symbol
 _atom_site_label
 _atom_site_symmetry_multiplicity
 _atom_site_fract_x
 _atom_site_fract_y
 _atom_site_fract_z
 _atom_site_occupancy
  Nd  Nd0  1  0.66984467  0.62110376  0.36852420  1
  Nd  Nd1  1  0.33015533  0.37889624  0.63147580  1
  Nd  Nd2  1  0.83015533  0.87889624  0.86852420  1
  Nd  Nd3  1  0.16984467  0.12110376  0.13147580  1
  Nd  Nd4  1  0.24069106  0.84374725  0.36446712  1
  Nd  Nd5  1  0.75930894  0.15625275  0.63553288  1
  Nd  Nd6  1  0.25930894  0.65625275  0.86446712  1
  Nd  Nd7  1  0.74069106  0.34374725  0.13553288  1
  Nd  Nd8  1  0.50576688  0.87310124  0.10680223  1
  Nd  Nd9  1  0.49423312  0.12689876  0.89319777  1
  Nd  Nd10  1  0.99423312  0.62689876  0.60680223  1
  Nd  Nd11  1  0.00576688  0.37310124  0.39319777  1
  V  V12  1  0.19778153  0.97883881  0.66258036  1
  V  V13  1  0.80221847  0.02116119  0.33741964  1
  V  V14  1  0.30221847  0.52116119  0.16258036  1
  V  V15  1  0.69778153  0.47883881  0.83741964  1
  Ge  Ge16  1  0.94913373  0.75754625  0.10074336  1
  Ge  Ge17  1  0.05086627  0.24245375  0.89925664  1
  Ge  Ge18  1  0.55086627  0.74245375  0.60074336  1
  Ge  Ge19  1  0.44913373  0.25754625  0.39925664  1
  O  O20  1  0.89694682  0.87120181  0.34072830  1
  O  O21  1  0.10305318  0.12879819  0.65927170  1
  O  O22  1  0.60305318  0.62879819  0.84072830  1
  O  O23  1  0.39694682  0.37120181  0.15927170  1
  O  O24  1  0.65632422  0.59228818  0.57530175  1
  O  O25  1  0.34367578  0.40771182  0.42469825  1
  O  O26  1  0.84367578  0.90771182  0.07530175  1
  O  O27  1  0.15632422  0.09228818  0.92469825  1
  O  O28  1  0.16972101  0.88132853  0.54380614  1
  O  O29  1  0.83027899  0.11867147  0.45619386  1
  O  O30  1  0.33027899  0.61867147  0.04380614  1
  O  O31  1  0.66972101  0.38132853  0.95619386  1
  O  O32  1  0.78633950  0.61212045  0.17229105  1
  O  O33  1  0.21366050  0.38787955  0.82770895  1
  O  O34  1  0.71366050  0.88787955  0.67229105  1
  O  O35  1  0.28633950  0.11212045  0.32770895  1
  O  O36  1  0.07784843  0.83528277  0.75060258  1
  O  O37  1  0.92215157  0.16471723  0.24939742  1
  O  O38  1  0.42215157  0.66471723  0.25060258  1
  O  O39  1  0.57784843  0.33528277  0.74939742  1
  O  O40  1  0.99559759  0.61592223  0.42000364  1
  O  O41  1  0.00440241  0.38407777  0.57999636  1
  O  O42  1  0.50440241  0.88407777  0.92000364  1
  O  O43  1  0.49559759  0.11592223  0.07999636  1
  O  O44  1  0.17248801  0.85929302  0.16905073  1
  O  O45  1  0.82751199  0.14070698  0.83094927  1
  O  O46  1  0.32751199  0.64070698  0.66905073  1
  O  O47  1  0.67248801  0.35929302  0.33094927  1
  O  O48  1  0.56571153  0.96328158  0.28918458  1
  O  O49  1  0.43428847  0.03671842  0.71081542  1
  O  O50  1  0.93428847  0.53671842  0.78918458  1
  O  O51  1  0.06571153  0.46328158  0.21081542  1
  O  O52  1  0.49732673  0.77684261  0.46765755  1
  O  O53  1  0.50267327  0.22315739  0.53234245  1
  O  O54  1  0.00267327  0.72315739  0.96765755  1
  O  O55  1  0.99732673  0.27684261  0.03234245  1
