# generated using pymatgen
data_Nd6Nb4Al43
_symmetry_space_group_name_H-M   'P 1'
_cell_length_a   11.21486502
_cell_length_b   11.21486502
_cell_length_c   17.95683672
_cell_angle_alpha   90.00000000
_cell_angle_beta   90.00000000
_cell_angle_gamma   119.99999800
_symmetry_Int_Tables_number   1
_chemical_formula_structural   Nd6Nb4Al43
_chemical_formula_sum   'Nd12 Nb8 Al86'
_cell_volume   1955.90868848
_cell_formula_units_Z   2
loop_
 _symmetry_equiv_pos_site_id
 _symmetry_equiv_pos_as_xyz
  1  'x, y, z'
loop_
 _atom_site_type_symbol
 _atom_site_label
 _atom_site_symmetry_multiplicity
 _atom_site_fract_x
 _atom_site_fract_y
 _atom_site_fract_z
 _atom_site_occupancy
  Nd  Nd0  1  0.47139369  0.47139369  0.90430921  1
  Nd  Nd1  1  0.52860631  0.52860631  0.09569079  1
  Nd  Nd2  1  0.00000000  0.52860631  0.90430921  1
  Nd  Nd3  1  0.52860631  0.52860631  0.40430921  1
  Nd  Nd4  1  0.00000000  0.52860631  0.59569079  1
  Nd  Nd5  1  1.00000000  0.47139369  0.09569079  1
  Nd  Nd6  1  0.47139369  0.47139369  0.59569079  1
  Nd  Nd7  1  1.00000000  0.47139369  0.40430921  1
  Nd  Nd8  1  0.52860631  0.00000000  0.90430921  1
  Nd  Nd9  1  0.47139369  1.00000000  0.09569079  1
  Nd  Nd10  1  0.47139369  1.00000000  0.40430921  1
  Nd  Nd11  1  0.52860631  0.00000000  0.59569079  1
  Nb  Nb12  1  -0.00000000  0.00000000  -0.00000000  1
  Nb  Nb13  1  -0.00000000  0.00000000  0.50000000  1
  Nb  Nb14  1  0.27243253  0.27243253  0.75000000  1
  Nb  Nb15  1  0.72756747  0.72756747  0.25000000  1
  Nb  Nb16  1  1.00000000  0.72756747  0.75000000  1
  Nb  Nb17  1  0.00000000  0.27243253  0.25000000  1
  Nb  Nb18  1  0.72756747  1.00000000  0.75000000  1
  Nb  Nb19  1  0.27243253  0.00000000  0.25000000  1
  Al  Al20  1  0.85036608  0.44606965  0.75000000  1
  Al  Al21  1  0.14963392  0.55393035  0.25000000  1
  Al  Al22  1  0.59570357  0.14963392  0.75000000  1
  Al  Al23  1  0.40429643  0.55393035  0.75000000  1
  Al  Al24  1  0.40429643  0.85036608  0.25000000  1
  Al  Al25  1  0.59570357  0.44606965  0.25000000  1
  Al  Al26  1  0.55393035  0.40429643  0.75000000  1
  Al  Al27  1  0.44606965  0.85036608  0.75000000  1
  Al  Al28  1  0.44606965  0.59570357  0.25000000  1
  Al  Al29  1  0.55393035  0.14963392  0.25000000  1
  Al  Al30  1  0.14963392  0.59570357  0.75000000  1
  Al  Al31  1  0.85036608  0.40429643  0.25000000  1
  Al  Al32  1  0.84207382  0.84207382  0.38440311  1
  Al  Al33  1  0.15792618  0.15792618  0.61559689  1
  Al  Al34  1  0.00000000  0.15792618  0.38440311  1
  Al  Al35  1  0.15792618  0.15792618  0.88440311  1
  Al  Al36  1  0.00000000  0.15792618  0.11559689  1
  Al  Al37  1  1.00000000  0.84207382  0.61559689  1
  Al  Al38  1  0.84207382  0.84207382  0.11559689  1
  Al  Al39  1  1.00000000  0.84207382  0.88440311  1
  Al  Al40  1  0.15792618  0.00000000  0.38440311  1
  Al  Al41  1  0.84207382  1.00000000  0.61559689  1
  Al  Al42  1  0.84207382  1.00000000  0.88440311  1
  Al  Al43  1  0.15792618  0.00000000  0.11559689  1
  Al  Al44  1  0.75255329  0.24744671  -0.00000000  1
  Al  Al45  1  0.24744671  0.75255329  -0.00000000  1
  Al  Al46  1  0.49489342  0.24744671  -0.00000000  1
  Al  Al47  1  0.24744671  0.75255329  0.50000000  1
  Al  Al48  1  0.50510658  0.75255329  0.50000000  1
  Al  Al49  1  0.50510658  0.75255329  -0.00000000  1
  Al  Al50  1  0.75255329  0.24744671  0.50000000  1
  Al  Al51  1  0.49489342  0.24744671  0.50000000  1
  Al  Al52  1  0.75255329  0.50510658  -0.00000000  1
  Al  Al53  1  0.24744671  0.49489342  -0.00000000  1
  Al  Al54  1  0.24744671  0.49489342  0.50000000  1
  Al  Al55  1  0.75255329  0.50510658  0.50000000  1
  Al  Al56  1  0.85380465  0.85380465  0.75000000  1
  Al  Al57  1  0.14619535  0.14619535  0.25000000  1
  Al  Al58  1  0.00000000  0.14619535  0.75000000  1
  Al  Al59  1  1.00000000  0.85380465  0.25000000  1
  Al  Al60  1  0.14619535  0.00000000  0.75000000  1
  Al  Al61  1  0.85380465  1.00000000  0.25000000  1
  Al  Al62  1  0.66666700  0.33333300  0.87283901  1
  Al  Al63  1  0.33333300  0.66666700  0.12716099  1
  Al  Al64  1  0.33333300  0.66666700  0.37283901  1
  Al  Al65  1  0.33333300  0.66666700  0.62716099  1
  Al  Al66  1  0.66666700  0.33333300  0.62716099  1
  Al  Al67  1  0.66666700  0.33333300  0.37283901  1
  Al  Al68  1  0.66666700  0.33333300  0.12716099  1
  Al  Al69  1  0.33333300  0.66666700  0.87283901  1
  Al  Al70  1  0.74619212  0.74619212  0.96987677  1
  Al  Al71  1  0.25380788  0.25380788  0.03012323  1
  Al  Al72  1  0.00000000  0.25380788  0.96987677  1
  Al  Al73  1  0.25380788  0.25380788  0.46987677  1
  Al  Al74  1  0.00000000  0.25380788  0.53012323  1
  Al  Al75  1  1.00000000  0.74619212  0.03012323  1
  Al  Al76  1  0.74619212  0.74619212  0.53012323  1
  Al  Al77  1  1.00000000  0.74619212  0.46987677  1
  Al  Al78  1  0.25380788  0.00000000  0.96987677  1
  Al  Al79  1  0.74619212  1.00000000  0.03012323  1
  Al  Al80  1  0.74619212  1.00000000  0.46987677  1
  Al  Al81  1  0.25380788  0.00000000  0.53012323  1
  Al  Al82  1  0.84315481  0.23665649  0.83472116  1
  Al  Al83  1  0.15684519  0.76334351  0.16527884  1
  Al  Al84  1  0.39350168  0.15684519  0.83472116  1
  Al  Al85  1  0.15684519  0.76334351  0.33472116  1
  Al  Al86  1  0.60649832  0.76334351  0.66527884  1
  Al  Al87  1  0.60649832  0.84315481  0.16527884  1
  Al  Al88  1  0.84315481  0.23665649  0.66527884  1
  Al  Al89  1  0.39350168  0.23665649  0.33472116  1
  Al  Al90  1  0.76334351  0.60649832  0.83472116  1
  Al  Al91  1  0.60649832  0.84315481  0.33472116  1
  Al  Al92  1  0.23665649  0.84315481  0.66527884  1
  Al  Al93  1  0.23665649  0.39350168  0.16527884  1
  Al  Al94  1  0.39350168  0.15684519  0.66527884  1
  Al  Al95  1  0.76334351  0.15684519  0.33472116  1
  Al  Al96  1  0.39350168  0.23665649  0.16527884  1
  Al  Al97  1  0.60649832  0.76334351  0.83472116  1
  Al  Al98  1  0.23665649  0.39350168  0.33472116  1
  Al  Al99  1  0.76334351  0.15684519  0.16527884  1
  Al  Al100  1  0.76334351  0.60649832  0.66527884  1
  Al  Al101  1  0.23665649  0.84315481  0.83472116  1
  Al  Al102  1  0.15684519  0.39350168  0.66527884  1
  Al  Al103  1  0.84315481  0.60649832  0.33472116  1
  Al  Al104  1  0.84315481  0.60649832  0.16527884  1
  Al  Al105  1  0.15684519  0.39350168  0.83472116  1
