# generated using pymatgen
data_NaMo6O17
_symmetry_space_group_name_H-M   'P 1'
_cell_length_a   5.65872673
_cell_length_b   9.77748315
_cell_length_c   13.41346898
_cell_angle_alpha   90.54725129
_cell_angle_beta   90.00000000
_cell_angle_gamma   90.00000000
_symmetry_Int_Tables_number   1
_chemical_formula_structural   NaMo6O17
_chemical_formula_sum   'Na2 Mo12 O34'
_cell_volume   742.10797181
_cell_formula_units_Z   2
loop_
 _symmetry_equiv_pos_site_id
 _symmetry_equiv_pos_as_xyz
  1  'x, y, z'
loop_
 _atom_site_type_symbol
 _atom_site_label
 _atom_site_symmetry_multiplicity
 _atom_site_fract_x
 _atom_site_fract_y
 _atom_site_fract_z
 _atom_site_occupancy
  Na  Na0  1  0.75000000  0.92440298  0.90265746  1
  Na  Na1  1  0.25000000  0.07559702  0.09734254  1
  Mo  Mo2  1  0.75000000  0.30979623  0.00823893  1
  Mo  Mo3  1  0.25000000  0.69020377  0.99176107  1
  Mo  Mo4  1  0.75000000  0.58455066  0.32941022  1
  Mo  Mo5  1  0.25000000  0.41544934  0.67058978  1
  Mo  Mo6  1  0.75000000  0.27574826  0.50611804  1
  Mo  Mo7  1  0.25000000  0.72425174  0.49388196  1
  Mo  Mo8  1  0.75000000  0.93410559  0.20080870  1
  Mo  Mo9  1  0.25000000  0.06589441  0.79919130  1
  Mo  Mo10  1  0.75000000  0.91716189  0.63816675  1
  Mo  Mo11  1  0.25000000  0.08283811  0.36183325  1
  Mo  Mo12  1  0.75000000  0.59623607  0.81791511  1
  Mo  Mo13  1  0.25000000  0.40376393  0.18208489  1
  O  O14  1  0.75000000  0.47529469  0.94994804  1
  O  O15  1  0.25000000  0.52470531  0.05005196  1
  O  O16  1  0.75000000  0.40148136  0.40969046  1
  O  O17  1  0.25000000  0.59851864  0.59030954  1
  O  O18  1  0.75000000  0.74030841  0.73605486  1
  O  O19  1  0.25000000  0.25969159  0.26394514  1
  O  O20  1  0.75000000  0.94547406  0.07055800  1
  O  O21  1  0.25000000  0.05452594  0.92944200  1
  O  O22  1  0.98786871  0.97671823  0.75607431  1
  O  O23  1  0.01213129  0.02328177  0.24392569  1
  O  O24  1  0.48786871  0.02328177  0.24392569  1
  O  O25  1  0.51213129  0.97671823  0.75607431  1
  O  O26  1  0.98823523  0.71224335  0.91430097  1
  O  O27  1  0.01176477  0.28775665  0.08569903  1
  O  O28  1  0.48823523  0.28775665  0.08569903  1
  O  O29  1  0.51176477  0.71224335  0.91430097  1
  O  O30  1  0.75000000  0.08823929  0.59256420  1
  O  O31  1  0.25000000  0.91176071  0.40743580  1
  O  O32  1  0.99391266  0.34357805  0.58973551  1
  O  O33  1  0.00608734  0.65642195  0.41026449  1
  O  O34  1  0.49391266  0.65642195  0.41026449  1
  O  O35  1  0.50608734  0.34357805  0.58973551  1
  O  O36  1  0.99381898  0.84359774  0.57165907  1
  O  O37  1  0.00618102  0.15640226  0.42834093  1
  O  O38  1  0.49381898  0.15640226  0.42834093  1
  O  O39  1  0.50618102  0.84359774  0.57165907  1
  O  O40  1  0.75000000  0.18316592  0.91579862  1
  O  O41  1  0.25000000  0.81683408  0.08420138  1
  O  O42  1  0.99560541  0.50109895  0.76785211  1
  O  O43  1  0.00439459  0.49890105  0.23214789  1
  O  O44  1  0.49560541  0.49890105  0.23214789  1
  O  O45  1  0.50439459  0.50109895  0.76785211  1
  O  O46  1  0.75000000  0.75964959  0.24077041  1
  O  O47  1  0.25000000  0.24035041  0.75922959  1
