# generated using pymatgen
data_Gd2Cu(GeO4)2
_symmetry_space_group_name_H-M   'P 1'
_cell_length_a   5.17674222
_cell_length_b   8.31699750
_cell_length_c   9.04100148
_cell_angle_alpha   117.13668963
_cell_angle_beta   106.26706219
_cell_angle_gamma   90.76954420
_symmetry_Int_Tables_number   1
_chemical_formula_structural   Gd2Cu(GeO4)2
_chemical_formula_sum   'Gd4 Cu2 Ge4 O16'
_cell_volume   327.96908265
_cell_formula_units_Z   2
loop_
 _symmetry_equiv_pos_site_id
 _symmetry_equiv_pos_as_xyz
  1  'x, y, z'
loop_
 _atom_site_type_symbol
 _atom_site_label
 _atom_site_symmetry_multiplicity
 _atom_site_fract_x
 _atom_site_fract_y
 _atom_site_fract_z
 _atom_site_occupancy
  Gd  Gd0  1  0.11629266  0.29875264  0.75964221  1
  Gd  Gd1  1  0.35665046  0.53911044  0.24035779  1
  Gd  Gd2  1  0.36598193  0.04378503  0.24167342  1
  Gd  Gd3  1  0.12430851  0.80211161  0.75832658  1
  Cu  Cu4  1  0.54774382  0.92551102  0.58572994  1
  Cu  Cu5  1  0.96201388  0.33978108  0.41427006  1
  Ge  Ge6  1  0.78711783  0.16281308  1.00000000  1
  Ge  Ge7  1  0.96972290  0.88825424  0.42040189  1
  Ge  Ge8  1  0.54932100  0.46785235  0.57959811  1
  Ge  Ge9  1  0.69056655  0.66651844  1.00000000  1
  O  O10  1  0.16742770  0.09305198  0.46771817  1
  O  O11  1  0.69970953  0.62533381  0.53228183  1
  O  O12  1  0.48343563  0.06455071  0.81269106  1
  O  O13  1  0.67074457  0.25185965  0.18730894  1
  O  O14  1  0.48429462  0.49402143  0.00000000  1
  O  O15  1  0.19704209  0.74996734  0.48246082  1
  O  O16  1  0.71458127  0.26750652  0.51753918  1
  O  O17  1  0.00056797  0.75787991  0.18437449  1
  O  O18  1  0.81619348  0.57350542  0.81562551  1
  O  O19  1  0.99850869  0.33493191  1.00000000  1
  O  O20  1  0.48323142  0.83442091  0.00000000  1
  O  O21  1  0.59803223  0.83956809  0.34260129  1
  O  O22  1  0.25543094  0.49696680  0.65739871  1
  O  O23  1  0.00596465  0.99774666  1.00000000  1
  O  O24  1  0.93014289  0.00228454  0.65597012  1
  O  O25  1  0.27417277  0.34631442  0.34402988  1
