# generated using pymatgen
data_K3TbF6
_symmetry_space_group_name_H-M   'P 1'
_cell_length_a   6.43453386
_cell_length_b   6.64779087
_cell_length_c   9.15624955
_cell_angle_alpha   90.00000000
_cell_angle_beta   90.43410611
_cell_angle_gamma   90.00000000
_symmetry_Int_Tables_number   1
_chemical_formula_structural   K3TbF6
_chemical_formula_sum   'K6 Tb2 F12'
_cell_volume   391.65132004
_cell_formula_units_Z   2
loop_
 _symmetry_equiv_pos_site_id
 _symmetry_equiv_pos_as_xyz
  1  'x, y, z'
loop_
 _atom_site_type_symbol
 _atom_site_label
 _atom_site_symmetry_multiplicity
 _atom_site_fract_x
 _atom_site_fract_y
 _atom_site_fract_z
 _atom_site_occupancy
  K  K0  1  0.00000000  0.00000000  0.50000000  1
  K  K1  1  0.50000000  0.50000000  -0.00000000  1
  K  K2  1  0.98715931  0.54882304  0.25386773  1
  K  K3  1  0.01284069  0.45117696  0.74613227  1
  K  K4  1  0.51284069  0.04882304  0.24613227  1
  K  K5  1  0.48715931  0.95117696  0.75386773  1
  Tb  Tb6  1  0.00000000  0.00000000  -0.00000000  1
  Tb  Tb7  1  0.50000000  0.50000000  0.50000000  1
  F  F8  1  0.83264353  0.27465292  0.06759503  1
  F  F9  1  0.16735647  0.72534708  0.93240497  1
  F  F10  1  0.66735647  0.77465292  0.43240497  1
  F  F11  1  0.33264353  0.22534708  0.56759503  1
  F  F12  1  0.11092398  0.94469670  0.22537184  1
  F  F13  1  0.88907602  0.05530330  0.77462816  1
  F  F14  1  0.38907602  0.44469670  0.27462816  1
  F  F15  1  0.61092398  0.55530330  0.72537184  1
  F  F16  1  0.71848802  0.82597753  0.05067598  1
  F  F17  1  0.28151198  0.17402247  0.94932402  1
  F  F18  1  0.78151198  0.32597753  0.44932402  1
  F  F19  1  0.21848802  0.67402247  0.55067598  1
