# generated using pymatgen
data_KSm(WO4)2
_symmetry_space_group_name_H-M   'P 1'
_cell_length_a   7.48334624
_cell_length_b   7.48334624
_cell_length_c   7.55997915
_cell_angle_alpha   113.58033599
_cell_angle_beta   113.58033599
_cell_angle_gamma   93.13890002
_symmetry_Int_Tables_number   1
_chemical_formula_structural   KSm(WO4)2
_chemical_formula_sum   'K2 Sm2 W4 O16'
_cell_volume   343.79041312
_cell_formula_units_Z   2
loop_
 _symmetry_equiv_pos_site_id
 _symmetry_equiv_pos_as_xyz
  1  'x, y, z'
loop_
 _atom_site_type_symbol
 _atom_site_label
 _atom_site_symmetry_multiplicity
 _atom_site_fract_x
 _atom_site_fract_y
 _atom_site_fract_z
 _atom_site_occupancy
  K  K0  1  0.68861932  0.68861932  0.52647745  1
  K  K1  1  0.31138068  0.31138068  0.47352255  1
  Sm  Sm2  1  0.69944559  0.30055441  0.00000000  1
  Sm  Sm3  1  0.30055441  0.69944559  0.00000000  1
  W  W4  1  0.20529394  0.20529394  0.94499161  1
  W  W5  1  0.79470606  0.79470606  0.05500839  1
  W  W6  1  0.83788797  0.16211203  0.50000000  1
  W  W7  1  0.16211203  0.83788797  0.50000000  1
  O  O8  1  0.34914385  0.09555690  0.74104506  1
  O  O9  1  0.65085615  0.90444310  0.25895494  1
  O  O10  1  0.90444310  0.65085615  0.25895494  1
  O  O11  1  0.09555690  0.34914385  0.74104506  1
  O  O12  1  0.69171755  0.21673238  0.64946191  1
  O  O13  1  0.30828245  0.78326762  0.35053809  1
  O  O14  1  0.78326762  0.30828245  0.35053809  1
  O  O15  1  0.21673238  0.69171755  0.64946191  1
  O  O16  1  0.70540699  0.96228169  0.93603431  1
  O  O17  1  0.29459301  0.03771831  0.06396569  1
  O  O18  1  0.03771831  0.29459301  0.06396569  1
  O  O19  1  0.96228169  0.70540699  0.93603431  1
  O  O20  1  0.98320273  0.98320273  0.65571935  1
  O  O21  1  0.01679727  0.01679727  0.34428065  1
  O  O22  1  0.57104117  0.57104117  0.88881972  1
  O  O23  1  0.42895883  0.42895883  0.11118028  1
