# generated using pymatgen
data_EuAlGe2O7
_symmetry_space_group_name_H-M   'P 1'
_cell_length_a   6.56403644
_cell_length_b   7.31865303
_cell_length_c   11.53087087
_cell_angle_alpha   97.12584153
_cell_angle_beta   90.00000000
_cell_angle_gamma   90.00000000
_symmetry_Int_Tables_number   1
_chemical_formula_structural   EuAlGe2O7
_chemical_formula_sum   'Eu4 Al4 Ge8 O28'
_cell_volume   549.66334604
_cell_formula_units_Z   4
loop_
 _symmetry_equiv_pos_site_id
 _symmetry_equiv_pos_as_xyz
  1  'x, y, z'
loop_
 _atom_site_type_symbol
 _atom_site_label
 _atom_site_symmetry_multiplicity
 _atom_site_fract_x
 _atom_site_fract_y
 _atom_site_fract_z
 _atom_site_occupancy
  Eu  Eu0  1  0.64574208  0.72993659  0.47374898  1
  Eu  Eu1  1  0.35425792  0.27006341  0.52625102  1
  Eu  Eu2  1  0.14574208  0.77006341  0.02625102  1
  Eu  Eu3  1  0.85425792  0.22993659  0.97374898  1
  Al  Al4  1  0.60115180  0.01807792  0.72946742  1
  Al  Al5  1  0.39884820  0.98192208  0.27053258  1
  Al  Al6  1  0.10115180  0.48192208  0.77053258  1
  Al  Al7  1  0.89884820  0.51807792  0.22946742  1
  Ge  Ge8  1  0.34251048  0.24166828  0.94997396  1
  Ge  Ge9  1  0.65748952  0.75833172  0.05002604  1
  Ge  Ge10  1  0.84251048  0.25833172  0.55002604  1
  Ge  Ge11  1  0.15748952  0.74166828  0.44997396  1
  Ge  Ge12  1  0.09095534  0.91421948  0.71867580  1
  Ge  Ge13  1  0.90904466  0.08578052  0.28132420  1
  Ge  Ge14  1  0.59095534  0.58578052  0.78132420  1
  Ge  Ge15  1  0.40904466  0.41421948  0.21867580  1
  O  O16  1  0.62306792  0.77127726  0.69876789  1
  O  O17  1  0.37693208  0.22872274  0.30123211  1
  O  O18  1  0.12306792  0.72872274  0.80123211  1
  O  O19  1  0.87693208  0.27127726  0.19876789  1
  O  O20  1  0.17539476  0.06950942  0.97700302  1
  O  O21  1  0.82460524  0.93049058  0.02299698  1
  O  O22  1  0.67539476  0.43049058  0.52299698  1
  O  O23  1  0.32460524  0.56950942  0.47700302  1
  O  O24  1  0.38519029  0.44922308  0.72227970  1
  O  O25  1  0.61480971  0.55077692  0.27772030  1
  O  O26  1  0.88519029  0.05077692  0.77772030  1
  O  O27  1  0.11480971  0.94922308  0.22227970  1
  O  O28  1  0.00267523  0.82529737  0.57282665  1
  O  O29  1  0.99732477  0.17470263  0.42717335  1
  O  O30  1  0.50267523  0.67470263  0.92717335  1
  O  O31  1  0.49732477  0.32529737  0.07282665  1
  O  O32  1  0.55245784  0.16141488  0.86479343  1
  O  O33  1  0.44754216  0.83858512  0.13520657  1
  O  O34  1  0.05245784  0.33858512  0.63520657  1
  O  O35  1  0.94754216  0.66141488  0.36479343  1
  O  O36  1  0.16079962  0.40625718  0.91247726  1
  O  O37  1  0.83920038  0.59374282  0.08752274  1
  O  O38  1  0.66079962  0.09374282  0.58752274  1
  O  O39  1  0.33920038  0.90625718  0.41247726  1
  O  O40  1  0.31864123  0.02536484  0.68891610  1
  O  O41  1  0.68135877  0.97463516  0.31108390  1
  O  O42  1  0.81864123  0.47463516  0.81108390  1
  O  O43  1  0.18135877  0.52536484  0.18891610  1
