# generated using pymatgen
data_La5Mg41
_symmetry_space_group_name_H-M   'P 1'
_cell_length_a   10.47219241
_cell_length_b   11.69859851
_cell_length_c   11.69859851
_cell_angle_alpha   78.44370040
_cell_angle_beta   63.41126972
_cell_angle_gamma   63.41126972
_symmetry_Int_Tables_number   1
_chemical_formula_structural   La5Mg41
_chemical_formula_sum   'La5 Mg41'
_cell_volume   1146.08201013
_cell_formula_units_Z   1
loop_
 _symmetry_equiv_pos_site_id
 _symmetry_equiv_pos_as_xyz
  1  'x, y, z'
loop_
 _atom_site_type_symbol
 _atom_site_label
 _atom_site_symmetry_multiplicity
 _atom_site_fract_x
 _atom_site_fract_y
 _atom_site_fract_z
 _atom_site_occupancy
  La  La0  1  0.00000000  -0.00000000  0.00000000  1
  La  La1  1  0.42902967  0.80784873  0.33409194  1
  La  La2  1  0.57097033  0.19215127  0.66590806  1
  La  La3  1  0.76312160  0.66590806  0.80784873  1
  La  La4  1  0.23687840  0.33409194  0.19215127  1
  Mg  Mg5  1  0.22138608  0.90050846  0.65671938  1
  Mg  Mg6  1  0.77861392  0.09949154  0.34328062  1
  Mg  Mg7  1  0.87810546  0.34328062  0.90050846  1
  Mg  Mg8  1  0.12189454  0.65671938  0.09949154  1
  Mg  Mg9  1  0.20814498  0.16584917  0.71184790  1
  Mg  Mg10  1  0.79185502  0.83415083  0.28815210  1
  Mg  Mg11  1  0.08584204  0.83415083  0.28815210  1
  Mg  Mg12  1  0.91999287  0.28815210  0.16584917  1
  Mg  Mg13  1  0.91415796  0.16584917  0.71184790  1
  Mg  Mg14  1  0.08000713  0.71184790  0.83415083  1
  Mg  Mg15  1  0.37399414  0.71184790  0.83415083  1
  Mg  Mg16  1  0.62600586  0.28815210  0.16584917  1
  Mg  Mg17  1  0.01003381  0.39240552  0.58752687  1
  Mg  Mg18  1  0.98996619  0.60759448  0.41247313  1
  Mg  Mg19  1  0.59756068  0.41247313  0.39240552  1
  Mg  Mg20  1  0.40243932  0.58752687  0.60759448  1
  Mg  Mg21  1  0.44568958  0.94067449  0.78713545  1
  Mg  Mg22  1  0.55431042  0.05932551  0.21286455  1
  Mg  Mg23  1  0.17349952  0.05932551  0.21286455  1
  Mg  Mg24  1  0.23282503  0.21286455  0.94067449  1
  Mg  Mg25  1  0.82650048  0.94067449  0.78713545  1
  Mg  Mg26  1  0.76717497  0.78713545  0.05932551  1
  Mg  Mg27  1  0.38636406  0.78713545  0.05932551  1
  Mg  Mg28  1  0.61363594  0.21286455  0.94067449  1
  Mg  Mg29  1  0.21674029  0.12427173  0.44224770  1
  Mg  Mg30  1  0.78325971  0.87572827  0.55775230  1
  Mg  Mg31  1  0.65898798  0.55775230  0.12427173  1
  Mg  Mg32  1  0.34101202  0.44224770  0.87572827  1
  Mg  Mg33  1  0.62594539  0.70948437  0.55634884  1
  Mg  Mg34  1  0.37405461  0.29051563  0.44365116  1
  Mg  Mg35  1  0.89177860  0.29051563  0.44365116  1
  Mg  Mg36  1  0.18229423  0.44365116  0.70948437  1
  Mg  Mg37  1  0.10822140  0.70948437  0.55634884  1
  Mg  Mg38  1  0.81770577  0.55634884  0.29051563  1
  Mg  Mg39  1  0.33542976  0.55634884  0.29051563  1
  Mg  Mg40  1  0.66457024  0.44365116  0.70948437  1
  Mg  Mg41  1  0.50000000  -0.00000000  0.00000000  1
  Mg  Mg42  1  0.50000000  -0.00000000  0.50000000  1
  Mg  Mg43  1  0.00000000  -0.00000000  0.50000000  1
  Mg  Mg44  1  0.00000000  0.50000000  0.00000000  1
  Mg  Mg45  1  0.50000000  0.50000000  0.00000000  1
