# generated using pymatgen
data_La4CdPd
_symmetry_space_group_name_H-M   'P 1'
_cell_length_a   10.22474651
_cell_length_b   10.22474651
_cell_length_c   10.22474651
_cell_angle_alpha   60.00000000
_cell_angle_beta   60.00000000
_cell_angle_gamma   60.00000000
_symmetry_Int_Tables_number   1
_chemical_formula_structural   La4CdPd
_chemical_formula_sum   'La16 Cd4 Pd4'
_cell_volume   755.86224177
_cell_formula_units_Z   4
loop_
 _symmetry_equiv_pos_site_id
 _symmetry_equiv_pos_as_xyz
  1  'x, y, z'
loop_
 _atom_site_type_symbol
 _atom_site_label
 _atom_site_symmetry_multiplicity
 _atom_site_fract_x
 _atom_site_fract_y
 _atom_site_fract_z
 _atom_site_occupancy
  La  La0  1  0.65031559  0.65031559  0.65031559  1
  La  La1  1  0.04905323  0.65031559  0.65031559  1
  La  La2  1  0.65031559  0.04905323  0.65031559  1
  La  La3  1  0.65031559  0.65031559  0.04905323  1
  La  La4  1  0.80799272  0.80799272  0.19200728  1
  La  La5  1  0.19200728  0.19200728  0.80799272  1
  La  La6  1  0.80799272  0.19200728  0.80799272  1
  La  La7  1  0.19200728  0.80799272  0.19200728  1
  La  La8  1  0.19200728  0.80799272  0.80799272  1
  La  La9  1  0.80799272  0.19200728  0.19200728  1
  La  La10  1  0.43568904  0.43568904  0.06431096  1
  La  La11  1  0.06431096  0.06431096  0.43568904  1
  La  La12  1  0.43568904  0.06431096  0.43568904  1
  La  La13  1  0.06431096  0.43568904  0.06431096  1
  La  La14  1  0.06431096  0.43568904  0.43568904  1
  La  La15  1  0.43568904  0.06431096  0.06431096  1
  Cd  Cd16  1  0.41957220  0.41957220  0.41957220  1
  Cd  Cd17  1  0.74128340  0.41957220  0.41957220  1
  Cd  Cd18  1  0.41957220  0.74128340  0.41957220  1
  Cd  Cd19  1  0.41957220  0.41957220  0.74128340  1
  Pd  Pd20  1  0.85759234  0.85759234  0.85759234  1
  Pd  Pd21  1  0.42722298  0.85759234  0.85759234  1
  Pd  Pd22  1  0.85759234  0.42722298  0.85759234  1
  Pd  Pd23  1  0.85759234  0.85759234  0.42722298  1
