# generated using pymatgen
data_K3In(IO3)6
_symmetry_space_group_name_H-M   'P 1'
_cell_length_a   7.10125471
_cell_length_b   7.10125471
_cell_length_c   20.60606288
_cell_angle_alpha   96.99577030
_cell_angle_beta   96.99577030
_cell_angle_gamma   107.04703212
_symmetry_Int_Tables_number   1
_chemical_formula_structural   K3In(IO3)6
_chemical_formula_sum   'K6 In2 I12 O36'
_cell_volume   972.39152776
_cell_formula_units_Z   2
loop_
 _symmetry_equiv_pos_site_id
 _symmetry_equiv_pos_as_xyz
  1  'x, y, z'
loop_
 _atom_site_type_symbol
 _atom_site_label
 _atom_site_symmetry_multiplicity
 _atom_site_fract_x
 _atom_site_fract_y
 _atom_site_fract_z
 _atom_site_occupancy
  K  K0  1  0.50079034  0.49920966  -0.00000000  1
  K  K1  1  0.25079034  0.74920966  0.50000000  1
  K  K2  1  0.46101533  0.45337124  0.80328200  1
  K  K3  1  0.54662876  0.53898467  0.19671800  1
  K  K4  1  0.40773334  0.90008924  0.69671800  1
  K  K5  1  0.09991076  0.59226666  0.30328200  1
  In  In6  1  0.00045647  0.99954353  -0.00000000  1
  In  In7  1  0.75045647  0.24954353  0.50000000  1
  I  I8  1  0.49071137  0.00664193  0.09553346  1
  I  I9  1  0.99335807  0.50928863  0.90446654  1
  I  I10  1  0.14517792  0.16110847  0.40446654  1
  I  I11  1  0.83889153  0.85482208  0.59553346  1
  I  I12  1  0.35471981  0.33943432  0.59737805  1
  I  I13  1  0.66056568  0.64528019  0.40262195  1
  I  I14  1  0.50734175  0.99205627  0.90262195  1
  I  I15  1  0.00794373  0.49265825  0.09737805  1
  I  I16  1  0.56100168  0.06802314  0.31495000  1
  I  I17  1  0.93197686  0.43899832  0.68505000  1
  I  I18  1  0.99605168  0.00307314  0.18505000  1
  I  I19  1  0.99692686  0.00394832  0.81495000  1
  O  O20  1  0.58224040  0.08183020  0.40636798  1
  O  O21  1  0.91816980  0.41775960  0.59363202  1
  O  O22  1  0.92587242  0.92546222  0.09363202  1
  O  O23  1  0.07453778  0.07412758  0.90636798  1
  O  O24  1  0.45371335  0.22116285  0.52819554  1
  O  O25  1  0.77883715  0.54628665  0.47180446  1
  O  O26  1  0.67551781  0.94296731  0.97180446  1
  O  O27  1  0.05703269  0.32448219  0.02819554  1
  O  O28  1  0.73728666  0.38462121  0.09207750  1
  O  O29  1  0.61537879  0.26271334  0.90792250  1
  O  O30  1  0.39520915  0.54254371  0.40792250  1
  O  O31  1  0.45745629  0.60479085  0.59207750  1
  O  O32  1  0.52518609  0.31337193  0.66782450  1
  O  O33  1  0.68662807  0.47481391  0.33217550  1
  O  O34  1  0.60736160  0.89554743  0.83217550  1
  O  O35  1  0.10445257  0.39263840  0.16782450  1
  O  O36  1  0.38543425  0.73573070  0.09186160  1
  O  O37  1  0.26426930  0.61456575  0.90813840  1
  O  O38  1  0.04357265  0.89386910  0.40813840  1
  O  O39  1  0.10613090  0.95642735  0.59186160  1
  O  O40  1  0.32378583  0.05239533  0.02459729  1
  O  O41  1  0.94760467  0.67621417  0.97540271  1
  O  O42  1  0.04918854  0.27779804  0.47540271  1
  O  O43  1  0.72220196  0.95081146  0.52459729  1
  O  O44  1  0.38362323  0.10368196  0.16368769  1
  O  O45  1  0.89631804  0.61637677  0.83631231  1
  O  O46  1  0.96993554  0.18999427  0.33631231  1
  O  O47  1  0.81000573  0.03006446  0.66368769  1
  O  O48  1  0.29957770  0.06541383  0.30366146  1
  O  O49  1  0.93458617  0.70042230  0.69633854  1
  O  O50  1  0.74591624  0.01175237  0.19633854  1
  O  O51  1  0.98824763  0.25408376  0.80366146  1
  O  O52  1  0.51714635  0.79776021  0.30015536  1
  O  O53  1  0.20223979  0.48285365  0.69984464  1
  O  O54  1  0.96699099  0.74760486  0.19984464  1
  O  O55  1  0.25239514  0.03300901  0.80015536  1
