# generated using pymatgen
data_Ho3(GeRh)2
_symmetry_space_group_name_H-M   'P 1'
_cell_length_a   5.58069728
_cell_length_b   7.84347171
_cell_length_c   13.18673904
_cell_angle_alpha   90.00000000
_cell_angle_beta   90.00000000
_cell_angle_gamma   90.00000000
_symmetry_Int_Tables_number   1
_chemical_formula_structural   Ho3(GeRh)2
_chemical_formula_sum   'Ho12 Ge8 Rh8'
_cell_volume   577.21048505
_cell_formula_units_Z   4
loop_
 _symmetry_equiv_pos_site_id
 _symmetry_equiv_pos_as_xyz
  1  'x, y, z'
loop_
 _atom_site_type_symbol
 _atom_site_label
 _atom_site_symmetry_multiplicity
 _atom_site_fract_x
 _atom_site_fract_y
 _atom_site_fract_z
 _atom_site_occupancy
  Ho  Ho0  1  0.63259643  0.25197042  0.25000000  1
  Ho  Ho1  1  0.36740357  0.74802958  0.75000000  1
  Ho  Ho2  1  0.36740357  0.75197042  0.25000000  1
  Ho  Ho3  1  0.63259643  0.24802958  0.75000000  1
  Ho  Ho4  1  0.14722020  0.39342350  0.10054977  1
  Ho  Ho5  1  0.85277980  0.60657650  0.89945023  1
  Ho  Ho6  1  0.85277980  0.60657650  0.60054977  1
  Ho  Ho7  1  0.85277980  0.89342350  0.39945023  1
  Ho  Ho8  1  0.14722020  0.39342350  0.39945023  1
  Ho  Ho9  1  0.14722020  0.10657650  0.60054977  1
  Ho  Ho10  1  0.14722020  0.10657650  0.89945023  1
  Ho  Ho11  1  0.85277980  0.89342350  0.10054977  1
  Ge  Ge12  1  0.12887529  0.10858421  0.25000000  1
  Ge  Ge13  1  0.87112471  0.89141579  0.75000000  1
  Ge  Ge14  1  0.87112471  0.60858421  0.25000000  1
  Ge  Ge15  1  0.12887529  0.39141579  0.75000000  1
  Ge  Ge16  1  0.65881105  0.25000000  -0.00000000  1
  Ge  Ge17  1  0.34118895  0.75000000  -0.00000000  1
  Ge  Ge18  1  0.34118895  0.75000000  0.50000000  1
  Ge  Ge19  1  0.65881105  0.25000000  0.50000000  1
  Rh  Rh20  1  0.37463750  0.03876863  0.09362952  1
  Rh  Rh21  1  0.62536250  0.96123137  0.90637048  1
  Rh  Rh22  1  0.62536250  0.96123137  0.59362952  1
  Rh  Rh23  1  0.62536250  0.53876863  0.40637048  1
  Rh  Rh24  1  0.37463750  0.03876863  0.40637048  1
  Rh  Rh25  1  0.37463750  0.46123137  0.59362952  1
  Rh  Rh26  1  0.37463750  0.46123137  0.90637048  1
  Rh  Rh27  1  0.62536250  0.53876863  0.09362952  1
