# generated using pymatgen
data_FeH7SO8
_symmetry_space_group_name_H-M   'P 1'
_cell_length_a   6.70541092
_cell_length_b   9.03545068
_cell_length_c   11.75842809
_cell_angle_alpha   96.73577489
_cell_angle_beta   95.61288674
_cell_angle_gamma   90.43570555
_symmetry_Int_Tables_number   1
_chemical_formula_structural   FeH7SO8
_chemical_formula_sum   'Fe4 H28 S4 O32'
_cell_volume   703.96042440
_cell_formula_units_Z   4
loop_
 _symmetry_equiv_pos_site_id
 _symmetry_equiv_pos_as_xyz
  1  'x, y, z'
loop_
 _atom_site_type_symbol
 _atom_site_label
 _atom_site_symmetry_multiplicity
 _atom_site_fract_x
 _atom_site_fract_y
 _atom_site_fract_z
 _atom_site_occupancy
  Fe  Fe0  1  0.35681129  0.09011830  0.06368735  1
  Fe  Fe1  1  0.64318871  0.90988170  0.93631265  1
  Fe  Fe2  1  0.26908595  0.07518363  0.76056081  1
  Fe  Fe3  1  0.73091405  0.92481637  0.23943919  1
  H  H4  1  0.65407931  0.40679529  0.29347998  1
  H  H5  1  0.34592069  0.59320471  0.70652002  1
  H  H6  1  0.16615087  0.12261880  0.53913169  1
  H  H7  1  0.83384913  0.87738120  0.46086831  1
  H  H8  1  0.61945051  0.63329874  0.23504420  1
  H  H9  1  0.38054949  0.36670126  0.76495580  1
  H  H10  1  0.17650063  0.37607787  0.21931154  1
  H  H11  1  0.82349937  0.62392213  0.78068846  1
  H  H12  1  0.11540695  0.51296199  0.15269707  1
  H  H13  1  0.88459305  0.48703801  0.84730293  1
  H  H14  1  0.02009789  0.82232082  0.38733891  1
  H  H15  1  0.97990211  0.17767918  0.61266109  1
  H  H16  1  0.29484999  0.70577066  0.45888613  1
  H  H17  1  0.70515001  0.29422934  0.54111387  1
  H  H18  1  0.16222382  0.55199250  0.77488485  1
  H  H19  1  0.83777618  0.44800750  0.22511515  1
  H  H20  1  0.55595898  0.35270119  0.11030959  1
  H  H21  1  0.44404102  0.64729881  0.88969041  1
  H  H22  1  0.54961112  0.26147414  0.70852569  1
  H  H23  1  0.45038888  0.73852586  0.29147431  1
  H  H24  1  0.03381057  0.12115355  0.30782782  1
  H  H25  1  0.96618943  0.87884645  0.69217218  1
  H  H26  1  0.95764894  0.13726532  0.17562281  1
  H  H27  1  0.04235106  0.86273468  0.82437719  1
  H  H28  1  0.43636458  0.70014782  0.02209724  1
  H  H29  1  0.56363542  0.29985218  0.97790276  1
  H  H30  1  0.18819218  0.61879093  0.34070875  1
  H  H31  1  0.81180782  0.38120907  0.65929125  1
  S  S32  1  0.42126371  0.16811155  0.34760038  1
  S  S33  1  0.57873629  0.83188845  0.65239962  1
  S  S34  1  0.05769813  0.78960388  0.06840552  1
  S  S35  1  0.94230187  0.21039612  0.93159448  1
  O  O36  1  0.06273779  0.17003319  0.03876244  1
  O  O37  1  0.93726221  0.82996681  0.96123756  1
  O  O38  1  0.44324805  0.26518334  0.76175764  1
  O  O39  1  0.55675195  0.73481666  0.23824236  1
  O  O40  1  0.68909254  0.45511057  0.22671607  1
  O  O41  1  0.31090746  0.54488943  0.77328393  1
  O  O42  1  0.08066482  0.21809998  0.83984832  1
  O  O43  1  0.91933518  0.78190002  0.16015168  1
  O  O44  1  0.10269658  0.11473452  0.61116248  1
  O  O45  1  0.89730342  0.88526548  0.38883752  1
  O  O46  1  0.53318854  0.02478508  0.33998957  1
  O  O47  1  0.46681146  0.97521492  0.66001043  1
  O  O48  1  0.15168205  0.64529860  0.04532058  1
  O  O49  1  0.84831795  0.35470140  0.95467942  1
  O  O50  1  0.23230309  0.71834251  0.38083669  1
  O  O51  1  0.76769691  0.28165749  0.61916331  1
  O  O52  1  0.24053333  0.14857363  0.40690485  1
  O  O53  1  0.75946667  0.85142637  0.59309515  1
  O  O54  1  0.55214069  0.29311495  0.40345940  1
  O  O55  1  0.44785931  0.70688505  0.59654060  1
  O  O56  1  0.47792282  0.29656333  0.04093783  1
  O  O57  1  0.52207718  0.70343667  0.95906217  1
  O  O58  1  0.38686435  0.01257221  0.90462490  1
  O  O59  1  0.61313565  0.98742779  0.09537510  1
  O  O60  1  0.21188518  0.90807767  0.10965342  1
  O  O61  1  0.78811482  0.09192233  0.89034658  1
  O  O62  1  0.91388574  0.11423771  0.24960803  1
  O  O63  1  0.08611426  0.88576229  0.75039197  1
  O  O64  1  0.09909010  0.46839454  0.22434083  1
  O  O65  1  0.90090990  0.53160546  0.77565917  1
  O  O66  1  0.35022718  0.20080168  0.22677334  1
  O  O67  1  0.64977282  0.79919832  0.77322666  1
