# generated using pymatgen
data_Gd7BP2O17
_symmetry_space_group_name_H-M   'P 1'
_cell_length_a   6.74516990
_cell_length_b   12.18898014
_cell_length_c   17.46943014
_cell_angle_alpha   90.00000000
_cell_angle_beta   90.00000000
_cell_angle_gamma   97.11954923
_symmetry_Int_Tables_number   1
_chemical_formula_structural   Gd7BP2O17
_chemical_formula_sum   'Gd28 B4 P8 O68'
_cell_volume   1425.20549269
_cell_formula_units_Z   4
loop_
 _symmetry_equiv_pos_site_id
 _symmetry_equiv_pos_as_xyz
  1  'x, y, z'
loop_
 _atom_site_type_symbol
 _atom_site_label
 _atom_site_symmetry_multiplicity
 _atom_site_fract_x
 _atom_site_fract_y
 _atom_site_fract_z
 _atom_site_occupancy
  Gd  Gd0  1  0.02301682  0.82019079  0.27569730  1
  Gd  Gd1  1  0.97698318  0.17980921  0.72430270  1
  Gd  Gd2  1  0.47698318  0.67980921  0.77569730  1
  Gd  Gd3  1  0.52301682  0.32019079  0.22430270  1
  Gd  Gd4  1  0.78343643  0.56711965  0.13292360  1
  Gd  Gd5  1  0.21656357  0.43288035  0.86707640  1
  Gd  Gd6  1  0.71656357  0.93288035  0.63292360  1
  Gd  Gd7  1  0.28343643  0.06711965  0.36707640  1
  Gd  Gd8  1  0.49121465  0.80201653  0.39342986  1
  Gd  Gd9  1  0.50878535  0.19798347  0.60657014  1
  Gd  Gd10  1  0.00878535  0.69798347  0.89342986  1
  Gd  Gd11  1  0.99121465  0.30201653  0.10657014  1
  Gd  Gd12  1  0.18952795  0.90449536  0.72633609  1
  Gd  Gd13  1  0.81047205  0.09550464  0.27366391  1
  Gd  Gd14  1  0.31047205  0.59550464  0.22633609  1
  Gd  Gd15  1  0.68952795  0.40449536  0.77366391  1
  Gd  Gd16  1  0.77562166  0.49121242  0.55389102  1
  Gd  Gd17  1  0.22437834  0.50878758  0.44610898  1
  Gd  Gd18  1  0.72437834  0.00878758  0.05389102  1
  Gd  Gd19  1  0.27562166  0.99121242  0.94610898  1
  Gd  Gd20  1  0.98649756  0.78717527  0.48077956  1
  Gd  Gd21  1  0.01350244  0.21282473  0.51922044  1
  Gd  Gd22  1  0.51350244  0.71282473  0.98077956  1
  Gd  Gd23  1  0.48649756  0.28717527  0.01922044  1
  Gd  Gd24  1  0.76003754  0.57397708  0.34595066  1
  Gd  Gd25  1  0.23996246  0.42602292  0.65404934  1
  Gd  Gd26  1  0.73996246  0.92602292  0.84595066  1
  Gd  Gd27  1  0.26003754  0.07397708  0.15404934  1
  B  B28  1  0.25153666  0.99913574  0.56777084  1
  B  B29  1  0.74846334  0.00086426  0.43222916  1
  B  B30  1  0.24846334  0.50086426  0.06777084  1
  B  B31  1  0.75153666  0.49913574  0.93222916  1
  P  P32  1  0.55050650  0.83628158  0.19841499  1
  P  P33  1  0.44949350  0.16371842  0.80158501  1
  P  P34  1  0.94949350  0.66371842  0.69841499  1
  P  P35  1  0.05050650  0.33628158  0.30158501  1
  P  P36  1  0.03602025  0.81723321  0.06263785  1
  P  P37  1  0.96397975  0.18276679  0.93736215  1
  P  P38  1  0.46397975  0.68276679  0.56263785  1
  P  P39  1  0.53602025  0.31723321  0.43736215  1
  O  O40  1  0.47930440  0.90669976  0.13293566  1
  O  O41  1  0.52069560  0.09330024  0.86706434  1
  O  O42  1  0.02069560  0.59330024  0.63293566  1
  O  O43  1  0.97930440  0.40669976  0.36706434  1
  O  O44  1  0.40558406  0.99946014  0.62277891  1
  O  O45  1  0.59441594  0.00053986  0.37722109  1
  O  O46  1  0.09441594  0.50053986  0.12277891  1
  O  O47  1  0.90558406  0.49946014  0.87722109  1
  O  O48  1  0.60415659  0.50707367  0.23408659  1
  O  O49  1  0.39584341  0.49292633  0.76591341  1
  O  O50  1  0.89584341  0.99292633  0.73408659  1
  O  O51  1  0.10415659  0.00707367  0.26591341  1
  O  O52  1  0.80351351  0.75960371  0.36765668  1
  O  O53  1  0.19648649  0.24039629  0.63234332  1
  O  O54  1  0.69648649  0.74039629  0.86765668  1
  O  O55  1  0.30351351  0.25960371  0.13234332  1
  O  O56  1  0.08948681  0.94577711  0.06535842  1
  O  O57  1  0.91051319  0.05422289  0.93464158  1
  O  O58  1  0.41051319  0.55422289  0.56535842  1
  O  O59  1  0.58948681  0.44577711  0.43464158  1
  O  O60  1  0.04929821  0.76094137  0.14007071  1
  O  O61  1  0.95070179  0.23905863  0.85992929  1
  O  O62  1  0.45070179  0.73905863  0.64007071  1
  O  O63  1  0.54929821  0.26094137  0.35992929  1
  O  O64  1  0.08604971  0.88052563  0.85611269  1
  O  O65  1  0.91395029  0.11947437  0.14388731  1
  O  O66  1  0.41395029  0.61947437  0.35611269  1
  O  O67  1  0.58604971  0.38052563  0.64388731  1
  O  O68  1  0.37877058  0.80732008  0.25836993  1
  O  O69  1  0.62122942  0.19267992  0.74163007  1
  O  O70  1  0.12122942  0.69267992  0.75836993  1
  O  O71  1  0.87877058  0.30732008  0.24163007  1
  O  O72  1  0.96220765  0.59662093  0.45698012  1
  O  O73  1  0.03779235  0.40337907  0.54301988  1
  O  O74  1  0.53779235  0.90337907  0.95698012  1
  O  O75  1  0.46220765  0.09662093  0.04301988  1
  O  O76  1  0.17986144  0.77351459  0.00301342  1
  O  O77  1  0.82013856  0.22648541  0.99698658  1
  O  O78  1  0.32013856  0.72648541  0.50301342  1
  O  O79  1  0.67986144  0.27351459  0.49698658  1
  O  O80  1  0.89446794  0.77687215  0.67249230  1
  O  O81  1  0.10553206  0.22312785  0.32750770  1
  O  O82  1  0.60553206  0.72312785  0.17249230  1
  O  O83  1  0.39446794  0.27687215  0.82750770  1
  O  O84  1  0.19157429  0.87477894  0.39122647  1
  O  O85  1  0.80842571  0.12522106  0.60877353  1
  O  O86  1  0.30842571  0.62522106  0.89122647  1
  O  O87  1  0.69157429  0.37477894  0.10877353  1
  O  O88  1  0.82113145  0.80116558  0.03057573  1
  O  O89  1  0.17886855  0.19883442  0.96942427  1
  O  O90  1  0.67886855  0.69883442  0.53057573  1
  O  O91  1  0.32113145  0.30116558  0.46942427  1
  O  O92  1  0.08440267  0.92419274  0.57955032  1
  O  O93  1  0.91559733  0.07580726  0.42044968  1
  O  O94  1  0.41559733  0.57580726  0.07955032  1
  O  O95  1  0.58440267  0.42419274  0.92044968  1
  O  O96  1  0.72261043  0.91860103  0.48748121  1
  O  O97  1  0.27738957  0.08139897  0.51251879  1
  O  O98  1  0.77738957  0.58139897  0.98748121  1
  O  O99  1  0.22261043  0.41860103  0.01251879  1
  O  O100  1  0.99847958  0.62700564  0.25951704  1
  O  O101  1  0.00152042  0.37299436  0.74048296  1
  O  O102  1  0.50152042  0.87299436  0.75951704  1
  O  O103  1  0.49847958  0.12700564  0.24048296  1
  O  O104  1  0.76582398  0.59618553  0.73642480  1
  O  O105  1  0.23417602  0.40381447  0.26357520  1
  O  O106  1  0.73417602  0.90381447  0.23642480  1
  O  O107  1  0.26582398  0.09618553  0.76357520  1
