# generated using pymatgen
data_Eu3Si6N4O9
_symmetry_space_group_name_H-M   'P 1'
_cell_length_a   6.66002190
_cell_length_b   7.17081621
_cell_length_c   7.17081622
_cell_angle_alpha   119.99999841
_cell_angle_beta   90.00000000
_cell_angle_gamma   90.00000000
_symmetry_Int_Tables_number   1
_chemical_formula_structural   Eu3Si6N4O9
_chemical_formula_sum   'Eu3 Si6 N4 O9'
_cell_volume   296.58110566
_cell_formula_units_Z   1
loop_
 _symmetry_equiv_pos_site_id
 _symmetry_equiv_pos_as_xyz
  1  'x, y, z'
loop_
 _atom_site_type_symbol
 _atom_site_label
 _atom_site_symmetry_multiplicity
 _atom_site_fract_x
 _atom_site_fract_y
 _atom_site_fract_z
 _atom_site_occupancy
  Eu  Eu0  1  0.52126131  -0.00000000  -0.00000000  1
  Eu  Eu1  1  0.41667786  0.33333300  0.66666700  1
  Eu  Eu2  1  0.37493329  0.66666700  0.33333300  1
  Si  Si3  1  0.83895409  0.92919478  0.37584301  1
  Si  Si4  1  0.83895409  0.44664822  0.07080522  1
  Si  Si5  1  0.83895409  0.62415699  0.55335178  1
  Si  Si6  1  0.06349588  0.74219154  0.96073280  1
  Si  Si7  1  0.06349588  0.21854127  0.25780846  1
  Si  Si8  1  0.06349588  0.03926720  0.78145873  1
  N  N9  1  0.02255851  -0.00000000  -0.00000000  1
  N  N10  1  0.90189396  0.70499633  0.12826217  1
  N  N11  1  0.90189396  0.42326584  0.29500367  1
  N  N12  1  0.90189396  0.87173783  0.57673416  1
  O  O13  1  0.00217904  0.58432228  0.70502802  1
  O  O14  1  0.00217904  0.12070574  0.41567772  1
  O  O15  1  0.00217904  0.29497198  0.87929426  1
  O  O16  1  0.29722736  0.70050833  0.99316498  1
  O  O17  1  0.29722736  0.29265666  0.29949167  1
  O  O18  1  0.29722736  0.00683502  0.70734334  1
  O  O19  1  0.60627267  0.99229796  0.37196605  1
  O  O20  1  0.60627267  0.37966809  0.00770204  1
  O  O21  1  0.60627267  0.62803395  0.62033191  1
