# generated using pymatgen
data_Fe13Mo9
_symmetry_space_group_name_H-M   'P 1'
_cell_length_a   4.69625338
_cell_length_b   11.01242077
_cell_length_c   11.89736897
_cell_angle_alpha   112.48243774
_cell_angle_beta   90.00000005
_cell_angle_gamma   102.31142795
_symmetry_Int_Tables_number   1
_chemical_formula_structural   Fe13Mo9
_chemical_formula_sum   'Fe26 Mo18'
_cell_volume   553.18818406
_cell_formula_units_Z   2
loop_
 _symmetry_equiv_pos_site_id
 _symmetry_equiv_pos_as_xyz
  1  'x, y, z'
loop_
 _atom_site_type_symbol
 _atom_site_label
 _atom_site_symmetry_multiplicity
 _atom_site_fract_x
 _atom_site_fract_y
 _atom_site_fract_z
 _atom_site_occupancy
  Fe  Fe0  1  0.84698984  0.69397967  0.60776502  1
  Fe  Fe1  1  0.15301016  0.30602033  0.39223498  1
  Fe  Fe2  1  0.40876658  0.31596005  0.56643246  1
  Fe  Fe3  1  0.59123342  0.68403995  0.43356754  1
  Fe  Fe4  1  0.09280653  0.68403995  0.43356754  1
  Fe  Fe5  1  0.90719347  0.31596005  0.56643246  1
  Fe  Fe6  1  0.59820859  0.71897963  0.79001514  1
  Fe  Fe7  1  0.40179141  0.28102037  0.20998486  1
  Fe  Fe8  1  0.87922897  0.28102037  0.20998486  1
  Fe  Fe9  1  0.12077103  0.71897963  0.79001514  1
  Fe  Fe10  1  0.14852461  0.29704923  0.88757561  1
  Fe  Fe11  1  0.85147539  0.70295077  0.11242439  1
  Fe  Fe12  1  0.30426563  0.09608171  0.78412050  1
  Fe  Fe13  1  0.69573437  0.90391829  0.21587950  1
  Fe  Fe14  1  0.20818393  0.90391829  0.21587950  1
  Fe  Fe15  1  0.79181607  0.09608171  0.78412050  1
  Fe  Fe16  1  0.50000000  0.50000000  -0.00000000  1
  Fe  Fe17  1  0.00000000  0.50000000  -0.00000000  1
  Fe  Fe18  1  0.95254887  0.90509775  0.78334548  1
  Fe  Fe19  1  0.04745113  0.09490225  0.21665452  1
  Fe  Fe20  1  0.75686911  0.51373822  0.67029000  1
  Fe  Fe21  1  0.24313089  0.48626178  0.32971000  1
  Fe  Fe22  1  0.89614364  0.79228728  0.32751969  1
  Fe  Fe23  1  0.10385636  0.20771272  0.67248031  1
  Fe  Fe24  1  0.80285181  0.60570363  0.88848396  1
  Fe  Fe25  1  0.19714819  0.39429637  0.11151604  1
  Mo  Mo26  1  0.42023684  0.84047367  0.64198885  1
  Mo  Mo27  1  0.57976316  0.15952633  0.35801115  1
  Mo  Mo28  1  0.47652267  0.95304534  0.88732933  1
  Mo  Mo29  1  0.52347733  0.04695466  0.11267067  1
  Mo  Mo30  1  0.55433474  0.10866948  0.59119078  1
  Mo  Mo31  1  0.44566526  0.89133052  0.40880922  1
  Mo  Mo32  1  0.66888493  0.33776986  0.79192391  1
  Mo  Mo33  1  0.33111507  0.66223014  0.20807609  1
  Mo  Mo34  1  0.63452934  0.26905869  0.99818350  1
  Mo  Mo35  1  0.36547066  0.73094131  0.00181650  1
  Mo  Mo36  1  0.93622452  0.87244904  0.99955678  1
  Mo  Mo37  1  0.06377548  0.12755096  0.00044322  1
  Mo  Mo38  1  0.24138458  0.48276916  0.78223368  1
  Mo  Mo39  1  0.75861542  0.51723084  0.21776632  1
  Mo  Mo40  1  0.96771405  0.93542811  0.57812764  1
  Mo  Mo41  1  0.03228595  0.06457189  0.42187236  1
  Mo  Mo42  1  0.72274921  0.44549842  0.42477225  1
  Mo  Mo43  1  0.27725079  0.55450158  0.57522775  1
