# generated using pymatgen
data_Eu2As3
_symmetry_space_group_name_H-M   'P 1'
_cell_length_a   5.99743547
_cell_length_b   12.36771489
_cell_length_c   14.20364872
_cell_angle_alpha   90.65928211
_cell_angle_beta   90.00000000
_cell_angle_gamma   90.00000000
_symmetry_Int_Tables_number   1
_chemical_formula_structural   Eu2As3
_chemical_formula_sum   'Eu16 As24'
_cell_volume   1053.47981841
_cell_formula_units_Z   8
loop_
 _symmetry_equiv_pos_site_id
 _symmetry_equiv_pos_as_xyz
  1  'x, y, z'
loop_
 _atom_site_type_symbol
 _atom_site_label
 _atom_site_symmetry_multiplicity
 _atom_site_fract_x
 _atom_site_fract_y
 _atom_site_fract_z
 _atom_site_occupancy
  Eu  Eu0  1  0.03418462  0.75000000  0.75000000  1
  Eu  Eu1  1  0.96581538  0.25000000  0.25000000  1
  Eu  Eu2  1  0.24630386  0.37500138  0.99987222  1
  Eu  Eu3  1  0.75369614  0.62499862  0.00012778  1
  Eu  Eu4  1  0.24630386  0.12499862  0.50012778  1
  Eu  Eu5  1  0.75369614  0.87500138  0.49987222  1
  Eu  Eu6  1  0.45540565  0.99020486  0.75070930  1
  Eu  Eu7  1  0.54459435  0.00979514  0.24929070  1
  Eu  Eu8  1  0.45540565  0.50979514  0.74929070  1
  Eu  Eu9  1  0.54459435  0.49020486  0.25070930  1
  Eu  Eu10  1  0.08436060  0.25000000  0.75000000  1
  Eu  Eu11  1  0.91563940  0.75000000  0.25000000  1
  Eu  Eu12  1  0.26006424  0.62543088  0.49148824  1
  Eu  Eu13  1  0.73993576  0.37456912  0.50851176  1
  Eu  Eu14  1  0.26006424  0.87456912  0.00851176  1
  Eu  Eu15  1  0.73993576  0.12543088  0.99148824  1
  As  As16  1  0.04449891  0.48871382  0.32873617  1
  As  As17  1  0.95550109  0.51128618  0.67126383  1
  As  As18  1  0.04449891  0.01128618  0.17126383  1
  As  As19  1  0.95550109  0.98871382  0.82873617  1
  As  As20  1  0.26489086  0.86465301  0.57859246  1
  As  As21  1  0.73510914  0.13534699  0.42140754  1
  As  As22  1  0.26489086  0.63534699  0.92140754  1
  As  As23  1  0.73510914  0.36465301  0.07859246  1
  As  As24  1  0.22723932  0.11078605  0.92202511  1
  As  As25  1  0.77276068  0.88921395  0.07797489  1
  As  As26  1  0.22723932  0.38921395  0.57797489  1
  As  As27  1  0.77276068  0.61078605  0.42202511  1
  As  As28  1  0.54119964  0.73570337  0.65892303  1
  As  As29  1  0.45880036  0.26429663  0.34107697  1
  As  As30  1  0.54119964  0.76429663  0.84107697  1
  As  As31  1  0.45880036  0.23570337  0.15892303  1
  As  As32  1  0.60421382  0.28777637  0.83320064  1
  As  As33  1  0.39578618  0.71222363  0.16679936  1
  As  As34  1  0.60421382  0.21222363  0.66679936  1
  As  As35  1  0.39578618  0.78777637  0.33320064  1
  As  As36  1  0.09577707  0.95188811  0.34354025  1
  As  As37  1  0.90422293  0.04811189  0.65645975  1
  As  As38  1  0.09577707  0.54811189  0.15645975  1
  As  As39  1  0.90422293  0.45188811  0.84354025  1
