# generated using pymatgen
data_Ca2FeP2(H2O5)2
_symmetry_space_group_name_H-M   'P 1'
_cell_length_a   5.56352387
_cell_length_b   5.78169869
_cell_length_c   6.63396002
_cell_angle_alpha   89.91364730
_cell_angle_beta   103.13227122
_cell_angle_gamma   108.59464455
_symmetry_Int_Tables_number   1
_chemical_formula_structural   Ca2FeP2(H2O5)2
_chemical_formula_sum   'Ca2 Fe1 P2 H4 O10'
_cell_volume   196.38073893
_cell_formula_units_Z   1
loop_
 _symmetry_equiv_pos_site_id
 _symmetry_equiv_pos_as_xyz
  1  'x, y, z'
loop_
 _atom_site_type_symbol
 _atom_site_label
 _atom_site_symmetry_multiplicity
 _atom_site_fract_x
 _atom_site_fract_y
 _atom_site_fract_z
 _atom_site_occupancy
  Ca  Ca0  1  0.16803486  0.40186033  0.76758830  1
  Ca  Ca1  1  0.83196514  0.59813967  0.23241170  1
  Fe  Fe2  1  0.50000000  0.00000000  -0.00000000  1
  P  P3  1  0.14830169  0.24213385  0.23291854  1
  P  P4  1  0.85169831  0.75786615  0.76708146  1
  H  H5  1  0.41644065  0.72093560  0.33395312  1
  H  H6  1  0.58355935  0.27906440  0.66604688  1
  H  H7  1  0.30966289  0.06679822  0.57058018  1
  H  H8  1  0.69033711  0.93320178  0.42941982  1
  O  O9  1  0.37500434  0.29805505  0.11598849  1
  O  O10  1  0.62499566  0.70194495  0.88401151  1
  O  O11  1  0.11899371  0.99965365  0.33431140  1
  O  O12  1  0.88100629  0.00034635  0.66568860  1
  O  O13  1  0.43194982  0.15482845  0.70572256  1
  O  O14  1  0.56805018  0.84517155  0.29427744  1
  O  O15  1  0.89419944  0.24154023  0.06898696  1
  O  O16  1  0.10580056  0.75845977  0.93101304  1
  O  O17  1  0.20086735  0.45922822  0.39660597  1
  O  O18  1  0.79913265  0.54077178  0.60339403  1
