# generated using pymatgen
data_CaMgPO4F
_symmetry_space_group_name_H-M   'P 1'
_cell_length_a   5.50007273
_cell_length_b   5.50007273
_cell_length_c   7.05434946
_cell_angle_alpha   103.20558275
_cell_angle_beta   103.20558275
_cell_angle_gamma   106.16784465
_symmetry_Int_Tables_number   1
_chemical_formula_structural   CaMgPO4F
_chemical_formula_sum   'Ca2 Mg2 P2 O8 F2'
_cell_volume   189.55686482
_cell_formula_units_Z   2
loop_
 _symmetry_equiv_pos_site_id
 _symmetry_equiv_pos_as_xyz
  1  'x, y, z'
loop_
 _atom_site_type_symbol
 _atom_site_label
 _atom_site_symmetry_multiplicity
 _atom_site_fract_x
 _atom_site_fract_y
 _atom_site_fract_z
 _atom_site_occupancy
  Ca  Ca0  1  0.66276343  0.33723657  0.75000000  1
  Ca  Ca1  1  0.33723657  0.66276343  0.25000000  1
  Mg  Mg2  1  0.00000000  -0.00000000  -0.00000000  1
  Mg  Mg3  1  0.00000000  -0.00000000  0.50000000  1
  P  P4  1  0.32085829  0.67914171  0.75000000  1
  P  P5  1  0.67914171  0.32085829  0.25000000  1
  O  O6  1  0.59782764  0.74132182  0.90653787  1
  O  O7  1  0.40217236  0.25867818  0.09346213  1
  O  O8  1  0.25867818  0.40217236  0.59346213  1
  O  O9  1  0.74132182  0.59782764  0.40653787  1
  O  O10  1  0.32720146  0.88848119  0.63243681  1
  O  O11  1  0.67279854  0.11151881  0.36756319  1
  O  O12  1  0.11151881  0.67279854  0.86756319  1
  O  O13  1  0.88848119  0.32720146  0.13243681  1
  F  F14  1  0.91655644  0.08344356  0.75000000  1
  F  F15  1  0.08344356  0.91655644  0.25000000  1
