# generated using pymatgen
data_BaTl(PO3)3
_symmetry_space_group_name_H-M   'P 1'
_cell_length_a   6.30578313
_cell_length_b   11.37474423
_cell_length_c   13.07618600
_cell_angle_alpha   90.00000000
_cell_angle_beta   90.00000000
_cell_angle_gamma   90.00000000
_symmetry_Int_Tables_number   1
_chemical_formula_structural   BaTl(PO3)3
_chemical_formula_sum   'Ba4 Tl4 P12 O36'
_cell_volume   937.91128166
_cell_formula_units_Z   4
loop_
 _symmetry_equiv_pos_site_id
 _symmetry_equiv_pos_as_xyz
  1  'x, y, z'
loop_
 _atom_site_type_symbol
 _atom_site_label
 _atom_site_symmetry_multiplicity
 _atom_site_fract_x
 _atom_site_fract_y
 _atom_site_fract_z
 _atom_site_occupancy
  Ba  Ba0  1  0.40434801  0.39303498  0.42053613  1
  Ba  Ba1  1  0.09565199  0.60696502  0.92053613  1
  Ba  Ba2  1  0.59565199  0.89303498  0.07946387  1
  Ba  Ba3  1  0.90434801  0.10696502  0.57946387  1
  Tl  Tl4  1  0.40003097  0.01157102  0.36651754  1
  Tl  Tl5  1  0.09996903  0.98842898  0.86651754  1
  Tl  Tl6  1  0.59996903  0.51157102  0.13348246  1
  Tl  Tl7  1  0.90003097  0.48842898  0.63348246  1
  P  P8  1  0.08333563  0.71633368  0.18444595  1
  P  P9  1  0.41666437  0.28366632  0.68444595  1
  P  P10  1  0.91666437  0.21633368  0.31555405  1
  P  P11  1  0.58333563  0.78366632  0.81555405  1
  P  P12  1  0.10760968  0.34316068  0.14775571  1
  P  P13  1  0.39239032  0.65683932  0.64775571  1
  P  P14  1  0.89239032  0.84316068  0.35224429  1
  P  P15  1  0.60760968  0.15683932  0.85224429  1
  P  P16  1  0.09734869  0.08714719  0.13697399  1
  P  P17  1  0.40265131  0.91285281  0.63697399  1
  P  P18  1  0.90265131  0.58714719  0.36302601  1
  P  P19  1  0.59734869  0.41285281  0.86302601  1
  O  O20  1  0.08429117  0.82283752  0.26759011  1
  O  O21  1  0.41570883  0.17716248  0.76759011  1
  O  O22  1  0.91570883  0.32283752  0.23240989  1
  O  O23  1  0.58429117  0.67716248  0.73240989  1
  O  O24  1  0.20038249  0.29052694  0.63650488  1
  O  O25  1  0.29961751  0.70947306  0.13650488  1
  O  O26  1  0.79961751  0.79052694  0.86349512  1
  O  O27  1  0.70038249  0.20947306  0.36349512  1
  O  O28  1  0.46154818  0.56387729  0.57402857  1
  O  O29  1  0.03845182  0.43612271  0.07402857  1
  O  O30  1  0.53845182  0.06387729  0.92597143  1
  O  O31  1  0.96154818  0.93612271  0.42597143  1
  O  O32  1  0.09965037  0.22449066  0.39001919  1
  O  O33  1  0.40034963  0.77550934  0.89001919  1
  O  O34  1  0.90034963  0.72449066  0.10998081  1
  O  O35  1  0.59965037  0.27550934  0.60998081  1
  O  O36  1  0.09501239  0.21772447  0.08759181  1
  O  O37  1  0.40498761  0.78227553  0.58759181  1
  O  O38  1  0.90498761  0.71772447  0.41240819  1
  O  O39  1  0.59501239  0.28227553  0.91240819  1
  O  O40  1  0.97049327  0.00746864  0.06901509  1
  O  O41  1  0.52950673  0.99253136  0.56901509  1
  O  O42  1  0.02950673  0.50746864  0.43098491  1
  O  O43  1  0.47049327  0.49253136  0.93098491  1
  O  O44  1  0.32041353  0.05113883  0.16281116  1
  O  O45  1  0.17958647  0.94886117  0.66281116  1
  O  O46  1  0.67958647  0.55113883  0.33718884  1
  O  O47  1  0.82041353  0.44886117  0.83718884  1
  O  O48  1  0.04493823  0.60424988  0.25942169  1
  O  O49  1  0.45506177  0.39575012  0.75942169  1
  O  O50  1  0.95506177  0.10424988  0.24057831  1
  O  O51  1  0.54493823  0.89575012  0.74057831  1
  O  O52  1  0.31121075  0.35480585  0.20654006  1
  O  O53  1  0.18878925  0.64519415  0.70654006  1
  O  O54  1  0.68878925  0.85480585  0.29345994  1
  O  O55  1  0.81121075  0.14519415  0.79345994  1
