# generated using pymatgen
data_Ba3CoIr2O9
_symmetry_space_group_name_H-M   'P 1'
_cell_length_a   5.85119146
_cell_length_b   5.85119146
_cell_length_c   14.47056489
_cell_angle_alpha   90.00000000
_cell_angle_beta   90.00000000
_cell_angle_gamma   119.99999775
_symmetry_Int_Tables_number   1
_chemical_formula_structural   Ba3CoIr2O9
_chemical_formula_sum   'Ba6 Co2 Ir4 O18'
_cell_volume   429.04687689
_cell_formula_units_Z   2
loop_
 _symmetry_equiv_pos_site_id
 _symmetry_equiv_pos_as_xyz
  1  'x, y, z'
loop_
 _atom_site_type_symbol
 _atom_site_label
 _atom_site_symmetry_multiplicity
 _atom_site_fract_x
 _atom_site_fract_y
 _atom_site_fract_z
 _atom_site_occupancy
  Ba  Ba0  1  0.66666700  0.33333300  0.91215197  1
  Ba  Ba1  1  0.33333300  0.66666700  0.08784803  1
  Ba  Ba2  1  0.33333300  0.66666700  0.41215197  1
  Ba  Ba3  1  0.66666700  0.33333300  0.58784803  1
  Ba  Ba4  1  -0.00000000  -0.00000000  0.75000000  1
  Ba  Ba5  1  -0.00000000  -0.00000000  0.25000000  1
  Co  Co6  1  -0.00000000  -0.00000000  -0.00000000  1
  Co  Co7  1  -0.00000000  -0.00000000  0.50000000  1
  Ir  Ir8  1  0.66666700  0.33333300  0.34510287  1
  Ir  Ir9  1  0.33333300  0.66666700  0.65489713  1
  Ir  Ir10  1  0.33333300  0.66666700  0.84510287  1
  Ir  Ir11  1  0.66666700  0.33333300  0.15489713  1
  O  O12  1  0.48546942  0.51453058  0.75000000  1
  O  O13  1  0.51453058  0.48546942  0.25000000  1
  O  O14  1  0.02906117  0.51453058  0.75000000  1
  O  O15  1  0.97093883  0.48546942  0.25000000  1
  O  O16  1  0.48546942  0.97093883  0.75000000  1
  O  O17  1  0.51453058  0.02906117  0.25000000  1
  O  O18  1  0.83057483  0.16942517  0.41815542  1
  O  O19  1  0.16942517  0.83057483  0.58184458  1
  O  O20  1  0.33885035  0.16942517  0.41815542  1
  O  O21  1  0.16942517  0.83057483  0.91815542  1
  O  O22  1  0.66114965  0.83057483  0.58184458  1
  O  O23  1  0.83057483  0.16942517  0.08184458  1
  O  O24  1  0.83057483  0.66114965  0.41815542  1
  O  O25  1  0.66114965  0.83057483  0.91815542  1
  O  O26  1  0.16942517  0.33885035  0.58184458  1
  O  O27  1  0.33885035  0.16942517  0.08184458  1
  O  O28  1  0.16942517  0.33885035  0.91815542  1
  O  O29  1  0.83057483  0.66114965  0.08184458  1
