# generated using pymatgen
data_Zr3TiFe8
_symmetry_space_group_name_H-M   'P 1'
_cell_length_a   4.94934903
_cell_length_b   4.94934903
_cell_length_c   8.56428312
_cell_angle_alpha   73.20472622
_cell_angle_beta   90.00000000
_cell_angle_gamma   119.99999995
_symmetry_Int_Tables_number   1
_chemical_formula_structural   Zr3TiFe8
_chemical_formula_sum   'Zr3 Ti1 Fe8'
_cell_volume   171.27315449
_cell_formula_units_Z   1
loop_
 _symmetry_equiv_pos_site_id
 _symmetry_equiv_pos_as_xyz
  1  'x, y, z'
loop_
 _atom_site_type_symbol
 _atom_site_label
 _atom_site_symmetry_multiplicity
 _atom_site_fract_x
 _atom_site_fract_y
 _atom_site_fract_z
 _atom_site_occupancy
  Zr  Zr0  1  0.37511168  0.75022335  0.87466497  1
  Zr  Zr1  1  0.99870341  0.99740681  0.00388978  1
  Zr  Zr2  1  0.50129063  0.00258126  0.49612812  1
  Ti  Ti3  1  0.87488963  0.74977925  0.37533112  1
  Fe  Fe4  1  0.43667253  0.37348683  0.18984065  1
  Fe  Fe5  1  0.93754347  0.37704838  0.68540815  1
  Fe  Fe6  1  0.43667253  0.87334506  0.18984065  1
  Fe  Fe7  1  0.93754347  0.87508695  0.68540815  1
  Fe  Fe8  1  0.18775788  0.37551576  0.43672635  1
  Fe  Fe9  1  0.68749558  0.37499115  0.93751327  1
  Fe  Fe10  1  0.93681430  0.37348683  0.18984065  1
  Fe  Fe11  1  0.43950490  0.37704838  0.68540815  1
