# generated using pymatgen
data_Ca2ZnAs2(H2O5)2
_symmetry_space_group_name_H-M   'P 1'
_cell_length_a   5.75631235
_cell_length_b   5.90245987
_cell_length_c   13.07767930
_cell_angle_alpha   90.00000000
_cell_angle_beta   90.00000000
_cell_angle_gamma   108.27488174
_symmetry_Int_Tables_number   1
_chemical_formula_structural   Ca2ZnAs2(H2O5)2
_chemical_formula_sum   'Ca4 Zn2 As4 H8 O20'
_cell_volume   421.92171664
_cell_formula_units_Z   2
loop_
 _symmetry_equiv_pos_site_id
 _symmetry_equiv_pos_as_xyz
  1  'x, y, z'
loop_
 _atom_site_type_symbol
 _atom_site_label
 _atom_site_symmetry_multiplicity
 _atom_site_fract_x
 _atom_site_fract_y
 _atom_site_fract_z
 _atom_site_occupancy
  Ca  Ca0  1  0.23125662  0.56319584  0.12289752  1
  Ca  Ca1  1  0.76874338  0.43680416  0.87710248  1
  Ca  Ca2  1  0.26874338  0.43680416  0.62289752  1
  Ca  Ca3  1  0.73125662  0.56319584  0.37710248  1
  Zn  Zn4  1  0.00000000  -0.00000000  -0.00000000  1
  Zn  Zn5  1  0.50000000  -0.00000000  0.50000000  1
  As  As6  1  0.06311043  0.21970798  0.37935386  1
  As  As7  1  0.93688957  0.78029202  0.62064614  1
  As  As8  1  0.43688957  0.78029202  0.87935386  1
  As  As9  1  0.56311043  0.21970798  0.12064614  1
  H  H10  1  0.30012344  0.69913154  0.35183345  1
  H  H11  1  0.69987656  0.30086846  0.64816655  1
  H  H12  1  0.19987656  0.30086846  0.85183345  1
  H  H13  1  0.80012344  0.69913154  0.14816655  1
  H  H14  1  0.00055410  0.09561053  0.79361120  1
  H  H15  1  0.99944590  0.90438947  0.20638880  1
  H  H16  1  0.49944590  0.90438947  0.29361120  1
  H  H17  1  0.50055410  0.09561053  0.70638880  1
  O  O18  1  0.53258510  0.18532932  0.63813049  1
  O  O19  1  0.46741490  0.81467068  0.36186951  1
  O  O20  1  0.96741490  0.81467068  0.13813049  1
  O  O21  1  0.03258510  0.18532932  0.86186951  1
  O  O22  1  0.49365804  0.94627968  0.17660272  1
  O  O23  1  0.50634196  0.05372032  0.82339728  1
  O  O24  1  0.00634196  0.05372032  0.67660272  1
  O  O25  1  0.99365804  0.94627968  0.32339728  1
  O  O26  1  0.07809330  0.45025822  0.29520257  1
  O  O27  1  0.92190670  0.54974178  0.70479743  1
  O  O28  1  0.42190670  0.54974178  0.79520257  1
  O  O29  1  0.57809330  0.45025822  0.20479743  1
  O  O30  1  0.33324177  0.28488395  0.44835054  1
  O  O31  1  0.66675823  0.71511605  0.55164946  1
  O  O32  1  0.16675823  0.71511605  0.94835054  1
  O  O33  1  0.83324177  0.28488395  0.05164946  1
  O  O34  1  0.33423256  0.24177857  0.03821047  1
  O  O35  1  0.66576744  0.75822143  0.96178953  1
  O  O36  1  0.16576744  0.75822143  0.53821047  1
  O  O37  1  0.83423256  0.24177857  0.46178953  1
