# generated using pymatgen
data_Zr4CN3
_symmetry_space_group_name_H-M   'P 1'
_cell_length_a   3.28604077
_cell_length_b   3.28604077
_cell_length_c   10.89008549
_cell_angle_alpha   90.00000000
_cell_angle_beta   81.32247573
_cell_angle_gamma   120.00000000
_symmetry_Int_Tables_number   1
_chemical_formula_structural   Zr4CN3
_chemical_formula_sum   'Zr4 C1 N3'
_cell_volume   100.28021658
_cell_formula_units_Z   1
loop_
 _symmetry_equiv_pos_site_id
 _symmetry_equiv_pos_as_xyz
  1  'x, y, z'
loop_
 _atom_site_type_symbol
 _atom_site_label
 _atom_site_symmetry_multiplicity
 _atom_site_fract_x
 _atom_site_fract_y
 _atom_site_fract_z
 _atom_site_occupancy
  Zr  Zr0  1  0.99854878  0.49927439  0.50217683  1
  Zr  Zr1  1  0.50145122  0.75072561  0.74782317  1
  Zr  Zr2  1  0.99936270  0.99968135  0.00095595  1
  Zr  Zr3  1  0.50063730  0.25031865  0.24904405  1
  C  C4  1  0.25000000  0.62500000  0.12500000  1
  N  N5  1  0.74708260  0.87354130  0.37937610  1
  N  N6  1  0.25000000  0.12500000  0.62500000  1
  N  N7  1  0.75291740  0.37645870  0.87062390  1
