# generated using pymatgen
data_Ba7Fe7F34
_symmetry_space_group_name_H-M   'P 1'
_cell_length_a   7.92941470
_cell_length_b   10.39911591
_cell_length_c   10.39911591
_cell_angle_alpha   67.51104038
_cell_angle_beta   79.71572513
_cell_angle_gamma   79.71572513
_symmetry_Int_Tables_number   1
_chemical_formula_structural   Ba7Fe7F34
_chemical_formula_sum   'Ba7 Fe7 F34'
_cell_volume   773.80778058
_cell_formula_units_Z   1
loop_
 _symmetry_equiv_pos_site_id
 _symmetry_equiv_pos_as_xyz
  1  'x, y, z'
loop_
 _atom_site_type_symbol
 _atom_site_label
 _atom_site_symmetry_multiplicity
 _atom_site_fract_x
 _atom_site_fract_y
 _atom_site_fract_z
 _atom_site_occupancy
  Ba  Ba0  1  0.20025267  0.83961498  0.44963022  1
  Ba  Ba1  1  0.79974733  0.16038502  0.55036978  1
  Ba  Ba2  1  0.79974733  0.55036978  0.16038502  1
  Ba  Ba3  1  0.20025267  0.44963022  0.83961498  1
  Ba  Ba4  1  0.50000000  -0.00000000  -0.00000000  1
  Ba  Ba5  1  0.61529300  0.73840262  0.73840262  1
  Ba  Ba6  1  0.38470700  0.26159738  0.26159738  1
  Fe  Fe7  1  0.29973272  0.13748205  0.64758519  1
  Fe  Fe8  1  0.70026728  0.86251795  0.35241481  1
  Fe  Fe9  1  0.70026728  0.35241481  0.86251795  1
  Fe  Fe10  1  0.29973272  0.64758519  0.13748205  1
  Fe  Fe11  1  0.03971449  0.83482012  0.83482012  1
  Fe  Fe12  1  0.96028551  0.16517988  0.16517988  1
  Fe  Fe13  1  0.00000000  0.50000000  0.50000000  1
  F  F14  1  0.30394101  0.78446310  0.21923609  1
  F  F15  1  0.69605899  0.21553690  0.78076391  1
  F  F16  1  0.69605899  0.78076391  0.21553690  1
  F  F17  1  0.30394101  0.21923609  0.78446310  1
  F  F18  1  0.48862094  0.99798724  0.73845961  1
  F  F19  1  0.51137906  0.00201276  0.26154039  1
  F  F20  1  0.51137906  0.26154039  0.00201276  1
  F  F21  1  0.48862094  0.73845961  0.99798724  1
  F  F22  1  0.80745959  0.89768329  0.89768329  1
  F  F23  1  0.19254041  0.10231671  0.10231671  1
  F  F24  1  0.04329777  0.11116183  0.34821082  1
  F  F25  1  0.95670223  0.88883817  0.65178918  1
  F  F26  1  0.95670223  0.65178918  0.88883817  1
  F  F27  1  0.04329777  0.34821082  0.11116183  1
  F  F28  1  0.11887449  0.02084049  0.77604238  1
  F  F29  1  0.88112551  0.97915951  0.22395762  1
  F  F30  1  0.88112551  0.22395762  0.97915951  1
  F  F31  1  0.11887449  0.77604238  0.02084049  1
  F  F32  1  0.25578835  0.75369594  0.75369594  1
  F  F33  1  0.74421165  0.24630406  0.24630406  1
  F  F34  1  0.47155122  0.24405362  0.50883982  1
  F  F35  1  0.52844878  0.75594638  0.49116018  1
  F  F36  1  0.52844878  0.49116018  0.75594638  1
  F  F37  1  0.47155122  0.50883982  0.24405362  1
  F  F38  1  0.11632998  0.28272836  0.55072113  1
  F  F39  1  0.88367002  0.71727164  0.44927887  1
  F  F40  1  0.88367002  0.44927887  0.71727164  1
  F  F41  1  0.11632998  0.55072113  0.28272836  1
  F  F42  1  0.17689355  0.57084102  0.57084102  1
  F  F43  1  0.82310645  0.42915898  0.42915898  1
  F  F44  1  0.29972021  0.04380684  0.51800923  1
  F  F45  1  0.70027979  0.95619316  0.48199077  1
  F  F46  1  0.70027979  0.48199077  0.95619316  1
  F  F47  1  0.29972021  0.51800923  0.04380684  1
