# generated using pymatgen
data_Zr6Pb(OF11)2
_symmetry_space_group_name_H-M   'P 1'
_cell_length_a   7.63415617
_cell_length_b   7.63416522
_cell_length_c   15.25012489
_cell_angle_alpha   90.00000000
_cell_angle_beta   90.00000000
_cell_angle_gamma   59.99996080
_symmetry_Int_Tables_number   1
_chemical_formula_structural   Zr6Pb(OF11)2
_chemical_formula_sum   'Zr12 Pb2 O4 F44'
_cell_volume   769.70880623
_cell_formula_units_Z   2
loop_
 _symmetry_equiv_pos_site_id
 _symmetry_equiv_pos_as_xyz
  1  'x, y, z'
loop_
 _atom_site_type_symbol
 _atom_site_label
 _atom_site_symmetry_multiplicity
 _atom_site_fract_x
 _atom_site_fract_y
 _atom_site_fract_z
 _atom_site_occupancy
  Zr  Zr0  1  0.65405427  0.17297287  0.60960247  1
  Zr  Zr1  1  0.17298581  0.17298255  0.60960352  1
  Zr  Zr2  1  0.17298581  0.65403164  0.60960352  1
  Zr  Zr3  1  0.35730225  0.82134887  0.38727699  1
  Zr  Zr4  1  0.82134700  0.82135019  0.38727758  1
  Zr  Zr5  1  0.82134700  0.35730281  0.38727758  1
  Zr  Zr6  1  0.34594573  0.82702713  0.10960247  1
  Zr  Zr7  1  0.82701419  0.82701745  0.10960352  1
  Zr  Zr8  1  0.82701419  0.34596836  0.10960352  1
  Zr  Zr9  1  0.64269775  0.17865113  0.88727699  1
  Zr  Zr10  1  0.17865300  0.17864981  0.88727758  1
  Zr  Zr11  1  0.17865300  0.64269719  0.88727758  1
  Pb  Pb12  1  0.33334068  0.33332966  0.24293709  1
  Pb  Pb13  1  0.66665932  0.66667034  0.74293709  1
  O  O14  1  0.33334544  0.33332728  0.59000065  1
  O  O15  1  0.66666847  0.66666577  0.41081774  1
  O  O16  1  0.66665456  0.66667272  0.09000065  1
  O  O17  1  0.33333153  0.33333423  0.91081774  1
  F  F18  1  0.33137936  0.99835724  0.49850408  1
  F  F19  1  0.99835541  0.67026031  0.49850567  1
  F  F20  1  0.67025636  0.33138891  0.49850529  1
  F  F21  1  0.67025636  0.99835473  0.49850529  1
  F  F22  1  0.33137936  0.67026340  0.49850408  1
  F  F23  1  0.99835541  0.33138428  0.49850567  1
  F  F24  1  0.66862064  0.00164276  0.99850408  1
  F  F25  1  0.00164459  0.32973969  0.99850567  1
  F  F26  1  0.32974364  0.66861109  0.99850529  1
  F  F27  1  0.32974364  0.00164527  0.99850529  1
  F  F28  1  0.66862064  0.32973660  0.99850408  1
  F  F29  1  0.00164459  0.66861572  0.99850567  1
  F  F30  1  0.75306522  0.12346739  0.16054176  1
  F  F31  1  0.12346960  0.12347808  0.16054598  1
  F  F32  1  0.12346960  0.75305232  0.16054598  1
  F  F33  1  0.22618982  0.88690509  0.85320210  1
  F  F34  1  0.88690860  0.88690364  0.85320219  1
  F  F35  1  0.88690860  0.22618776  0.85320219  1
  F  F36  1  0.24693478  0.87653261  0.66054176  1
  F  F37  1  0.87653040  0.87652192  0.66054598  1
  F  F38  1  0.87653040  0.24694768  0.66054598  1
  F  F39  1  0.77381018  0.11309491  0.35320210  1
  F  F40  1  0.11309140  0.11309636  0.35320219  1
  F  F41  1  0.11309140  0.77381224  0.35320219  1
  F  F42  1  0.60901748  0.19549126  0.74967923  1
  F  F43  1  0.19549719  0.19548942  0.74967867  1
  F  F44  1  0.19549719  0.60901338  0.74967867  1
  F  F45  1  0.39098252  0.80450874  0.24967923  1
  F  F46  1  0.80450281  0.80451058  0.24967867  1
  F  F47  1  0.80450281  0.39098662  0.24967867  1
  F  F48  1  0.98658325  0.50670837  0.64683780  1
  F  F49  1  0.50671408  0.50671174  0.64683862  1
  F  F50  1  0.50671408  0.98657418  0.64683862  1
  F  F51  1  0.01484970  0.49257515  0.35042878  1
  F  F52  1  0.49256879  0.49256899  0.35042886  1
  F  F53  1  0.49256879  0.01486222  0.35042886  1
  F  F54  1  0.01341675  0.49329163  0.14683780  1
  F  F55  1  0.49328592  0.49328826  0.14683862  1
  F  F56  1  0.49328592  0.01342582  0.14683862  1
  F  F57  1  0.98515030  0.50742485  0.85042878  1
  F  F58  1  0.50743121  0.50743101  0.85042886  1
  F  F59  1  0.50743121  0.98513778  0.85042886  1
  F  F60  1  0.99997915  0.00001043  0.53909451  1
  F  F61  1  0.00002085  0.99998957  0.03909451  1
