# generated using pymatgen
data_ZrTi(NiH3)2
_symmetry_space_group_name_H-M   'P 1'
_cell_length_a   3.44165493
_cell_length_b   4.27558417
_cell_length_c   5.43466192
_cell_angle_alpha   90.00000000
_cell_angle_beta   71.54019573
_cell_angle_gamma   90.00000000
_symmetry_Int_Tables_number   1
_chemical_formula_structural   ZrTi(NiH3)2
_chemical_formula_sum   'Zr1 Ti1 Ni2 H6'
_cell_volume   75.85666178
_cell_formula_units_Z   1
loop_
 _symmetry_equiv_pos_site_id
 _symmetry_equiv_pos_as_xyz
  1  'x, y, z'
loop_
 _atom_site_type_symbol
 _atom_site_label
 _atom_site_symmetry_multiplicity
 _atom_site_fract_x
 _atom_site_fract_y
 _atom_site_fract_z
 _atom_site_occupancy
  Zr  Zr0  1  0.85806679  0.25000000  0.28386642  1
  Ti  Ti1  1  0.14131870  0.75000000  0.71736260  1
  Ni  Ni2  1  0.43424701  0.75000000  0.13150597  1
  Ni  Ni3  1  0.57288221  0.25000000  0.85423559  1
  H  H4  1  0.30651777  0.99284543  0.38696446  1
  H  H5  1  0.68378404  0.97621675  0.63243193  1
  H  H6  1  0.30651777  0.50715457  0.38696446  1
  H  H7  1  0.68378404  0.52378325  0.63243193  1
  H  H8  1  0.93987182  0.75000000  0.12025636  1
  H  H9  1  0.07300985  0.25000000  0.85398031  1
