# generated using pymatgen
data_Ba4La(RuO4)3
_symmetry_space_group_name_H-M   'P 1'
_cell_length_a   5.99698410
_cell_length_b   5.99698410
_cell_length_c   30.32924992
_cell_angle_alpha   88.81595770
_cell_angle_beta   88.81595770
_cell_angle_gamma   60.05976581
_symmetry_Int_Tables_number   1
_chemical_formula_structural   Ba4La(RuO4)3
_chemical_formula_sum   'Ba12 La3 Ru9 O36'
_cell_volume   944.92119883
_cell_formula_units_Z   3
loop_
 _symmetry_equiv_pos_site_id
 _symmetry_equiv_pos_as_xyz
  1  'x, y, z'
loop_
 _atom_site_type_symbol
 _atom_site_label
 _atom_site_symmetry_multiplicity
 _atom_site_fract_x
 _atom_site_fract_y
 _atom_site_fract_z
 _atom_site_occupancy
  Ba  Ba0  1  0.99874873  0.99874873  0.86902895  1
  Ba  Ba1  1  0.00125127  0.00125127  0.13097105  1
  Ba  Ba2  1  0.33412836  0.33412836  0.46417200  1
  Ba  Ba3  1  0.66587164  0.66587164  0.53582800  1
  Ba  Ba4  1  0.66901362  0.66901362  0.94593304  1
  Ba  Ba5  1  0.33098638  0.33098638  0.05406696  1
  Ba  Ba6  1  0.00294386  0.00294386  0.27878892  1
  Ba  Ba7  1  0.99705614  0.99705614  0.72121108  1
  Ba  Ba8  1  0.33781846  0.33781846  0.61304965  1
  Ba  Ba9  1  0.66218154  0.66218154  0.38695035  1
  Ba  Ba10  1  0.66586501  0.66586501  0.79763386  1
  Ba  Ba11  1  0.33413499  0.33413499  0.20236614  1
  La  La12  1  0.66768553  0.66768553  0.66692096  1
  La  La13  1  0.33231447  0.33231447  0.33307904  1
  La  La14  1  -0.00000000  -0.00000000  -0.00000000  1
  Ru  Ru15  1  0.33275322  0.33275322  0.83334025  1
  Ru  Ru16  1  0.66724678  0.66724678  0.16665975  1
  Ru  Ru17  1  0.33915766  0.33915766  0.91764320  1
  Ru  Ru18  1  0.66084234  0.66084234  0.08235680  1
  Ru  Ru19  1  0.32703225  0.32703225  0.74885912  1
  Ru  Ru20  1  0.67296775  0.67296775  0.25114088  1
  Ru  Ru21  1  0.00790117  0.00790117  0.58462876  1
  Ru  Ru22  1  0.99209883  0.99209883  0.41537124  1
  Ru  Ru23  1  -0.00000000  -0.00000000  0.50000000  1
  O  O24  1  0.19005723  0.19005723  0.95714213  1
  O  O25  1  0.80994277  0.80994277  0.04285787  1
  O  O26  1  0.32713456  0.85906669  0.61671728  1
  O  O27  1  0.67286544  0.14093331  0.38328272  1
  O  O28  1  0.14093331  0.67286544  0.38328272  1
  O  O29  1  0.85906669  0.32713456  0.61671728  1
  O  O30  1  0.17571026  0.17571026  0.79472410  1
  O  O31  1  0.82428974  0.82428974  0.20527590  1
  O  O32  1  0.15681400  0.15681400  0.53751186  1
  O  O33  1  0.84318600  0.84318600  0.46248814  1
  O  O34  1  0.65572795  0.18808987  0.95099394  1
  O  O35  1  0.34427205  0.81191013  0.04900606  1
  O  O36  1  0.81191013  0.34427205  0.04900606  1
  O  O37  1  0.18808987  0.65572795  0.95099394  1
  O  O38  1  0.30635522  0.84051896  0.45709941  1
  O  O39  1  0.69364478  0.15948104  0.54290059  1
  O  O40  1  0.15948104  0.69364478  0.54290059  1
  O  O41  1  0.84051896  0.30635522  0.45709941  1
  O  O42  1  0.63966004  0.17690909  0.79080990  1
  O  O43  1  0.36033996  0.82309091  0.20919010  1
  O  O44  1  0.82309091  0.36033996  0.20919010  1
  O  O45  1  0.17690909  0.63966004  0.79080990  1
  O  O46  1  0.47789851  0.01041903  0.71563399  1
  O  O47  1  0.52210149  0.98958097  0.28436601  1
  O  O48  1  0.98958097  0.52210149  0.28436601  1
  O  O49  1  0.01041903  0.47789851  0.71563399  1
  O  O50  1  0.13828257  0.13828257  0.37514829  1
  O  O51  1  0.86171743  0.86171743  0.62485171  1
  O  O52  1  0.49034472  0.49034472  0.87177006  1
  O  O53  1  0.50965528  0.50965528  0.12822994  1
  O  O54  1  0.47615453  0.47615453  0.70899497  1
  O  O55  1  0.52384547  0.52384547  0.29100503  1
  O  O56  1  0.48885088  0.02600929  0.87578156  1
  O  O57  1  0.51114912  0.97399071  0.12421844  1
  O  O58  1  0.97399071  0.51114912  0.12421844  1
  O  O59  1  0.02600929  0.48885088  0.87578156  1
