# generated using pymatgen
data_Zr3BiF15
_symmetry_space_group_name_H-M   'P 1'
_cell_length_a   8.31626762
_cell_length_b   8.31626762
_cell_length_c   8.28743306
_cell_angle_alpha   100.22646642
_cell_angle_beta   100.22646642
_cell_angle_gamma   99.97384237
_symmetry_Int_Tables_number   1
_chemical_formula_structural   Zr3BiF15
_chemical_formula_sum   'Zr6 Bi2 F30'
_cell_volume   542.55209727
_cell_formula_units_Z   2
loop_
 _symmetry_equiv_pos_site_id
 _symmetry_equiv_pos_as_xyz
  1  'x, y, z'
loop_
 _atom_site_type_symbol
 _atom_site_label
 _atom_site_symmetry_multiplicity
 _atom_site_fract_x
 _atom_site_fract_y
 _atom_site_fract_z
 _atom_site_occupancy
  Zr  Zr0  1  0.25204696  0.24795304  0.25000000  1
  Zr  Zr1  1  0.74795304  0.75204696  0.75000000  1
  Zr  Zr2  1  0.82392127  0.25672898  0.67683824  1
  Zr  Zr3  1  0.24327102  0.67607873  0.82316176  1
  Zr  Zr4  1  0.17607873  0.74327102  0.32316176  1
  Zr  Zr5  1  0.75672898  0.32392127  0.17683824  1
  Bi  Bi6  1  0.67744375  0.82255625  0.25000000  1
  Bi  Bi7  1  0.32255625  0.17744375  0.75000000  1
  F  F8  1  0.96654618  0.53345382  0.25000000  1
  F  F9  1  0.55078687  0.25490337  0.97643170  1
  F  F10  1  0.24509663  0.94921313  0.52356830  1
  F  F11  1  0.44921313  0.74509663  0.02356830  1
  F  F12  1  0.75490337  0.05078687  0.47643170  1
  F  F13  1  0.03345382  0.46654618  0.75000000  1
  F  F14  1  0.00443789  0.77135908  0.77572317  1
  F  F15  1  0.78390541  0.77202925  0.00110913  1
  F  F16  1  0.77502227  0.00406514  0.77885127  1
  F  F17  1  0.50406514  0.27502227  0.27885127  1
  F  F18  1  0.27202925  0.28390541  0.50110913  1
  F  F19  1  0.27135908  0.50443789  0.27572317  1
  F  F20  1  0.99556211  0.22864092  0.22427683  1
  F  F21  1  0.21609459  0.22797075  0.99889087  1
  F  F22  1  0.22497773  0.99593486  0.22114873  1
  F  F23  1  0.49593486  0.72497773  0.72114873  1
  F  F24  1  0.72797075  0.71609459  0.49889087  1
  F  F25  1  0.72864092  0.49556211  0.72427683  1
  F  F26  1  0.34383441  0.46651127  0.81468983  1
  F  F27  1  0.43078500  0.81003468  0.35088436  1
  F  F28  1  0.81411125  0.34921530  0.44616439  1
  F  F29  1  0.84921530  0.31411125  0.94616439  1
  F  F30  1  0.31003468  0.93078500  0.85088436  1
  F  F31  1  0.96651127  0.84383441  0.31468983  1
  F  F32  1  0.65616559  0.53348873  0.18531017  1
  F  F33  1  0.56921500  0.18996532  0.64911564  1
  F  F34  1  0.18588875  0.65078470  0.55383561  1
  F  F35  1  0.15078470  0.68588875  0.05383561  1
  F  F36  1  0.68996532  0.06921500  0.14911564  1
  F  F37  1  0.03348873  0.15616559  0.68531017  1
