# generated using pymatgen
data_YGaAg
_symmetry_space_group_name_H-M   'P 1'
_cell_length_a   4.59228951
_cell_length_b   5.83208479
_cell_length_c   5.76172973
_cell_angle_alpha   94.92146767
_cell_angle_beta   113.48547941
_cell_angle_gamma   66.81450802
_symmetry_Int_Tables_number   1
_chemical_formula_structural   YGaAg
_chemical_formula_sum   'Y2 Ga2 Ag2'
_cell_volume   129.63667590
_cell_formula_units_Z   2
loop_
 _symmetry_equiv_pos_site_id
 _symmetry_equiv_pos_as_xyz
  1  'x, y, z'
loop_
 _atom_site_type_symbol
 _atom_site_label
 _atom_site_symmetry_multiplicity
 _atom_site_fract_x
 _atom_site_fract_y
 _atom_site_fract_z
 _atom_site_occupancy
  Y  Y0  1  0.75509107  0.70948616  0.21966831  1
  Y  Y1  1  0.24490893  0.29051384  0.78033169  1
  Ga  Ga2  1  0.04294975  0.11605305  0.20195256  1
  Ga  Ga3  1  0.95705025  0.88394695  0.79804744  1
  Ag  Ag4  1  0.54865491  0.27713636  0.37444619  1
  Ag  Ag5  1  0.45134509  0.72286364  0.62555381  1
