# generated using pymatgen
data_ZnNiTe3O8
_symmetry_space_group_name_H-M   'P 1'
_cell_length_a   5.32701521
_cell_length_b   6.88291163
_cell_length_c   11.71863662
_cell_angle_alpha   97.48474748
_cell_angle_beta   89.99999995
_cell_angle_gamma   67.23365496
_symmetry_Int_Tables_number   1
_chemical_formula_structural   ZnNiTe3O8
_chemical_formula_sum   'Zn2 Ni2 Te6 O16'
_cell_volume   392.21973215
_cell_formula_units_Z   2
loop_
 _symmetry_equiv_pos_site_id
 _symmetry_equiv_pos_as_xyz
  1  'x, y, z'
loop_
 _atom_site_type_symbol
 _atom_site_label
 _atom_site_symmetry_multiplicity
 _atom_site_fract_x
 _atom_site_fract_y
 _atom_site_fract_z
 _atom_site_occupancy
  Zn  Zn0  1  0.54889012  0.53727339  0.14997813  1
  Zn  Zn1  1  0.08616351  0.46272661  0.35002187  1
  Ni  Ni2  1  0.44562272  0.46736288  0.85452848  1
  Ni  Ni3  1  0.91298560  0.53263712  0.64547152  1
  Te  Te4  1  0.81946773  0.72269710  0.93930134  1
  Te  Te5  1  0.54216484  0.27730290  0.56069866  1
  Te  Te6  1  0.18509735  0.27110784  0.05421336  1
  Te  Te7  1  0.45620519  0.72889216  0.44578664  1
  Te  Te8  1  0.33214090  1.00000000  0.75000000  1
  Te  Te9  1  0.66486411  0.00000000  0.25000000  1
  O  O10  1  0.23361206  0.52719846  0.02252458  1
  O  O11  1  0.76081052  0.47280154  0.47747542  1
  O  O12  1  0.78037221  0.46428692  0.96963150  1
  O  O13  1  0.24465913  0.53571308  0.53036850  1
  O  O14  1  0.52023222  0.84220927  0.14363854  1
  O  O15  1  0.36244150  0.15779073  0.35636146  1
  O  O16  1  0.47743556  0.15988852  0.85432711  1
  O  O17  1  0.63732409  0.84011148  0.64567289  1
  O  O18  1  0.46821118  0.77218878  0.86602742  1
  O  O19  1  0.24039996  0.22781122  0.63397258  1
  O  O20  1  0.52674641  0.22781893  0.13489919  1
  O  O21  1  0.75456534  0.77218107  0.36510081  1
  O  O22  1  0.04637291  0.59827722  0.80151911  1
  O  O23  1  0.64465013  0.40172278  0.69848089  1
  O  O24  1  0.95522285  0.39811902  0.19150627  1
  O  O25  1  0.35334187  0.60188098  0.30849373  1
