# generated using pymatgen
data_Y9(Si5Os)4
_symmetry_space_group_name_H-M   'P 1'
_cell_length_a   7.90539397
_cell_length_b   8.06182711
_cell_length_c   19.64344637
_cell_angle_alpha   95.70654586
_cell_angle_beta   90.00000000
_cell_angle_gamma   90.00000000
_symmetry_Int_Tables_number   1
_chemical_formula_structural   Y9(Si5Os)4
_chemical_formula_sum   'Y18 Si40 Os8'
_cell_volume   1245.71032422
_cell_formula_units_Z   2
loop_
 _symmetry_equiv_pos_site_id
 _symmetry_equiv_pos_as_xyz
  1  'x, y, z'
loop_
 _atom_site_type_symbol
 _atom_site_label
 _atom_site_symmetry_multiplicity
 _atom_site_fract_x
 _atom_site_fract_y
 _atom_site_fract_z
 _atom_site_occupancy
  Y  Y0  1  0.24823494  0.69370201  0.76153154  1
  Y  Y1  1  0.74823494  0.80629799  0.23846846  1
  Y  Y2  1  0.75176506  0.30629799  0.23846846  1
  Y  Y3  1  0.25176506  0.19370201  0.76153154  1
  Y  Y4  1  0.50079590  0.64892645  0.58856546  1
  Y  Y5  1  0.00079590  0.85107355  0.41143454  1
  Y  Y6  1  0.49920410  0.35107355  0.41143454  1
  Y  Y7  1  0.99920410  0.14892645  0.58856546  1
  Y  Y8  1  0.24736859  0.81090569  0.23761080  1
  Y  Y9  1  0.74736859  0.68909431  0.76238920  1
  Y  Y10  1  0.75263141  0.18909431  0.76238920  1
  Y  Y11  1  0.25263141  0.31090569  0.23761080  1
  Y  Y12  1  0.50000000  -0.00000000  0.00000000  1
  Y  Y13  1  0.00000000  0.50000000  0.00000000  1
  Y  Y14  1  0.49843078  0.84939686  0.41095949  1
  Y  Y15  1  0.99843078  0.65060314  0.58904051  1
  Y  Y16  1  0.50156922  0.15060314  0.58904051  1
  Y  Y17  1  0.00156922  0.34939686  0.41095949  1
  Si  Si18  1  0.16587117  0.83225023  0.00036076  1
  Si  Si19  1  0.66587117  0.66774977  0.99963924  1
  Si  Si20  1  0.83412883  0.16774977  0.99963924  1
  Si  Si21  1  0.33412883  0.33225023  0.00036076  1
  Si  Si22  1  0.99557139  0.80616835  0.11581380  1
  Si  Si23  1  0.49557139  0.69383165  0.88418620  1
  Si  Si24  1  0.00442861  0.19383165  0.88418620  1
  Si  Si25  1  0.50442861  0.30616835  0.11581380  1
  Si  Si26  1  0.50266507  0.57069746  0.28998365  1
  Si  Si27  1  0.00266507  0.92930254  0.71001635  1
  Si  Si28  1  0.49733493  0.42930254  0.71001635  1
  Si  Si29  1  0.99733493  0.07069746  0.28998365  1
  Si  Si30  1  0.25345664  0.91128213  0.63999616  1
  Si  Si31  1  0.75345664  0.58871787  0.36000384  1
  Si  Si32  1  0.74654336  0.08871787  0.36000384  1
  Si  Si33  1  0.24654336  0.41128213  0.63999616  1
  Si  Si34  1  0.49470133  0.75101990  0.11551394  1
  Si  Si35  1  0.99470133  0.74898010  0.88448606  1
  Si  Si36  1  0.50529867  0.24898010  0.88448606  1
  Si  Si37  1  0.00529867  0.25101990  0.11551394  1
  Si  Si38  1  0.72016535  0.52341783  0.11568642  1
  Si  Si39  1  0.22016535  0.97658217  0.88431358  1
  Si  Si40  1  0.27983465  0.47658217  0.88431358  1
  Si  Si41  1  0.77983465  0.02341783  0.11568642  1
  Si  Si42  1  0.28118886  0.53462503  0.11591238  1
  Si  Si43  1  0.78118886  0.96537497  0.88408762  1
  Si  Si44  1  0.71881114  0.46537497  0.88408762  1
  Si  Si45  1  0.21881114  0.03462503  0.11591238  1
  Si  Si46  1  0.99639382  0.56972617  0.28662060  1
  Si  Si47  1  0.49639382  0.93027383  0.71337940  1
  Si  Si48  1  0.00360618  0.43027383  0.71337940  1
  Si  Si49  1  0.50360618  0.06972617  0.28662060  1
  Si  Si50  1  0.24738456  0.58899000  0.35590600  1
  Si  Si51  1  0.74738456  0.91101000  0.64409400  1
  Si  Si52  1  0.75261544  0.41101000  0.64409400  1
  Si  Si53  1  0.25261544  0.08899000  0.35590600  1
  Si  Si54  1  0.24871567  0.61033053  0.47466420  1
  Si  Si55  1  0.74871567  0.88966947  0.52533580  1
  Si  Si56  1  0.75128433  0.38966947  0.52533580  1
  Si  Si57  1  0.25128433  0.11033053  0.47466420  1
  Os  Os58  1  -0.00004029  0.54067624  0.16412556  1
  Os  Os59  1  0.49995971  0.95932376  0.83587444  1
  Os  Os60  1  0.00004029  0.45932376  0.83587444  1
  Os  Os61  1  0.50004029  0.04067624  0.16412556  1
  Os  Os62  1  0.36997904  0.62539450  0.99972986  1
  Os  Os63  1  0.86997904  0.87460550  0.00027014  1
  Os  Os64  1  0.63002096  0.37460550  0.00027014  1
  Os  Os65  1  0.13002096  0.12539450  0.99972986  1
