# generated using pymatgen
data_VCu3Te3Se
_symmetry_space_group_name_H-M   'P 1'
_cell_length_a   5.83944349
_cell_length_b   5.83944349
_cell_length_c   5.83944349
_cell_angle_alpha   90.36751235
_cell_angle_beta   89.63248765
_cell_angle_gamma   90.36751235
_symmetry_Int_Tables_number   1
_chemical_formula_structural   VCu3Te3Se
_chemical_formula_sum   'V1 Cu3 Te3 Se1'
_cell_volume   199.10753302
_cell_formula_units_Z   1
loop_
 _symmetry_equiv_pos_site_id
 _symmetry_equiv_pos_as_xyz
  1  'x, y, z'
loop_
 _atom_site_type_symbol
 _atom_site_label
 _atom_site_symmetry_multiplicity
 _atom_site_fract_x
 _atom_site_fract_y
 _atom_site_fract_z
 _atom_site_occupancy
  V  V0  1  0.99664617  0.00335383  0.99664617  1
  Cu  Cu1  1  0.99336916  0.49509043  0.99336916  1
  Cu  Cu2  1  0.50490957  0.00663084  0.99336916  1
  Cu  Cu3  1  0.99336916  0.00663084  0.50490957  1
  Te  Te4  1  0.25253427  0.74746573  0.74295733  1
  Te  Te5  1  0.74295733  0.74746573  0.25253427  1
  Te  Te6  1  0.25253427  0.25704267  0.25253427  1
  Se  Se7  1  0.76368008  0.23631992  0.76368008  1
