# generated using pymatgen
data_YCrFe11
_symmetry_space_group_name_H-M   'P 1'
_cell_length_a   4.66684210
_cell_length_b   6.41916708
_cell_length_c   6.41916708
_cell_angle_alpha   98.26547994
_cell_angle_beta   111.31581957
_cell_angle_gamma   68.68418043
_symmetry_Int_Tables_number   1
_chemical_formula_structural   YCrFe11
_chemical_formula_sum   'Y1 Cr1 Fe11'
_cell_volume   166.87527592
_cell_formula_units_Z   1
loop_
 _symmetry_equiv_pos_site_id
 _symmetry_equiv_pos_as_xyz
  1  'x, y, z'
loop_
 _atom_site_type_symbol
 _atom_site_label
 _atom_site_symmetry_multiplicity
 _atom_site_fract_x
 _atom_site_fract_y
 _atom_site_fract_z
 _atom_site_occupancy
  Y  Y0  1  0.00602594  0.99397406  0.00602594  1
  Cr  Cr1  1  0.63370438  0.36629562  0.63370438  1
  Fe  Fe2  1  0.49930525  0.77615102  0.77476151  1
  Fe  Fe3  1  0.49930525  0.22523849  0.22384898  1
  Fe  Fe4  1  0.26957216  0.23042784  0.76957216  1
  Fe  Fe5  1  0.72890521  0.77109479  0.22890521  1
  Fe  Fe6  1  0.50058949  0.00131741  0.50197825  1
  Fe  Fe7  1  0.00007136  0.00131741  0.50197825  1
  Fe  Fe8  1  0.50058949  0.49802175  0.99868259  1
  Fe  Fe9  1  0.00007136  0.49802175  0.99868259  1
  Fe  Fe10  1  0.36606296  0.63393704  0.36606296  1
  Fe  Fe11  1  0.99789858  0.36090429  0.35670145  1
  Fe  Fe12  1  0.99789858  0.64329855  0.63909571  1
