# generated using pymatgen
data_YErAl6(BO3)8
_symmetry_space_group_name_H-M   'P 1'
_cell_length_a   5.92081353
_cell_length_b   7.26012278
_cell_length_c   9.35466347
_cell_angle_alpha   90.00000229
_cell_angle_beta   89.99999720
_cell_angle_gamma   113.87694568
_symmetry_Int_Tables_number   1
_chemical_formula_structural   YErAl6(BO3)8
_chemical_formula_sum   'Y1 Er1 Al6 B8 O24'
_cell_volume   367.70349760
_cell_formula_units_Z   1
loop_
 _symmetry_equiv_pos_site_id
 _symmetry_equiv_pos_as_xyz
  1  'x, y, z'
loop_
 _atom_site_type_symbol
 _atom_site_label
 _atom_site_symmetry_multiplicity
 _atom_site_fract_x
 _atom_site_fract_y
 _atom_site_fract_z
 _atom_site_occupancy
  Y  Y0  1  0.00000000  1.00000000  0.00005203  1
  Er  Er1  1  0.00000000  0.50000000  0.50000586  1
  Al  Al2  1  0.44408594  0.77771276  0.77768036  1
  Al  Al3  1  0.44457776  0.27800178  0.27801250  1
  Al  Al4  1  0.55542224  0.72199822  0.27801250  1
  Al  Al5  1  0.55591406  0.22228724  0.77768036  1
  Al  Al6  1  1.00000000  0.50000000  0.94429217  1
  Al  Al7  1  1.00000000  0.00000000  0.44427336  1
  B  B8  1  0.05677547  0.72111020  0.22180583  1
  B  B9  1  0.05710775  0.22193073  0.72124717  1
  B  B10  1  0.94322453  0.27888980  0.22180583  1
  B  B11  1  0.94289225  0.77806927  0.72124717  1
  B  B12  1  0.50000000  0.50000000  0.55682830  1
  B  B13  1  0.50000000  0.00000000  0.05705698  1
  B  B14  1  0.50000000  0.50000000  -0.00000156  1
  B  B15  1  0.50000000  0.00000000  0.49999923  1
  O  O16  1  0.64862491  0.42567211  0.92562122  1
  O  O17  1  0.64869060  0.92567100  0.42572755  1
  O  O18  1  0.35137509  0.57432789  0.92562122  1
  O  O19  1  0.35130940  0.07432900  0.42572755  1
  O  O20  1  0.50000000  0.50000000  0.14863608  1
  O  O21  1  0.50000000  1.00000000  0.64866099  1
  O  O22  1  0.02882667  0.70336827  0.07568422  1
  O  O23  1  0.02843681  0.20496041  0.57502928  1
  O  O24  1  0.78015252  0.32929163  0.30080621  1
  O  O25  1  0.77893428  0.82817931  0.79935928  1
  O  O26  1  0.62986985  0.40455285  0.62420911  1
  O  O27  1  0.62774489  0.90362219  0.12490414  1
  O  O28  1  0.21984748  0.67070837  0.30080621  1
  O  O29  1  0.22106572  0.17182069  0.79935928  1
  O  O30  1  0.37013015  0.59544715  0.62420911  1
  O  O31  1  0.37225511  0.09637781  0.12490414  1
  O  O32  1  0.97117333  0.29663173  0.07568422  1
  O  O33  1  0.97156319  0.79503959  0.57502928  1
  O  O34  1  0.90864209  0.29562535  0.79578765  1
  O  O35  1  0.90857989  0.79576729  0.29561178  1
  O  O36  1  0.09135791  0.70437465  0.79578765  1
  O  O37  1  0.09142011  0.20423271  0.29561178  1
  O  O38  1  0.50000000  0.50000000  0.40856470  1
  O  O39  1  0.50000000  1.00000000  0.90865929  1
