# generated using pymatgen
data_VNi3AsO8
_symmetry_space_group_name_H-M   'P 1'
_cell_length_a   6.02041264
_cell_length_b   6.47384340
_cell_length_c   8.30824841
_cell_angle_alpha   89.95849005
_cell_angle_beta   90.00000000
_cell_angle_gamma   62.29108613
_symmetry_Int_Tables_number   1
_chemical_formula_structural   VNi3AsO8
_chemical_formula_sum   'V2 Ni6 As2 O16'
_cell_volume   286.68085286
_cell_formula_units_Z   2
loop_
 _symmetry_equiv_pos_site_id
 _symmetry_equiv_pos_as_xyz
  1  'x, y, z'
loop_
 _atom_site_type_symbol
 _atom_site_label
 _atom_site_symmetry_multiplicity
 _atom_site_fract_x
 _atom_site_fract_y
 _atom_site_fract_z
 _atom_site_occupancy
  V  V0  1  0.62300749  0.75398501  0.11860986  1
  V  V1  1  0.37699251  0.24601499  0.88139014  1
  Ni  Ni2  1  0.38137297  0.73602959  0.74708433  1
  Ni  Ni3  1  0.11740255  0.26397041  0.25291567  1
  Ni  Ni4  1  0.61862703  0.26397041  0.25291567  1
  Ni  Ni5  1  0.88259745  0.73602959  0.74708433  1
  Ni  Ni6  1  0.50000000  0.00000000  0.50000000  1
  Ni  Ni7  1  -0.00000000  0.00000000  -0.00000000  1
  As  As8  1  0.87590432  0.24819137  0.61647723  1
  As  As9  1  0.12409568  0.75180863  0.38352277  1
  O  O10  1  0.50255666  0.99488667  0.74580701  1
  O  O11  1  0.49744334  0.00511333  0.25419299  1
  O  O12  1  0.00244174  0.99511652  0.24873825  1
  O  O13  1  0.99755826  0.00488348  0.75126175  1
  O  O14  1  0.75204025  0.49591950  0.73336353  1
  O  O15  1  0.24795975  0.50408050  0.26663647  1
  O  O16  1  0.75171388  0.49657224  0.23051080  1
  O  O17  1  0.24828612  0.50342776  0.76948920  1
  O  O18  1  0.35774810  0.75932696  0.49877424  1
  O  O19  1  0.11707506  0.24067304  0.50122576  1
  O  O20  1  0.61659187  0.23710647  0.00196586  1
  O  O21  1  0.85369834  0.76289353  0.99803414  1
  O  O22  1  0.64225190  0.24067304  0.50122576  1
  O  O23  1  0.88292494  0.75932696  0.49877424  1
  O  O24  1  0.38340813  0.76289353  0.99803414  1
  O  O25  1  0.14630166  0.23710647  0.00196586  1
