# generated using pymatgen
data_V9GaGe2
_symmetry_space_group_name_H-M   'P 1'
_cell_length_a   4.78508553
_cell_length_b   4.80381184
_cell_length_c   14.12084071
_cell_angle_alpha   90.00000000
_cell_angle_beta   90.00000000
_cell_angle_gamma   90.00000000
_symmetry_Int_Tables_number   1
_chemical_formula_structural   V9GaGe2
_chemical_formula_sum   'V18 Ga2 Ge4'
_cell_volume   324.59083051
_cell_formula_units_Z   2
loop_
 _symmetry_equiv_pos_site_id
 _symmetry_equiv_pos_as_xyz
  1  'x, y, z'
loop_
 _atom_site_type_symbol
 _atom_site_label
 _atom_site_symmetry_multiplicity
 _atom_site_fract_x
 _atom_site_fract_y
 _atom_site_fract_z
 _atom_site_occupancy
  V  V0  1  0.00000000  0.50000000  0.25090009  1
  V  V1  1  0.00000000  0.50000000  0.58375488  1
  V  V2  1  -0.00000000  0.50000000  0.91786037  1
  V  V3  1  0.50000000  0.24369915  0.99886294  1
  V  V4  1  0.50000000  0.24153971  0.33333300  1
  V  V5  1  0.50000000  0.24369915  0.66780406  1
  V  V6  1  0.74462296  0.00000000  0.16658557  1
  V  V7  1  0.74462296  0.00000000  0.50008143  1
  V  V8  1  0.74244204  0.00000000  0.83333300  1
  V  V9  1  -0.00000000  0.50000000  0.08291112  1
  V  V10  1  -0.00000000  0.50000000  0.41576691  1
  V  V11  1  0.00000000  0.50000000  0.74880663  1
  V  V12  1  0.50000000  0.75630085  0.99886294  1
  V  V13  1  0.50000000  0.75846029  0.33333300  1
  V  V14  1  0.50000000  0.75630085  0.66780406  1
  V  V15  1  0.25537704  0.00000000  0.16658557  1
  V  V16  1  0.25537704  0.00000000  0.50008143  1
  V  V17  1  0.25755796  0.00000000  0.83333300  1
  Ga  Ga18  1  0.50000000  0.50000000  0.16634217  1
  Ga  Ga19  1  0.50000000  0.50000000  0.50032483  1
  Ge  Ge20  1  0.50000000  0.50000000  0.83333300  1
  Ge  Ge21  1  -0.00000000  0.00000000  0.99956901  1
  Ge  Ge22  1  0.00000000  0.00000000  0.33333300  1
  Ge  Ge23  1  0.00000000  0.00000000  0.66709799  1
