# generated using pymatgen
data_DyZr
_symmetry_space_group_name_H-M   'P 1'
_cell_length_a   3.39808404
_cell_length_b   3.39809057
_cell_length_c   5.41868947
_cell_angle_alpha   90.00832262
_cell_angle_beta   89.99163796
_cell_angle_gamma   120.01090705
_symmetry_Int_Tables_number   1
_chemical_formula_structural   DyZr
_chemical_formula_sum   'Dy1 Zr1'
_cell_volume   54.18089982
_cell_formula_units_Z   1
loop_
 _symmetry_equiv_pos_site_id
 _symmetry_equiv_pos_as_xyz
  1  'x, y, z'
loop_
 _atom_site_type_symbol
 _atom_site_label
 _atom_site_symmetry_multiplicity
 _atom_site_fract_x
 _atom_site_fract_y
 _atom_site_fract_z
 _atom_site_occupancy
  Dy  Dy0  1  0.66666110  0.33334271  0.75001407  1
  Zr  Zr1  1  0.33334190  0.66665929  0.24998593  1
