# generated using pymatgen
data_U2PS
_symmetry_space_group_name_H-M   'P 1'
_cell_length_a   3.90990762
_cell_length_b   3.90990762
_cell_length_c   6.75203530
_cell_angle_alpha   73.16985993
_cell_angle_beta   90.00000000
_cell_angle_gamma   120.00000006
_symmetry_Int_Tables_number   1
_chemical_formula_structural   U2PS
_chemical_formula_sum   'U2 P1 S1'
_cell_volume   84.24807725
_cell_formula_units_Z   1
loop_
 _symmetry_equiv_pos_site_id
 _symmetry_equiv_pos_as_xyz
  1  'x, y, z'
loop_
 _atom_site_type_symbol
 _atom_site_label
 _atom_site_symmetry_multiplicity
 _atom_site_fract_x
 _atom_site_fract_y
 _atom_site_fract_z
 _atom_site_occupancy
  U  U0  1  0.24952479  0.49904957  0.25142564  1
  U  U1  1  0.75047521  0.50095043  0.74857436  1
  P  P2  1  -0.00000000  0.00000000  -0.00000000  1
  S  S3  1  0.50000000  0.00000000  0.50000000  1
