# generated using pymatgen
data_VCrB2
_symmetry_space_group_name_H-M   'P 1'
_cell_length_a   2.93562634
_cell_length_b   2.99288723
_cell_length_c   4.24449572
_cell_angle_alpha   69.35595467
_cell_angle_beta   90.00000000
_cell_angle_gamma   90.00000000
_symmetry_Int_Tables_number   1
_chemical_formula_structural   VCrB2
_chemical_formula_sum   'V1 Cr1 B2'
_cell_volume   34.89756026
_cell_formula_units_Z   1
loop_
 _symmetry_equiv_pos_site_id
 _symmetry_equiv_pos_as_xyz
  1  'x, y, z'
loop_
 _atom_site_type_symbol
 _atom_site_label
 _atom_site_symmetry_multiplicity
 _atom_site_fract_x
 _atom_site_fract_y
 _atom_site_fract_z
 _atom_site_occupancy
  V  V0  1  0.75000000  0.14733048  0.70533905  1
  Cr  Cr1  1  0.25000000  0.85380074  0.29239852  1
  B  B2  1  0.25000000  0.56242453  0.87515093  1
  B  B3  1  0.75000000  0.43644425  0.12711149  1
