# generated using pymatgen
data_V3Ni2
_symmetry_space_group_name_H-M   'P 1'
_cell_length_a   4.61292628
_cell_length_b   9.02322507
_cell_length_c   8.89370861
_cell_angle_alpha   89.47347410
_cell_angle_beta   90.00000000
_cell_angle_gamma   90.00000000
_symmetry_Int_Tables_number   1
_chemical_formula_structural   V3Ni2
_chemical_formula_sum   'V18 Ni12'
_cell_volume   370.17140069
_cell_formula_units_Z   6
loop_
 _symmetry_equiv_pos_site_id
 _symmetry_equiv_pos_as_xyz
  1  'x, y, z'
loop_
 _atom_site_type_symbol
 _atom_site_label
 _atom_site_symmetry_multiplicity
 _atom_site_fract_x
 _atom_site_fract_y
 _atom_site_fract_z
 _atom_site_occupancy
  V  V0  1  0.24560185  0.32019530  0.68428010  1
  V  V1  1  0.24560185  0.67980470  0.31571990  1
  V  V2  1  0.74551435  0.18253300  0.17790943  1
  V  V3  1  0.74551435  0.81746700  0.82209057  1
  V  V4  1  0.75439815  0.67980470  0.31571990  1
  V  V5  1  0.75439815  0.32019530  0.68428010  1
  V  V6  1  0.25448565  0.81746700  0.82209057  1
  V  V7  1  0.25448565  0.18253300  0.17790943  1
  V  V8  1  0.50000000  0.10333402  0.89411860  1
  V  V9  1  0.50000000  0.89666598  0.10588140  1
  V  V10  1  -0.00000000  0.39333830  0.38990465  1
  V  V11  1  0.00000000  0.60666170  0.61009535  1
  V  V12  1  -0.00000000  0.12525382  0.46522374  1
  V  V13  1  0.00000000  0.87474618  0.53477626  1
  V  V14  1  0.50000000  0.96429855  0.37363946  1
  V  V15  1  0.50000000  0.03570145  0.62636054  1
  V  V16  1  0.00000000  0.46578879  0.12197772  1
  V  V17  1  0.00000000  0.53421121  0.87802228  1
  Ni  Ni18  1  0.50000000  0.50000000  0.50000000  1
  Ni  Ni19  1  0.00000000  -0.00000000  -0.00000000  1
  Ni  Ni20  1  0.50000000  0.43518258  0.23921127  1
  Ni  Ni21  1  0.50000000  0.56481742  0.76078873  1
  Ni  Ni22  1  -0.00000000  0.06480226  0.74169413  1
  Ni  Ni23  1  -0.00000000  0.93519774  0.25830587  1
  Ni  Ni24  1  0.50000000  0.24323319  0.43513867  1
  Ni  Ni25  1  0.50000000  0.75676681  0.56486133  1
  Ni  Ni26  1  -0.00000000  0.74154801  0.06575337  1
  Ni  Ni27  1  0.00000000  0.25845199  0.93424663  1
  Ni  Ni28  1  0.50000000  0.36873758  0.96217099  1
  Ni  Ni29  1  0.50000000  0.63126242  0.03782901  1
