# generated using pymatgen
data_Ti3B4Mo
_symmetry_space_group_name_H-M   'P 1'
_cell_length_a   3.05944223
_cell_length_b   4.55387814
_cell_length_c   6.04776675
_cell_angle_alpha   90.36979359
_cell_angle_beta   90.00000000
_cell_angle_gamma   90.00000000
_symmetry_Int_Tables_number   1
_chemical_formula_structural   Ti3B4Mo
_chemical_formula_sum   'Ti3 B4 Mo1'
_cell_volume   84.25770955
_cell_formula_units_Z   1
loop_
 _symmetry_equiv_pos_site_id
 _symmetry_equiv_pos_as_xyz
  1  'x, y, z'
loop_
 _atom_site_type_symbol
 _atom_site_label
 _atom_site_symmetry_multiplicity
 _atom_site_fract_x
 _atom_site_fract_y
 _atom_site_fract_z
 _atom_site_occupancy
  Ti  Ti0  1  0.25000000  0.12509327  0.17577458  1
  Ti  Ti1  1  0.75000000  0.62131611  0.32710468  1
  Ti  Ti2  1  0.75000000  0.88108054  0.82153108  1
  B  B3  1  0.25000000  0.89775343  0.52901808  1
  B  B4  1  0.25000000  0.60031062  0.02891006  1
  B  B5  1  0.75000000  0.09961238  0.46980807  1
  B  B6  1  0.75000000  0.39761913  0.96895923  1
  Mo  Mo7  1  0.25000000  0.37721452  0.67889423  1
