# generated using pymatgen
data_Zn11Cu(MoO4)12
_symmetry_space_group_name_H-M   'P 1'
_cell_length_a   9.88088621
_cell_length_b   10.34488323
_cell_length_c   12.09085133
_cell_angle_alpha   114.35772013
_cell_angle_beta   101.01482976
_cell_angle_gamma   93.98616855
_symmetry_Int_Tables_number   1
_chemical_formula_structural   Zn11Cu(MoO4)12
_chemical_formula_sum   'Zn11 Cu1 Mo12 O48'
_cell_volume   1089.82876104
_cell_formula_units_Z   1
loop_
 _symmetry_equiv_pos_site_id
 _symmetry_equiv_pos_as_xyz
  1  'x, y, z'
loop_
 _atom_site_type_symbol
 _atom_site_label
 _atom_site_symmetry_multiplicity
 _atom_site_fract_x
 _atom_site_fract_y
 _atom_site_fract_z
 _atom_site_occupancy
  Zn  Zn0  1  0.48243053  0.90982097  0.17566744  1
  Zn  Zn1  1  0.98279133  0.90989279  0.67601476  1
  Zn  Zn2  1  0.01798492  0.09042755  0.32381265  1
  Zn  Zn3  1  0.51715415  0.09185193  0.82534913  1
  Zn  Zn4  1  0.12841051  0.48705071  0.82497355  1
  Zn  Zn5  1  0.62453806  0.48703948  0.32159231  1
  Zn  Zn6  1  0.37188428  0.51201935  0.67595029  1
  Zn  Zn7  1  0.87157509  0.51125723  0.17571048  1
  Zn  Zn8  1  0.92984274  0.71353043  0.81689721  1
  Zn  Zn9  1  0.07093652  0.28620960  0.18276537  1
  Zn  Zn10  1  0.57019519  0.28636581  0.68323326  1
  Cu  Cu11  1  0.43313647  0.73109019  0.32891085  1
  Mo  Mo12  1  0.84499590  0.37698877  0.55054003  1
  Mo  Mo13  1  0.34573784  0.37568617  0.05027189  1
  Mo  Mo14  1  0.65460105  0.62377070  0.94916516  1
  Mo  Mo15  1  0.15507410  0.62336102  0.44851424  1
  Mo  Mo16  1  0.26857343  0.83935930  0.87157757  1
  Mo  Mo17  1  0.76895569  0.83858144  0.37085117  1
  Mo  Mo18  1  0.23121304  0.16037242  0.62853592  1
  Mo  Mo19  1  0.73145343  0.16019889  0.12860338  1
  Mo  Mo20  1  0.13412713  0.75533248  0.12180432  1
  Mo  Mo21  1  0.63033485  0.75643791  0.61847243  1
  Mo  Mo22  1  0.36844693  0.24347045  0.37989277  1
  Mo  Mo23  1  0.86853958  0.24349586  0.87963913  1
  O  O24  1  0.08790697  0.68341230  0.94870488  1
  O  O25  1  0.57996009  0.68529585  0.44357578  1
  O  O26  1  0.41367956  0.31697901  0.55302924  1
  O  O27  1  0.91325794  0.31684827  0.05264541  1
  O  O28  1  0.23989953  0.53556012  0.53427741  1
  O  O29  1  0.73971444  0.53586443  0.03456958  1
  O  O30  1  0.26099439  0.46626030  0.96616063  1
  O  O31  1  0.75939470  0.46530949  0.46533679  1
  O  O32  1  0.31983240  0.76511813  0.19224447  1
  O  O33  1  0.81524340  0.76463252  0.68398578  1
  O  O34  1  0.18304701  0.23433165  0.31469684  1
  O  O35  1  0.68324454  0.23441985  0.81410539  1
  O  O36  1  0.32837575  0.92030319  0.03812263  1
  O  O37  1  0.82765133  0.92076640  0.53719825  1
  O  O38  1  0.17102341  0.07812108  0.46227317  1
  O  O39  1  0.67165824  0.07798774  0.96237616  1
  O  O40  1  0.93711479  0.24937573  0.45791714  1
  O  O41  1  0.43707193  0.24722217  0.95630649  1
  O  O42  1  0.56263242  0.75129354  0.04182756  1
  O  O43  1  0.06335577  0.75145652  0.54158470  1
  O  O44  1  0.08579024  0.85731747  0.81931472  1
  O  O45  1  0.58547394  0.85501309  0.31707741  1
  O  O46  1  0.41365034  0.14157656  0.67984545  1
  O  O47  1  0.91402786  0.14185879  0.18043498  1
  O  O48  1  0.37103057  0.92819583  0.81148535  1
  O  O49  1  0.87064278  0.92874940  0.31121231  1
  O  O50  1  0.12875803  0.07128616  0.68860057  1
  O  O51  1  0.62898016  0.07124069  0.18882662  1
  O  O52  1  0.96406614  0.51656917  0.69485777  1
  O  O53  1  0.46632649  0.51094946  0.19108695  1
  O  O54  1  0.53577514  0.48382787  0.80504136  1
  O  O55  1  0.03555440  0.48351324  0.30499049  1
  O  O56  1  0.96714394  0.35536117  0.83612595  1
  O  O57  1  0.46749310  0.35545862  0.33697974  1
  O  O58  1  0.53243372  0.64499592  0.66269903  1
  O  O59  1  0.03201538  0.64474905  0.16381976  1
  O  O60  1  0.71489518  0.28643173  0.59121109  1
  O  O61  1  0.21477917  0.28592172  0.09167275  1
  O  O62  1  0.78517424  0.71369688  0.90833455  1
  O  O63  1  0.28511330  0.71158792  0.40599818  1
  O  O64  1  0.58478517  0.92801469  0.68353961  1
  O  O65  1  0.08591451  0.92639538  0.18310223  1
  O  O66  1  0.91510871  0.07165170  0.81682693  1
  O  O67  1  0.41534390  0.07179233  0.31705663  1
  O  O68  1  0.28762122  0.65038700  0.80721983  1
  O  O69  1  0.78851870  0.64997808  0.30811429  1
  O  O70  1  0.21230106  0.34969224  0.69216085  1
  O  O71  1  0.71329125  0.34961810  0.19268099  1
