# generated using pymatgen
data_TiNb(BiO3)3
_symmetry_space_group_name_H-M   'P 1'
_cell_length_a   5.43768648
_cell_length_b   5.50739391
_cell_length_c   13.02227046
_cell_angle_alpha   90.00000000
_cell_angle_beta   78.22809348
_cell_angle_gamma   90.00000000
_symmetry_Int_Tables_number   1
_chemical_formula_structural   TiNb(BiO3)3
_chemical_formula_sum   'Ti2 Nb2 Bi6 O18'
_cell_volume   381.78187585
_cell_formula_units_Z   2
loop_
 _symmetry_equiv_pos_site_id
 _symmetry_equiv_pos_as_xyz
  1  'x, y, z'
loop_
 _atom_site_type_symbol
 _atom_site_label
 _atom_site_symmetry_multiplicity
 _atom_site_fract_x
 _atom_site_fract_y
 _atom_site_fract_z
 _atom_site_occupancy
  Ti  Ti0  1  0.33702546  0.53584001  0.82284190  1
  Ti  Ti1  1  0.66297454  0.03584001  0.17715810  1
  Nb  Nb2  1  0.16567525  0.53926055  0.17589265  1
  Nb  Nb3  1  0.83432475  0.03926055  0.82410735  1
  Bi  Bi4  1  0.74478893  0.48598568  0.99946433  1
  Bi  Bi5  1  0.25521107  0.98598568  0.00053567  1
  Bi  Bi6  1  0.97724249  0.49656138  0.60093883  1
  Bi  Bi7  1  0.57120986  0.49206500  0.39964894  1
  Bi  Bi8  1  0.02275751  0.99656138  0.39906117  1
  Bi  Bi9  1  0.42879014  0.99206500  0.60035106  1
  O  O10  1  0.34369286  0.55100890  0.68460863  1
  O  O11  1  0.02954331  0.54917154  0.32025573  1
  O  O12  1  0.65630714  0.05100890  0.31539137  1
  O  O13  1  0.97045669  0.04917154  0.67974427  1
  O  O14  1  0.32745249  0.58189524  0.00166446  1
  O  O15  1  0.67254751  0.08189524  0.99833554  1
  O  O16  1  0.03108634  0.77458967  0.86824805  1
  O  O17  1  0.89764419  0.77745531  0.13176187  1
  O  O18  1  0.96891366  0.27458967  0.13175195  1
  O  O19  1  0.10235581  0.27745531  0.86823813  1
  O  O20  1  0.52969932  0.85655710  0.82752710  1
  O  O21  1  0.36205089  0.86262633  0.17258769  1
  O  O22  1  0.47030068  0.35655710  0.17247290  1
  O  O23  1  0.63794911  0.36262633  0.82741231  1
  O  O24  1  0.74150547  0.76193846  0.50191595  1
  O  O25  1  0.24397664  0.76154482  0.49808990  1
  O  O26  1  0.25849453  0.26193846  0.49808405  1
  O  O27  1  0.75602336  0.26154482  0.50191010  1
