# generated using pymatgen
data_Th3SiGe
_symmetry_space_group_name_H-M   'P 1'
_cell_length_a   4.12994544
_cell_length_b   7.95150571
_cell_length_c   7.95150571
_cell_angle_alpha   89.69837021
_cell_angle_beta   90.00000000
_cell_angle_gamma   90.00000000
_symmetry_Int_Tables_number   1
_chemical_formula_structural   Th3SiGe
_chemical_formula_sum   'Th6 Si2 Ge2'
_cell_volume   261.11814155
_cell_formula_units_Z   2
loop_
 _symmetry_equiv_pos_site_id
 _symmetry_equiv_pos_as_xyz
  1  'x, y, z'
loop_
 _atom_site_type_symbol
 _atom_site_label
 _atom_site_symmetry_multiplicity
 _atom_site_fract_x
 _atom_site_fract_y
 _atom_site_fract_z
 _atom_site_occupancy
  Th  Th0  1  -0.00000000  0.50000000  0.50000000  1
  Th  Th1  1  0.00000000  -0.00000000  0.00000000  1
  Th  Th2  1  0.50000000  0.17775162  0.67775162  1
  Th  Th3  1  0.50000000  0.82224838  0.32224838  1
  Th  Th4  1  0.50000000  0.31679390  0.18320610  1
  Th  Th5  1  0.50000000  0.68320610  0.81679390  1
  Si  Si6  1  -0.00000000  0.88682333  0.61317667  1
  Si  Si7  1  0.00000000  0.11317667  0.38682333  1
  Ge  Ge8  1  0.00000000  0.61776373  0.11776373  1
  Ge  Ge9  1  -0.00000000  0.38223627  0.88223627  1
