# generated using pymatgen
data_TaTiSe4
_symmetry_space_group_name_H-M   'P 1'
_cell_length_a   3.51187532
_cell_length_b   6.11850962
_cell_length_c   6.50096637
_cell_angle_alpha   89.81847911
_cell_angle_beta   89.90754316
_cell_angle_gamma   89.72719124
_symmetry_Int_Tables_number   1
_chemical_formula_structural   TaTiSe4
_chemical_formula_sum   'Ta1 Ti1 Se4'
_cell_volume   139.68668084
_cell_formula_units_Z   1
loop_
 _symmetry_equiv_pos_site_id
 _symmetry_equiv_pos_as_xyz
  1  'x, y, z'
loop_
 _atom_site_type_symbol
 _atom_site_label
 _atom_site_symmetry_multiplicity
 _atom_site_fract_x
 _atom_site_fract_y
 _atom_site_fract_z
 _atom_site_occupancy
  Ta  Ta0  1  -0.00000000  -0.00000000  0.00000000  1
  Ti  Ti1  1  0.50000000  0.50000000  0.00000000  1
  Se  Se2  1  0.00009402  0.33665934  0.24436097  1
  Se  Se3  1  0.50026419  0.83083643  0.24928482  1
  Se  Se4  1  0.49973581  0.16916357  0.75071518  1
  Se  Se5  1  0.99990598  0.66334066  0.75563903  1
