# generated using pymatgen
data_TbInGe2O7
_symmetry_space_group_name_H-M   'P 1'
_cell_length_a   5.71397837
_cell_length_b   5.71397837
_cell_length_c   9.92339714
_cell_angle_alpha   97.00626561
_cell_angle_beta   97.00626561
_cell_angle_gamma   105.01551787
_symmetry_Int_Tables_number   1
_chemical_formula_structural   TbInGe2O7
_chemical_formula_sum   'Tb2 In2 Ge4 O14'
_cell_volume   306.58340692
_cell_formula_units_Z   2
loop_
 _symmetry_equiv_pos_site_id
 _symmetry_equiv_pos_as_xyz
  1  'x, y, z'
loop_
 _atom_site_type_symbol
 _atom_site_label
 _atom_site_symmetry_multiplicity
 _atom_site_fract_x
 _atom_site_fract_y
 _atom_site_fract_z
 _atom_site_occupancy
  Tb  Tb0  1  0.70552946  0.29639601  0.99723159  1
  Tb  Tb1  1  0.70360399  0.29447054  0.50276841  1
  In  In2  1  0.31640424  0.68448897  0.00179965  1
  In  In3  1  0.31551103  0.68359576  0.49820035  1
  Ge  Ge4  1  0.77511840  0.76885562  0.29438548  1
  Ge  Ge5  1  0.23114438  0.22488160  0.20561452  1
  Ge  Ge6  1  0.22177047  0.22823962  0.70589108  1
  Ge  Ge7  1  0.77176038  0.77822953  0.79410892  1
  O  O8  1  0.61209756  0.59184468  0.13670457  1
  O  O9  1  0.40815532  0.38790244  0.36329543  1
  O  O10  1  0.40258996  0.38642217  0.86312423  1
  O  O11  1  0.61357783  0.59741004  0.63687577  1
  O  O12  1  0.59246429  0.90117463  0.39668131  1
  O  O13  1  0.09882537  0.40753571  0.10331869  1
  O  O14  1  0.37768271  0.05707495  0.60767551  1
  O  O15  1  0.94292505  0.62231729  0.89232449  1
  O  O16  1  0.95796820  0.04203180  0.25000000  1
  O  O17  1  0.93614283  0.06385717  0.75000000  1
  O  O18  1  0.94014673  0.60583186  0.39080248  1
  O  O19  1  0.39416814  0.05985327  0.10919752  1
  O  O20  1  0.09906621  0.41665254  0.60435385  1
  O  O21  1  0.58334746  0.90093379  0.89564615  1
