# generated using pymatgen
data_TePdSe
_symmetry_space_group_name_H-M   'P 1'
_cell_length_a   3.97050183
_cell_length_b   3.96988664
_cell_length_c   5.10918038
_cell_angle_alpha   90.00000006
_cell_angle_beta   89.98528383
_cell_angle_gamma   119.99486829
_symmetry_Int_Tables_number   1
_chemical_formula_structural   TePdSe
_chemical_formula_sum   'Te1 Pd1 Se1'
_cell_volume   69.74736575
_cell_formula_units_Z   1
loop_
 _symmetry_equiv_pos_site_id
 _symmetry_equiv_pos_as_xyz
  1  'x, y, z'
loop_
 _atom_site_type_symbol
 _atom_site_label
 _atom_site_symmetry_multiplicity
 _atom_site_fract_x
 _atom_site_fract_y
 _atom_site_fract_z
 _atom_site_occupancy
  Te  Te0  1  0.66673673  0.33336836  0.73701063  1
  Pd  Pd1  1  0.99997409  0.99998705  0.00934317  1
  Se  Se2  1  0.33328918  0.66664459  0.25364620  1
