# generated using pymatgen
data_Ti4Nb(BiO3)7
_symmetry_space_group_name_H-M   'P 1'
_cell_length_a   5.45549854
_cell_length_b   5.51498546
_cell_length_c   29.78653600
_cell_angle_alpha   84.68822886
_cell_angle_beta   84.58344647
_cell_angle_gamma   90.00000000
_symmetry_Int_Tables_number   1
_chemical_formula_structural   Ti4Nb(BiO3)7
_chemical_formula_sum   'Ti8 Nb2 Bi14 O42'
_cell_volume   888.31981497
_cell_formula_units_Z   2
loop_
 _symmetry_equiv_pos_site_id
 _symmetry_equiv_pos_as_xyz
  1  'x, y, z'
loop_
 _atom_site_type_symbol
 _atom_site_label
 _atom_site_symmetry_multiplicity
 _atom_site_fract_x
 _atom_site_fract_y
 _atom_site_fract_z
 _atom_site_occupancy
  Ti  Ti0  1  0.57287552  0.53305028  0.85377822  1
  Ti  Ti1  1  0.42712448  0.38682850  0.14622178  1
  Ti  Ti2  1  0.92642187  0.88682280  0.14631601  1
  Ti  Ti3  1  0.07357813  0.03313882  0.85368399  1
  Ti  Ti4  1  0.50000000  0.46449278  1.00000000  1
  Ti  Ti5  1  0.00000000  0.96462718  1.00000000  1
  Ti  Ti6  1  0.71069541  0.16739449  0.57523314  1
  Ti  Ti7  1  0.28930459  0.74262763  0.42476686  1
  Nb  Nb8  1  0.79218844  0.23931727  0.42511305  1
  Nb  Nb9  1  0.20781156  0.66443031  0.57488695  1
  Bi  Bi10  1  0.75463915  0.75267170  0.49959601  1
  Bi  Bi11  1  0.24536085  0.25226771  0.50040399  1
  Bi  Bi12  1  0.64331801  0.67031753  0.67181007  1
  Bi  Bi13  1  0.35668199  0.34212760  0.32818993  1
  Bi  Bi14  1  0.80688032  0.83829570  0.32847589  1
  Bi  Bi15  1  0.19311968  0.16677159  0.67152411  1
  Bi  Bi16  1  0.64567679  0.12194908  0.75886555  1
  Bi  Bi17  1  0.35432321  0.88081463  0.24113445  1
  Bi  Bi18  1  0.90419187  0.37818845  0.24120296  1
  Bi  Bi19  1  0.09580813  0.61939140  0.75879704  1
  Bi  Bi20  1  0.53695034  0.04828543  0.92427235  1
  Bi  Bi21  1  0.46304966  0.97255777  0.07572765  1
  Bi  Bi22  1  0.96151491  0.47247553  0.07572734  1
  Bi  Bi23  1  0.03848509  0.54820286  0.92427266  1
  O  O24  1  0.01464041  0.34142161  0.57410006  1
  O  O25  1  0.98535959  0.91552166  0.42589994  1
  O  O26  1  0.09362551  0.42063137  0.42585704  1
  O  O27  1  0.90637449  0.84648841  0.57414296  1
  O  O28  1  0.75001365  0.18249024  0.98906321  1
  O  O29  1  0.24998635  0.17155346  0.01093679  1
  O  O30  1  0.23895864  0.67152191  0.01095811  1
  O  O31  1  0.76104136  0.68248001  0.98904189  1
  O  O32  1  0.61358847  0.12214584  0.63488785  1
  O  O33  1  0.38641153  0.75703369  0.36511215  1
  O  O34  1  0.75357655  0.26088512  0.36280844  1
  O  O35  1  0.24642345  0.62369356  0.63719156  1
  O  O36  1  0.45918737  0.44898320  0.93380231  1
  O  O37  1  0.54081263  0.38278552  0.06619769  1
  O  O38  1  0.89273234  0.88248260  0.06617874  1
  O  O39  1  0.10726766  0.94866134  0.93382126  1
  O  O40  1  0.27700395  0.71979098  0.85901280  1
  O  O41  1  0.72299605  0.57880378  0.14098720  1
  O  O42  1  0.63534244  0.07880647  0.14092119  1
  O  O43  1  0.36465756  0.21972766  0.85907881  1
  O  O44  1  0.43730145  0.93769920  0.55575414  1
  O  O45  1  0.56269855  0.49345334  0.44424586  1
  O  O46  1  0.49254033  0.99073014  0.44429227  1
  O  O47  1  0.50745967  0.43502241  0.55570773  1
  O  O48  1  0.66250090  0.55776970  0.79432591  1
  O  O49  1  0.33749910  0.35209561  0.20567409  1
  O  O50  1  0.95577629  0.85343232  0.20567974  1
  O  O51  1  0.04422371  0.05911206  0.79432026  1
  O  O52  1  0.83785784  0.27801806  0.87406541  1
  O  O53  1  0.16214216  0.15208347  0.12593459  1
  O  O54  1  0.21142994  0.65203019  0.12594029  1
  O  O55  1  0.78857006  0.77797049  0.87405971  1
  O  O56  1  0.38729187  0.87928129  0.71615405  1
  O  O57  1  0.61270813  0.59543535  0.28384595  1
  O  O58  1  0.60083041  0.09518913  0.28388803  1
  O  O59  1  0.39916959  0.37907716  0.71611197  1
  O  O60  1  0.82972077  0.15941314  0.49969998  1
  O  O61  1  0.17027923  0.65911312  0.50030002  1
  O  O62  1  0.89877028  0.37935487  0.71429117  1
  O  O63  1  0.10122972  0.09364604  0.28570883  1
  O  O64  1  0.11132088  0.59321707  0.28568329  1
  O  O65  1  0.88867912  0.87890036  0.71431671  1
