# generated using pymatgen
data_Th2Fe17C
_symmetry_space_group_name_H-M   'P 1'
_cell_length_a   6.48559713
_cell_length_b   6.48559713
_cell_length_c   6.49946879
_cell_angle_alpha   83.92714044
_cell_angle_beta   83.92714044
_cell_angle_gamma   83.19778828
_symmetry_Int_Tables_number   1
_chemical_formula_structural   Th2Fe17C
_chemical_formula_sum   'Th2 Fe17 C1'
_cell_volume   268.73233780
_cell_formula_units_Z   1
loop_
 _symmetry_equiv_pos_site_id
 _symmetry_equiv_pos_as_xyz
  1  'x, y, z'
loop_
 _atom_site_type_symbol
 _atom_site_label
 _atom_site_symmetry_multiplicity
 _atom_site_fract_x
 _atom_site_fract_y
 _atom_site_fract_z
 _atom_site_occupancy
  Th  Th0  1  0.66522610  0.66522610  0.64478334  1
  Th  Th1  1  0.33477390  0.33477390  0.35521666  1
  Fe  Fe2  1  0.84959405  0.34221216  0.34255680  1
  Fe  Fe3  1  0.34288959  0.34288959  0.85070992  1
  Fe  Fe4  1  0.34221216  0.84959405  0.34255680  1
  Fe  Fe5  1  0.15040595  0.65778784  0.65744320  1
  Fe  Fe6  1  0.65711041  0.65711041  0.14929008  1
  Fe  Fe7  1  0.65778784  0.15040595  0.65744320  1
  Fe  Fe8  1  -0.00000000  0.00000000  0.50000000  1
  Fe  Fe9  1  -0.00000000  0.50000000  0.00000000  1
  Fe  Fe10  1  0.50000000  0.00000000  0.00000000  1
  Fe  Fe11  1  0.90442076  0.90442076  0.90414596  1
  Fe  Fe12  1  0.09557924  0.09557924  0.09585404  1
  Fe  Fe13  1  0.28403580  0.71596420  0.00000000  1
  Fe  Fe14  1  0.71697216  0.00189405  0.28165044  1
  Fe  Fe15  1  0.99810595  0.28302784  0.71834956  1
  Fe  Fe16  1  0.28302784  0.99810595  0.71834956  1
  Fe  Fe17  1  0.00189405  0.71697216  0.28165044  1
  Fe  Fe18  1  0.71596420  0.28403580  0.00000000  1
  C  C19  1  0.50000000  0.50000000  0.00000000  1
