# generated using pymatgen
data_Ti3AlNi12
_symmetry_space_group_name_H-M   'P 1'
_cell_length_a   5.07314034
_cell_length_b   5.07314034
_cell_length_c   8.26353217
_cell_angle_alpha   90.00000000
_cell_angle_beta   90.00000000
_cell_angle_gamma   120.00487832
_symmetry_Int_Tables_number   1
_chemical_formula_structural   Ti3AlNi12
_chemical_formula_sum   'Ti3 Al1 Ni12'
_cell_volume   184.17418450
_cell_formula_units_Z   1
loop_
 _symmetry_equiv_pos_site_id
 _symmetry_equiv_pos_as_xyz
  1  'x, y, z'
loop_
 _atom_site_type_symbol
 _atom_site_label
 _atom_site_symmetry_multiplicity
 _atom_site_fract_x
 _atom_site_fract_y
 _atom_site_fract_z
 _atom_site_occupancy
  Ti  Ti0  1  0.33330953  0.66669047  0.25000000  1
  Ti  Ti1  1  -0.00000469  0.00000469  0.49828600  1
  Ti  Ti2  1  -0.00000469  0.00000469  0.00171400  1
  Al  Al3  1  0.66669865  0.33330135  0.75000000  1
  Ni  Ni4  1  0.17134560  0.82865440  0.75000000  1
  Ni  Ni5  1  0.65732167  0.82865902  0.75000000  1
  Ni  Ni6  1  0.17134098  0.34267833  0.75000000  1
  Ni  Ni7  1  0.82801461  0.17198539  0.25000000  1
  Ni  Ni8  1  0.34393100  0.17197821  0.25000000  1
  Ni  Ni9  1  0.82802179  0.65606900  0.25000000  1
  Ni  Ni10  1  0.50011559  0.00019542  0.50054511  1
  Ni  Ni11  1  0.50009260  0.49990740  0.50053862  1
  Ni  Ni12  1  0.99980458  0.49988441  0.50054511  1
  Ni  Ni13  1  0.50011559  0.00019542  0.99945489  1
  Ni  Ni14  1  0.50009260  0.49990740  0.99946138  1
  Ni  Ni15  1  0.99980458  0.49988441  0.99945489  1
