# generated using pymatgen
data_Ta4MoS10
_symmetry_space_group_name_H-M   'P 1'
_cell_length_a   3.31612345
_cell_length_b   14.08797393
_cell_length_c   6.67394909
_cell_angle_alpha   79.74801235
_cell_angle_beta   90.00000025
_cell_angle_gamma   96.75900419
_symmetry_Int_Tables_number   1
_chemical_formula_structural   Ta4MoS10
_chemical_formula_sum   'Ta4 Mo1 S10'
_cell_volume   304.60972100
_cell_formula_units_Z   1
loop_
 _symmetry_equiv_pos_site_id
 _symmetry_equiv_pos_as_xyz
  1  'x, y, z'
loop_
 _atom_site_type_symbol
 _atom_site_label
 _atom_site_symmetry_multiplicity
 _atom_site_fract_x
 _atom_site_fract_y
 _atom_site_fract_z
 _atom_site_occupancy
  Ta  Ta0  1  0.63061601  0.26123202  0.23840753  1
  Ta  Ta1  1  0.23335536  0.46671072  0.03311437  1
  Ta  Ta2  1  0.83262195  0.66524389  0.83466178  1
  Ta  Ta3  1  0.43787954  0.87575907  0.62441688  1
  Mo  Mo4  1  0.03285647  0.06571294  0.43452492  1
  S  S5  1  0.48536523  0.97073047  0.28155421  1
  S  S6  1  0.28358606  0.56717212  0.68466824  1
  S  S7  1  0.88456660  0.76913319  0.49037978  1
  S  S8  1  0.08157098  0.16314195  0.09112716  1
  S  S9  1  0.68225201  0.36450402  0.89129688  1
  S  S10  1  0.11463866  0.22927733  0.51636357  1
  S  S11  1  0.71498033  0.42996065  0.31387213  1
  S  S12  1  0.31684781  0.63369562  0.11451434  1
  S  S13  1  0.91688150  0.83376299  0.90744993  1
  S  S14  1  0.51868150  0.03736300  0.71074827  1
