# generated using pymatgen
data_SrCa3La2(SbO6)2
_symmetry_space_group_name_H-M   'P 1'
_cell_length_a   5.78226131
_cell_length_b   5.94791814
_cell_length_c   8.30025225
_cell_angle_alpha   89.89564172
_cell_angle_beta   90.17670743
_cell_angle_gamma   89.81841195
_symmetry_Int_Tables_number   1
_chemical_formula_structural   SrCa3La2(SbO6)2
_chemical_formula_sum   'Sr1 Ca3 La2 Sb2 O12'
_cell_volume   285.46246602
_cell_formula_units_Z   1
loop_
 _symmetry_equiv_pos_site_id
 _symmetry_equiv_pos_as_xyz
  1  'x, y, z'
loop_
 _atom_site_type_symbol
 _atom_site_label
 _atom_site_symmetry_multiplicity
 _atom_site_fract_x
 _atom_site_fract_y
 _atom_site_fract_z
 _atom_site_occupancy
  Sr  Sr0  1  0.48766052  0.54773840  0.25118843  1
  Ca  Ca1  1  0.99130788  0.95298187  0.75288420  1
  Ca  Ca2  1  0.00058296  0.50338694  0.50165601  1
  Ca  Ca3  1  0.50093799  0.99531946  0.99768767  1
  La  La4  1  0.51226679  0.44598731  0.75028870  1
  La  La5  1  0.01408042  0.05186927  0.24980022  1
  Sb  Sb6  1  0.49936643  0.99919794  0.50333696  1
  Sb  Sb7  1  0.00045452  0.50044800  0.99726351  1
  O  O8  1  0.16844331  0.78846467  0.05657457  1
  O  O9  1  0.66951800  0.71156708  0.55942061  1
  O  O10  1  0.82230418  0.21754480  0.93828245  1
  O  O11  1  0.31805609  0.27930232  0.44732218  1
  O  O12  1  0.61122317  0.97064680  0.27119203  1
  O  O13  1  0.11079107  0.54721968  0.76846357  1
  O  O14  1  0.38975850  0.04023319  0.73213468  1
  O  O15  1  0.90947766  0.45632514  0.23044775  1
  O  O16  1  0.21518847  0.82120046  0.44468633  1
  O  O17  1  0.71507216  0.67804193  0.94406855  1
  O  O18  1  0.78217712  0.18129454  0.55813021  1
  O  O19  1  0.28133276  0.31123019  0.04517137  1
