# generated using pymatgen
data_Sr7Ca(IrO6)2
_symmetry_space_group_name_H-M   'P 1'
_cell_length_a   6.91146002
_cell_length_b   6.91145990
_cell_length_c   6.91146002
_cell_angle_alpha   90.95029156
_cell_angle_beta   90.95028408
_cell_angle_gamma   90.95029156
_symmetry_Int_Tables_number   1
_chemical_formula_structural   Sr7Ca(IrO6)2
_chemical_formula_sum   'Sr7 Ca1 Ir2 O12'
_cell_volume   330.01079847
_cell_formula_units_Z   1
loop_
 _symmetry_equiv_pos_site_id
 _symmetry_equiv_pos_as_xyz
  1  'x, y, z'
loop_
 _atom_site_type_symbol
 _atom_site_label
 _atom_site_symmetry_multiplicity
 _atom_site_fract_x
 _atom_site_fract_y
 _atom_site_fract_z
 _atom_site_occupancy
  Sr  Sr0  1  0.88762696  0.25000000  0.61237304  1
  Sr  Sr1  1  0.25000000  0.61237304  0.88762696  1
  Sr  Sr2  1  0.61237304  0.88762696  0.25000000  1
  Sr  Sr3  1  0.75000000  0.38449369  0.11550631  1
  Sr  Sr4  1  0.38449369  0.11550631  0.75000000  1
  Sr  Sr5  1  0.11550631  0.75000000  0.38449369  1
  Sr  Sr6  1  0.75000000  0.75000000  0.75000000  1
  Ca  Ca7  1  0.25000000  0.25000000  0.25000000  1
  Ir  Ir8  1  0.49659162  0.49659162  0.49659162  1
  Ir  Ir9  1  0.00340838  0.00340838  0.00340838  1
  O  O10  1  0.21217700  0.41904489  0.54842581  1
  O  O11  1  0.41904489  0.54842581  0.21217700  1
  O  O12  1  0.54842581  0.21217700  0.41904489  1
  O  O13  1  0.92822377  0.71725103  0.05885218  1
  O  O14  1  0.71725103  0.05885218  0.92822377  1
  O  O15  1  0.05885218  0.92822377  0.71725103  1
  O  O16  1  0.78274897  0.57177623  0.44114782  1
  O  O17  1  0.57177623  0.44114782  0.78274897  1
  O  O18  1  0.44114782  0.78274897  0.57177623  1
  O  O19  1  0.08095511  0.28782300  0.95157419  1
  O  O20  1  0.28782300  0.95157419  0.08095511  1
  O  O21  1  0.95157419  0.08095511  0.28782300  1
