# generated using pymatgen
data_SrLaCuSe3
_symmetry_space_group_name_H-M   'P 1'
_cell_length_a   4.29568761
_cell_length_b   8.56572524
_cell_length_c   16.61380834
_cell_angle_alpha   90.00000000
_cell_angle_beta   90.00000000
_cell_angle_gamma   90.00000000
_symmetry_Int_Tables_number   1
_chemical_formula_structural   SrLaCuSe3
_chemical_formula_sum   'Sr4 La4 Cu4 Se12'
_cell_volume   611.31637167
_cell_formula_units_Z   4
loop_
 _symmetry_equiv_pos_site_id
 _symmetry_equiv_pos_as_xyz
  1  'x, y, z'
loop_
 _atom_site_type_symbol
 _atom_site_label
 _atom_site_symmetry_multiplicity
 _atom_site_fract_x
 _atom_site_fract_y
 _atom_site_fract_z
 _atom_site_occupancy
  Sr  Sr0  1  0.75000000  0.40931879  0.28444950  1
  Sr  Sr1  1  0.75000000  0.90931879  0.21555050  1
  Sr  Sr2  1  0.25000000  0.59068121  0.71555050  1
  Sr  Sr3  1  0.25000000  0.09068121  0.78444950  1
  La  La4  1  0.75000000  0.24163329  0.54020759  1
  La  La5  1  0.75000000  0.74163329  0.95979241  1
  La  La6  1  0.25000000  0.75836671  0.45979241  1
  La  La7  1  0.25000000  0.25836671  0.04020759  1
  Cu  Cu8  1  0.75000000  0.37802365  0.86579814  1
  Cu  Cu9  1  0.75000000  0.87802365  0.63420186  1
  Cu  Cu10  1  0.25000000  0.62197635  0.13420186  1
  Cu  Cu11  1  0.25000000  0.12197635  0.36579814  1
  Se  Se12  1  0.75000000  0.12275320  0.93616123  1
  Se  Se13  1  0.75000000  0.62275320  0.56383877  1
  Se  Se14  1  0.25000000  0.87724680  0.06383877  1
  Se  Se15  1  0.25000000  0.37724680  0.43616123  1
  Se  Se16  1  0.75000000  0.32187909  0.71876259  1
  Se  Se17  1  0.75000000  0.82187909  0.78123741  1
  Se  Se18  1  0.25000000  0.67812091  0.28123741  1
  Se  Se19  1  0.25000000  0.17812091  0.21876259  1
  Se  Se20  1  0.75000000  0.49165244  0.09681547  1
  Se  Se21  1  0.75000000  0.99165244  0.40318453  1
  Se  Se22  1  0.25000000  0.50834756  0.90318453  1
  Se  Se23  1  0.25000000  0.00834756  0.59681547  1
