# generated using pymatgen
data_TaCu3(TeSe)2
_symmetry_space_group_name_H-M   'P 1'
_cell_length_a   5.88029204
_cell_length_b   5.88029204
_cell_length_c   5.86949390
_cell_angle_alpha   90.00000000
_cell_angle_beta   90.00000000
_cell_angle_gamma   90.64423964
_symmetry_Int_Tables_number   1
_chemical_formula_structural   TaCu3(TeSe)2
_chemical_formula_sum   'Ta1 Cu3 Te2 Se2'
_cell_volume   202.94155894
_cell_formula_units_Z   1
loop_
 _symmetry_equiv_pos_site_id
 _symmetry_equiv_pos_as_xyz
  1  'x, y, z'
loop_
 _atom_site_type_symbol
 _atom_site_label
 _atom_site_symmetry_multiplicity
 _atom_site_fract_x
 _atom_site_fract_y
 _atom_site_fract_z
 _atom_site_occupancy
  Ta  Ta0  1  0.00000000  -0.00000000  0.99378107  1
  Cu  Cu1  1  0.00000000  0.50000000  0.98961818  1
  Cu  Cu2  1  0.50000000  -0.00000000  0.98961818  1
  Cu  Cu3  1  0.00000000  -0.00000000  0.50337917  1
  Te  Te4  1  0.73727144  0.73727144  0.25834018  1
  Te  Te5  1  0.26272856  0.26272856  0.25834018  1
  Se  Se6  1  0.75806837  0.24193163  0.75346151  1
  Se  Se7  1  0.24193163  0.75806837  0.75346151  1
