# generated using pymatgen
data_Sr6Ti3FeO14
_symmetry_space_group_name_H-M   'P 1'
_cell_length_a   3.93714395
_cell_length_b   3.93714395
_cell_length_c   20.43554760
_cell_angle_alpha   90.00000000
_cell_angle_beta   90.00000000
_cell_angle_gamma   90.00000000
_symmetry_Int_Tables_number   1
_chemical_formula_structural   Sr6Ti3FeO14
_chemical_formula_sum   'Sr6 Ti3 Fe1 O14'
_cell_volume   316.77351764
_cell_formula_units_Z   1
loop_
 _symmetry_equiv_pos_site_id
 _symmetry_equiv_pos_as_xyz
  1  'x, y, z'
loop_
 _atom_site_type_symbol
 _atom_site_label
 _atom_site_symmetry_multiplicity
 _atom_site_fract_x
 _atom_site_fract_y
 _atom_site_fract_z
 _atom_site_occupancy
  Sr  Sr0  1  0.50000000  0.50000000  0.18511005  1
  Sr  Sr1  1  -0.00000000  0.00000000  0.68410040  1
  Sr  Sr2  1  0.00000000  -0.00000000  0.31758196  1
  Sr  Sr3  1  0.50000000  0.50000000  0.81559883  1
  Sr  Sr4  1  0.50000000  0.50000000  0.00009914  1
  Sr  Sr5  1  0.00000000  0.00000000  0.49769516  1
  Ti  Ti6  1  0.00000000  0.00000000  0.90203213  1
  Ti  Ti7  1  0.00000000  0.00000000  0.09846999  1
  Ti  Ti8  1  0.50000000  0.50000000  0.59762722  1
  Fe  Fe9  1  0.50000000  0.50000000  0.40236573  1
  O  O10  1  0.50000000  0.50000000  0.30621964  1
  O  O11  1  0.00000000  0.00000000  0.80562859  1
  O  O12  1  0.00000000  -0.00000000  0.19429131  1
  O  O13  1  0.50000000  0.50000000  0.69363056  1
  O  O14  1  -0.00000000  0.50000000  0.40356910  1
  O  O15  1  0.50000000  -0.00000000  0.90322886  1
  O  O16  1  0.50000000  0.00000000  0.40356910  1
  O  O17  1  -0.00000000  0.50000000  0.90322886  1
  O  O18  1  0.50000000  -0.00000000  0.09671854  1
  O  O19  1  0.00000000  0.50000000  0.59669046  1
  O  O20  1  0.00000000  0.50000000  0.09671854  1
  O  O21  1  0.50000000  -0.00000000  0.59669046  1
  O  O22  1  -0.00000000  0.00000000  0.99990955  1
  O  O23  1  0.50000000  0.50000000  0.49922581  1
