# generated using pymatgen
data_Ga3Ge
_symmetry_space_group_name_H-M   'P 1'
_cell_length_a   6.18116096
_cell_length_b   6.18115718
_cell_length_c   4.72703721
_cell_angle_alpha   90.00000000
_cell_angle_beta   90.00000000
_cell_angle_gamma   120.51975641
_symmetry_Int_Tables_number   1
_chemical_formula_structural   Ga3Ge
_chemical_formula_sum   'Ga6 Ge2'
_cell_volume   155.58259289
_cell_formula_units_Z   2
loop_
 _symmetry_equiv_pos_site_id
 _symmetry_equiv_pos_as_xyz
  1  'x, y, z'
loop_
 _atom_site_type_symbol
 _atom_site_label
 _atom_site_symmetry_multiplicity
 _atom_site_fract_x
 _atom_site_fract_y
 _atom_site_fract_z
 _atom_site_occupancy
  Ga  Ga0  1  0.16662416  0.33322191  0.25000200  1
  Ga  Ga1  1  0.66677809  0.83337684  0.25000200  1
  Ga  Ga2  1  0.16691811  0.83308289  0.25000200  1
  Ga  Ga3  1  0.83337584  0.66677709  0.75000100  1
  Ga  Ga4  1  0.33322291  0.16662516  0.75000100  1
  Ga  Ga5  1  0.83308189  0.16691811  0.75000100  1
  Ge  Ge6  1  0.33317213  0.66682887  0.75000100  1
  Ge  Ge7  1  0.66682987  0.33317313  0.25000200  1
