# generated using pymatgen
data_SmYCo6
_symmetry_space_group_name_H-M   'P 1'
_cell_length_a   4.99896833
_cell_length_b   4.99896858
_cell_length_c   16.75587407
_cell_angle_alpha   81.42113358
_cell_angle_beta   90.00000128
_cell_angle_gamma   120.00000162
_symmetry_Int_Tables_number   1
_chemical_formula_structural   SmYCo6
_chemical_formula_sum   'Sm3 Y3 Co18'
_cell_volume   357.20573359
_cell_formula_units_Z   3
loop_
 _symmetry_equiv_pos_site_id
 _symmetry_equiv_pos_as_xyz
  1  'x, y, z'
loop_
 _atom_site_type_symbol
 _atom_site_label
 _atom_site_symmetry_multiplicity
 _atom_site_fract_x
 _atom_site_fract_y
 _atom_site_fract_z
 _atom_site_occupancy
  Sm  Sm0  1  0.56959929  0.13919857  0.29120214  1
  Sm  Sm1  1  0.06994438  0.13988875  0.79016687  1
  Sm  Sm2  1  0.93027537  0.86055074  0.20917389  1
  Y  Y3  1  0.43039920  0.86079840  0.70880240  1
  Y  Y4  1  0.00015541  0.00031082  0.99953377  1
  Y  Y5  1  0.49973289  0.99946579  0.50080132  1
  Co  Co6  1  0.04005920  0.57877771  0.38116309  1
  Co  Co7  1  0.53992564  0.58091300  0.87916136  1
  Co  Co8  1  0.53871851  0.57877771  0.38116309  1
  Co  Co9  1  0.04098736  0.58091300  0.87916136  1
  Co  Co10  1  0.04005920  0.08011840  0.38116309  1
  Co  Co11  1  0.53992564  0.07985128  0.87916136  1
  Co  Co12  1  0.46025601  0.42077904  0.11896495  1
  Co  Co13  1  0.95945997  0.41965144  0.62088859  1
  Co  Co14  1  0.96052303  0.42077904  0.11896495  1
  Co  Co15  1  0.46019147  0.41965144  0.62088859  1
  Co  Co16  1  0.46025601  0.92051202  0.11896495  1
  Co  Co17  1  0.95945997  0.91891994  0.62088859  1
  Co  Co18  1  0.66751903  0.33503806  0.99744291  1
  Co  Co19  1  0.16683388  0.33366776  0.49949836  1
  Co  Co20  1  0.83257172  0.66514345  0.50228483  1
  Co  Co21  1  0.33299716  0.66599432  0.00100852  1
  Co  Co22  1  0.24998586  0.49997172  0.25004242  1
  Co  Co23  1  0.75016379  0.50032758  0.74950863  1
