# generated using pymatgen
data_Sr2PrMn3O9
_symmetry_space_group_name_H-M   'P 1'
_cell_length_a   5.45994092
_cell_length_b   5.53925710
_cell_length_c   13.50441218
_cell_angle_alpha   88.76048526
_cell_angle_beta   90.00000005
_cell_angle_gamma   60.47253951
_symmetry_Int_Tables_number   1
_chemical_formula_structural   Sr2PrMn3O9
_chemical_formula_sum   'Sr4 Pr2 Mn6 O18'
_cell_volume   355.27107092
_cell_formula_units_Z   2
loop_
 _symmetry_equiv_pos_site_id
 _symmetry_equiv_pos_as_xyz
  1  'x, y, z'
loop_
 _atom_site_type_symbol
 _atom_site_label
 _atom_site_symmetry_multiplicity
 _atom_site_fract_x
 _atom_site_fract_y
 _atom_site_fract_z
 _atom_site_occupancy
  Sr  Sr0  1  0.66810599  0.66719828  0.91613185  1
  Sr  Sr1  1  0.00197028  0.99946872  0.25053515  1
  Sr  Sr2  1  0.66469672  0.66719828  0.41613185  1
  Sr  Sr3  1  0.99856101  0.99946872  0.75053515  1
  Pr  Pr4  1  0.32868798  0.33333300  0.58333300  1
  Pr  Pr5  1  0.33797802  0.33333300  0.08333300  1
  Mn  Mn6  1  0.66657304  0.66726704  0.16729581  1
  Mn  Mn7  1  0.00009396  -0.00060004  0.49937119  1
  Mn  Mn8  1  0.33333300  0.33333300  0.83333300  1
  Mn  Mn9  1  0.00050608  -0.00060004  0.99937119  1
  Mn  Mn10  1  0.33333300  0.33333300  0.33333300  1
  Mn  Mn11  1  0.66616092  0.66726704  0.66729581  1
  O  O12  1  0.44578753  0.52154201  0.73293070  1
  O  O13  1  0.77014334  0.87366273  0.07175650  1
  O  O14  1  0.11833596  0.19236111  0.40580167  1
  O  O15  1  0.22087947  0.14512499  0.93373630  1
  O  O16  1  0.54833004  0.47430489  0.26086433  1
  O  O17  1  0.89652366  0.79300427  0.59491050  1
  O  O18  1  0.03267146  0.52154201  0.23293070  1
  O  O19  1  0.35619393  0.87366273  0.57175650  1
  O  O20  1  0.68930193  0.19236111  0.90580167  1
  O  O21  1  0.97736407  0.47430489  0.76086433  1
  O  O22  1  0.31047307  0.79300427  0.09491050  1
  O  O23  1  0.63399554  0.14512499  0.43373630  1
  O  O24  1  0.16954203  0.66018473  0.92183430  1
  O  O25  1  0.49639277  0.00648227  0.24483270  1
  O  O26  1  0.82628601  0.33333300  0.58333300  1
  O  O27  1  0.84037999  0.33333300  0.08333300  1
  O  O28  1  0.17027423  0.66018473  0.42183430  1
  O  O29  1  0.49712497  0.00648227  0.74483270  1
