# generated using pymatgen
data_Ni6SnSb
_symmetry_space_group_name_H-M   'P 1'
_cell_length_a   4.25264097
_cell_length_b   4.54883380
_cell_length_c   5.30306584
_cell_angle_alpha   90.00000000
_cell_angle_beta   90.00000000
_cell_angle_gamma   90.00000000
_symmetry_Int_Tables_number   1
_chemical_formula_structural   Ni6SnSb
_chemical_formula_sum   'Ni6 Sn1 Sb1'
_cell_volume   102.58545933
_cell_formula_units_Z   1
loop_
 _symmetry_equiv_pos_site_id
 _symmetry_equiv_pos_as_xyz
  1  'x, y, z'
loop_
 _atom_site_type_symbol
 _atom_site_label
 _atom_site_symmetry_multiplicity
 _atom_site_fract_x
 _atom_site_fract_y
 _atom_site_fract_z
 _atom_site_occupancy
  Ni  Ni0  1  0.75000000  0.83258313  0.99562971  1
  Ni  Ni1  1  0.75000000  0.83258313  0.50437029  1
  Ni  Ni2  1  0.25000000  0.16847088  0.99924557  1
  Ni  Ni3  1  0.25000000  0.16847088  0.50075443  1
  Ni  Ni4  1  0.25000000  0.68709380  0.75000000  1
  Ni  Ni5  1  0.75000000  0.30965660  0.25000000  1
  Sn  Sn6  1  0.25000000  0.67188862  0.25000000  1
  Sb  Sb7  1  0.75000000  0.32925295  0.75000000  1
