# generated using pymatgen
data_Sr4IBrN2
_symmetry_space_group_name_H-M   'P 1'
_cell_length_a   3.99625804
_cell_length_b   3.99625777
_cell_length_c   15.38848107
_cell_angle_alpha   82.53932105
_cell_angle_beta   89.99999975
_cell_angle_gamma   119.99999771
_symmetry_Int_Tables_number   1
_chemical_formula_structural   Sr4IBrN2
_chemical_formula_sum   'Sr4 I1 Br1 N2'
_cell_volume   210.42448006
_cell_formula_units_Z   1
loop_
 _symmetry_equiv_pos_site_id
 _symmetry_equiv_pos_as_xyz
  1  'x, y, z'
loop_
 _atom_site_type_symbol
 _atom_site_label
 _atom_site_symmetry_multiplicity
 _atom_site_fract_x
 _atom_site_fract_y
 _atom_site_fract_z
 _atom_site_occupancy
  Sr  Sr0  1  0.61539454  0.23078907  0.15381639  1
  Sr  Sr1  1  0.10967610  0.21935220  0.67097170  1
  Sr  Sr2  1  0.89032390  0.78064780  0.32902830  1
  Sr  Sr3  1  0.38460546  0.76921093  0.84618361  1
  I  I4  1  0.50000000  -0.00000000  0.50000000  1
  Br  Br5  1  -0.00000000  -0.00000000  0.00000000  1
  N  N6  1  0.25293587  0.50587174  0.24119238  1
  N  N7  1  0.74706413  0.49412826  0.75880762  1
