# generated using pymatgen
data_Rb2ZnI4
_symmetry_space_group_name_H-M   'P 1'
_cell_length_a   7.86265814
_cell_length_b   8.41218059
_cell_length_c   10.59912385
_cell_angle_alpha   90.00000000
_cell_angle_beta   109.72890631
_cell_angle_gamma   90.00000000
_symmetry_Int_Tables_number   1
_chemical_formula_structural   Rb2ZnI4
_chemical_formula_sum   'Rb4 Zn2 I8'
_cell_volume   659.89702568
_cell_formula_units_Z   2
loop_
 _symmetry_equiv_pos_site_id
 _symmetry_equiv_pos_as_xyz
  1  'x, y, z'
loop_
 _atom_site_type_symbol
 _atom_site_label
 _atom_site_symmetry_multiplicity
 _atom_site_fract_x
 _atom_site_fract_y
 _atom_site_fract_z
 _atom_site_occupancy
  Rb  Rb0  1  0.30500081  0.74972460  0.96344012  1
  Rb  Rb1  1  0.69499919  0.24972460  0.03655988  1
  Rb  Rb2  1  0.20299586  0.74951285  0.41428110  1
  Rb  Rb3  1  0.79700414  0.24951285  0.58571890  1
  Zn  Zn4  1  0.69704256  0.75121438  0.78416121  1
  Zn  Zn5  1  0.30295744  0.25121438  0.21583879  1
  I  I6  1  0.48384455  0.49965493  0.72293250  1
  I  I7  1  0.51615545  0.99965493  0.27706750  1
  I  I8  1  0.51984444  0.50201135  0.27831785  1
  I  I9  1  0.48015556  0.00201135  0.72168215  1
  I  I10  1  0.86634996  0.76224768  0.04731932  1
  I  I11  1  0.13365004  0.26224768  0.95268068  1
  I  I12  1  0.91987518  0.76023420  0.64607007  1
  I  I13  1  0.08012482  0.26023420  0.35392993  1
