# generated using pymatgen
data_Sr2La2MgMnO8
_symmetry_space_group_name_H-M   'P 1'
_cell_length_a   5.50629217
_cell_length_b   5.50375161
_cell_length_c   12.61420679
_cell_angle_alpha   90.00000000
_cell_angle_beta   90.00000000
_cell_angle_gamma   90.00000000
_symmetry_Int_Tables_number   1
_chemical_formula_structural   Sr2La2MgMnO8
_chemical_formula_sum   'Sr4 La4 Mg2 Mn2 O16'
_cell_volume   382.27687191
_cell_formula_units_Z   2
loop_
 _symmetry_equiv_pos_site_id
 _symmetry_equiv_pos_as_xyz
  1  'x, y, z'
loop_
 _atom_site_type_symbol
 _atom_site_label
 _atom_site_symmetry_multiplicity
 _atom_site_fract_x
 _atom_site_fract_y
 _atom_site_fract_z
 _atom_site_occupancy
  Sr  Sr0  1  -0.00000000  0.50000000  0.14385148  1
  Sr  Sr1  1  0.50000000  -0.00000000  0.85651140  1
  Sr  Sr2  1  -0.00000000  -0.00000000  0.35794858  1
  Sr  Sr3  1  -0.00000000  -0.00000000  0.64139524  1
  La  La4  1  -0.00000000  0.50000000  0.86117379  1
  La  La5  1  0.50000000  -0.00000000  0.13765037  1
  La  La6  1  0.50000000  0.50000000  0.35857949  1
  La  La7  1  0.50000000  0.50000000  0.64012164  1
  Mg  Mg8  1  0.50000000  0.50000000  0.00039431  1
  Mg  Mg9  1  -0.00000000  0.50000000  0.49746154  1
  Mn  Mn10  1  -0.00000000  0.00000000  0.99996581  1
  Mn  Mn11  1  0.50000000  0.00000000  0.50230789  1
  O  O12  1  0.26307930  0.75274843  0.50111926  1
  O  O13  1  0.73692070  0.24725157  0.50111926  1
  O  O14  1  0.26307930  0.24725157  0.50111926  1
  O  O15  1  0.73692070  0.75274843  0.50111926  1
  O  O16  1  -0.00000000  0.50000000  0.33335974  1
  O  O17  1  -0.00000000  0.50000000  0.67792434  1
  O  O18  1  0.50000000  0.00000000  0.65805352  1
  O  O19  1  0.50000000  -0.00000000  0.33105791  1
  O  O20  1  0.50000000  0.50000000  0.17496490  1
  O  O21  1  0.50000000  0.50000000  0.82377710  1
  O  O22  1  -0.00000000  -0.00000000  0.15782084  1
  O  O23  1  -0.00000000  -0.00000000  0.84117216  1
  O  O24  1  0.24554140  0.75843638  0.00000772  1
  O  O25  1  0.75445860  0.24156362  0.00000772  1
  O  O26  1  0.24554140  0.24156362  0.00000772  1
  O  O27  1  0.75445860  0.75843638  0.00000772  1
