# generated using pymatgen
data_Sr14Hg51
_symmetry_space_group_name_H-M   'P 1'
_cell_length_a   10.37257995
_cell_length_b   14.17301092
_cell_length_c   14.17199017
_cell_angle_alpha   119.99855900
_cell_angle_beta   90.00000000
_cell_angle_gamma   90.00000000
_symmetry_Int_Tables_number   1
_chemical_formula_structural   Sr14Hg51
_chemical_formula_sum   'Sr14 Hg51'
_cell_volume   1804.33300359
_cell_formula_units_Z   1
loop_
 _symmetry_equiv_pos_site_id
 _symmetry_equiv_pos_as_xyz
  1  'x, y, z'
loop_
 _atom_site_type_symbol
 _atom_site_label
 _atom_site_symmetry_multiplicity
 _atom_site_fract_x
 _atom_site_fract_y
 _atom_site_fract_z
 _atom_site_occupancy
  Sr  Sr0  1  0.50000000  0.67438053  0.53492815  1
  Sr  Sr1  1  0.50000000  0.46506629  0.13944689  1
  Sr  Sr2  1  0.50000000  0.86054862  0.32562389  1
  Sr  Sr3  1  0.50000000  0.32639846  0.46768520  1
  Sr  Sr4  1  0.50000000  0.53233792  0.85872104  1
  Sr  Sr5  1  0.50000000  0.14129827  0.67360487  1
  Sr  Sr6  1  0.00000000  0.27373090  0.88497955  1
  Sr  Sr7  1  0.00000000  0.11501196  0.38875561  1
  Sr  Sr8  1  0.00000000  0.61125037  0.72626480  1
  Sr  Sr9  1  0.00000000  0.71870472  0.11658367  1
  Sr  Sr10  1  0.00000000  0.88341920  0.60212399  1
  Sr  Sr11  1  0.00000000  0.39786780  0.28129321  1
  Sr  Sr12  1  0.30835667  0.99999854  0.99999966  1
  Sr  Sr13  1  0.69164333  0.99999854  0.99999966  1
  Hg  Hg14  1  0.14726475  0.62095087  0.50744029  1
  Hg  Hg15  1  0.14726463  0.49255658  0.11350472  1
  Hg  Hg16  1  0.14726780  0.88647558  0.37904546  1
  Hg  Hg17  1  0.14665172  0.38028545  0.49450483  1
  Hg  Hg18  1  0.14664866  0.50549867  0.88578607  1
  Hg  Hg19  1  0.14665068  0.11422757  0.61971569  1
  Hg  Hg20  1  0.85334828  0.38028545  0.49450483  1
  Hg  Hg21  1  0.85335134  0.50549867  0.88578607  1
  Hg  Hg22  1  0.85334932  0.11422757  0.61971569  1
  Hg  Hg23  1  0.85273525  0.62095087  0.50744029  1
  Hg  Hg24  1  0.85273537  0.49255658  0.11350472  1
  Hg  Hg25  1  0.85273220  0.88647558  0.37904546  1
  Hg  Hg26  1  0.50000000  0.17904586  0.94375284  1
  Hg  Hg27  1  0.50000000  0.05623928  0.23528965  1
  Hg  Hg28  1  0.50000000  0.76471017  0.82094600  1
  Hg  Hg29  1  0.50000000  0.82332559  0.05647046  1
  Hg  Hg30  1  0.50000000  0.94353775  0.76685752  1
  Hg  Hg31  1  0.50000000  0.23313432  0.17667303  1
  Hg  Hg32  1  0.00000000  0.66665143  0.33332579  1
  Hg  Hg33  1  0.00000000  0.33334187  0.66667019  1
  Hg  Hg34  1  0.33587584  0.33862517  0.89472133  1
  Hg  Hg35  1  0.33587628  0.10527873  0.44390501  1
  Hg  Hg36  1  0.33587660  0.55610118  0.66137042  1
  Hg  Hg37  1  0.33619230  0.66404450  0.10691308  1
  Hg  Hg38  1  0.33619037  0.89309131  0.55713314  1
  Hg  Hg39  1  0.33619212  0.44286105  0.33595468  1
  Hg  Hg40  1  0.66380770  0.66404450  0.10691308  1
  Hg  Hg41  1  0.66380963  0.89309131  0.55713314  1
  Hg  Hg42  1  0.66380788  0.44286105  0.33595468  1
  Hg  Hg43  1  0.66412416  0.33862517  0.89472133  1
  Hg  Hg44  1  0.66412372  0.10527873  0.44390501  1
  Hg  Hg45  1  0.66412340  0.55610118  0.66137042  1
  Hg  Hg46  1  0.22881124  0.07700711  0.80601011  1
  Hg  Hg47  1  0.22881076  0.19398655  0.27099462  1
  Hg  Hg48  1  0.22881316  0.72900513  0.92299303  1
  Hg  Hg49  1  0.22390371  0.92547460  0.19182546  1
  Hg  Hg50  1  0.22390398  0.80817898  0.73365628  1
  Hg  Hg51  1  0.22390698  0.26634499  0.07452358  1
  Hg  Hg52  1  0.77609629  0.92547460  0.19182546  1
  Hg  Hg53  1  0.77609602  0.80817898  0.73365628  1
  Hg  Hg54  1  0.77609302  0.26634499  0.07452358  1
  Hg  Hg55  1  0.77118876  0.07700711  0.80601011  1
  Hg  Hg56  1  0.77118924  0.19398655  0.27099462  1
  Hg  Hg57  1  0.77118684  0.72900513  0.92299303  1
  Hg  Hg58  1  0.31197862  0.66667162  0.33333669  1
  Hg  Hg59  1  0.30767400  0.33333582  0.66666705  1
  Hg  Hg60  1  0.69232600  0.33333582  0.66666705  1
  Hg  Hg61  1  0.68802138  0.66667162  0.33333669  1
  Hg  Hg62  1  0.00000000  0.98315549  0.87143813  1
  Hg  Hg63  1  0.00000000  0.12856078  0.11171165  1
  Hg  Hg64  1  0.00000000  0.88828243  0.01685153  1
