# generated using pymatgen
data_SmY4Se5
_symmetry_space_group_name_H-M   'P 1'
_cell_length_a   4.12554189
_cell_length_b   4.12554189
_cell_length_c   16.81996993
_cell_angle_alpha   90.00000000
_cell_angle_beta   97.04438554
_cell_angle_gamma   120.00000000
_symmetry_Int_Tables_number   1
_chemical_formula_structural   SmY4Se5
_chemical_formula_sum   'Sm1 Y4 Se5'
_cell_volume   245.42513125
_cell_formula_units_Z   1
loop_
 _symmetry_equiv_pos_site_id
 _symmetry_equiv_pos_as_xyz
  1  'x, y, z'
loop_
 _atom_site_type_symbol
 _atom_site_label
 _atom_site_symmetry_multiplicity
 _atom_site_fract_x
 _atom_site_fract_y
 _atom_site_fract_z
 _atom_site_occupancy
  Sm  Sm0  1  -0.00000000  -0.00000000  0.00000000  1
  Y  Y1  1  0.80045645  0.40022822  0.20068467  1
  Y  Y2  1  0.59991356  0.79995678  0.39987035  1
  Y  Y3  1  0.40008644  0.20004322  0.60012965  1
  Y  Y4  1  0.19954355  0.59977178  0.79931533  1
  Se  Se5  1  0.59731865  0.29865933  0.89597798  1
  Se  Se6  1  0.79978603  0.89989302  0.69967905  1
  Se  Se7  1  -0.00000000  0.50000000  0.50000000  1
  Se  Se8  1  0.40268135  0.70134067  0.10402202  1
  Se  Se9  1  0.20021397  0.10010698  0.30032095  1
