# generated using pymatgen
data_SrAl12O19
_symmetry_space_group_name_H-M   'P 1'
_cell_length_a   5.61897827
_cell_length_b   5.61897827
_cell_length_c   22.17953601
_cell_angle_alpha   90.00000000
_cell_angle_beta   90.00000000
_cell_angle_gamma   120.00034651
_symmetry_Int_Tables_number   1
_chemical_formula_structural   SrAl12O19
_chemical_formula_sum   'Sr2 Al24 O38'
_cell_volume   606.45178252
_cell_formula_units_Z   2
loop_
 _symmetry_equiv_pos_site_id
 _symmetry_equiv_pos_as_xyz
  1  'x, y, z'
loop_
 _atom_site_type_symbol
 _atom_site_label
 _atom_site_symmetry_multiplicity
 _atom_site_fract_x
 _atom_site_fract_y
 _atom_site_fract_z
 _atom_site_occupancy
  Sr  Sr0  1  0.33331837  0.66668163  0.74894626  1
  Sr  Sr1  1  0.66668163  0.33331837  0.24894626  1
  Al  Al2  1  0.66667420  0.33332580  0.52854599  1
  Al  Al3  1  0.33332581  0.66667419  0.47207670  1
  Al  Al4  1  0.33332580  0.66667420  0.02854599  1
  Al  Al5  1  0.66667419  0.33332581  0.97207670  1
  Al  Al6  1  0.66666970  0.33333030  0.69029109  1
  Al  Al7  1  0.33333054  0.66666946  0.30939919  1
  Al  Al8  1  0.33333030  0.66666970  0.19029109  1
  Al  Al9  1  0.66666946  0.33333054  0.80939919  1
  Al  Al10  1  0.00000020  0.99999980  0.50039716  1
  Al  Al11  1  0.99999980  0.00000020  0.00039716  1
  Al  Al12  1  0.83084000  0.66168439  0.39185618  1
  Al  Al13  1  0.83084337  0.16915663  0.39185653  1
  Al  Al14  1  0.33831561  0.16916000  0.39185618  1
  Al  Al15  1  0.16767422  0.33534338  0.60907396  1
  Al  Al16  1  0.16767144  0.83232856  0.60907327  1
  Al  Al17  1  0.66465662  0.83232578  0.60907396  1
  Al  Al18  1  0.16916000  0.33831561  0.89185618  1
  Al  Al19  1  0.16915663  0.83084337  0.89185653  1
  Al  Al20  1  0.66168439  0.83084000  0.89185618  1
  Al  Al21  1  0.83232578  0.66465662  0.10907396  1
  Al  Al22  1  0.83232856  0.16767144  0.10907327  1
  Al  Al23  1  0.33534338  0.16767422  0.10907396  1
  Al  Al24  1  0.00000143  0.99999857  0.75858490  1
  Al  Al25  1  0.99999857  0.00000143  0.25858490  1
  O  O26  1  0.33332013  0.66667987  0.55429736  1
  O  O27  1  0.66667887  0.33332113  0.44572892  1
  O  O28  1  0.66667987  0.33332013  0.05429736  1
  O  O29  1  0.33332113  0.66667887  0.94572892  1
  O  O30  1  0.81885744  0.63769915  0.75075641  1
  O  O31  1  0.81885394  0.18114606  0.75075626  1
  O  O32  1  0.36230085  0.18114256  0.75075641  1
  O  O33  1  0.18114256  0.36230085  0.25075641  1
  O  O34  1  0.18114606  0.81885394  0.25075626  1
  O  O35  1  0.63769915  0.81885744  0.25075641  1
  O  O36  1  0.49785907  0.99571354  0.64828288  1
  O  O37  1  0.49786032  0.50213968  0.64828261  1
  O  O38  1  0.00428646  0.50214093  0.64828288  1
  O  O39  1  0.50260739  0.00521864  0.35201267  1
  O  O40  1  0.50260630  0.49739370  0.35201307  1
  O  O41  1  0.99478136  0.49739261  0.35201267  1
  O  O42  1  0.50214093  0.00428646  0.14828288  1
  O  O43  1  0.50213968  0.49786032  0.14828261  1
  O  O44  1  0.99571354  0.49785907  0.14828288  1
  O  O45  1  0.49739261  0.99478136  0.85201267  1
  O  O46  1  0.49739370  0.50260630  0.85201307  1
  O  O47  1  0.00521864  0.50260739  0.85201267  1
  O  O48  1  0.84474254  0.68949337  0.55143473  1
  O  O49  1  0.84475418  0.15524582  0.55143653  1
  O  O50  1  0.31050663  0.15525746  0.55143473  1
  O  O51  1  0.15457541  0.30914272  0.44776692  1
  O  O52  1  0.15456393  0.84543607  0.44776524  1
  O  O53  1  0.69085728  0.84542459  0.44776692  1
  O  O54  1  0.15525746  0.31050663  0.05143473  1
  O  O55  1  0.15524582  0.84475418  0.05143653  1
  O  O56  1  0.68949337  0.84474254  0.05143473  1
  O  O57  1  0.84542459  0.69085728  0.94776692  1
  O  O58  1  0.84543607  0.15456393  0.94776524  1
  O  O59  1  0.30914272  0.15457541  0.94776692  1
  O  O60  1  0.00000138  0.99999862  0.64765044  1
  O  O61  1  -0.00000111  0.00000111  0.35013096  1
  O  O62  1  0.99999862  0.00000138  0.14765044  1
  O  O63  1  0.00000111  -0.00000111  0.85013096  1
