# generated using pymatgen
data_Sm6Cu8P8O3
_symmetry_space_group_name_H-M   'P 1'
_cell_length_a   5.55134358
_cell_length_b   5.55683108
_cell_length_c   13.43096872
_cell_angle_alpha   90.00000000
_cell_angle_beta   78.07318763
_cell_angle_gamma   90.00000000
_symmetry_Int_Tables_number   1
_chemical_formula_structural   Sm6Cu8P8O3
_chemical_formula_sum   'Sm6 Cu8 P8 O3'
_cell_volume   405.37277717
_cell_formula_units_Z   1
loop_
 _symmetry_equiv_pos_site_id
 _symmetry_equiv_pos_as_xyz
  1  'x, y, z'
loop_
 _atom_site_type_symbol
 _atom_site_label
 _atom_site_symmetry_multiplicity
 _atom_site_fract_x
 _atom_site_fract_y
 _atom_site_fract_z
 _atom_site_occupancy
  Sm  Sm0  1  0.31446922  0.01553576  0.40216403  1
  Sm  Sm1  1  0.78336675  0.48446424  0.40216403  1
  Sm  Sm2  1  0.21663325  0.48446424  0.59783597  1
  Sm  Sm3  1  0.68553078  0.01553576  0.59783597  1
  Sm  Sm4  1  0.50000000  0.50021830  -0.00000000  1
  Sm  Sm5  1  -0.00000000  0.99978170  -0.00000000  1
  Cu  Cu6  1  0.34631288  0.25000000  0.80737425  1
  Cu  Cu7  1  0.84479783  0.75000000  0.81040434  1
  Cu  Cu8  1  0.84607377  0.25000000  0.80785245  1
  Cu  Cu9  1  0.34615255  0.75000000  0.80769489  1
  Cu  Cu10  1  0.15392623  0.25000000  0.19214755  1
  Cu  Cu11  1  0.65384745  0.75000000  0.19230511  1
  Cu  Cu12  1  0.65368712  0.25000000  0.19262575  1
  Cu  Cu13  1  0.15520217  0.75000000  0.18959566  1
  P  P14  1  0.14051027  0.99473026  0.70862488  1
  P  P15  1  0.65086486  0.50526974  0.70862488  1
  P  P16  1  0.34913514  0.50526974  0.29137512  1
  P  P17  1  0.85948973  0.99473026  0.29137512  1
  P  P18  1  0.45719393  0.00095352  0.08650652  1
  P  P19  1  0.95629955  0.49904648  0.08650652  1
  P  P20  1  0.04370045  0.49904648  0.91349348  1
  P  P21  1  0.54280607  0.00095352  0.91349348  1
  O  O22  1  0.50000000  0.25000000  0.50000000  1
  O  O23  1  0.50000000  0.75000000  0.50000000  1
  O  O24  1  -0.00000000  0.25000000  0.50000000  1
