# generated using pymatgen
data_Pr6Al3Fe11
_symmetry_space_group_name_H-M   'P 1'
_cell_length_a   8.09431634
_cell_length_b   8.09431634
_cell_length_c   13.05710875
_cell_angle_alpha   71.94328742
_cell_angle_beta   71.94328742
_cell_angle_gamma   90.00000000
_symmetry_Int_Tables_number   1
_chemical_formula_structural   Pr6Al3Fe11
_chemical_formula_sum   'Pr12 Al6 Fe22'
_cell_volume   768.90594325
_cell_formula_units_Z   2
loop_
 _symmetry_equiv_pos_site_id
 _symmetry_equiv_pos_as_xyz
  1  'x, y, z'
loop_
 _atom_site_type_symbol
 _atom_site_label
 _atom_site_symmetry_multiplicity
 _atom_site_fract_x
 _atom_site_fract_y
 _atom_site_fract_z
 _atom_site_occupancy
  Pr  Pr0  1  0.35143859  0.85143859  0.62935714  1
  Pr  Pr1  1  0.01920427  0.51920427  0.62935714  1
  Pr  Pr2  1  0.51920427  0.35143859  0.62935714  1
  Pr  Pr3  1  0.85143859  0.01920427  0.62935714  1
  Pr  Pr4  1  0.64053070  0.14053070  0.38209655  1
  Pr  Pr5  1  0.97737274  0.47737274  0.38209655  1
  Pr  Pr6  1  0.47737274  0.64053070  0.38209655  1
  Pr  Pr7  1  0.14053070  0.97737274  0.38209655  1
  Pr  Pr8  1  0.39409407  0.39409407  0.21181185  1
  Pr  Pr9  1  0.89409407  0.89409407  0.21181185  1
  Pr  Pr10  1  0.60573088  0.60573088  0.78853823  1
  Pr  Pr11  1  0.10573088  0.10573088  0.78853823  1
  Al  Al12  1  0.74971706  0.74971706  0.50056588  1
  Al  Al13  1  0.24971706  0.24971706  0.50056588  1
  Al  Al14  1  0.52576008  0.02576008  0.18557341  1
  Al  Al15  1  0.28866651  0.78866651  0.18557341  1
  Al  Al16  1  0.78866651  0.52576008  0.18557341  1
  Al  Al17  1  0.02576008  0.28866651  0.18557341  1
  Fe  Fe18  1  0.23773800  0.73773800  0.88298439  1
  Fe  Fe19  1  0.87927761  0.37927761  0.88298439  1
  Fe  Fe20  1  0.37927761  0.23773800  0.88298439  1
  Fe  Fe21  1  0.73773800  0.87927761  0.88298439  1
  Fe  Fe22  1  0.76862261  0.26862261  0.11118546  1
  Fe  Fe23  1  0.12019194  0.62019194  0.11118546  1
  Fe  Fe24  1  0.62019194  0.76862261  0.11118546  1
  Fe  Fe25  1  0.26862261  0.12019194  0.11118546  1
  Fe  Fe26  1  0.71171020  0.56933765  0.99814741  1
  Fe  Fe27  1  0.29014239  0.43251494  0.99814741  1
  Fe  Fe28  1  0.79014239  0.06933765  0.99814741  1
  Fe  Fe29  1  0.21171020  0.93251494  0.99814741  1
  Fe  Fe30  1  0.56933765  0.29014239  0.99814741  1
  Fe  Fe31  1  0.43251494  0.71171020  0.99814741  1
  Fe  Fe32  1  0.06933765  0.21171020  0.99814741  1
  Fe  Fe33  1  0.93251494  0.79014239  0.99814741  1
  Fe  Fe34  1  0.00120931  0.50120931  0.99758137  1
  Fe  Fe35  1  0.50120931  0.00120931  0.99758137  1
  Fe  Fe36  1  0.48078997  0.98078997  0.81325954  1
  Fe  Fe37  1  0.70595049  0.20595049  0.81325954  1
  Fe  Fe38  1  0.20595049  0.48078997  0.81325954  1
  Fe  Fe39  1  0.98078997  0.70595049  0.81325954  1
