# generated using pymatgen
data_NdTi12(Bi5O16)3
_symmetry_space_group_name_H-M   'P 1'
_cell_length_a   5.49102651
_cell_length_b   16.92155691
_cell_length_c   10.90017338
_cell_angle_alpha   89.99279697
_cell_angle_beta   90.08179596
_cell_angle_gamma   99.27141119
_symmetry_Int_Tables_number   1
_chemical_formula_structural   NdTi12(Bi5O16)3
_chemical_formula_sum   'Nd1 Ti12 Bi15 O48'
_cell_volume   999.57621000
_cell_formula_units_Z   1
loop_
 _symmetry_equiv_pos_site_id
 _symmetry_equiv_pos_as_xyz
  1  'x, y, z'
loop_
 _atom_site_type_symbol
 _atom_site_label
 _atom_site_symmetry_multiplicity
 _atom_site_fract_x
 _atom_site_fract_y
 _atom_site_fract_z
 _atom_site_occupancy
  Nd  Nd0  1  0.51698250  0.12710169  0.74878607  1
  Ti  Ti1  1  0.06640537  0.25573330  0.24906487  1
  Ti  Ti2  1  0.05670902  0.25490062  0.74984046  1
  Ti  Ti3  1  0.56762462  0.25578920  0.99837213  1
  Ti  Ti4  1  0.56730315  0.25542236  0.50178104  1
  Ti  Ti5  1  0.94483961  0.99707074  0.24840070  1
  Ti  Ti6  1  0.94268749  0.99880500  0.74935940  1
  Ti  Ti7  1  0.44464812  0.99674632  0.50049267  1
  Ti  Ti8  1  0.44413457  0.99748881  0.00215745  1
  Ti  Ti9  1  0.80747731  0.74201338  0.24876191  1
  Ti  Ti10  1  0.80749092  0.74216230  0.74862418  1
  Ti  Ti11  1  0.30748766  0.74198977  0.00118328  1
  Ti  Ti12  1  0.30741419  0.74188159  0.50132242  1
  Bi  Bi13  1  0.76908251  0.57695948  0.48830835  1
  Bi  Bi14  1  0.76937204  0.57704902  0.98824540  1
  Bi  Bi15  1  0.26879582  0.57694654  0.26169988  1
  Bi  Bi16  1  0.26911911  0.57710000  0.76166729  1
  Bi  Bi17  1  0.19685327  0.42326357  0.01095575  1
  Bi  Bi18  1  0.19636146  0.42323246  0.51113485  1
  Bi  Bi19  1  0.69625816  0.42323888  0.23866054  1
  Bi  Bi20  1  0.69611081  0.42338414  0.73904095  1
  Bi  Bi21  1  0.91669372  0.86591872  0.49981219  1
  Bi  Bi22  1  0.91846438  0.86629359  0.99941645  1
  Bi  Bi23  1  0.41772952  0.86632298  0.25044589  1
  Bi  Bi24  1  0.41833850  0.86653827  0.75102779  1
  Bi  Bi25  1  0.04926354  0.13293854  0.49701415  1
  Bi  Bi26  1  0.05049102  0.13230833  0.99720778  1
  Bi  Bi27  1  0.55198621  0.13292055  0.25218928  1
  O  O28  1  0.49180221  0.74929066  0.15145725  1
  O  O29  1  0.49174176  0.74905760  0.65124498  1
  O  O30  1  0.99171407  0.74948387  0.09856344  1
  O  O31  1  0.99204290  0.74924561  0.59852520  1
  O  O32  1  0.67964271  0.97721227  0.38937416  1
  O  O33  1  0.67851445  0.97923917  0.88806957  1
  O  O34  1  0.17899097  0.97775319  0.36188272  1
  O  O35  1  0.18321331  0.97834379  0.85923498  1
  O  O36  1  0.95423887  0.11250846  0.28336030  1
  O  O37  1  0.97208293  0.11262402  0.78396643  1
  O  O38  1  0.45586828  0.11300326  0.46861128  1
  O  O39  1  0.45181572  0.11225985  0.96454189  1
  O  O40  1  0.76021070  0.24370354  0.35777632  1
  O  O41  1  0.76702894  0.24399731  0.85943797  1
  O  O42  1  0.25988284  0.24382302  0.39311509  1
  O  O43  1  0.26698454  0.24214283  0.89003144  1
  O  O44  1  0.79988435  0.21945016  0.11639412  1
  O  O45  1  0.80317151  0.22025219  0.61553080  1
  O  O46  1  0.30117830  0.21999898  0.13462964  1
  O  O47  1  0.30395262  0.21713342  0.63568049  1
  O  O48  1  0.10673972  0.36040515  0.22296361  1
  O  O49  1  0.10651943  0.35974586  0.72260497  1
  O  O50  1  0.60513873  0.36044545  0.02660284  1
  O  O51  1  0.60526989  0.36022415  0.52751741  1
  O  O52  1  0.75166173  0.63734158  0.27938818  1
  O  O53  1  0.75143451  0.63743039  0.77944382  1
  O  O54  1  0.25161085  0.63722947  0.47053943  1
  O  O55  1  0.25146882  0.63728711  0.97061470  1
  O  O56  1  0.46768335  0.50137809  0.12778874  1
  O  O57  1  0.46771401  0.50137763  0.62786122  1
  O  O58  1  0.96770234  0.50126146  0.12219269  1
  O  O59  1  0.96769939  0.50129942  0.62227629  1
  O  O60  1  0.58505261  0.77756492  0.39097247  1
  O  O61  1  0.58473323  0.77745959  0.89098391  1
  O  O62  1  0.08503436  0.77748938  0.35917149  1
  O  O63  1  0.08452460  0.77740793  0.85935212  1
  O  O64  1  0.83475260  0.88032371  0.21147857  1
  O  O65  1  0.83405897  0.88048642  0.71120281  1
  O  O66  1  0.33493846  0.88040761  0.03807996  1
  O  O67  1  0.33530619  0.88070576  0.53887551  1
  O  O68  1  0.96585314  0.49795718  0.37247197  1
  O  O69  1  0.96612011  0.49802861  0.87247284  1
  O  O70  1  0.46591028  0.49790236  0.37751183  1
  O  O71  1  0.46591941  0.49796261  0.87749523  1
  O  O72  1  0.63544012  0.01387103  0.14345527  1
  O  O73  1  0.63458368  0.01547486  0.64397093  1
  O  O74  1  0.13491035  0.01348235  0.10655554  1
  O  O75  1  0.14253250  0.01680657  0.60975448  1
