# generated using pymatgen
data_Pr9Ni24Sn49
_symmetry_space_group_name_H-M   'P 1'
_cell_length_a   10.37861137
_cell_length_b   10.37861137
_cell_length_c   17.13860257
_cell_angle_alpha   90.18601562
_cell_angle_beta   89.81398438
_cell_angle_gamma   109.33802189
_symmetry_Int_Tables_number   1
_chemical_formula_structural   Pr9Ni24Sn49
_chemical_formula_sum   'Pr9 Ni24 Sn49'
_cell_volume   1741.92658053
_cell_formula_units_Z   1
loop_
 _symmetry_equiv_pos_site_id
 _symmetry_equiv_pos_as_xyz
  1  'x, y, z'
loop_
 _atom_site_type_symbol
 _atom_site_label
 _atom_site_symmetry_multiplicity
 _atom_site_fract_x
 _atom_site_fract_y
 _atom_site_fract_z
 _atom_site_occupancy
  Pr  Pr0  1  0.75066237  0.75087392  0.24951323  1
  Pr  Pr1  1  0.24933763  0.24912608  0.75048677  1
  Pr  Pr2  1  0.50000000  -0.00000000  0.00000000  1
  Pr  Pr3  1  0.00000000  0.50000000  0.50000000  1
  Pr  Pr4  1  0.50000000  -0.00000000  0.50000000  1
  Pr  Pr5  1  0.00000000  0.50000000  0.00000000  1
  Pr  Pr6  1  0.24912608  0.24933763  0.24951323  1
  Pr  Pr7  1  0.75087392  0.75066237  0.75048677  1
  Pr  Pr8  1  0.00000000  -0.00000000  0.00000000  1
  Ni  Ni9  1  0.90314005  0.74175783  0.41988182  1
  Ni  Ni10  1  0.40188629  0.24132431  0.91978046  1
  Ni  Ni11  1  0.59811371  0.75867569  0.08021954  1
  Ni  Ni12  1  0.09685995  0.25824217  0.58011818  1
  Ni  Ni13  1  0.25824217  0.09685995  0.41988182  1
  Ni  Ni14  1  0.75867569  0.59811371  0.91978046  1
  Ni  Ni15  1  0.24132431  0.40188629  0.08021954  1
  Ni  Ni16  1  0.74175783  0.90314005  0.58011818  1
  Ni  Ni17  1  -0.00001234  0.67843833  0.16058313  1
  Ni  Ni18  1  0.49919566  0.17882703  0.66091486  1
  Ni  Ni19  1  0.50080434  0.82117297  0.33908514  1
  Ni  Ni20  1  0.00001234  0.32156167  0.83941687  1
  Ni  Ni21  1  0.17882703  0.49919566  0.33908514  1
  Ni  Ni22  1  0.67843833  -0.00001234  0.83941687  1
  Ni  Ni23  1  0.32156167  0.00001234  0.16058313  1
  Ni  Ni24  1  0.82117297  0.50080434  0.66091486  1
  Ni  Ni25  1  0.75974367  0.24025633  0.07945792  1
  Ni  Ni26  1  0.25950280  0.74049720  0.57987832  1
  Ni  Ni27  1  0.74049720  0.25950280  0.42012168  1
  Ni  Ni28  1  0.24025633  0.75974367  0.92054208  1
  Ni  Ni29  1  0.58096080  0.41903920  0.25925073  1
  Ni  Ni30  1  0.08060550  0.91939450  0.76015799  1
  Ni  Ni31  1  0.91939450  0.08060550  0.23984201  1
  Ni  Ni32  1  0.41903920  0.58096080  0.74074927  1
  Sn  Sn33  1  0.74776613  0.50421403  0.37750289  1
  Sn  Sn34  1  0.26172385  0.00135625  0.86998122  1
  Sn  Sn35  1  0.73827615  0.99864375  0.13001878  1
  Sn  Sn36  1  0.25223387  0.49578597  0.62249711  1
  Sn  Sn37  1  0.49578597  0.25223387  0.37750289  1
  Sn  Sn38  1  0.99864375  0.73827615  0.86998122  1
  Sn  Sn39  1  0.00135625  0.26172385  0.13001878  1
  Sn  Sn40  1  0.50421403  0.74776613  0.62249711  1
  Sn  Sn41  1  0.80963192  0.67982082  0.06442772  1
  Sn  Sn42  1  0.31699752  0.19178328  0.56311920  1
  Sn  Sn43  1  0.68300248  0.80821672  0.43688080  1
  Sn  Sn44  1  0.19036808  0.32017918  0.93557228  1
  Sn  Sn45  1  0.19178328  0.31699752  0.43688080  1
  Sn  Sn46  1  0.67982082  0.80963192  0.93557228  1
  Sn  Sn47  1  0.32017918  0.19036808  0.06442772  1
  Sn  Sn48  1  0.80821672  0.68300248  0.56311920  1
  Sn  Sn49  1  0.31686241  0.68313759  0.44140570  1
  Sn  Sn50  1  0.80513868  0.19486132  0.93617842  1
  Sn  Sn51  1  0.19486132  0.80513868  0.06382158  1
  Sn  Sn52  1  0.68313759  0.31686241  0.55859430  1
  Sn  Sn53  1  0.44060686  0.55939314  0.31421630  1
  Sn  Sn54  1  0.93660263  0.06339737  0.80635761  1
  Sn  Sn55  1  0.06339737  0.93660263  0.19364239  1
  Sn  Sn56  1  0.55939314  0.44060686  0.68578370  1
  Sn  Sn57  1  0.44390093  0.81216052  0.18571293  1
  Sn  Sn58  1  0.94246608  0.31397313  0.68392044  1
  Sn  Sn59  1  0.05753392  0.68602687  0.31607956  1
  Sn  Sn60  1  0.55609907  0.18783948  0.81428707  1
  Sn  Sn61  1  0.18783948  0.55609907  0.18571293  1
  Sn  Sn62  1  0.68602687  0.05753392  0.68392044  1
  Sn  Sn63  1  0.31397313  0.94246608  0.31607956  1
  Sn  Sn64  1  0.81216052  0.44390093  0.81428707  1
  Sn  Sn65  1  0.68394210  0.05568211  0.31570828  1
  Sn  Sn66  1  0.18317833  0.55517680  0.81268618  1
  Sn  Sn67  1  0.81682167  0.44482320  0.18731382  1
  Sn  Sn68  1  0.31605790  0.94431789  0.68429172  1
  Sn  Sn69  1  0.55517680  0.18317833  0.18731382  1
  Sn  Sn70  1  0.05568211  0.68394210  0.68429172  1
  Sn  Sn71  1  0.94431789  0.31605790  0.31570828  1
  Sn  Sn72  1  0.44482320  0.81682167  0.81268618  1
  Sn  Sn73  1  0.87044903  0.12955097  0.49862509  1
  Sn  Sn74  1  0.37228992  0.62771008  0.99768759  1
  Sn  Sn75  1  0.62771008  0.37228992  0.00231241  1
  Sn  Sn76  1  0.12955097  0.87044903  0.50137491  1
  Sn  Sn77  1  0.99884971  0.00115029  0.37028519  1
  Sn  Sn78  1  0.50032500  0.49967500  0.86901270  1
  Sn  Sn79  1  0.49967500  0.50032500  0.13098730  1
  Sn  Sn80  1  0.00115029  0.99884971  0.62971481  1
  Sn  Sn81  1  0.50000000  0.50000000  0.50000000  1
