# generated using pymatgen
data_PrErCo17
_symmetry_space_group_name_H-M   'P 1'
_cell_length_a   6.29295064
_cell_length_b   6.29295046
_cell_length_c   6.29295064
_cell_angle_alpha   83.27142215
_cell_angle_beta   83.27142581
_cell_angle_gamma   83.27142215
_symmetry_Int_Tables_number   1
_chemical_formula_structural   PrErCo17
_chemical_formula_sum   'Pr1 Er1 Co17'
_cell_volume   244.43196421
_cell_formula_units_Z   1
loop_
 _symmetry_equiv_pos_site_id
 _symmetry_equiv_pos_as_xyz
  1  'x, y, z'
loop_
 _atom_site_type_symbol
 _atom_site_label
 _atom_site_symmetry_multiplicity
 _atom_site_fract_x
 _atom_site_fract_y
 _atom_site_fract_z
 _atom_site_occupancy
  Pr  Pr0  1  0.34662086  0.34662086  0.34662086  1
  Er  Er1  1  0.65736394  0.65736394  0.65736394  1
  Co  Co2  1  0.71417255  0.99817934  0.28634957  1
  Co  Co3  1  0.99817934  0.28634957  0.71417255  1
  Co  Co4  1  0.28634957  0.71417255  0.99817934  1
  Co  Co5  1  0.99817934  0.71417255  0.28634957  1
  Co  Co6  1  0.71417255  0.28634957  0.99817934  1
  Co  Co7  1  0.28634957  0.99817934  0.71417255  1
  Co  Co8  1  0.34641626  0.84946338  0.34641626  1
  Co  Co9  1  0.84946338  0.34641626  0.34641626  1
  Co  Co10  1  0.34641626  0.34641626  0.84946338  1
  Co  Co11  1  0.65659404  0.14890813  0.65659404  1
  Co  Co12  1  0.14890813  0.65659404  0.65659404  1
  Co  Co13  1  0.65659404  0.65659404  0.14890813  1
  Co  Co14  1  0.99761200  0.50132986  0.99761200  1
  Co  Co15  1  0.50132986  0.99761200  0.99761200  1
  Co  Co16  1  0.99761200  0.99761200  0.50132986  1
  Co  Co17  1  0.90223808  0.90223808  0.90223808  1
  Co  Co18  1  0.09542822  0.09542822  0.09542822  1
