# generated using pymatgen
data_PrUTe6
_symmetry_space_group_name_H-M   'P 1'
_cell_length_a   4.38582421
_cell_length_b   4.40341242
_cell_length_c   13.17959926
_cell_angle_alpha   90.00000000
_cell_angle_beta   80.42219066
_cell_angle_gamma   90.00000000
_symmetry_Int_Tables_number   1
_chemical_formula_structural   PrUTe6
_chemical_formula_sum   'Pr1 U1 Te6'
_cell_volume   250.98419508
_cell_formula_units_Z   1
loop_
 _symmetry_equiv_pos_site_id
 _symmetry_equiv_pos_as_xyz
  1  'x, y, z'
loop_
 _atom_site_type_symbol
 _atom_site_label
 _atom_site_symmetry_multiplicity
 _atom_site_fract_x
 _atom_site_fract_y
 _atom_site_fract_z
 _atom_site_occupancy
  Pr  Pr0  1  0.83176274  0.75000000  0.33647452  1
  U  U1  1  0.16506901  0.25000000  0.66986199  1
  Te  Te2  1  0.42968863  0.75000000  0.14062275  1
  Te  Te3  1  0.57624450  0.25000000  0.84751100  1
  Te  Te4  1  0.70052559  0.75000000  0.59894883  1
  Te  Te5  1  0.29050022  0.25000000  0.41899956  1
  Te  Te6  1  0.07622487  0.75000000  0.84755027  1
  Te  Te7  1  0.92998445  0.25000000  0.14003110  1
