# generated using pymatgen
data_NaYF4
_symmetry_space_group_name_H-M   'P 1'
_cell_length_a   6.05958521
_cell_length_b   7.02738510
_cell_length_c   7.02144925
_cell_angle_alpha   61.29245951
_cell_angle_beta   115.50477997
_cell_angle_gamma   115.47121553
_symmetry_Int_Tables_number   1
_chemical_formula_structural   NaYF4
_chemical_formula_sum   'Na3 Y3 F12'
_cell_volume   227.08160658
_cell_formula_units_Z   3
loop_
 _symmetry_equiv_pos_site_id
 _symmetry_equiv_pos_as_xyz
  1  'x, y, z'
loop_
 _atom_site_type_symbol
 _atom_site_label
 _atom_site_symmetry_multiplicity
 _atom_site_fract_x
 _atom_site_fract_y
 _atom_site_fract_z
 _atom_site_occupancy
  Na  Na0  1  0.33336275  0.67912561  0.97272986  1
  Na  Na1  1  0.33642536  0.19484484  0.48847163  1
  Na  Na2  1  0.66739003  0.41205486  0.92235163  1
  Y  Y3  1  0.00179277  0.00460341  0.99701571  1
  Y  Y4  1  0.99870970  0.49948547  0.49888367  1
  Y  Y5  1  0.66576925  0.91185806  0.41992354  1
  F  F6  1  0.95030624  0.81635991  0.77891600  1
  F  F7  1  0.94451019  0.27375557  0.31882707  1
  F  F8  1  0.64363601  0.54024645  0.50782224  1
  F  F9  1  0.64518500  0.00438187  0.04680061  1
  F  F10  1  0.40347747  0.69689403  0.65698246  1
  F  F11  1  0.40453272  0.15201444  0.20307280  1
  F  F12  1  0.24563684  0.73276749  0.23467195  1
  F  F13  1  0.23871092  0.24285308  0.73941188  1
  F  F14  1  0.74850344  0.63363034  0.12906124  1
  F  F15  1  0.72315935  0.12664522  0.62950828  1
  F  F16  1  0.02518679  0.38171111  0.87881885  1
  F  F17  1  0.02370518  0.88576825  0.38773058  1
