# generated using pymatgen
data_Na8Al6Si6IClO24
_symmetry_space_group_name_H-M   'P 1'
_cell_length_a   9.05128389
_cell_length_b   9.05128389
_cell_length_c   9.05128389
_cell_angle_alpha   90.00000000
_cell_angle_beta   90.00000000
_cell_angle_gamma   90.00000000
_symmetry_Int_Tables_number   1
_chemical_formula_structural   Na8Al6Si6IClO24
_chemical_formula_sum   'Na8 Al6 Si6 I1 Cl1 O24'
_cell_volume   741.53313116
_cell_formula_units_Z   1
loop_
 _symmetry_equiv_pos_site_id
 _symmetry_equiv_pos_as_xyz
  1  'x, y, z'
loop_
 _atom_site_type_symbol
 _atom_site_label
 _atom_site_symmetry_multiplicity
 _atom_site_fract_x
 _atom_site_fract_y
 _atom_site_fract_z
 _atom_site_occupancy
  Na  Na0  1  0.69252772  0.30747228  0.30747228  1
  Na  Na1  1  0.30747228  0.30747228  0.69252772  1
  Na  Na2  1  0.30747228  0.69252772  0.30747228  1
  Na  Na3  1  0.69252772  0.69252772  0.69252772  1
  Na  Na4  1  0.81512547  0.18487453  0.81512547  1
  Na  Na5  1  0.81512547  0.81512547  0.18487453  1
  Na  Na6  1  0.18487453  0.81512547  0.81512547  1
  Na  Na7  1  0.18487453  0.18487453  0.18487453  1
  Al  Al8  1  0.00000000  0.25007791  0.50000000  1
  Al  Al9  1  0.74992209  0.50000000  0.00000000  1
  Al  Al10  1  0.50000000  -0.00000000  0.25007791  1
  Al  Al11  1  0.25007791  0.50000000  0.00000000  1
  Al  Al12  1  0.50000000  -0.00000000  0.74992209  1
  Al  Al13  1  -0.00000000  0.74992209  0.50000000  1
  Si  Si14  1  0.50000000  0.24982857  0.00000000  1
  Si  Si15  1  0.75017143  -0.00000000  0.50000000  1
  Si  Si16  1  0.00000000  0.50000000  0.24982857  1
  Si  Si17  1  0.24982857  -0.00000000  0.50000000  1
  Si  Si18  1  -0.00000000  0.50000000  0.75017143  1
  Si  Si19  1  0.50000000  0.75017143  0.00000000  1
  I  I20  1  0.50000000  0.50000000  0.50000000  1
  Cl  Cl21  1  0.00000000  -0.00000000  0.00000000  1
  O  O22  1  0.94408975  0.35877184  0.34911813  1
  O  O23  1  0.64122816  0.34911813  0.05591025  1
  O  O24  1  0.65088187  0.05591025  0.35877184  1
  O  O25  1  0.05591025  0.35877184  0.65088187  1
  O  O26  1  0.35877184  0.34911813  0.94408975  1
  O  O27  1  0.34911813  0.05591025  0.64122816  1
  O  O28  1  0.05591025  0.64122816  0.34911813  1
  O  O29  1  0.35877184  0.65088187  0.05591025  1
  O  O30  1  0.34911813  0.94408975  0.35877184  1
  O  O31  1  0.94408975  0.64122816  0.65088187  1
  O  O32  1  0.64122816  0.65088187  0.94408975  1
  O  O33  1  0.65088187  0.94408975  0.64122816  1
  O  O34  1  0.85923521  0.44354305  0.84961382  1
  O  O35  1  0.84961382  0.14076479  0.55645695  1
  O  O36  1  0.55645695  0.15038618  0.85923521  1
  O  O37  1  0.85923521  0.55645695  0.15038618  1
  O  O38  1  0.84961382  0.85923521  0.44354305  1
  O  O39  1  0.55645695  0.84961382  0.14076479  1
  O  O40  1  0.14076479  0.55645695  0.84961382  1
  O  O41  1  0.15038618  0.85923521  0.55645695  1
  O  O42  1  0.44354305  0.84961382  0.85923521  1
  O  O43  1  0.14076479  0.44354305  0.15038618  1
  O  O44  1  0.15038618  0.14076479  0.44354305  1
  O  O45  1  0.44354305  0.15038618  0.14076479  1
