# generated using pymatgen
data_Eu3Dy
_symmetry_space_group_name_H-M   'P 1'
_cell_length_a   7.64329147
_cell_length_b   7.64329241
_cell_length_c   6.20018493
_cell_angle_alpha   90.00000000
_cell_angle_beta   90.00000000
_cell_angle_gamma   120.00000081
_symmetry_Int_Tables_number   1
_chemical_formula_structural   Eu3Dy
_chemical_formula_sum   'Eu6 Dy2'
_cell_volume   313.68674468
_cell_formula_units_Z   2
loop_
 _symmetry_equiv_pos_site_id
 _symmetry_equiv_pos_as_xyz
  1  'x, y, z'
loop_
 _atom_site_type_symbol
 _atom_site_label
 _atom_site_symmetry_multiplicity
 _atom_site_fract_x
 _atom_site_fract_y
 _atom_site_fract_z
 _atom_site_occupancy
  Eu  Eu0  1  0.16958680  0.33917260  0.25000100  1
  Eu  Eu1  1  0.66082740  0.83041220  0.25000100  1
  Eu  Eu2  1  0.16958680  0.83041220  0.25000100  1
  Eu  Eu3  1  0.83041420  0.66082840  0.75000000  1
  Eu  Eu4  1  0.33917260  0.16958580  0.75000000  1
  Eu  Eu5  1  0.83041320  0.16958580  0.75000000  1
  Dy  Dy6  1  0.33333300  0.66666700  0.75000000  1
  Dy  Dy7  1  0.66666700  0.33333400  0.25000100  1
