# generated using pymatgen
data_Nb12TlTe16
_symmetry_space_group_name_H-M   'P 1'
_cell_length_a   7.33515260
_cell_length_b   11.46948365
_cell_length_c   10.86894248
_cell_angle_alpha   118.31168148
_cell_angle_beta   90.00000000
_cell_angle_gamma   71.35109198
_symmetry_Int_Tables_number   1
_chemical_formula_structural   Nb12TlTe16
_chemical_formula_sum   'Nb12 Tl1 Te16'
_cell_volume   750.04833132
_cell_formula_units_Z   1
loop_
 _symmetry_equiv_pos_site_id
 _symmetry_equiv_pos_as_xyz
  1  'x, y, z'
loop_
 _atom_site_type_symbol
 _atom_site_label
 _atom_site_symmetry_multiplicity
 _atom_site_fract_x
 _atom_site_fract_y
 _atom_site_fract_z
 _atom_site_occupancy
  Nb  Nb0  1  0.36904477  0.51191045  0.61426049  1
  Nb  Nb1  1  0.86985431  0.51029138  0.61162387  1
  Nb  Nb2  1  0.57439161  0.10121678  0.48855347  1
  Nb  Nb3  1  0.07423932  0.10152135  0.48918084  1
  Nb  Nb4  1  0.43064277  0.38871445  0.89889264  1
  Nb  Nb5  1  0.93200072  0.38599856  0.89785078  1
  Nb  Nb6  1  0.63128689  0.48977352  0.38810523  1
  Nb  Nb7  1  0.12893959  0.48977352  0.38810523  1
  Nb  Nb8  1  0.42567596  0.89876068  0.51023462  1
  Nb  Nb9  1  0.92556337  0.89876068  0.51023462  1
  Nb  Nb10  1  0.56810170  0.61161079  0.10146181  1
  Nb  Nb11  1  0.07028751  0.61161079  0.10146181  1
  Tl  Tl12  1  0.62501348  0.99997305  0.99994301  1
  Te  Te13  1  0.79165536  0.66668929  0.33323289  1
  Te  Te14  1  0.29167724  0.66664552  0.33341567  1
  Te  Te15  1  0.20843409  0.33332806  0.66666390  1
  Te  Te16  1  0.70823785  0.33332806  0.66666390  1
  Te  Te17  1  0.98870458  0.27259083  0.33708017  1
  Te  Te18  1  0.48765051  0.27469898  0.33986176  1
  Te  Te19  1  0.09275046  0.06449908  0.72679021  1
  Te  Te20  1  0.59255894  0.06488212  0.72575628  1
  Te  Te21  1  0.79497769  0.66004461  0.93467737  1
  Te  Te22  1  0.29354882  0.66290236  0.93527335  1
  Te  Te23  1  0.01138044  0.72771921  0.66339628  1
  Te  Te24  1  0.51090035  0.72771921  0.66339628  1
  Te  Te25  1  0.90761236  0.93578246  0.27237950  1
  Te  Te26  1  0.40660517  0.93578246  0.27237950  1
  Te  Te27  1  0.20640425  0.33673588  0.06456226  1
  Te  Te28  1  0.70685988  0.33673588  0.06456226  1
