# generated using pymatgen
data_NaBeSi3HO8
_symmetry_space_group_name_H-M   'P 1'
_cell_length_a   7.40329387
_cell_length_b   7.39376178
_cell_length_c   14.14897437
_cell_angle_alpha   78.20278170
_cell_angle_beta   78.15753871
_cell_angle_gamma   60.56522530
_symmetry_Int_Tables_number   1
_chemical_formula_structural   NaBeSi3HO8
_chemical_formula_sum   'Na4 Be4 Si12 H4 O32'
_cell_volume   655.26433484
_cell_formula_units_Z   4
loop_
 _symmetry_equiv_pos_site_id
 _symmetry_equiv_pos_as_xyz
  1  'x, y, z'
loop_
 _atom_site_type_symbol
 _atom_site_label
 _atom_site_symmetry_multiplicity
 _atom_site_fract_x
 _atom_site_fract_y
 _atom_site_fract_z
 _atom_site_occupancy
  Na  Na0  1  0.68815174  0.36876314  0.57163940  1
  Na  Na1  1  0.63080476  0.31037307  0.92942466  1
  Na  Na2  1  0.31184826  0.63123686  0.42836060  1
  Na  Na3  1  0.36919524  0.68962693  0.07057534  1
  Be  Be4  1  0.84660598  0.49158781  0.00279803  1
  Be  Be5  1  0.50827798  0.15384485  0.49716815  1
  Be  Be6  1  0.15339402  0.50841219  0.99720197  1
  Be  Be7  1  0.49172202  0.84615515  0.50283185  1
  Si  Si8  1  0.15001718  0.35331213  0.63384725  1
  Si  Si9  1  0.64664671  0.85074304  0.86644579  1
  Si  Si10  1  0.84998282  0.64668787  0.36615275  1
  Si  Si11  1  0.35335329  0.14925696  0.13355421  1
  Si  Si12  1  0.93557539  0.12423963  0.13797848  1
  Si  Si13  1  0.87557809  0.06431764  0.36185555  1
  Si  Si14  1  0.06442461  0.87576037  0.86202152  1
  Si  Si15  1  0.12442191  0.93568236  0.63814445  1
  Si  Si16  1  0.18479437  0.22349275  0.85868035  1
  Si  Si17  1  0.77729839  0.81607364  0.64066598  1
  Si  Si18  1  0.81520563  0.77650725  0.14131965  1
  Si  Si19  1  0.22270161  0.18392636  0.35933402  1
  H  H20  1  0.43129212  0.52187611  0.75194134  1
  H  H21  1  0.56870788  0.47812389  0.24805866  1
  H  H22  1  0.62029931  0.55159222  0.75520085  1
  H  H23  1  0.37970069  0.44840778  0.24479915  1
  O  O24  1  0.07642692  0.40334776  0.93027178  1
  O  O25  1  0.59655651  0.92388610  0.56977067  1
  O  O26  1  0.92357308  0.59665224  0.06972822  1
  O  O27  1  0.40344349  0.07611390  0.43022933  1
  O  O28  1  0.05978472  0.42135620  0.38398092  1
  O  O29  1  0.57883500  0.94049548  0.11590909  1
  O  O30  1  0.94021528  0.57864380  0.61601908  1
  O  O31  1  0.42116500  0.05950452  0.88409091  1
  O  O32  1  0.07453740  0.18170031  0.62493154  1
  O  O33  1  0.81854373  0.92545714  0.87479959  1
  O  O34  1  0.92546260  0.81829969  0.37506846  1
  O  O35  1  0.18145627  0.07454286  0.12520041  1
  O  O36  1  0.82661008  0.17455167  0.25003018  1
  O  O37  1  0.17338992  0.82544833  0.74996982  1
  O  O38  1  0.65548964  0.65530911  0.44428802  1
  O  O39  1  0.34412342  0.34475874  0.05612283  1
  O  O40  1  0.34451036  0.34469089  0.55571198  1
  O  O41  1  0.65587658  0.65524126  0.94387717  1
  O  O42  1  0.79731191  0.31059671  0.06236806  1
  O  O43  1  0.68924414  0.20306308  0.43766491  1
  O  O44  1  0.20268809  0.68940329  0.93763194  1
  O  O45  1  0.31075586  0.79693692  0.56233509  1
  O  O46  1  0.04100433  0.10421601  0.87405917  1
  O  O47  1  0.89583337  0.95973157  0.62591318  1
  O  O48  1  0.95899567  0.89578399  0.12594083  1
  O  O49  1  0.10416663  0.04026843  0.37408682  1
  O  O50  1  0.79956733  0.67566789  0.25489694  1
  O  O51  1  0.32347481  0.20401972  0.24511277  1
  O  O52  1  0.20043267  0.32433211  0.74510306  1
  O  O53  1  0.67652519  0.79598028  0.75488723  1
  O  O54  1  0.58321184  0.44142038  0.75423821  1
  O  O55  1  0.41678816  0.55857962  0.24576179  1
