# generated using pymatgen
data_Nd4Fe28BC
_symmetry_space_group_name_H-M   'P 1'
_cell_length_a   8.79813851
_cell_length_b   8.79813851
_cell_length_c   12.08435211
_cell_angle_alpha   90.00000000
_cell_angle_beta   90.00000000
_cell_angle_gamma   89.92984106
_symmetry_Int_Tables_number   1
_chemical_formula_structural   Nd4Fe28BC
_chemical_formula_sum   'Nd8 Fe56 B2 C2'
_cell_volume   935.41565752
_cell_formula_units_Z   2
loop_
 _symmetry_equiv_pos_site_id
 _symmetry_equiv_pos_as_xyz
  1  'x, y, z'
loop_
 _atom_site_type_symbol
 _atom_site_label
 _atom_site_symmetry_multiplicity
 _atom_site_fract_x
 _atom_site_fract_y
 _atom_site_fract_z
 _atom_site_occupancy
  Nd  Nd0  1  0.23252579  0.76747421  0.50000000  1
  Nd  Nd1  1  0.76747421  0.23252579  0.50000000  1
  Nd  Nd2  1  0.26433289  0.26433289  -0.00000000  1
  Nd  Nd3  1  0.73566711  0.73566711  -0.00000000  1
  Nd  Nd4  1  0.64192915  0.64192915  0.50000000  1
  Nd  Nd5  1  0.35807085  0.35807085  0.50000000  1
  Nd  Nd6  1  0.85700660  0.14299340  -0.00000000  1
  Nd  Nd7  1  0.14299340  0.85700660  -0.00000000  1
  Fe  Fe8  1  0.18284644  0.81715356  0.25379448  1
  Fe  Fe9  1  0.81715356  0.18284644  0.25379448  1
  Fe  Fe10  1  0.31793347  0.31793347  0.75474971  1
  Fe  Fe11  1  0.68206653  0.68206653  0.75474971  1
  Fe  Fe12  1  0.81715356  0.18284644  0.74620552  1
  Fe  Fe13  1  0.18284644  0.81715356  0.74620552  1
  Fe  Fe14  1  0.68206653  0.68206653  0.24525029  1
  Fe  Fe15  1  0.31793347  0.31793347  0.24525029  1
  Fe  Fe16  1  0.40214214  0.59785786  0.29268978  1
  Fe  Fe17  1  0.59785786  0.40214214  0.29268978  1
  Fe  Fe18  1  0.09789877  0.09789877  0.79574068  1
  Fe  Fe19  1  0.90210123  0.90210123  0.79574068  1
  Fe  Fe20  1  0.59785786  0.40214214  0.70731022  1
  Fe  Fe21  1  0.40214214  0.59785786  0.70731022  1
  Fe  Fe22  1  0.90210123  0.90210123  0.20425932  1
  Fe  Fe23  1  0.09789877  0.09789877  0.20425932  1
  Fe  Fe24  1  0.14059919  0.53706880  0.32296726  1
  Fe  Fe25  1  0.85940081  0.46293120  0.32296726  1
  Fe  Fe26  1  0.36098461  0.03665727  0.82416151  1
  Fe  Fe27  1  0.63901539  0.96334273  0.82416151  1
  Fe  Fe28  1  0.85940081  0.46293120  0.67703274  1
  Fe  Fe29  1  0.14059919  0.53706880  0.67703274  1
  Fe  Fe30  1  0.63901539  0.96334273  0.17583849  1
  Fe  Fe31  1  0.36098461  0.03665727  0.17583849  1
  Fe  Fe32  1  0.53706880  0.14059919  0.32296726  1
  Fe  Fe33  1  0.46293120  0.85940081  0.32296726  1
  Fe  Fe34  1  0.03665727  0.36098461  0.82416151  1
  Fe  Fe35  1  0.96334273  0.63901539  0.82416151  1
  Fe  Fe36  1  0.46293120  0.85940081  0.67703274  1
  Fe  Fe37  1  0.53706880  0.14059919  0.67703274  1
  Fe  Fe38  1  0.96334273  0.63901539  0.17583849  1
  Fe  Fe39  1  0.03665727  0.36098461  0.17583849  1
  Fe  Fe40  1  0.50000000  0.50000000  0.10731476  1
  Fe  Fe41  1  -0.00000000  -0.00000000  0.61427132  1
  Fe  Fe42  1  0.50000000  0.50000000  0.89268524  1
  Fe  Fe43  1  -0.00000000  -0.00000000  0.38572868  1
  Fe  Fe44  1  0.93295856  0.72429381  0.37275373  1
  Fe  Fe45  1  0.06704144  0.27570619  0.37275373  1
  Fe  Fe46  1  0.56703628  0.22612000  0.87786722  1
  Fe  Fe47  1  0.43296372  0.77388000  0.87786722  1
  Fe  Fe48  1  0.06704144  0.27570619  0.62724627  1
  Fe  Fe49  1  0.93295856  0.72429381  0.62724627  1
  Fe  Fe50  1  0.43296372  0.77388000  0.12213278  1
  Fe  Fe51  1  0.56703628  0.22612000  0.12213278  1
  Fe  Fe52  1  0.72429381  0.93295856  0.37275373  1
  Fe  Fe53  1  0.27570619  0.06704144  0.37275373  1
  Fe  Fe54  1  0.22612000  0.56703628  0.87786722  1
  Fe  Fe55  1  0.77388000  0.43296372  0.87786722  1
  Fe  Fe56  1  0.27570619  0.06704144  0.62724627  1
  Fe  Fe57  1  0.72429381  0.93295856  0.62724627  1
  Fe  Fe58  1  0.77388000  0.43296372  0.12213278  1
  Fe  Fe59  1  0.22612000  0.56703628  0.12213278  1
  Fe  Fe60  1  -0.00000000  0.50000000  0.50000000  1
  Fe  Fe61  1  0.50000000  -0.00000000  -0.00000000  1
  Fe  Fe62  1  0.50000000  -0.00000000  0.50000000  1
  Fe  Fe63  1  -0.00000000  0.50000000  -0.00000000  1
  B  B64  1  0.87522899  0.87522899  0.50000000  1
  B  B65  1  0.12477101  0.12477101  0.50000000  1
  C  C66  1  0.62511332  0.37488668  -0.00000000  1
  C  C67  1  0.37488668  0.62511332  -0.00000000  1
