# generated using pymatgen
data_NaPr2Se3
_symmetry_space_group_name_H-M   'P 1'
_cell_length_a   4.25580250
_cell_length_b   6.03736790
_cell_length_c   7.42431444
_cell_angle_alpha   66.00892240
_cell_angle_beta   73.34474723
_cell_angle_gamma   90.00000000
_symmetry_Int_Tables_number   1
_chemical_formula_structural   NaPr2Se3
_chemical_formula_sum   'Na1 Pr2 Se3'
_cell_volume   165.48118770
_cell_formula_units_Z   1
loop_
 _symmetry_equiv_pos_site_id
 _symmetry_equiv_pos_as_xyz
  1  'x, y, z'
loop_
 _atom_site_type_symbol
 _atom_site_label
 _atom_site_symmetry_multiplicity
 _atom_site_fract_x
 _atom_site_fract_y
 _atom_site_fract_z
 _atom_site_occupancy
  Na  Na0  1  -0.00000000  -0.00000000  0.00000000  1
  Pr  Pr1  1  0.33625647  0.33625647  0.32748606  1
  Pr  Pr2  1  0.66374353  0.66374353  0.67251394  1
  Se  Se3  1  -0.00000000  0.50000000  0.00000000  1
  Se  Se4  1  0.33343709  0.83343709  0.33312482  1
  Se  Se5  1  0.66656291  0.16656291  0.66687518  1
