# generated using pymatgen
data_Na4AlCr3(P2O7)4
_symmetry_space_group_name_H-M   'P 1'
_cell_length_a   7.32779386
_cell_length_b   7.95256199
_cell_length_c   9.55393216
_cell_angle_alpha   89.91407473
_cell_angle_beta   111.51271721
_cell_angle_gamma   89.89394432
_symmetry_Int_Tables_number   1
_chemical_formula_structural   Na4AlCr3(P2O7)4
_chemical_formula_sum   'Na4 Al1 Cr3 P8 O28'
_cell_volume   517.96503484
_cell_formula_units_Z   1
loop_
 _symmetry_equiv_pos_site_id
 _symmetry_equiv_pos_as_xyz
  1  'x, y, z'
loop_
 _atom_site_type_symbol
 _atom_site_label
 _atom_site_symmetry_multiplicity
 _atom_site_fract_x
 _atom_site_fract_y
 _atom_site_fract_z
 _atom_site_occupancy
  Na  Na0  1  0.29049185  0.52165751  0.29503756  1
  Na  Na1  1  0.70941165  0.02159628  0.20513813  1
  Na  Na2  1  0.70894957  0.47865021  0.70504573  1
  Na  Na3  1  0.29069702  0.97805667  0.79522842  1
  Al  Al4  1  0.73843972  0.00967409  0.75101319  1
  Cr  Cr5  1  0.26101788  0.50643494  0.74765809  1
  Cr  Cr6  1  0.26124300  0.99358245  0.24734602  1
  Cr  Cr7  1  0.73862074  0.49351704  0.25231993  1
  P  P8  1  0.32662481  0.28937613  0.04409099  1
  P  P9  1  0.67317292  0.79181679  0.45816104  1
  P  P10  1  0.67292429  0.71308390  0.95322258  1
  P  P11  1  0.33057182  0.20840203  0.54664240  1
  P  P12  1  0.92194627  0.24143400  0.04325742  1
  P  P13  1  0.07584592  0.74410925  0.45417079  1
  P  P14  1  0.07265754  0.75826566  0.95215288  1
  P  P15  1  0.92374023  0.25274746  0.54827741  1
  O  O16  1  0.11768378  0.34507294  0.05414684  1
  O  O17  1  0.88026042  0.84631345  0.44399363  1
  O  O18  1  0.88054780  0.65235748  0.94425969  1
  O  O19  1  0.12245276  0.15159606  0.55911478  1
  O  O20  1  0.31445925  0.29843960  0.88127745  1
  O  O21  1  0.68822929  0.80952252  0.62117266  1
  O  O22  1  0.68506176  0.70444554  0.11653258  1
  O  O23  1  0.31504057  0.20013897  0.38296454  1
  O  O24  1  0.36386500  0.10538521  0.09769438  1
  O  O25  1  0.63736796  0.60692752  0.40578792  1
  O  O26  1  0.64080915  0.89569849  0.89470069  1
  O  O27  1  0.36462719  0.39286925  0.59924138  1
  O  O28  1  0.98856618  0.08348276  0.14184004  1
  O  O29  1  0.01117532  0.58373100  0.35864917  1
  O  O30  1  0.99919871  0.91674654  0.85536979  1
  O  O31  1  0.98758565  0.41444716  0.64167858  1
  O  O32  1  0.80568750  0.20217510  0.87821675  1
  O  O33  1  0.19453675  0.71171282  0.62025773  1
  O  O34  1  0.19307129  0.79027948  0.11805076  1
  O  O35  1  0.80437408  0.28569767  0.38181112  1
  O  O36  1  0.80951425  0.36254327  0.10378225  1
  O  O37  1  0.18829146  0.86346181  0.39343585  1
  O  O38  1  0.18696123  0.63921570  0.89194190  1
  O  O39  1  0.81547415  0.13331292  0.61365318  1
  O  O40  1  0.46259154  0.41523593  0.15237264  1
  O  O41  1  0.53642622  0.91536866  0.34762375  1
  O  O42  1  0.53605452  0.58615274  0.84738376  1
  O  O43  1  0.47373099  0.08526500  0.65428361  1
