# generated using pymatgen
data_Na4Al3Cr(P2O7)4
_symmetry_space_group_name_H-M   'P 1'
_cell_length_a   7.28964923
_cell_length_b   7.87009924
_cell_length_c   9.45072103
_cell_angle_alpha   90.03409870
_cell_angle_beta   111.76084953
_cell_angle_gamma   90.12548913
_symmetry_Int_Tables_number   1
_chemical_formula_structural   Na4Al3Cr(P2O7)4
_chemical_formula_sum   'Na4 Al3 Cr1 P8 O28'
_cell_volume   503.55173692
_cell_formula_units_Z   1
loop_
 _symmetry_equiv_pos_site_id
 _symmetry_equiv_pos_as_xyz
  1  'x, y, z'
loop_
 _atom_site_type_symbol
 _atom_site_label
 _atom_site_symmetry_multiplicity
 _atom_site_fract_x
 _atom_site_fract_y
 _atom_site_fract_z
 _atom_site_occupancy
  Na  Na0  1  0.29287568  0.52229696  0.29818844  1
  Na  Na1  1  0.70716835  0.02240964  0.20163305  1
  Na  Na2  1  0.70762122  0.47747815  0.70174661  1
  Na  Na3  1  0.29277518  0.97805827  0.79789892  1
  Al  Al4  1  0.26070393  0.50923846  0.74880889  1
  Al  Al5  1  0.26080889  0.99073003  0.24916345  1
  Al  Al6  1  0.73935109  0.49100038  0.25125891  1
  Cr  Cr7  1  0.73993135  0.00613388  0.75286915  1
  P  P8  1  0.92711554  0.24652748  0.05064200  1
  P  P9  1  0.07532576  0.74362716  0.45197960  1
  P  P10  1  0.07836998  0.75406054  0.95387059  1
  P  P11  1  0.92494520  0.25964369  0.54558509  1
  P  P12  1  0.32894561  0.29253880  0.04700517  1
  P  P13  1  0.67129239  0.78988872  0.45061891  1
  P  P14  1  0.67136891  0.70481793  0.95572835  1
  P  P15  1  0.32503374  0.20958912  0.54444095  1
  O  O16  1  0.31261388  0.30750028  0.88156564  1
  O  O17  1  0.68475210  0.79601937  0.61580204  1
  O  O18  1  0.68760301  0.68834187  0.12065147  1
  O  O19  1  0.31243593  0.19343524  0.37982057  1
  O  O20  1  0.80590705  0.21426810  0.88246523  1
  O  O21  1  0.19355233  0.70451658  0.61927808  1
  O  O22  1  0.19508709  0.79351497  0.12152277  1
  O  O23  1  0.80752580  0.29900821  0.37869847  1
  O  O24  1  0.47548058  0.41448064  0.15660900  1
  O  O25  1  0.52562978  0.91435033  0.34326139  1
  O  O26  1  0.52594794  0.58371883  0.84377234  1
  O  O27  1  0.46408755  0.08505784  0.65505701  1
  O  O28  1  0.99858269  0.08434503  0.14605900  1
  O  O29  1  0.00204898  0.58401199  0.35349096  1
  O  O30  1  0.01396277  0.91524143  0.85643229  1
  O  O31  1  0.99961501  0.41777606  0.64619077  1
  O  O32  1  0.12243873  0.35361345  0.06110654  1
  O  O33  1  0.87985315  0.85177309  0.44101278  1
  O  O34  1  0.87948214  0.64970520  0.94105793  1
  O  O35  1  0.11675947  0.15021622  0.55498739  1
  O  O36  1  0.35692833  0.10650800  0.10212839  1
  O  O37  1  0.64195552  0.60498072  0.39382787  1
  O  O38  1  0.63872965  0.89240094  0.90647235  1
  O  O39  1  0.35592164  0.39541250  0.59998384  1
  O  O40  1  0.81467054  0.36506302  0.11455507  1
  O  O41  1  0.18824364  0.86399027  0.38873910  1
  O  O42  1  0.18978336  0.63306607  0.89074507  1
  O  O43  1  0.80676851  0.13964451  0.60326855  1
