# generated using pymatgen
data_Na(Ti3Se4)2
_symmetry_space_group_name_H-M   'P 1'
_cell_length_a   3.59549792
_cell_length_b   9.84585317
_cell_length_c   9.84851801
_cell_angle_alpha   60.00169790
_cell_angle_beta   90.00589120
_cell_angle_gamma   90.00894047
_symmetry_Int_Tables_number   1
_chemical_formula_structural   Na(Ti3Se4)2
_chemical_formula_sum   'Na1 Ti6 Se8'
_cell_volume   301.94047684
_cell_formula_units_Z   1
loop_
 _symmetry_equiv_pos_site_id
 _symmetry_equiv_pos_as_xyz
  1  'x, y, z'
loop_
 _atom_site_type_symbol
 _atom_site_label
 _atom_site_symmetry_multiplicity
 _atom_site_fract_x
 _atom_site_fract_y
 _atom_site_fract_z
 _atom_site_occupancy
  Na  Na0  1  0.50000000  0.00000000  -0.00000000  1
  Ti  Ti1  1  0.74978119  0.36368613  0.50798796  1
  Ti  Ti2  1  0.74971645  0.12829842  0.36362024  1
  Ti  Ti3  1  0.74972101  0.50802523  0.12848427  1
  Ti  Ti4  1  0.25021881  0.63631387  0.49201204  1
  Ti  Ti5  1  0.25028355  0.87170158  0.63637976  1
  Ti  Ti6  1  0.25027899  0.49197477  0.87151573  1
  Se  Se7  1  0.75003486  0.66663983  0.66671282  1
  Se  Se8  1  0.24996514  0.33336017  0.33328718  1
  Se  Se9  1  0.75066706  0.05051777  0.65386425  1
  Se  Se10  1  0.75063717  0.29561257  0.05053166  1
  Se  Se11  1  0.75069828  0.65390623  0.29564102  1
  Se  Se12  1  0.24933294  0.94948223  0.34613575  1
  Se  Se13  1  0.24936283  0.70438743  0.94946834  1
  Se  Se14  1  0.24930172  0.34609377  0.70435898  1
