# generated using pymatgen
data_Eu3Ho
_symmetry_space_group_name_H-M   'P 1'
_cell_length_a   7.64203694
_cell_length_b   7.64203725
_cell_length_c   6.12032034
_cell_angle_alpha   90.00000000
_cell_angle_beta   90.00000000
_cell_angle_gamma   119.99999864
_symmetry_Int_Tables_number   1
_chemical_formula_structural   Eu3Ho
_chemical_formula_sum   'Eu6 Ho2'
_cell_volume   309.54448778
_cell_formula_units_Z   2
loop_
 _symmetry_equiv_pos_site_id
 _symmetry_equiv_pos_as_xyz
  1  'x, y, z'
loop_
 _atom_site_type_symbol
 _atom_site_label
 _atom_site_symmetry_multiplicity
 _atom_site_fract_x
 _atom_site_fract_y
 _atom_site_fract_z
 _atom_site_occupancy
  Eu  Eu0  1  0.17006212  0.34012525  0.25000000  1
  Eu  Eu1  1  0.65987375  0.82993688  0.25000000  1
  Eu  Eu2  1  0.17006312  0.82993688  0.25000000  1
  Eu  Eu3  1  0.82993688  0.65987375  0.75000100  1
  Eu  Eu4  1  0.34012525  0.17006212  0.75000100  1
  Eu  Eu5  1  0.82993788  0.17006212  0.75000100  1
  Ho  Ho6  1  0.33333400  0.66666800  0.75000100  1
  Ho  Ho7  1  0.66666800  0.33333300  0.25000000  1
