# generated using pymatgen
data_NaP2W7O25
_symmetry_space_group_name_H-M   'P 1'
_cell_length_a   5.39623218
_cell_length_b   6.72902157
_cell_length_c   14.05424942
_cell_angle_alpha   95.89883884
_cell_angle_beta   100.79186933
_cell_angle_gamma   90.11924809
_symmetry_Int_Tables_number   1
_chemical_formula_structural   NaP2W7O25
_chemical_formula_sum   'Na1 P2 W7 O25'
_cell_volume   498.52996966
_cell_formula_units_Z   1
loop_
 _symmetry_equiv_pos_site_id
 _symmetry_equiv_pos_as_xyz
  1  'x, y, z'
loop_
 _atom_site_type_symbol
 _atom_site_label
 _atom_site_symmetry_multiplicity
 _atom_site_fract_x
 _atom_site_fract_y
 _atom_site_fract_z
 _atom_site_occupancy
  Na  Na0  1  0.25263267  0.33630431  0.47409451  1
  P  P1  1  0.81452843  0.20359295  0.58512669  1
  P  P2  1  0.18721065  0.79542093  0.41752729  1
  W  W3  1  0.55752714  0.69996443  0.11042106  1
  W  W4  1  0.44293525  0.31283436  0.88655054  1
  W  W5  1  0.99916110  0.00084392  0.99633940  1
  W  W6  1  0.10423451  0.39377985  0.22410350  1
  W  W7  1  0.88755012  0.61399820  0.76889584  1
  W  W8  1  0.66352552  0.08201900  0.33910895  1
  W  W9  1  0.33848539  0.92132806  0.66143553  1
  O  O10  1  0.18002672  0.58944240  0.35736796  1
  O  O11  1  0.82261711  0.40695611  0.64529952  1
  O  O12  1  0.81564707  0.82068603  0.06840879  1
  O  O13  1  0.18817836  0.17772253  0.93113070  1
  O  O14  1  0.42177261  0.26631192  0.29585063  1
  O  O15  1  0.57915186  0.72301638  0.71027113  1
  O  O16  1  0.72314885  0.24407155  0.47531126  1
  O  O17  1  0.26780314  0.75421094  0.52522614  1
  O  O18  1  0.93148928  0.22452884  0.30950611  1
  O  O19  1  0.06974509  0.76776572  0.69618644  1
  O  O20  1  0.29956498  0.56426499  0.17124719  1
  O  O21  1  0.70455910  0.42997546  0.83133842  1
  O  O22  1  0.29674204  0.86706324  0.04607384  1
  O  O23  1  0.69380767  0.13052794  0.95115199  1
  O  O24  1  0.06271611  0.19603403  0.12317525  1
  O  O25  1  0.93922190  0.80058077  0.87656614  1
  O  O26  1  0.80530329  0.51890875  0.18872736  1
  O  O27  1  0.19459198  0.46936349  0.81312727  1
  O  O28  1  0.60255052  0.90454859  0.23084048  1
  O  O29  1  0.39625166  0.10221662  0.77059810  1
  O  O30  1  0.08465248  0.12282338  0.59082913  1
  O  O31  1  0.92150352  0.88859823  0.40326724  1
  O  O32  1  0.62352485  0.05942397  0.60876893  1
  O  O33  1  0.37778026  0.94434549  0.39188885  1
  O  O34  1  0.49865875  0.49652658  0.99783785  1
