# generated using pymatgen
data_Na2ThF6
_symmetry_space_group_name_H-M   'P 1'
_cell_length_a   4.11620756
_cell_length_b   5.64187494
_cell_length_c   6.78901619
_cell_angle_alpha   65.44824833
_cell_angle_beta   72.35298856
_cell_angle_gamma   90.00000000
_symmetry_Int_Tables_number   1
_chemical_formula_structural   Na2ThF6
_chemical_formula_sum   'Na2 Th1 F6'
_cell_volume   135.20819924
_cell_formula_units_Z   1
loop_
 _symmetry_equiv_pos_site_id
 _symmetry_equiv_pos_as_xyz
  1  'x, y, z'
loop_
 _atom_site_type_symbol
 _atom_site_label
 _atom_site_symmetry_multiplicity
 _atom_site_fract_x
 _atom_site_fract_y
 _atom_site_fract_z
 _atom_site_occupancy
  Na  Na0  1  0.32710542  0.32710542  0.34578816  1
  Na  Na1  1  0.67289458  0.67289458  0.65421184  1
  Th  Th2  1  0.00000000  0.00000000  -0.00000000  1
  F  F3  1  0.50000000  0.22816508  1.00000000  1
  F  F4  1  0.84433905  0.60075493  0.31132091  1
  F  F5  1  0.15566095  0.91207684  0.68867909  1
  F  F6  1  0.50000000  0.77183492  0.00000000  1
  F  F7  1  0.84433905  0.08792316  0.31132091  1
  F  F8  1  0.15566095  0.39924507  0.68867909  1
