# generated using pymatgen
data_Mo2RuSe4
_symmetry_space_group_name_H-M   'P 1'
_cell_length_a   6.73530394
_cell_length_b   6.84284062
_cell_length_c   6.74561395
_cell_angle_alpha   92.00918235
_cell_angle_beta   93.69492065
_cell_angle_gamma   94.15744469
_symmetry_Int_Tables_number   1
_chemical_formula_structural   Mo2RuSe4
_chemical_formula_sum   'Mo4 Ru2 Se8'
_cell_volume   309.18669008
_cell_formula_units_Z   2
loop_
 _symmetry_equiv_pos_site_id
 _symmetry_equiv_pos_as_xyz
  1  'x, y, z'
loop_
 _atom_site_type_symbol
 _atom_site_label
 _atom_site_symmetry_multiplicity
 _atom_site_fract_x
 _atom_site_fract_y
 _atom_site_fract_z
 _atom_site_occupancy
  Mo  Mo0  1  0.76690446  0.58854405  0.45782038  1
  Mo  Mo1  1  0.58332432  0.44821149  0.76587215  1
  Mo  Mo2  1  0.23309554  0.41145595  0.54217962  1
  Mo  Mo3  1  0.41667568  0.55178851  0.23412785  1
  Ru  Ru4  1  0.45038555  0.76493771  0.58723688  1
  Ru  Ru5  1  0.54961445  0.23506229  0.41276312  1
  Se  Se6  1  0.77719464  0.78370869  0.78551079  1
  Se  Se7  1  0.22280536  0.21629131  0.21448921  1
  Se  Se8  1  0.62648329  0.88083396  0.28144919  1
  Se  Se9  1  0.86874821  0.26790527  0.62937111  1
  Se  Se10  1  0.26801770  0.62466237  0.86841369  1
  Se  Se11  1  0.37351671  0.11916604  0.71855081  1
  Se  Se12  1  0.13125179  0.73209473  0.37062889  1
  Se  Se13  1  0.73198230  0.37533763  0.13158631  1
