# generated using pymatgen
data_Mo(PO4)2
_symmetry_space_group_name_H-M   'P 1'
_cell_length_a   4.95400998
_cell_length_b   7.54415564
_cell_length_c   7.93616935
_cell_angle_alpha   90.00000000
_cell_angle_beta   90.00000000
_cell_angle_gamma   90.00000000
_symmetry_Int_Tables_number   1
_chemical_formula_structural   Mo(PO4)2
_chemical_formula_sum   'Mo2 P4 O16'
_cell_volume   296.60498328
_cell_formula_units_Z   2
loop_
 _symmetry_equiv_pos_site_id
 _symmetry_equiv_pos_as_xyz
  1  'x, y, z'
loop_
 _atom_site_type_symbol
 _atom_site_label
 _atom_site_symmetry_multiplicity
 _atom_site_fract_x
 _atom_site_fract_y
 _atom_site_fract_z
 _atom_site_occupancy
  Mo  Mo0  1  0.50000000  0.75000000  0.77641616  1
  Mo  Mo1  1  -0.00000000  0.25000000  0.22358384  1
  P  P2  1  0.25360001  0.64084332  0.36003261  1
  P  P3  1  0.75360001  0.35915668  0.63996739  1
  P  P4  1  0.74639999  0.85915668  0.36003261  1
  P  P5  1  0.24639999  0.14084332  0.63996739  1
  O  O6  1  0.27019597  0.63740340  0.54791671  1
  O  O7  1  0.77019597  0.36259660  0.45208329  1
  O  O8  1  0.72980403  0.86259660  0.54791671  1
  O  O9  1  0.22980403  0.13740340  0.45208329  1
  O  O10  1  0.27944039  0.64795039  0.91024456  1
  O  O11  1  0.77944039  0.35204961  0.08975544  1
  O  O12  1  0.72055961  0.85204961  0.91024456  1
  O  O13  1  0.22055961  0.14795039  0.08975544  1
  O  O14  1  0.25652800  0.96409923  0.72958243  1
  O  O15  1  0.75652800  0.03590077  0.27041757  1
  O  O16  1  0.74347200  0.53590077  0.72958243  1
  O  O17  1  0.24347200  0.46409923  0.27041757  1
  O  O18  1  0.50000000  0.75000000  0.27883438  1
  O  O19  1  -0.00000000  0.25000000  0.72116562  1
  O  O20  1  0.50000000  0.25000000  0.70822518  1
  O  O21  1  -0.00000000  0.75000000  0.29177482  1
