# generated using pymatgen
data_MgH6(NCl)2
_symmetry_space_group_name_H-M   'P 1'
_cell_length_a   3.74869910
_cell_length_b   6.09519631
_cell_length_c   6.09519631
_cell_angle_alpha   88.06916467
_cell_angle_beta   87.60561627
_cell_angle_gamma   92.39438373
_symmetry_Int_Tables_number   1
_chemical_formula_structural   MgH6(NCl)2
_chemical_formula_sum   'Mg1 H6 N2 Cl2'
_cell_volume   138.93877598
_cell_formula_units_Z   1
loop_
 _symmetry_equiv_pos_site_id
 _symmetry_equiv_pos_as_xyz
  1  'x, y, z'
loop_
 _atom_site_type_symbol
 _atom_site_label
 _atom_site_symmetry_multiplicity
 _atom_site_fract_x
 _atom_site_fract_y
 _atom_site_fract_z
 _atom_site_occupancy
  Mg  Mg0  1  -0.00000000  0.00125684  0.00125684  1
  H  H1  1  0.79832552  0.79663983  0.39323157  1
  H  H2  1  0.20167448  0.39323157  0.79663983  1
  H  H3  1  0.20128543  0.72370614  0.33438590  1
  H  H4  1  0.13501130  0.21995546  0.59910686  1
  H  H5  1  0.79871457  0.33438590  0.72370614  1
  H  H6  1  0.86498870  0.59910686  0.21995546  1
  N  N7  1  0.03752228  0.26558194  0.75005763  1
  N  N8  1  0.96247772  0.75005763  0.26558194  1
  Cl  Cl9  1  0.50000000  0.80068843  0.80068843  1
  Cl  Cl10  1  0.50000000  0.20538940  0.20538940  1
