# generated using pymatgen
data_Mn2FeCoP2
_symmetry_space_group_name_H-M   'P 1'
_cell_length_a   3.50383038
_cell_length_b   5.80346364
_cell_length_c   6.66619049
_cell_angle_alpha   90.00000000
_cell_angle_beta   90.00000000
_cell_angle_gamma   90.00000000
_symmetry_Int_Tables_number   1
_chemical_formula_structural   Mn2FeCoP2
_chemical_formula_sum   'Mn4 Fe2 Co2 P4'
_cell_volume   135.55266533
_cell_formula_units_Z   2
loop_
 _symmetry_equiv_pos_site_id
 _symmetry_equiv_pos_as_xyz
  1  'x, y, z'
loop_
 _atom_site_type_symbol
 _atom_site_label
 _atom_site_symmetry_multiplicity
 _atom_site_fract_x
 _atom_site_fract_y
 _atom_site_fract_z
 _atom_site_occupancy
  Mn  Mn0  1  0.75000000  0.52792564  0.17082190  1
  Mn  Mn1  1  0.75000000  0.02792564  0.32917810  1
  Mn  Mn2  1  0.25000000  0.47102060  0.82951668  1
  Mn  Mn3  1  0.25000000  0.97102060  0.67048332  1
  Fe  Fe4  1  0.25000000  0.35466410  0.43798290  1
  Fe  Fe5  1  0.25000000  0.85466410  0.06201710  1
  Co  Co6  1  0.75000000  0.64759428  0.56622370  1
  Co  Co7  1  0.75000000  0.14759428  0.93377630  1
  P  P8  1  0.75000000  0.26734096  0.62273913  1
  P  P9  1  0.75000000  0.76734096  0.87726087  1
  P  P10  1  0.25000000  0.73145441  0.37346319  1
  P  P11  1  0.25000000  0.23145441  0.12653681  1
