# generated using pymatgen
data_Mn2Fe4SiGe
_symmetry_space_group_name_H-M   'P 1'
_cell_length_a   3.99366436
_cell_length_b   3.99366436
_cell_length_c   6.92923999
_cell_angle_alpha   73.25128599
_cell_angle_beta   90.00000000
_cell_angle_gamma   120.00000000
_symmetry_Int_Tables_number   1
_chemical_formula_structural   Mn2Fe4SiGe
_chemical_formula_sum   'Mn2 Fe4 Si1 Ge1'
_cell_volume   90.25620979
_cell_formula_units_Z   1
loop_
 _symmetry_equiv_pos_site_id
 _symmetry_equiv_pos_as_xyz
  1  'x, y, z'
loop_
 _atom_site_type_symbol
 _atom_site_label
 _atom_site_symmetry_multiplicity
 _atom_site_fract_x
 _atom_site_fract_y
 _atom_site_fract_z
 _atom_site_occupancy
  Mn  Mn0  1  0.00001592  0.00003184  -0.00004775  1
  Mn  Mn1  1  0.49998408  -0.00003184  0.50004775  1
  Fe  Fe2  1  0.62256946  0.24513892  0.13229162  1
  Fe  Fe3  1  0.12824787  0.25649575  0.61525638  1
  Fe  Fe4  1  0.87743054  0.75486108  0.36770838  1
  Fe  Fe5  1  0.37175213  0.74350425  0.88474362  1
  Si  Si6  1  0.25000000  0.50000000  0.25000000  1
  Ge  Ge7  1  0.75000000  0.50000000  0.75000000  1
