# generated using pymatgen
data_Mn2SiNi2Ge
_symmetry_space_group_name_H-M   'P 1'
_cell_length_a   3.60900909
_cell_length_b   5.92275715
_cell_length_c   6.99712162
_cell_angle_alpha   90.00000000
_cell_angle_beta   90.00000000
_cell_angle_gamma   90.00000000
_symmetry_Int_Tables_number   1
_chemical_formula_structural   Mn2SiNi2Ge
_chemical_formula_sum   'Mn4 Si2 Ni4 Ge2'
_cell_volume   149.56546455
_cell_formula_units_Z   2
loop_
 _symmetry_equiv_pos_site_id
 _symmetry_equiv_pos_as_xyz
  1  'x, y, z'
loop_
 _atom_site_type_symbol
 _atom_site_label
 _atom_site_symmetry_multiplicity
 _atom_site_fract_x
 _atom_site_fract_y
 _atom_site_fract_z
 _atom_site_occupancy
  Mn  Mn0  1  0.75000000  0.46473554  0.67103893  1
  Mn  Mn1  1  0.75000000  0.96473554  0.82896107  1
  Mn  Mn2  1  0.25000000  0.52822606  0.32263097  1
  Mn  Mn3  1  0.25000000  0.02822606  0.17736903  1
  Si  Si4  1  0.75000000  0.74243969  0.12820885  1
  Si  Si5  1  0.75000000  0.24243969  0.37179115  1
  Ni  Ni6  1  0.75000000  0.36068204  0.06789675  1
  Ni  Ni7  1  0.75000000  0.86068204  0.43210325  1
  Ni  Ni8  1  0.25000000  0.64795517  0.94879169  1
  Ni  Ni9  1  0.25000000  0.14795517  0.55120831  1
  Ge  Ge10  1  0.25000000  0.25596150  0.87185969  1
  Ge  Ge11  1  0.25000000  0.75596150  0.62814031  1
