# generated using pymatgen
data_Mn4Fe8SiGe3
_symmetry_space_group_name_H-M   'P 1'
_cell_length_a   4.02070902
_cell_length_b   4.02070902
_cell_length_c   13.35129404
_cell_angle_alpha   81.33982191
_cell_angle_beta   98.66017809
_cell_angle_gamma   120.00000000
_symmetry_Int_Tables_number   1
_chemical_formula_structural   Mn4Fe8SiGe3
_chemical_formula_sum   'Mn4 Fe8 Si1 Ge3'
_cell_volume   184.07451513
_cell_formula_units_Z   1
loop_
 _symmetry_equiv_pos_site_id
 _symmetry_equiv_pos_as_xyz
  1  'x, y, z'
loop_
 _atom_site_type_symbol
 _atom_site_label
 _atom_site_symmetry_multiplicity
 _atom_site_fract_x
 _atom_site_fract_y
 _atom_site_fract_z
 _atom_site_occupancy
  Mn  Mn0  1  0.25063139  0.74936861  0.75189418  1
  Mn  Mn1  1  0.49936861  0.50063139  0.49810582  1
  Mn  Mn2  1  0.00031443  0.99968557  0.00094328  1
  Mn  Mn3  1  0.74968557  0.25031443  0.24905672  1
  Fe  Fe4  1  0.93771597  0.06228403  0.81314790  1
  Fe  Fe5  1  0.18786269  0.81213731  0.56358807  1
  Fe  Fe6  1  0.68889745  0.31110255  0.06669236  1
  Fe  Fe7  1  0.43583445  0.56416555  0.30750334  1
  Fe  Fe8  1  0.31416555  0.68583445  0.94249666  1
  Fe  Fe9  1  0.56213731  0.43786269  0.68641193  1
  Fe  Fe10  1  0.06110255  0.93889745  0.18330764  1
  Fe  Fe11  1  0.81228403  0.18771597  0.43685210  1
  Si  Si12  1  0.37500000  0.62500000  0.12500000  1
  Ge  Ge13  1  0.12460877  0.87539123  0.37382630  1
  Ge  Ge14  1  0.87500000  0.12500000  0.62500000  1
  Ge  Ge15  1  0.62539123  0.37460877  0.87617370  1
