# generated using pymatgen
data_Mg2V2CoO8
_symmetry_space_group_name_H-M   'P 1'
_cell_length_a   6.12233510
_cell_length_b   6.58186165
_cell_length_c   8.37731756
_cell_angle_alpha   90.00000000
_cell_angle_beta   90.00000000
_cell_angle_gamma   62.28385958
_symmetry_Int_Tables_number   1
_chemical_formula_structural   Mg2V2CoO8
_chemical_formula_sum   'Mg4 V4 Co2 O16'
_cell_volume   298.84291386
_cell_formula_units_Z   2
loop_
 _symmetry_equiv_pos_site_id
 _symmetry_equiv_pos_as_xyz
  1  'x, y, z'
loop_
 _atom_site_type_symbol
 _atom_site_label
 _atom_site_symmetry_multiplicity
 _atom_site_fract_x
 _atom_site_fract_y
 _atom_site_fract_z
 _atom_site_occupancy
  Mg  Mg0  1  0.38596744  0.72806512  0.75000000  1
  Mg  Mg1  1  0.11403256  0.27193488  0.25000000  1
  Mg  Mg2  1  0.61403256  0.27193488  0.25000000  1
  Mg  Mg3  1  0.88596744  0.72806512  0.75000000  1
  V  V4  1  0.87898490  0.24203020  0.62111289  1
  V  V5  1  0.12101510  0.75796980  0.37888711  1
  V  V6  1  0.62101510  0.75796980  0.12111289  1
  V  V7  1  0.37898490  0.24203020  0.87888711  1
  Co  Co8  1  0.50000000  -0.00000000  0.50000000  1
  Co  Co9  1  0.00000000  -0.00000000  0.00000000  1
  O  O10  1  0.34717807  0.76468140  0.49924552  1
  O  O11  1  0.11185947  0.23531860  0.50075448  1
  O  O12  1  0.61185947  0.23531860  0.99924552  1
  O  O13  1  0.84717807  0.76468140  0.00075448  1
  O  O14  1  0.65282193  0.23531860  0.50075448  1
  O  O15  1  0.88814053  0.76468140  0.49924552  1
  O  O16  1  0.38814053  0.76468140  0.00075448  1
  O  O17  1  0.15282193  0.23531860  0.99924552  1
  O  O18  1  0.75107341  0.49785318  0.72951465  1
  O  O19  1  0.24892659  0.50214682  0.27048535  1
  O  O20  1  0.74892659  0.50214682  0.22951465  1
  O  O21  1  0.25107341  0.49785318  0.77048535  1
  O  O22  1  0.50303362  0.99393277  0.74425359  1
  O  O23  1  0.49696638  0.00606723  0.25574641  1
  O  O24  1  0.99696638  0.00606723  0.24425359  1
  O  O25  1  0.00303362  0.99393277  0.75574641  1
