# generated using pymatgen
data_LiInO2
_symmetry_space_group_name_H-M   'P 1'
_cell_length_a   4.38511907
_cell_length_b   4.38511907
_cell_length_c   5.63867426
_cell_angle_alpha   67.11746760
_cell_angle_beta   67.11746760
_cell_angle_gamma   90.00000000
_symmetry_Int_Tables_number   1
_chemical_formula_structural   LiInO2
_chemical_formula_sum   'Li2 In2 O4'
_cell_volume   90.56151443
_cell_formula_units_Z   2
loop_
 _symmetry_equiv_pos_site_id
 _symmetry_equiv_pos_as_xyz
  1  'x, y, z'
loop_
 _atom_site_type_symbol
 _atom_site_label
 _atom_site_symmetry_multiplicity
 _atom_site_fract_x
 _atom_site_fract_y
 _atom_site_fract_z
 _atom_site_occupancy
  Li  Li0  1  0.22778414  0.72778414  0.54443172  1
  Li  Li1  1  0.47778414  0.47778414  0.04443172  1
  In  In2  1  0.74580794  0.24580794  0.50838412  1
  In  In3  1  0.99580794  0.99580794  0.00838412  1
  O  O4  1  0.51392082  0.01392082  0.97215835  1
  O  O5  1  0.23258709  0.23258709  0.53482581  1
  O  O6  1  0.98258709  0.48258709  0.03482581  1
  O  O7  1  0.76392082  0.76392082  0.47215835  1
