# generated using pymatgen
data_Li4ScFe3(SiO3)8
_symmetry_space_group_name_H-M   'P 1'
_cell_length_a   5.37453698
_cell_length_b   9.43599856
_cell_length_c   8.85430919
_cell_angle_alpha   90.00000000
_cell_angle_beta   90.00000000
_cell_angle_gamma   101.84987693
_symmetry_Int_Tables_number   1
_chemical_formula_structural   Li4ScFe3(SiO3)8
_chemical_formula_sum   'Li4 Sc1 Fe3 Si8 O24'
_cell_volume   439.46906741
_cell_formula_units_Z   1
loop_
 _symmetry_equiv_pos_site_id
 _symmetry_equiv_pos_as_xyz
  1  'x, y, z'
loop_
 _atom_site_type_symbol
 _atom_site_label
 _atom_site_symmetry_multiplicity
 _atom_site_fract_x
 _atom_site_fract_y
 _atom_site_fract_z
 _atom_site_occupancy
  Li  Li0  1  0.25000000  0.50000000  0.75880548  1
  Li  Li1  1  0.75000000  0.00000000  0.25714508  1
  Li  Li2  1  0.75000000  0.50000000  0.24147847  1
  Li  Li3  1  0.25000000  0.00000000  0.74304069  1
  Sc  Sc4  1  0.25000000  0.50000000  0.39796953  1
  Fe  Fe5  1  0.75000000  0.00000000  0.89702762  1
  Fe  Fe6  1  0.75000000  0.50000000  0.60532682  1
  Fe  Fe7  1  0.25000000  0.00000000  0.10305718  1
  Si  Si8  1  0.47201398  0.70584087  0.08628053  1
  Si  Si9  1  0.96851536  0.20260640  0.59010786  1
  Si  Si10  1  0.02798602  0.29415913  0.08628053  1
  Si  Si11  1  0.53148464  0.79739360  0.59010786  1
  Si  Si12  1  0.52931673  0.29562785  0.91058697  1
  Si  Si13  1  0.02824842  0.79754962  0.41138737  1
  Si  Si14  1  0.97068327  0.70437215  0.91058697  1
  Si  Si15  1  0.47175158  0.20245038  0.41138737  1
  O  O16  1  0.46500496  0.63435700  0.25227856  1
  O  O17  1  0.96042994  0.12985798  0.75575615  1
  O  O18  1  0.03499504  0.36564300  0.25227856  1
  O  O19  1  0.53957006  0.87014202  0.75575615  1
  O  O20  1  0.53825364  0.36915137  0.74482080  1
  O  O21  1  0.04015543  0.86971498  0.24494688  1
  O  O22  1  0.96174636  0.63084863  0.74482080  1
  O  O23  1  0.45984457  0.13028502  0.24494688  1
  O  O24  1  0.20031190  0.64624695  0.99903450  1
  O  O25  1  0.69989351  0.14351038  0.49988220  1
  O  O26  1  0.29968810  0.35375305  0.99903450  1
  O  O27  1  0.80010649  0.85648962  0.49988220  1
  O  O28  1  0.79983884  0.35406582  0.99875983  1
  O  O29  1  0.29992006  0.85334981  0.50064729  1
  O  O30  1  0.70016116  0.64593418  0.99875983  1
  O  O31  1  0.20007994  0.14665019  0.50064729  1
  O  O32  1  0.53289968  0.88501200  0.08296989  1
  O  O33  1  0.02796312  0.38179398  0.58874632  1
  O  O34  1  0.96710032  0.11498800  0.08296989  1
  O  O35  1  0.47203688  0.61820602  0.58874632  1
  O  O36  1  0.46747102  0.11637038  0.91553199  1
  O  O37  1  0.95857393  0.61865914  0.41633743  1
  O  O38  1  0.03252898  0.88362962  0.91553199  1
  O  O39  1  0.54142607  0.38134086  0.41633743  1
