# generated using pymatgen
data_Mg3(AlCu2)2
_symmetry_space_group_name_H-M   'P 1'
_cell_length_a   5.01579180
_cell_length_b   5.05674983
_cell_length_c   12.49612620
_cell_angle_alpha   90.63746979
_cell_angle_beta   88.83827794
_cell_angle_gamma   119.24382589
_symmetry_Int_Tables_number   1
_chemical_formula_structural   Mg3(AlCu2)2
_chemical_formula_sum   'Mg6 Al4 Cu8'
_cell_volume   276.49438874
_cell_formula_units_Z   2
loop_
 _symmetry_equiv_pos_site_id
 _symmetry_equiv_pos_as_xyz
  1  'x, y, z'
loop_
 _atom_site_type_symbol
 _atom_site_label
 _atom_site_symmetry_multiplicity
 _atom_site_fract_x
 _atom_site_fract_y
 _atom_site_fract_z
 _atom_site_occupancy
  Mg  Mg0  1  0.33122932  0.66411764  0.91505403  1
  Mg  Mg1  1  0.99899270  0.00143625  0.25184944  1
  Mg  Mg2  1  0.66557644  0.33370049  0.58348036  1
  Mg  Mg3  1  0.33442356  0.66629951  0.66651964  1
  Mg  Mg4  1  0.00100730  0.99856375  0.99815056  1
  Mg  Mg5  1  0.66877068  0.33588236  0.33494597  1
  Al  Al6  1  0.50000000  0.50000000  0.12500000  1
  Al  Al7  1  0.16686887  0.83349074  0.45838357  1
  Al  Al8  1  0.83313113  0.16650926  0.79161643  1
  Al  Al9  1  0.50000000  0.00000000  0.12500000  1
  Cu  Cu10  1  0.16639088  0.33326345  0.45805577  1
  Cu  Cu11  1  0.83360912  0.66673655  0.79194423  1
  Cu  Cu12  1  0.33468828  0.66827956  0.29172087  1
  Cu  Cu13  1  0.00000000  0.00000000  0.62500000  1
  Cu  Cu14  1  0.66531172  0.33172044  0.95827913  1
  Cu  Cu15  1  0.00000000  0.50000000  0.12500000  1
  Cu  Cu16  1  0.66648454  0.83331539  0.45811315  1
  Cu  Cu17  1  0.33351546  0.16668461  0.79188685  1
