# generated using pymatgen
data_LiFe3SiPO8
_symmetry_space_group_name_H-M   'P 1'
_cell_length_a   4.83156984
_cell_length_b   6.13225627
_cell_length_c   10.57031848
_cell_angle_alpha   90.00000000
_cell_angle_beta   89.92884129
_cell_angle_gamma   90.00000000
_symmetry_Int_Tables_number   1
_chemical_formula_structural   LiFe3SiPO8
_chemical_formula_sum   'Li2 Fe6 Si2 P2 O16'
_cell_volume   313.18164096
_cell_formula_units_Z   2
loop_
 _symmetry_equiv_pos_site_id
 _symmetry_equiv_pos_as_xyz
  1  'x, y, z'
loop_
 _atom_site_type_symbol
 _atom_site_label
 _atom_site_symmetry_multiplicity
 _atom_site_fract_x
 _atom_site_fract_y
 _atom_site_fract_z
 _atom_site_occupancy
  Li  Li0  1  0.50000000  0.00000000  0.50000000  1
  Li  Li1  1  0.50000000  0.50000000  0.50000000  1
  Fe  Fe2  1  0.47795537  0.75000000  0.22329945  1
  Fe  Fe3  1  0.00767577  0.75000000  0.71534977  1
  Fe  Fe4  1  0.52204463  0.25000000  0.77670055  1
  Fe  Fe5  1  0.99232423  0.25000000  0.28465023  1
  Fe  Fe6  1  -0.00000000  0.50000000  0.00000000  1
  Fe  Fe7  1  -0.00000000  0.00000000  0.00000000  1
  Si  Si8  1  0.57110868  0.75000000  0.90253782  1
  Si  Si9  1  0.42889132  0.25000000  0.09746218  1
  P  P10  1  0.92311524  0.75000000  0.40449296  1
  P  P11  1  0.07688476  0.25000000  0.59550704  1
  O  O12  1  0.70837814  0.75000000  0.04712333  1
  O  O13  1  0.79632932  0.75000000  0.53971723  1
  O  O14  1  0.29162186  0.25000000  0.95287667  1
  O  O15  1  0.20367068  0.25000000  0.46028277  1
  O  O16  1  0.24268015  0.75000000  0.40491309  1
  O  O17  1  0.23167928  0.75000000  0.90485315  1
  O  O18  1  0.75731985  0.25000000  0.59508691  1
  O  O19  1  0.76832072  0.25000000  0.09514685  1
  O  O20  1  0.79479168  0.95237276  0.33441571  1
  O  O21  1  0.71372549  0.53687415  0.83299859  1
  O  O22  1  0.20520832  0.45237276  0.66558429  1
  O  O23  1  0.28627451  0.03687415  0.16700141  1
  O  O24  1  0.20520832  0.04762724  0.66558429  1
  O  O25  1  0.28627451  0.46312585  0.16700141  1
  O  O26  1  0.79479168  0.54762724  0.33441571  1
  O  O27  1  0.71372549  0.96312585  0.83299859  1
