# generated using pymatgen
data_LaNdCuO4
_symmetry_space_group_name_H-M   'P 1'
_cell_length_a   3.99058307
_cell_length_b   3.99058307
_cell_length_c   6.86113374
_cell_angle_alpha   73.09349853
_cell_angle_beta   73.09349853
_cell_angle_gamma   90.00000000
_symmetry_Int_Tables_number   1
_chemical_formula_structural   LaNdCuO4
_chemical_formula_sum   'La1 Nd1 Cu1 O4'
_cell_volume   99.59374229
_cell_formula_units_Z   1
loop_
 _symmetry_equiv_pos_site_id
 _symmetry_equiv_pos_as_xyz
  1  'x, y, z'
loop_
 _atom_site_type_symbol
 _atom_site_label
 _atom_site_symmetry_multiplicity
 _atom_site_fract_x
 _atom_site_fract_y
 _atom_site_fract_z
 _atom_site_occupancy
  La  La0  1  0.65018923  0.65018923  0.69962154  1
  Nd  Nd1  1  0.35046967  0.35046967  0.29906067  1
  Cu  Cu2  1  0.99842853  0.99842853  0.00314295  1
  O  O3  1  0.75234023  0.25234023  0.49531954  1
  O  O4  1  0.25234023  0.75234023  0.49531954  1
  O  O5  1  0.49811606  0.99811606  0.00376788  1
  O  O6  1  0.99811606  0.49811606  0.00376788  1
