# generated using pymatgen
data_Li5Cr3(PO4)4
_symmetry_space_group_name_H-M   'P 1'
_cell_length_a   5.01170460
_cell_length_b   8.01771419
_cell_length_c   8.58815734
_cell_angle_alpha   110.00655069
_cell_angle_beta   90.55505383
_cell_angle_gamma   104.93222121
_symmetry_Int_Tables_number   1
_chemical_formula_structural   Li5Cr3(PO4)4
_chemical_formula_sum   'Li5 Cr3 P4 O16'
_cell_volume   311.49290630
_cell_formula_units_Z   1
loop_
 _symmetry_equiv_pos_site_id
 _symmetry_equiv_pos_as_xyz
  1  'x, y, z'
loop_
 _atom_site_type_symbol
 _atom_site_label
 _atom_site_symmetry_multiplicity
 _atom_site_fract_x
 _atom_site_fract_y
 _atom_site_fract_z
 _atom_site_occupancy
  Li  Li0  1  0.16721520  0.89783594  0.89529555  1
  Li  Li1  1  0.83083275  0.09799612  0.10564536  1
  Li  Li2  1  0.23155868  0.01973834  0.29098676  1
  Li  Li3  1  0.76447923  0.96950231  0.70322630  1
  Li  Li4  1  0.59995324  0.75841696  0.28737748  1
  Cr  Cr5  1  0.00266719  0.50640021  0.00919512  1
  Cr  Cr6  1  0.50086652  0.50378637  0.49719900  1
  Cr  Cr7  1  0.40950019  0.24797456  0.71994515  1
  P  P8  1  0.58808418  0.69655280  0.90888231  1
  P  P9  1  0.41201765  0.30366599  0.09706245  1
  P  P10  1  0.12857836  0.79309679  0.52790189  1
  P  P11  1  0.87146208  0.20507396  0.46335844  1
  O  O12  1  0.73968829  0.66876316  0.05187788  1
  O  O13  1  0.25271868  0.33138077  0.95219516  1
  O  O14  1  0.23964035  0.82344851  0.37197167  1
  O  O15  1  0.76815313  0.17589707  0.62482795  1
  O  O16  1  0.80097259  0.73691182  0.50912190  1
  O  O17  1  0.20093988  0.26743256  0.48893050  1
  O  O18  1  0.24208219  0.65516725  0.57683740  1
  O  O19  1  0.75563450  0.34770015  0.42464036  1
  O  O20  1  0.28949562  0.70363273  0.95005079  1
  O  O21  1  0.70752447  0.29612673  0.04861909  1
  O  O22  1  0.58423429  0.52738004  0.74369031  1
  O  O23  1  0.40958396  0.46919443  0.25673902  1
  O  O24  1  0.74362007  0.87896932  0.88870759  1
  O  O25  1  0.25583886  0.11632082  0.10835775  1
  O  O26  1  0.21032993  0.97728480  0.68783770  1
  O  O27  1  0.79232792  0.02434948  0.30951915  1
