# generated using pymatgen
data_Li4SiO4
_symmetry_space_group_name_H-M   'P 1'
_cell_length_a   6.15152823
_cell_length_b   11.70898035
_cell_length_c   16.89851649
_cell_angle_alpha   98.96011869
_cell_angle_beta   90.00000000
_cell_angle_gamma   90.00000000
_symmetry_Int_Tables_number   1
_chemical_formula_structural   Li4SiO4
_chemical_formula_sum   'Li56 Si14 O56'
_cell_volume   1202.31530763
_cell_formula_units_Z   14
loop_
 _symmetry_equiv_pos_site_id
 _symmetry_equiv_pos_as_xyz
  1  'x, y, z'
loop_
 _atom_site_type_symbol
 _atom_site_label
 _atom_site_symmetry_multiplicity
 _atom_site_fract_x
 _atom_site_fract_y
 _atom_site_fract_z
 _atom_site_occupancy
  Li  Li0  1  0.02835470  0.80966992  0.98904919  1
  Li  Li1  1  0.52835470  0.19033008  0.01095081  1
  Li  Li2  1  0.96718760  0.19418057  0.01573103  1
  Li  Li3  1  0.46718760  0.80581943  0.98426897  1
  Li  Li4  1  0.25528435  0.27245973  0.86051971  1
  Li  Li5  1  0.75528435  0.72754027  0.13948029  1
  Li  Li6  1  0.50348529  0.61701911  0.59220682  1
  Li  Li7  1  0.00348529  0.38298089  0.40779318  1
  Li  Li8  1  0.49638741  0.38292430  0.40772959  1
  Li  Li9  1  0.99638741  0.61707570  0.59227041  1
  Li  Li10  1  0.75500674  0.86445965  0.85629436  1
  Li  Li11  1  0.25500674  0.13554035  0.14370564  1
  Li  Li12  1  0.00296567  0.81245327  0.54589074  1
  Li  Li13  1  0.50296567  0.18754673  0.45410926  1
  Li  Li14  1  0.99701315  0.18778571  0.45439252  1
  Li  Li15  1  0.49701315  0.81221429  0.54560748  1
  Li  Li16  1  0.75137127  0.99709950  0.98798766  1
  Li  Li17  1  0.25137127  0.00290050  0.01201234  1
  Li  Li18  1  0.99407030  0.47601788  0.88304893  1
  Li  Li19  1  0.49407030  0.52398212  0.11695107  1
  Li  Li20  1  0.00569429  0.52372092  0.11693318  1
  Li  Li21  1  0.50569429  0.47627908  0.88306682  1
  Li  Li22  1  0.54147583  0.76166398  0.40234894  1
  Li  Li23  1  0.04147583  0.23833602  0.59765106  1
  Li  Li24  1  0.45857117  0.23828500  0.59764904  1
  Li  Li25  1  0.95857117  0.76171500  0.40235096  1
  Li  Li26  1  0.24964000  0.58961820  0.98318090  1
  Li  Li27  1  0.74964000  0.41038180  0.01681910  1
  Li  Li28  1  0.00796505  0.66261289  0.82717881  1
  Li  Li29  1  0.50796505  0.33738711  0.17282119  1
  Li  Li30  1  0.99189409  0.33724606  0.17295444  1
  Li  Li31  1  0.49189409  0.66275394  0.82704556  1
  Li  Li32  1  0.75004723  0.54764292  0.72337085  1
  Li  Li33  1  0.25004723  0.45235708  0.27662915  1
  Li  Li34  1  0.25009601  0.97391203  0.42984229  1
  Li  Li35  1  0.75009601  0.02608797  0.57015771  1
  Li  Li36  1  0.24958355  0.72905292  0.69618324  1
  Li  Li37  1  0.74958355  0.27094708  0.30381676  1
  Li  Li38  1  0.75000537  0.58197914  0.45018399  1
  Li  Li39  1  0.25000537  0.41802086  0.54981601  1
  Li  Li40  1  0.02540046  0.95181019  0.70870719  1
  Li  Li41  1  0.52540046  0.04818981  0.29129281  1
  Li  Li42  1  0.96945215  0.05193097  0.29590798  1
  Li  Li43  1  0.46945215  0.94806903  0.70409202  1
  Li  Li44  1  0.53300207  0.33524952  0.73330749  1
  Li  Li45  1  0.03300207  0.66475048  0.26669251  1
  Li  Li46  1  0.46755067  0.66463270  0.26647039  1
  Li  Li47  1  0.96755067  0.33536730  0.73352961  1
  Li  Li48  1  0.24929556  0.14046375  0.73341983  1
  Li  Li49  1  0.74929556  0.85953625  0.26658017  1
  Li  Li50  1  0.75129537  0.14232226  0.70428613  1
  Li  Li51  1  0.25129537  0.85767774  0.29571387  1
  Li  Li52  1  0.54266288  0.91169944  0.12537849  1
  Li  Li53  1  0.04266288  0.08830056  0.87462151  1
  Li  Li54  1  0.04302220  0.94752343  0.15471308  1
  Li  Li55  1  0.54302220  0.05247657  0.84528692  1
  Si  Si56  1  0.74825541  0.79850326  0.70888732  1
  Si  Si57  1  0.24825541  0.20149674  0.29111268  1
  Si  Si58  1  0.25113147  0.89467342  0.85620765  1
  Si  Si59  1  0.75113147  0.10532658  0.14379235  1
  Si  Si60  1  0.24998130  0.47754261  0.71362125  1
  Si  Si61  1  0.74998130  0.52245739  0.28637875  1
  Si  Si62  1  0.74976140  0.95942905  0.42161199  1
  Si  Si63  1  0.24976140  0.04057095  0.57838801  1
  Si  Si64  1  0.75164252  0.24599129  0.86127719  1
  Si  Si65  1  0.25164252  0.75400871  0.13872281  1
  Si  Si66  1  0.74821097  0.65841718  0.99346650  1
  Si  Si67  1  0.24821097  0.34158282  0.00653350  1
  Si  Si68  1  0.75003494  0.38410208  0.57135853  1
  Si  Si69  1  0.25003494  0.61589792  0.42864147  1
  O  O70  1  0.53132082  0.92981995  0.36274502  1
  O  O71  1  0.03132082  0.07018005  0.63725498  1
  O  O72  1  0.46841082  0.07010426  0.63705824  1
  O  O73  1  0.96841082  0.92989574  0.36294176  1
  O  O74  1  0.75006867  0.09056067  0.46998939  1
  O  O75  1  0.25006867  0.90943933  0.53001061  1
  O  O76  1  0.53555919  0.21306477  0.80179687  1
  O  O77  1  0.03555919  0.78693523  0.19820313  1
  O  O78  1  0.47188645  0.78445618  0.19665617  1
  O  O79  1  0.97188645  0.21554382  0.80334383  1
  O  O80  1  0.52587727  0.64060154  0.93886654  1
  O  O81  1  0.02587727  0.35939846  0.06113346  1
  O  O82  1  0.47239906  0.35750398  0.06023082  1
  O  O83  1  0.97239906  0.64249602  0.93976918  1
  O  O84  1  0.03569052  0.92722531  0.91647763  1
  O  O85  1  0.53569052  0.07277469  0.08352237  1
  O  O86  1  0.97100289  0.07538721  0.08526193  1
  O  O87  1  0.47100289  0.92461279  0.91473807  1
  O  O88  1  0.74892338  0.38070580  0.90098339  1
  O  O89  1  0.24892338  0.61929420  0.09901661  1
  O  O90  1  0.24990910  0.55577068  0.64095454  1
  O  O91  1  0.74990910  0.44422932  0.35904546  1
  O  O92  1  0.74999170  0.57924444  0.06584024  1
  O  O93  1  0.24999170  0.42075556  0.93415976  1
  O  O94  1  0.24887519  0.76182730  0.81264879  1
  O  O95  1  0.74887519  0.23817270  0.18735121  1
  O  O96  1  0.02916894  0.49815139  0.76968064  1
  O  O97  1  0.52916894  0.50184861  0.23031936  1
  O  O98  1  0.97084768  0.50199931  0.23036600  1
  O  O99  1  0.47084768  0.49800069  0.76963400  1
  O  O100  1  0.75425606  0.15332756  0.92722764  1
  O  O101  1  0.25425606  0.84667244  0.07277236  1
  O  O102  1  0.52600043  0.78278650  0.65401367  1
  O  O103  1  0.02600043  0.21721350  0.34598633  1
  O  O104  1  0.47229849  0.21548105  0.34504132  1
  O  O105  1  0.97229849  0.78451895  0.65495868  1
  O  O106  1  0.74998934  0.52247381  0.60519498  1
  O  O107  1  0.24998934  0.47752619  0.39480502  1
  O  O108  1  0.75012539  0.30304605  0.64697375  1
  O  O109  1  0.25012539  0.69695395  0.35302625  1
  O  O110  1  0.75005905  0.71613107  0.77894367  1
  O  O111  1  0.25005905  0.28386893  0.22105633  1
  O  O112  1  0.52903642  0.34512019  0.51846511  1
  O  O113  1  0.02903642  0.65487981  0.48153489  1
  O  O114  1  0.47105526  0.65482618  0.48146663  1
  O  O115  1  0.97105526  0.34517382  0.51853337  1
  O  O116  1  0.25007645  0.33469755  0.67545799  1
  O  O117  1  0.75007645  0.66530245  0.32454201  1
  O  O118  1  0.74293799  0.93634842  0.75714290  1
  O  O119  1  0.24293799  0.06365158  0.24285710  1
  O  O120  1  0.74995641  0.86714390  0.48608922  1
  O  O121  1  0.24995641  0.13285610  0.51391078  1
  O  O122  1  0.74301671  0.79807676  0.03857036  1
  O  O123  1  0.24301671  0.20192324  0.96142964  1
  O  O124  1  0.25406182  0.99006502  0.79208447  1
  O  O125  1  0.75406182  0.00993498  0.20791553  1
