# generated using pymatgen
data_La4BiPb2
_symmetry_space_group_name_H-M   'P 1'
_cell_length_a   8.57380461
_cell_length_b   8.57380461
_cell_length_c   8.57380461
_cell_angle_alpha   70.64688752
_cell_angle_beta   70.29230394
_cell_angle_gamma   109.35311248
_symmetry_Int_Tables_number   1
_chemical_formula_structural   La4BiPb2
_chemical_formula_sum   'La8 Bi2 Pb4'
_cell_volume   485.16929030
_cell_formula_units_Z   2
loop_
 _symmetry_equiv_pos_site_id
 _symmetry_equiv_pos_as_xyz
  1  'x, y, z'
loop_
 _atom_site_type_symbol
 _atom_site_label
 _atom_site_symmetry_multiplicity
 _atom_site_fract_x
 _atom_site_fract_y
 _atom_site_fract_z
 _atom_site_occupancy
  La  La0  1  0.85748514  0.35534599  0.14332665  1
  La  La1  1  0.50132737  0.14465401  0.99786085  1
  La  La2  1  0.64251486  0.49918821  0.50213915  1
  La  La3  1  0.99867263  0.00081179  0.35667335  1
  La  La4  1  0.50213915  0.64465401  0.99867263  1
  La  La5  1  0.35667335  0.85534599  0.64251486  1
  La  La6  1  0.14332665  0.50081179  0.50132737  1
  La  La7  1  0.99786085  0.99918821  0.85748514  1
  Bi  Bi8  1  0.37500000  0.25000000  0.37500000  1
  Bi  Bi9  1  0.12500000  0.75000000  0.12500000  1
  Pb  Pb10  1  0.87615652  0.62615652  0.75000000  1
  Pb  Pb11  1  0.62384348  0.87384348  0.25000000  1
  Pb  Pb12  1  0.75000000  0.12615652  0.62384348  1
  Pb  Pb13  1  0.25000000  0.37384348  0.87615652  1
