# generated using pymatgen
data_La4Fe(NiO4)3
_symmetry_space_group_name_H-M   'P 1'
_cell_length_a   5.46162140
_cell_length_b   7.79621464
_cell_length_c   5.55560820
_cell_angle_alpha   90.12940853
_cell_angle_beta   89.98197377
_cell_angle_gamma   91.49339631
_symmetry_Int_Tables_number   1
_chemical_formula_structural   La4Fe(NiO4)3
_chemical_formula_sum   'La4 Fe1 Ni3 O12'
_cell_volume   236.47668459
_cell_formula_units_Z   1
loop_
 _symmetry_equiv_pos_site_id
 _symmetry_equiv_pos_as_xyz
  1  'x, y, z'
loop_
 _atom_site_type_symbol
 _atom_site_label
 _atom_site_symmetry_multiplicity
 _atom_site_fract_x
 _atom_site_fract_y
 _atom_site_fract_z
 _atom_site_occupancy
  La  La0  1  0.49754127  0.24608980  0.99867818  1
  La  La1  1  0.00206423  0.75429919  0.50163750  1
  La  La2  1  0.50245873  0.75391020  0.00132182  1
  La  La3  1  0.99793577  0.24570081  0.49836250  1
  Fe  Fe4  1  0.50000000  0.50000000  0.50000000  1
  Ni  Ni5  1  -0.00000000  0.50000000  -0.00000000  1
  Ni  Ni6  1  0.50000000  0.00000000  0.50000000  1
  Ni  Ni7  1  -0.00000000  0.00000000  -0.00000000  1
  O  O8  1  0.21657116  0.53082083  0.71236341  1
  O  O9  1  0.72196189  0.03317170  0.21566293  1
  O  O10  1  0.28656089  0.46825061  0.21654202  1
  O  O11  1  0.78219540  0.96542405  0.72426896  1
  O  O12  1  0.99853351  0.75261023  0.06896345  1
  O  O13  1  0.49739343  0.25142061  0.56134074  1
  O  O14  1  0.71343911  0.53174939  0.78345798  1
  O  O15  1  0.21780460  0.03457595  0.27573104  1
  O  O16  1  0.00146649  0.24738977  0.93103655  1
  O  O17  1  0.50260657  0.74857939  0.43865926  1
  O  O18  1  0.78342884  0.46917917  0.28763659  1
  O  O19  1  0.27803811  0.96682830  0.78433707  1
