# generated using pymatgen
data_La2Cu2SeSO2
_symmetry_space_group_name_H-M   'P 1'
_cell_length_a   4.03601440
_cell_length_b   4.03601440
_cell_length_c   8.71327161
_cell_angle_alpha   90.00000000
_cell_angle_beta   90.00000000
_cell_angle_gamma   90.00000000
_symmetry_Int_Tables_number   1
_chemical_formula_structural   La2Cu2SeSO2
_chemical_formula_sum   'La2 Cu2 Se1 S1 O2'
_cell_volume   141.93407319
_cell_formula_units_Z   1
loop_
 _symmetry_equiv_pos_site_id
 _symmetry_equiv_pos_as_xyz
  1  'x, y, z'
loop_
 _atom_site_type_symbol
 _atom_site_label
 _atom_site_symmetry_multiplicity
 _atom_site_fract_x
 _atom_site_fract_y
 _atom_site_fract_z
 _atom_site_occupancy
  La  La0  1  0.75000000  0.75000000  0.85884743  1
  La  La1  1  0.25000000  0.25000000  0.14589712  1
  Cu  Cu2  1  0.25000000  0.75000000  0.49162626  1
  Cu  Cu3  1  0.75000000  0.25000000  0.49162626  1
  Se  Se4  1  0.25000000  0.25000000  0.66815140  1
  S  S5  1  0.75000000  0.75000000  0.33866689  1
  O  O6  1  0.25000000  0.75000000  0.00259233  1
  O  O7  1  0.75000000  0.25000000  0.00259233  1
