# generated using pymatgen
data_LaHo3Mn8O20
_symmetry_space_group_name_H-M   'P 1'
_cell_length_a   5.79355753
_cell_length_b   7.43443466
_cell_length_c   8.61955620
_cell_angle_alpha   89.62316823
_cell_angle_beta   90.00000000
_cell_angle_gamma   90.00000000
_symmetry_Int_Tables_number   1
_chemical_formula_structural   LaHo3Mn8O20
_chemical_formula_sum   'La1 Ho3 Mn8 O20'
_cell_volume   371.25198556
_cell_formula_units_Z   1
loop_
 _symmetry_equiv_pos_site_id
 _symmetry_equiv_pos_as_xyz
  1  'x, y, z'
loop_
 _atom_site_type_symbol
 _atom_site_label
 _atom_site_symmetry_multiplicity
 _atom_site_fract_x
 _atom_site_fract_y
 _atom_site_fract_z
 _atom_site_occupancy
  La  La0  1  -0.00000000  0.63774939  0.32960976  1
  Ho  Ho1  1  -0.00000000  0.35705581  0.67290507  1
  Ho  Ho2  1  0.00000000  0.13957451  0.16962801  1
  Ho  Ho3  1  -0.00000000  0.86107763  0.82999855  1
  Mn  Mn4  1  0.50000000  0.91454853  0.14855361  1
  Mn  Mn5  1  0.50000000  0.08967007  0.84877069  1
  Mn  Mn6  1  0.50000000  0.40432920  0.35065486  1
  Mn  Mn7  1  0.50000000  0.58699513  0.65295737  1
  Mn  Mn8  1  0.25519768  0.49882938  0.99769540  1
  Mn  Mn9  1  0.74559959  0.00348626  0.50154011  1
  Mn  Mn10  1  0.74480232  0.49882938  0.99769540  1
  Mn  Mn11  1  0.25440041  0.00348626  0.50154011  1
  O  O12  1  0.00000000  0.66194554  0.04862144  1
  O  O13  1  0.00000000  0.33675452  0.94206440  1
  O  O14  1  0.00000000  0.16566186  0.44357851  1
  O  O15  1  -0.00000000  0.84352217  0.56225411  1
  O  O16  1  0.24336160  0.90829101  0.29159822  1
  O  O17  1  0.24040687  0.10664844  0.70783397  1
  O  O18  1  0.75392101  0.38617475  0.20408082  1
  O  O19  1  0.76010104  0.60674093  0.79273604  1
  O  O20  1  0.75959313  0.10664844  0.70783397  1
  O  O21  1  0.75663840  0.90829101  0.29159822  1
  O  O22  1  0.23989896  0.60674093  0.79273604  1
  O  O23  1  0.24607899  0.38617475  0.20408082  1
  O  O24  1  0.50000000  0.65124750  0.06708103  1
  O  O25  1  0.50000000  0.34850714  0.93091695  1
  O  O26  1  0.50000000  0.15313906  0.43743246  1
  O  O27  1  0.50000000  0.84819887  0.56577883  1
  O  O28  1  0.27496316  0.49035419  0.50620389  1
  O  O29  1  0.73137907  0.99948658  0.99790871  1
  O  O30  1  0.72503684  0.49035419  0.50620389  1
  O  O31  1  0.26862093  0.99948658  0.99790871  1
