# generated using pymatgen
data_LaTi6Bi7O24
_symmetry_space_group_name_H-M   'P 1'
_cell_length_a   5.47316900
_cell_length_b   5.52127575
_cell_length_c   16.91672891
_cell_angle_alpha   80.63387510
_cell_angle_beta   90.04265946
_cell_angle_gamma   89.33108778
_symmetry_Int_Tables_number   1
_chemical_formula_structural   LaTi6Bi7O24
_chemical_formula_sum   'La1 Ti6 Bi7 O24'
_cell_volume   504.35323938
_cell_formula_units_Z   1
loop_
 _symmetry_equiv_pos_site_id
 _symmetry_equiv_pos_as_xyz
  1  'x, y, z'
loop_
 _atom_site_type_symbol
 _atom_site_label
 _atom_site_symmetry_multiplicity
 _atom_site_fract_x
 _atom_site_fract_y
 _atom_site_fract_z
 _atom_site_occupancy
  La  La0  1  0.51543397  0.85581622  0.37269286  1
  Ti  Ti1  1  0.52275276  0.30569868  0.49719485  1
  Ti  Ti2  1  0.02195749  0.80300745  0.50031498  1
  Ti  Ti3  1  0.51321523  0.44260024  0.24383933  1
  Ti  Ti4  1  0.01327557  0.67683454  0.75718563  1
  Ti  Ti5  1  0.50733181  0.17755263  0.75612347  1
  Ti  Ti6  1  0.01173068  0.92771838  0.24377395  1
  Bi  Bi7  1  0.97192723  0.03694533  0.92233707  1
  Bi  Bi8  1  0.47509852  0.96049947  0.07826273  1
  Bi  Bi9  1  0.02361551  0.45935242  0.07674268  1
  Bi  Bi10  1  0.51904841  0.54127873  0.92561875  1
  Bi  Bi11  1  0.01456862  0.32796975  0.36391870  1
  Bi  Bi12  1  0.50949478  0.68545596  0.63218843  1
  Bi  Bi13  1  0.00374084  0.19000516  0.63501797  1
  O  O14  1  0.45483011  0.49830567  0.13899938  1
  O  O15  1  0.96170498  0.63963054  0.86129593  1
  O  O16  1  0.26069492  0.27276293  0.99796863  1
  O  O17  1  0.75969756  0.27005617  0.00246165  1
  O  O18  1  0.77012471  0.58686638  0.51385290  1
  O  O19  1  0.29042894  0.08488591  0.47577949  1
  O  O20  1  0.79571832  0.43947681  0.72329181  1
  O  O21  1  0.28838046  0.16609119  0.27967254  1
  O  O22  1  0.59285090  0.39613584  0.38366701  1
  O  O23  1  0.09510902  0.79229634  0.61647407  1
  O  O24  1  0.56898115  0.12808481  0.86051699  1
  O  O25  1  0.07327897  0.00304232  0.13886900  1
  O  O26  1  0.24712868  0.66511804  0.27823225  1
  O  O27  1  0.74560415  0.94234511  0.71990816  1
  O  O28  1  0.73547587  0.72683383  0.25025875  1
  O  O29  1  0.22269534  0.99319701  0.74802013  1
  O  O30  1  0.46161734  0.29021586  0.61661599  1
  O  O31  1  0.95803157  0.90859917  0.38349594  1
  O  O32  1  0.31376707  0.49440275  0.74669171  1
  O  O33  1  0.79903949  0.22463930  0.25631782  1
  O  O34  1  0.74695097  0.76821169  0.00165824  1
  O  O35  1  0.24773906  0.76968251  0.99905258  1
  O  O36  1  0.28593184  0.59619679  0.48390169  1
  O  O37  1  0.79362715  0.08698807  0.51778593  1
