# generated using pymatgen
data_La3NdZr4O14
_symmetry_space_group_name_H-M   'P 1'
_cell_length_a   7.68345108
_cell_length_b   7.68734873
_cell_length_c   7.68345108
_cell_angle_alpha   90.00000000
_cell_angle_beta   60.00000000
_cell_angle_gamma   119.98322920
_symmetry_Int_Tables_number   1
_chemical_formula_structural   La3NdZr4O14
_chemical_formula_sum   'La3 Nd1 Zr4 O14'
_cell_volume   320.98466839
_cell_formula_units_Z   1
loop_
 _symmetry_equiv_pos_site_id
 _symmetry_equiv_pos_as_xyz
  1  'x, y, z'
loop_
 _atom_site_type_symbol
 _atom_site_label
 _atom_site_symmetry_multiplicity
 _atom_site_fract_x
 _atom_site_fract_y
 _atom_site_fract_z
 _atom_site_occupancy
  La  La0  1  0.50000000  0.50000000  0.50000000  1
  La  La1  1  -0.00000000  0.50000000  -0.00000000  1
  La  La2  1  -0.00000000  0.50000000  0.50000000  1
  Nd  Nd3  1  0.50000000  0.00000000  0.50000000  1
  Zr  Zr4  1  0.50000000  0.50000000  -0.00000000  1
  Zr  Zr5  1  0.50000000  0.00000000  -0.00000000  1
  Zr  Zr6  1  -0.00000000  0.00000000  0.50000000  1
  Zr  Zr7  1  -0.00000000  0.00000000  -0.00000000  1
  O  O8  1  0.74786328  0.37179492  0.37606836  1
  O  O9  1  0.25213672  0.62820508  0.62393164  1
  O  O10  1  0.83209101  0.91740994  0.33395449  1
  O  O11  1  0.66646981  0.33316076  0.91676509  1
  O  O12  1  0.25136443  0.91740994  0.91468107  1
  O  O13  1  0.24992585  0.33316076  0.33330905  1
  O  O14  1  0.24992585  0.33316076  0.91676509  1
  O  O15  1  0.25136443  0.91740994  0.33395449  1
  O  O16  1  0.16790899  0.08259006  0.66604551  1
  O  O17  1  0.33353019  0.66683924  0.08323491  1
  O  O18  1  0.74863557  0.08259006  0.08531893  1
  O  O19  1  0.75007415  0.66683924  0.66669095  1
  O  O20  1  0.75007415  0.66683924  0.08323491  1
  O  O21  1  0.74863557  0.08259006  0.66604551  1
