# generated using pymatgen
data_La5AlSi2O13
_symmetry_space_group_name_H-M   'P 1'
_cell_length_a   7.25168939
_cell_length_b   9.81272438
_cell_length_c   9.81562810
_cell_angle_alpha   60.19181920
_cell_angle_beta   89.93634731
_cell_angle_gamma   90.01110909
_symmetry_Int_Tables_number   1
_chemical_formula_structural   La5AlSi2O13
_chemical_formula_sum   'La10 Al2 Si4 O26'
_cell_volume   606.05675866
_cell_formula_units_Z   2
loop_
 _symmetry_equiv_pos_site_id
 _symmetry_equiv_pos_as_xyz
  1  'x, y, z'
loop_
 _atom_site_type_symbol
 _atom_site_label
 _atom_site_symmetry_multiplicity
 _atom_site_fract_x
 _atom_site_fract_y
 _atom_site_fract_z
 _atom_site_occupancy
  La  La0  1  0.24689420  0.23042623  0.01333434  1
  La  La1  1  0.24719995  0.76598833  0.23650324  1
  La  La2  1  0.24692326  0.00528587  0.75749860  1
  La  La3  1  0.74721764  0.76162968  0.99735154  1
  La  La4  1  0.74630108  0.24239450  0.76852850  1
  La  La5  1  0.74732751  0.99679100  0.23730511  1
  La  La6  1  0.99835105  0.33409642  0.32653441  1
  La  La7  1  0.49837571  0.66942316  0.66266379  1
  La  La8  1  0.49781495  0.33421548  0.32710339  1
  La  La9  1  0.99774277  0.66868729  0.66358208  1
  Al  Al10  1  0.24850871  0.97149534  0.40364930  1
  Al  Al11  1  0.74810775  0.37549590  0.02608445  1
  Si  Si12  1  0.24842739  0.62870531  0.96922484  1
  Si  Si13  1  0.24796262  0.40071903  0.62825655  1
  Si  Si14  1  0.74825705  0.03131435  0.59865425  1
  Si  Si15  1  0.74858896  0.59659301  0.37261315  1
  O  O16  1  0.25032949  0.17530949  0.32615481  1
  O  O17  1  0.25068532  0.51264244  0.15960989  1
  O  O18  1  0.25095574  0.33023411  0.50861218  1
  O  O19  1  0.75084589  0.84103862  0.66993222  1
  O  O20  1  0.75024115  0.50092953  0.82212326  1
  O  O21  1  0.75087775  0.66963536  0.48998284  1
  O  O22  1  0.05745636  0.90573719  0.33968114  1
  O  O23  1  0.06559835  0.74399594  0.91493482  1
  O  O24  1  0.06560956  0.34134907  0.74389303  1
  O  O25  1  0.56599348  0.08672096  0.65932817  1
  O  O26  1  0.55589111  0.24755620  0.09086524  1
  O  O27  1  0.56687549  0.65681645  0.25611914  1
  O  O28  1  0.24687614  0.86297759  0.61119226  1
  O  O29  1  0.24632310  0.53103898  0.87274512  1
  O  O30  1  0.24615668  0.59465338  0.53342414  1
  O  O31  1  0.74584632  0.12830194  0.40515080  1
  O  O32  1  0.74667026  0.47279424  0.13675425  1
  O  O33  1  0.74679726  0.40270151  0.47083284  1
  O  O34  1  0.25275869  0.99903787  0.99682720  1
  O  O35  1  0.75273359  0.99978770  0.99503693  1
  O  O36  1  0.44064461  0.90036030  0.34613244  1
  O  O37  1  0.43185598  0.74358886  0.91147468  1
  O  O38  1  0.43079123  0.34595147  0.74286069  1
  O  O39  1  0.93071071  0.09079231  0.65450497  1
  O  O40  1  0.94119310  0.24908336  0.09654608  1
  O  O41  1  0.93128202  0.65370426  0.25639332  1
