# generated using pymatgen
data_La3Al2Ga3SnO14
_symmetry_space_group_name_H-M   'P 1'
_cell_length_a   5.18256941
_cell_length_b   8.31451694
_cell_length_c   8.31441777
_cell_angle_alpha   119.99960344
_cell_angle_beta   89.99999994
_cell_angle_gamma   89.99955435
_symmetry_Int_Tables_number   1
_chemical_formula_structural   La3Al2Ga3SnO14
_chemical_formula_sum   'La3 Al2 Ga3 Sn1 O14'
_cell_volume   310.27469628
_cell_formula_units_Z   1
loop_
 _symmetry_equiv_pos_site_id
 _symmetry_equiv_pos_as_xyz
  1  'x, y, z'
loop_
 _atom_site_type_symbol
 _atom_site_label
 _atom_site_symmetry_multiplicity
 _atom_site_fract_x
 _atom_site_fract_y
 _atom_site_fract_z
 _atom_site_occupancy
  La  La0  1  0.00001192  0.43009710  0.43008519  1
  La  La1  1  0.99998808  0.56990290  0.99998808  1
  La  La2  1  0.00000000  1.00000000  0.56991042  1
  Al  Al3  1  0.53626015  0.33334299  0.66667046  1
  Al  Al4  1  0.46373985  0.66665701  0.33332747  1
  Ga  Ga5  1  0.49999911  0.75252318  0.75251882  1
  Ga  Ga6  1  0.50000089  0.24747682  0.99999564  1
  Ga  Ga7  1  0.50000000  1.00000000  0.24748698  1
  Sn  Sn8  1  0.00000000  0.00000000  -0.00000818  1
  O  O9  1  0.80222035  0.66664563  0.33332595  1
  O  O10  1  0.19777965  0.33335437  0.66668032  1
  O  O11  1  0.31067882  0.68534726  0.53396716  1
  O  O12  1  0.31067647  0.46602398  0.15137662  1
  O  O13  1  0.31068356  0.84861844  0.31465950  1
  O  O14  1  0.68932118  0.31465274  0.84861990  1
  O  O15  1  0.68931644  0.15138156  0.46604106  1
  O  O16  1  0.68932353  0.53397602  0.68535265  1
  O  O17  1  0.75978180  0.23002373  0.14557926  1
  O  O18  1  0.75979447  0.85442152  0.08445620  1
  O  O19  1  0.75978650  0.91555418  0.76996523  1
  O  O20  1  0.24021820  0.76997627  0.91555554  1
  O  O21  1  0.24021350  0.08444582  0.85441104  1
  O  O22  1  0.24020553  0.14557848  0.23003468  1
