# generated using pymatgen
data_LaCeSi2(BO5)2
_symmetry_space_group_name_H-M   'P 1'
_cell_length_a   6.85529076
_cell_length_b   6.85797668
_cell_length_c   11.90464287
_cell_angle_alpha   89.81637976
_cell_angle_beta   89.95279237
_cell_angle_gamma   90.08494253
_symmetry_Int_Tables_number   1
_chemical_formula_structural   LaCeSi2(BO5)2
_chemical_formula_sum   'La3 Ce3 Si6 B6 O30'
_cell_volume   559.67434340
_cell_formula_units_Z   3
loop_
 _symmetry_equiv_pos_site_id
 _symmetry_equiv_pos_as_xyz
  1  'x, y, z'
loop_
 _atom_site_type_symbol
 _atom_site_label
 _atom_site_symmetry_multiplicity
 _atom_site_fract_x
 _atom_site_fract_y
 _atom_site_fract_z
 _atom_site_occupancy
  La  La0  1  0.00002501  0.40237816  0.00005775  1
  La  La1  1  0.33351313  0.79930864  0.20106923  1
  La  La2  1  0.33307024  0.29921679  0.70063058  1
  Ce  Ce3  1  0.66682872  0.29865577  0.29894291  1
  Ce  Ce4  1  0.66653087  0.79849970  0.79834458  1
  Ce  Ce5  1  0.00006954  0.90324237  0.50009235  1
  Si  Si6  1  0.16675358  0.29097011  0.29141632  1
  Si  Si7  1  0.16643755  0.79180416  0.79072456  1
  Si  Si8  1  0.50006842  0.91809955  0.49981175  1
  Si  Si9  1  0.50028653  0.41812839  0.99969485  1
  Si  Si10  1  0.83337372  0.79087446  0.20969825  1
  Si  Si11  1  0.83298261  0.29005079  0.70889985  1
  B  B12  1  0.66668530  0.05388343  0.05406477  1
  B  B13  1  0.66695644  0.55406849  0.55393370  1
  B  B14  1  0.99961161  0.89213071  -0.00003864  1
  B  B15  1  0.99962476  0.39165067  0.49993293  1
  B  B16  1  0.33336178  0.55395498  0.44601147  1
  B  B17  1  0.33360182  0.05390733  0.94590558  1
  O  O18  1  0.99536232  0.83745991  0.30496896  1
  O  O19  1  0.99627789  0.33667623  0.80351097  1
  O  O20  1  0.33056187  0.12712810  0.26673823  1
  O  O21  1  0.33007024  0.62717761  0.76675168  1
  O  O22  1  0.66299422  0.03791142  0.42921246  1
  O  O23  1  0.66205227  0.53842503  0.92890560  1
  O  O24  1  0.67122608  0.62404395  0.23377309  1
  O  O25  1  0.67081420  0.12398188  0.73354123  1
  O  O26  1  0.00304415  0.33655379  0.19695294  1
  O  O27  1  0.00387814  0.83722859  0.69558204  1
  O  O28  1  0.33708149  0.53682452  0.07023558  1
  O  O29  1  0.33627959  0.03608388  0.56974918  1
  O  O30  1  0.16677163  0.01871265  0.01891520  1
  O  O31  1  0.16667509  0.51857994  0.51900902  1
  O  O32  1  0.50002232  0.96185880  0.00021818  1
  O  O33  1  0.49989576  0.46212467  0.50020475  1
  O  O34  1  0.83327005  0.51891862  0.48085275  1
  O  O35  1  0.83313102  0.01917055  0.98111201  1
  O  O36  1  0.35956755  0.76857828  0.42380056  1
  O  O37  1  0.35985657  0.26866996  0.92386950  1
  O  O38  1  0.69267424  0.97963060  0.17264124  1
  O  O39  1  0.69281976  0.47943076  0.67236231  1
  O  O40  1  0.02606530  0.25115246  0.40401324  1
  O  O41  1  0.02543335  0.75236105  0.90346493  1
  O  O42  1  0.30742704  0.47991913  0.32795062  1
  O  O43  1  0.30733402  0.98028046  0.82776475  1
  O  O44  1  0.64087426  0.26883596  0.07593007  1
  O  O45  1  0.64125814  0.76891077  0.57584466  1
  O  O46  1  0.97354434  0.75190388  0.09681064  1
  O  O47  1  0.97315545  0.25064208  0.59612079  1
