# generated using pymatgen
data_Mg2V6Cu4O21
_symmetry_space_group_name_H-M   'P 1'
_cell_length_a   5.64795254
_cell_length_b   5.68116636
_cell_length_c   29.06134687
_cell_angle_alpha   93.93608608
_cell_angle_beta   93.55678171
_cell_angle_gamma   92.61931640
_symmetry_Int_Tables_number   1
_chemical_formula_structural   Mg2V6Cu4O21
_chemical_formula_sum   'Mg4 V12 Cu8 O42'
_cell_volume   927.32937320
_cell_formula_units_Z   2
loop_
 _symmetry_equiv_pos_site_id
 _symmetry_equiv_pos_as_xyz
  1  'x, y, z'
loop_
 _atom_site_type_symbol
 _atom_site_label
 _atom_site_symmetry_multiplicity
 _atom_site_fract_x
 _atom_site_fract_y
 _atom_site_fract_z
 _atom_site_occupancy
  Mg  Mg0  1  0.40445902  0.25247387  0.00677814  1
  Mg  Mg1  1  0.06950014  0.91883098  0.34114113  1
  Mg  Mg2  1  0.73619396  0.58586174  0.67388139  1
  Mg  Mg3  1  0.58160362  0.42985267  0.15960251  1
  V  V4  1  0.92686695  0.47493783  0.07001115  1
  V  V5  1  0.58911103  0.14172414  0.40408686  1
  V  V6  1  0.25623237  0.80875647  0.73710690  1
  V  V7  1  0.35924909  0.90585570  0.09659989  1
  V  V8  1  0.02362562  0.56729713  0.42980759  1
  V  V9  1  0.69109139  0.23436763  0.76314145  1
  V  V10  1  0.73835251  0.19218752  0.26245111  1
  V  V11  1  0.40327954  0.86076965  0.59532686  1
  V  V12  1  0.06972921  0.52722076  0.92884080  1
  V  V13  1  0.30634282  0.76230576  0.23760102  1
  V  V14  1  0.97775432  0.42679050  0.57049841  1
  V  V15  1  0.64410230  0.09295497  0.90366889  1
  Cu  Cu16  1  0.26904759  0.12803437  0.49579898  1
  Cu  Cu17  1  0.93835995  0.79273620  0.82899170  1
  Cu  Cu18  1  0.28828978  0.43628102  0.32865070  1
  Cu  Cu19  1  0.95468865  0.10309179  0.66187095  1
  Cu  Cu20  1  0.62106740  0.76856731  0.99507015  1
  Cu  Cu21  1  0.06637328  0.21224166  0.17187817  1
  Cu  Cu22  1  0.73420823  0.87123649  0.50451418  1
  Cu  Cu23  1  0.39886593  0.53970277  0.83787855  1
  O  O24  1  0.53003088  0.71818909  0.12372263  1
  O  O25  1  0.19485157  0.37495209  0.45691335  1
  O  O26  1  0.86062061  0.04138579  0.79043845  1
  O  O27  1  0.11549101  0.30404809  0.04258306  1
  O  O28  1  0.77840005  0.96945117  0.37726067  1
  O  O29  1  0.44554395  0.63693202  0.71018279  1
  O  O30  1  0.13764492  0.95486462  0.20965607  1
  O  O31  1  0.80633108  0.61988035  0.54357511  1
  O  O32  1  0.47340200  0.28672233  0.87668980  1
  O  O33  1  0.54377021  0.36089434  0.29017833  1
  O  O34  1  0.20956957  0.02993179  0.62309309  1
  O  O35  1  0.87646502  0.69654985  0.95671676  1
  O  O36  1  0.34148209  0.16462111  0.13289843  1
  O  O37  1  0.99582878  0.82011609  0.46544666  1
  O  O38  1  0.66216512  0.48685091  0.79888488  1
  O  O39  1  0.66773792  0.49285346  0.03345764  1
  O  O40  1  0.33365244  0.16019787  0.36703171  1
  O  O41  1  0.00018145  0.82699035  0.70001847  1
  O  O42  1  0.32457297  0.51258159  0.20185673  1
  O  O43  1  0.00526099  0.17664695  0.53393127  1
  O  O44  1  0.67212006  0.84317142  0.86715409  1
  O  O45  1  0.98666510  0.17339639  0.29831551  1
  O  O46  1  0.65274359  0.84180759  0.63089483  1
  O  O47  1  0.32011789  0.50905547  0.96419045  1
  O  O48  1  0.86854393  0.35141783  0.12198244  1
  O  O49  1  0.52991917  0.02563300  0.45795518  1
  O  O50  1  0.19590764  0.68981055  0.79044211  1
  O  O51  1  0.48185478  0.96554184  0.04421055  1
  O  O52  1  0.14985398  0.63278223  0.37779768  1
  O  O53  1  0.81597981  0.29999689  0.71099825  1
  O  O54  1  0.80652403  0.31226385  0.20930255  1
  O  O55  1  0.46945944  0.97423930  0.54106407  1
  O  O56  1  0.13766228  0.64321820  0.87515032  1
  O  O57  1  0.18691781  0.69441587  0.29063938  1
  O  O58  1  0.85440111  0.35934914  0.62333878  1
  O  O59  1  0.52118667  0.02523313  0.95656151  1
  O  O60  1  0.06564814  0.76718474  0.08333698  1
  O  O61  1  0.72820960  0.43155600  0.41621365  1
  O  O62  1  0.39527111  0.09849263  0.74956694  1
  O  O63  1  0.60310460  0.89672561  0.24989895  1
  O  O64  1  0.27002871  0.56482549  0.58396386  1
  O  O65  1  0.93648319  0.23114403  0.91728855  1
