# generated using pymatgen
data_Mg16Al12Co
_symmetry_space_group_name_H-M   'P 1'
_cell_length_a   9.21088994
_cell_length_b   9.00997301
_cell_length_c   9.00997298
_cell_angle_alpha   109.01510094
_cell_angle_beta   109.92358446
_cell_angle_gamma   109.92357426
_symmetry_Int_Tables_number   1
_chemical_formula_structural   Mg16Al12Co
_chemical_formula_sum   'Mg16 Al12 Co1'
_cell_volume   572.36308207
_cell_formula_units_Z   1
loop_
 _symmetry_equiv_pos_site_id
 _symmetry_equiv_pos_as_xyz
  1  'x, y, z'
loop_
 _atom_site_type_symbol
 _atom_site_label
 _atom_site_symmetry_multiplicity
 _atom_site_fract_x
 _atom_site_fract_y
 _atom_site_fract_z
 _atom_site_occupancy
  Mg  Mg0  1  0.00289878  0.35173601  0.99999900  1
  Mg  Mg1  1  0.31936851  0.59267754  0.00000000  1
  Mg  Mg2  1  0.99060266  0.00000100  0.00000100  1
  Mg  Mg3  1  0.57317574  0.26721669  1.00000000  1
  Mg  Mg4  1  0.57317474  0.00000000  0.26721669  1
  Mg  Mg5  1  0.68300445  0.67603088  0.27887425  1
  Mg  Mg6  1  0.00697357  0.60284336  0.32396912  1
  Mg  Mg7  1  0.00289878  0.00000000  0.35173601  1
  Mg  Mg8  1  0.40413120  0.72112575  0.39715764  1
  Mg  Mg9  1  0.72669197  0.40732346  0.40732346  1
  Mg  Mg10  1  0.31936951  1.00000000  0.59267754  1
  Mg  Mg11  1  0.00697357  0.32396812  0.60284436  1
  Mg  Mg12  1  0.65116076  0.64826199  0.64826199  1
  Mg  Mg13  1  0.68300445  0.27887425  0.67603188  1
  Mg  Mg14  1  0.40413120  0.39715664  0.72112575  1
  Mg  Mg15  1  0.30595804  0.73278431  0.73278431  1
  Al  Al16  1  0.81202130  0.61461228  0.99999900  1
  Al  Al17  1  0.64926643  0.81028358  0.99999900  1
  Al  Al18  1  0.18610095  0.82051406  0.17738487  1
  Al  Al19  1  0.36558589  0.35686980  0.17948394  1
  Al  Al20  1  0.83898184  0.18971542  0.18971642  1
  Al  Al21  1  0.36558589  0.17948394  0.35686980  1
  Al  Al22  1  0.19740902  0.38538872  0.38538772  1
  Al  Al23  1  0.81202130  1.00000000  0.61461228  1
  Al  Al24  1  0.00871608  0.82261513  0.64313020  1
  Al  Al25  1  0.64926643  0.99999900  0.81028358  1
  Al  Al26  1  0.18610095  0.17738487  0.82051506  1
  Al  Al27  1  0.00871608  0.64313120  0.82261513  1
  Co  Co28  1  0.26670589  0.00000100  0.00000000  1
