# generated using pymatgen
data_KNbCl6
_symmetry_space_group_name_H-M   'P 1'
_cell_length_a   7.29463958
_cell_length_b   7.29529213
_cell_length_c   7.47938120
_cell_angle_alpha   90.00827878
_cell_angle_beta   60.81376443
_cell_angle_gamma   119.99704109
_symmetry_Int_Tables_number   1
_chemical_formula_structural   KNbCl6
_chemical_formula_sum   'K1 Nb1 Cl6'
_cell_volume   284.89167132
_cell_formula_units_Z   1
loop_
 _symmetry_equiv_pos_site_id
 _symmetry_equiv_pos_as_xyz
  1  'x, y, z'
loop_
 _atom_site_type_symbol
 _atom_site_label
 _atom_site_symmetry_multiplicity
 _atom_site_fract_x
 _atom_site_fract_y
 _atom_site_fract_z
 _atom_site_occupancy
  K  K0  1  0.42551316  0.71278740  0.86176108  1
  Nb  Nb1  1  0.99623606  0.99818575  0.00571363  1
  Cl  Cl2  1  0.53956028  0.76984000  0.23159035  1
  Cl  Cl3  1  0.99864337  0.22883499  0.23154826  1
  Cl  Cl4  1  0.99868937  0.76984000  0.23159035  1
  Cl  Cl5  1  0.45180938  0.22591207  0.78535611  1
  Cl  Cl6  1  0.98880180  0.76298773  0.78538412  1
  Cl  Cl7  1  0.98874658  0.22591207  0.78535611  1
