# generated using pymatgen
data_La2MnRuO6
_symmetry_space_group_name_H-M   'P 1'
_cell_length_a   5.65152146
_cell_length_b   5.80527991
_cell_length_c   8.02569639
_cell_angle_alpha   90.00000000
_cell_angle_beta   89.40037767
_cell_angle_gamma   90.00000000
_symmetry_Int_Tables_number   1
_chemical_formula_structural   La2MnRuO6
_chemical_formula_sum   'La4 Mn2 Ru2 O12'
_cell_volume   263.29795693
_cell_formula_units_Z   2
loop_
 _symmetry_equiv_pos_site_id
 _symmetry_equiv_pos_as_xyz
  1  'x, y, z'
loop_
 _atom_site_type_symbol
 _atom_site_label
 _atom_site_symmetry_multiplicity
 _atom_site_fract_x
 _atom_site_fract_y
 _atom_site_fract_z
 _atom_site_occupancy
  La  La0  1  0.48499181  0.56065881  0.24794823  1
  La  La1  1  0.01500819  0.06065881  0.25205177  1
  La  La2  1  0.51500819  0.43934119  0.75205177  1
  La  La3  1  0.98499181  0.93934119  0.74794823  1
  Mn  Mn4  1  0.00000000  0.50000000  0.00000000  1
  Mn  Mn5  1  0.50000000  0.00000000  0.50000000  1
  Ru  Ru6  1  0.00000000  0.50000000  0.50000000  1
  Ru  Ru7  1  0.50000000  0.00000000  0.00000000  1
  O  O8  1  0.19165006  0.78994158  0.44431726  1
  O  O9  1  0.30834994  0.28994158  0.05568274  1
  O  O10  1  0.79263750  0.19478698  0.94814280  1
  O  O11  1  0.70736250  0.69478698  0.55185720  1
  O  O12  1  0.80834994  0.21005842  0.55568274  1
  O  O13  1  0.69165006  0.71005842  0.94431726  1
  O  O14  1  0.20736250  0.80521302  0.05185720  1
  O  O15  1  0.29263750  0.30521302  0.44814280  1
  O  O16  1  0.60233628  0.97194940  0.24227659  1
  O  O17  1  0.89766372  0.47194940  0.25772341  1
  O  O18  1  0.39766372  0.02805060  0.75772341  1
  O  O19  1  0.10233628  0.52805060  0.74227659  1
