# generated using pymatgen
data_KSnAuS3
_symmetry_space_group_name_H-M   'P 1'
_cell_length_a   8.29319309
_cell_length_b   8.29319309
_cell_length_c   19.55417801
_cell_angle_alpha   90.00000000
_cell_angle_beta   90.00000000
_cell_angle_gamma   90.00000000
_symmetry_Int_Tables_number   1
_chemical_formula_structural   KSnAuS3
_chemical_formula_sum   'K8 Sn8 Au8 S24'
_cell_volume   1344.87871054
_cell_formula_units_Z   8
loop_
 _symmetry_equiv_pos_site_id
 _symmetry_equiv_pos_as_xyz
  1  'x, y, z'
loop_
 _atom_site_type_symbol
 _atom_site_label
 _atom_site_symmetry_multiplicity
 _atom_site_fract_x
 _atom_site_fract_y
 _atom_site_fract_z
 _atom_site_occupancy
  K  K0  1  -0.00000000  -0.00000000  0.40134992  1
  K  K1  1  -0.00000000  -0.00000000  0.90134992  1
  K  K2  1  -0.00000000  -0.00000000  0.59912943  1
  K  K3  1  -0.00000000  -0.00000000  0.09912943  1
  K  K4  1  0.50000000  0.50000000  0.24247760  1
  K  K5  1  0.50000000  0.50000000  0.74247760  1
  K  K6  1  0.50000000  0.50000000  0.45298399  1
  K  K7  1  0.50000000  0.50000000  0.95298399  1
  Sn  Sn8  1  -0.00000000  0.50000000  0.08899827  1
  Sn  Sn9  1  0.50000000  -0.00000000  0.08899827  1
  Sn  Sn10  1  -0.00000000  0.50000000  0.58899827  1
  Sn  Sn11  1  0.50000000  -0.00000000  0.58899827  1
  Sn  Sn12  1  -0.00000000  0.50000000  0.91214873  1
  Sn  Sn13  1  0.50000000  -0.00000000  0.91214873  1
  Sn  Sn14  1  -0.00000000  0.50000000  0.41214873  1
  Sn  Sn15  1  0.50000000  -0.00000000  0.41214873  1
  Au  Au16  1  0.00249227  0.68537985  0.24981882  1
  Au  Au17  1  -0.00249227  0.31462015  0.24981882  1
  Au  Au18  1  0.31462015  0.00249227  0.24981882  1
  Au  Au19  1  0.68537985  -0.00249227  0.24981882  1
  Au  Au20  1  -0.00249227  0.68537985  0.74981882  1
  Au  Au21  1  0.00249227  0.31462015  0.74981882  1
  Au  Au22  1  0.68537985  0.00249227  0.74981882  1
  Au  Au23  1  0.31462015  -0.00249227  0.74981882  1
  S  S24  1  0.14994585  0.65772546  0.99979176  1
  S  S25  1  0.85005415  0.34227454  0.99979176  1
  S  S26  1  0.34227454  0.14994585  0.99979176  1
  S  S27  1  0.65772546  0.85005415  0.99979176  1
  S  S28  1  0.85005415  0.65772546  0.49979176  1
  S  S29  1  0.14994585  0.34227454  0.49979176  1
  S  S30  1  0.65772546  0.14994585  0.49979176  1
  S  S31  1  0.34227454  0.85005415  0.49979176  1
  S  S32  1  0.17083667  0.32276589  0.15522644  1
  S  S33  1  0.82916333  0.67723411  0.15522644  1
  S  S34  1  0.67723411  0.17083667  0.15522644  1
  S  S35  1  0.32276589  0.82916333  0.15522644  1
  S  S36  1  0.82916333  0.32276589  0.65522644  1
  S  S37  1  0.17083667  0.67723411  0.65522644  1
  S  S38  1  0.32276589  0.17083667  0.65522644  1
  S  S39  1  0.67723411  0.82916333  0.65522644  1
  S  S40  1  0.82531362  0.67468351  0.84562925  1
  S  S41  1  0.17468638  0.32531649  0.84562925  1
  S  S42  1  0.32531649  0.82531362  0.84562925  1
  S  S43  1  0.67468351  0.17468638  0.84562925  1
  S  S44  1  0.17468638  0.67468351  0.34562925  1
  S  S45  1  0.82531362  0.32531649  0.34562925  1
  S  S46  1  0.67468351  0.82531362  0.34562925  1
  S  S47  1  0.32531649  0.17468638  0.34562925  1
