# generated using pymatgen
data_La(CeB8)3
_symmetry_space_group_name_H-M   'P 1'
_cell_length_a   4.12216562
_cell_length_b   4.12216562
_cell_length_c   16.49663316
_cell_angle_alpha   90.00000000
_cell_angle_beta   90.00000000
_cell_angle_gamma   90.00000000
_symmetry_Int_Tables_number   1
_chemical_formula_structural   La(CeB8)3
_chemical_formula_sum   'La1 Ce3 B24'
_cell_volume   280.31490489
_cell_formula_units_Z   1
loop_
 _symmetry_equiv_pos_site_id
 _symmetry_equiv_pos_as_xyz
  1  'x, y, z'
loop_
 _atom_site_type_symbol
 _atom_site_label
 _atom_site_symmetry_multiplicity
 _atom_site_fract_x
 _atom_site_fract_y
 _atom_site_fract_z
 _atom_site_occupancy
  La  La0  1  -0.00000000  0.00000000  0.00000000  1
  Ce  Ce1  1  -0.00000000  0.00000000  0.25057628  1
  Ce  Ce2  1  -0.00000000  -0.00000000  0.50000000  1
  Ce  Ce3  1  0.00000000  -0.00000000  0.74942372  1
  B  B4  1  0.50000000  0.50000000  0.20044141  1
  B  B5  1  0.50000000  0.50000000  0.45026082  1
  B  B6  1  0.50000000  0.50000000  0.70025611  1
  B  B7  1  0.50000000  0.50000000  0.94994913  1
  B  B8  1  0.50000000  0.19943977  0.12535786  1
  B  B9  1  0.50000000  0.19885840  0.37498264  1
  B  B10  1  0.50000000  0.19885840  0.62501736  1
  B  B11  1  0.50000000  0.19943977  0.87464214  1
  B  B12  1  0.19943977  0.50000000  0.12535786  1
  B  B13  1  0.19885840  0.50000000  0.37498264  1
  B  B14  1  0.19885840  0.50000000  0.62501736  1
  B  B15  1  0.19943977  0.50000000  0.87464214  1
  B  B16  1  0.50000000  0.50000000  0.05005087  1
  B  B17  1  0.50000000  0.50000000  0.29974389  1
  B  B18  1  0.50000000  0.50000000  0.54973918  1
  B  B19  1  0.50000000  0.50000000  0.79955859  1
  B  B20  1  0.50000000  0.80056023  0.12535786  1
  B  B21  1  0.50000000  0.80114160  0.37498264  1
  B  B22  1  0.50000000  0.80114160  0.62501736  1
  B  B23  1  0.50000000  0.80056023  0.87464214  1
  B  B24  1  0.80056023  0.50000000  0.12535786  1
  B  B25  1  0.80114160  0.50000000  0.37498264  1
  B  B26  1  0.80114160  0.50000000  0.62501736  1
  B  B27  1  0.80056023  0.50000000  0.87464214  1
