# generated using pymatgen
data_La4Pr(CoP)10
_symmetry_space_group_name_H-M   'P 1'
_cell_length_a   3.80266683
_cell_length_b   3.80266683
_cell_length_c   27.78686284
_cell_angle_alpha   93.92356633
_cell_angle_beta   93.92356633
_cell_angle_gamma   90.00000000
_symmetry_Int_Tables_number   1
_chemical_formula_structural   La4Pr(CoP)10
_chemical_formula_sum   'La4 Pr1 Co10 P10'
_cell_volume   399.91997198
_cell_formula_units_Z   1
loop_
 _symmetry_equiv_pos_site_id
 _symmetry_equiv_pos_as_xyz
  1  'x, y, z'
loop_
 _atom_site_type_symbol
 _atom_site_label
 _atom_site_symmetry_multiplicity
 _atom_site_fract_x
 _atom_site_fract_y
 _atom_site_fract_z
 _atom_site_occupancy
  La  La0  1  0.60007856  0.60007856  0.20015711  1
  La  La1  1  0.19987910  0.19987910  0.39975820  1
  La  La2  1  0.80012090  0.80012090  0.60024180  1
  La  La3  1  0.39992144  0.39992144  0.79984289  1
  Pr  Pr4  1  0.00000000  0.00000000  0.00000000  1
  Co  Co5  1  0.04948710  0.54948710  0.09897420  1
  Co  Co6  1  0.64999326  0.14999326  0.29998651  1
  Co  Co7  1  0.25000000  0.75000000  0.50000000  1
  Co  Co8  1  0.85000674  0.35000674  0.70001349  1
  Co  Co9  1  0.45051290  0.95051290  0.90102580  1
  Co  Co10  1  0.54948710  0.04948710  0.09897420  1
  Co  Co11  1  0.14999326  0.64999326  0.29998651  1
  Co  Co12  1  0.75000000  0.25000000  0.50000000  1
  Co  Co13  1  0.35000674  0.85000674  0.70001349  1
  Co  Co14  1  0.95051290  0.45051290  0.90102580  1
  P  P15  1  0.52849489  0.52849489  0.05698979  1
  P  P16  1  0.12928230  0.12928230  0.25856459  1
  P  P17  1  0.72935942  0.72935942  0.45871884  1
  P  P18  1  0.32926055  0.32926055  0.65852109  1
  P  P19  1  0.92971774  0.92971774  0.85943548  1
  P  P20  1  0.07028226  0.07028226  0.14056452  1
  P  P21  1  0.67073945  0.67073945  0.34147891  1
  P  P22  1  0.27064058  0.27064058  0.54128116  1
  P  P23  1  0.87071770  0.87071770  0.74143541  1
  P  P24  1  0.47150511  0.47150511  0.94301021  1
