# generated using pymatgen
data_LaZr6(PO4)9
_symmetry_space_group_name_H-M   'P 1'
_cell_length_a   9.32638499
_cell_length_b   15.51913291
_cell_length_c   12.93206076
_cell_angle_alpha   113.63292100
_cell_angle_beta   86.91908738
_cell_angle_gamma   73.88391910
_symmetry_Int_Tables_number   1
_chemical_formula_structural   LaZr6(PO4)9
_chemical_formula_sum   'La2 Zr12 P18 O72'
_cell_volume   1618.16886678
_cell_formula_units_Z   2
loop_
 _symmetry_equiv_pos_site_id
 _symmetry_equiv_pos_as_xyz
  1  'x, y, z'
loop_
 _atom_site_type_symbol
 _atom_site_label
 _atom_site_symmetry_multiplicity
 _atom_site_fract_x
 _atom_site_fract_y
 _atom_site_fract_z
 _atom_site_occupancy
  La  La0  1  0.66743626  0.66077296  0.83201367  1
  La  La1  1  0.99920646  0.00590619  0.50133708  1
  Zr  Zr2  1  0.36285529  0.66788119  0.68211697  1
  Zr  Zr3  1  0.69561955  0.99924786  0.34829417  1
  Zr  Zr4  1  0.04651828  0.33266826  0.02312638  1
  Zr  Zr5  1  0.97103883  0.66741540  0.98504533  1
  Zr  Zr6  1  0.30380436  0.99878079  0.65121009  1
  Zr  Zr7  1  0.62016498  0.33399935  0.31020563  1
  Zr  Zr8  1  0.04903988  0.33339994  0.52295781  1
  Zr  Zr9  1  0.38544089  0.66321855  0.19030998  1
  Zr  Zr10  1  0.71528248  0.00338870  0.86137306  1
  Zr  Zr11  1  0.28121429  0.00345640  0.14302220  1
  Zr  Zr12  1  0.61763850  0.33325683  0.81036346  1
  Zr  Zr13  1  0.95138610  0.66328278  0.47196376  1
  P  P14  1  0.60037598  0.80693271  0.65953180  1
  P  P15  1  0.92805967  0.14214087  0.32637083  1
  P  P16  1  0.26431287  0.47477022  0.98943392  1
  P  P17  1  0.64546114  0.43166612  0.61037715  1
  P  P18  1  0.98016861  0.76675498  0.27936194  1
  P  P19  1  0.31174293  0.09695559  0.94246152  1
  P  P20  1  0.27180734  0.76135208  0.98754740  1
  P  P21  1  0.60503502  0.09323779  0.65284501  1
  P  P22  1  0.92878827  0.42588541  0.32082185  1
  P  P23  1  0.73858267  0.52452505  0.00695800  1
  P  P24  1  0.06629935  0.85973428  0.67380246  1
  P  P25  1  0.40237810  0.19189585  0.34389738  1
  P  P26  1  0.68649613  0.89991408  0.05398243  1
  P  P27  1  0.02122568  0.23499898  0.72295194  1
  P  P28  1  0.35493212  0.56970226  0.39086167  1
  P  P29  1  0.06161451  0.57342693  0.68048989  1
  P  P30  1  0.39485175  0.90531732  0.34579040  1
  P  P31  1  0.73789394  0.24077950  0.01251490  1
  O  O32  1  0.54511253  0.92928114  0.36385484  1
  O  O33  1  0.89133925  0.25912530  0.01794118  1
  O  O34  1  0.21029163  0.59962773  0.69851847  1
  O  O35  1  0.53147206  0.12423417  0.37778469  1
  O  O36  1  0.87185201  0.46213735  0.03665890  1
  O  O37  1  0.20207429  0.79764545  0.70643913  1
  O  O38  1  0.73504006  0.93754559  0.17307629  1
  O  O39  1  0.06894603  0.27281825  0.83926499  1
  O  O40  1  0.39771282  0.61660114  0.51203051  1
  O  O41  1  0.77535047  0.40754288  0.31539302  1
  O  O42  1  0.12153605  0.73739448  0.96948945  1
  O  O43  1  0.45636976  0.06702935  0.63481991  1
  O  O44  1  0.79480671  0.20452299  0.29664574  1
  O  O45  1  0.13519971  0.54243357  0.95555172  1
  O  O46  1  0.46458934  0.86901433  0.62689945  1
  O  O47  1  0.59774994  0.39384285  0.49406068  1
  O  O48  1  0.93162580  0.72911471  0.16026019  1
  O  O49  1  0.26896450  0.05006256  0.82129696  1
  O  O50  1  0.61086732  0.58987696  0.11286460  1
  O  O51  1  0.94211500  0.92324535  0.78074034  1
  O  O52  1  0.27411780  0.25381664  0.44879484  1
  O  O53  1  0.73885492  0.94983972  0.98579729  1
  O  O54  1  0.07040622  0.28251648  0.64994028  1
  O  O55  1  0.40195314  0.62022714  0.32070614  1
  O  O56  1  0.10013956  0.46089708  0.62583560  1
  O  O57  1  0.43259278  0.79270389  0.29031502  1
  O  O58  1  0.76770900  0.12707935  0.95401888  1
  O  O59  1  0.72455518  0.74340961  0.55259549  1
  O  O60  1  0.05579504  0.07679358  0.22048217  1
  O  O61  1  0.39255585  0.41284771  0.88453705  1
  O  O62  1  0.59628791  0.38414362  0.68338333  1
  O  O63  1  0.92778227  0.71683781  0.34754483  1
  O  O64  1  0.26468519  0.04645189  0.01262745  1
  O  O65  1  0.23409135  0.87396286  0.04301275  1
  O  O66  1  0.56648717  0.20577723  0.70751192  1
  O  O67  1  0.89897335  0.53958608  0.37931556  1
  O  O68  1  0.37996677  0.71598758  0.86691974  1
  O  O69  1  0.71349701  0.04771821  0.53211876  1
  O  O70  1  0.02083140  0.38318358  0.19893923  1
  O  O71  1  0.54546364  0.73626125  0.70118580  1
  O  O72  1  0.87730278  0.06814775  0.36620729  1
  O  O73  1  0.19839183  0.40850198  0.02370889  1
  O  O74  1  0.56440749  0.54991074  0.68024572  1
  O  O75  1  0.89975428  0.88291354  0.34685516  1
  O  O76  1  0.22549698  0.20832961  0.99894932  1
  O  O77  1  0.95313818  0.61896133  0.80121989  1
  O  O78  1  0.28667303  0.95067276  0.46640286  1
  O  O79  1  0.64586646  0.28347810  0.13439481  1
  O  O80  1  0.78933714  0.59852746  0.96712613  1
  O  O81  1  0.12120519  0.93039907  0.63215206  1
  O  O82  1  0.46829177  0.25816815  0.30963305  1
  O  O83  1  0.76690273  0.78375272  0.98648105  1
  O  O84  1  0.10225199  0.11675480  0.65308170  1
  O  O85  1  0.44118641  0.45834178  0.33437252  1
  O  O86  1  0.98915554  0.20401023  0.42885394  1
  O  O87  1  0.31864249  0.54356398  0.09074477  1
  O  O88  1  0.65676769  0.87312418  0.76038771  1
  O  O89  1  0.81655605  0.41785251  0.60229686  1
  O  O90  1  0.15086889  0.74967564  0.26571098  1
  O  O91  1  0.48389434  0.07683332  0.92580517  1
  O  O92  1  0.01778665  0.37818446  0.39223970  1
  O  O93  1  0.35945620  0.71236967  0.05700472  1
  O  O94  1  0.69382866  0.04421534  0.72205544  1
  O  O95  1  0.34804034  0.12310418  0.24258603  1
  O  O96  1  0.67746164  0.46267134  0.90448688  1
  O  O97  1  0.00990905  0.79353737  0.57294209  1
  O  O98  1  0.51579781  0.91698903  0.06762706  1
  O  O99  1  0.85012460  0.24881828  0.73103651  1
  O  O100  1  0.18277479  0.58982288  0.40752131  1
  O  O101  1  0.30720848  0.95429933  0.27632148  1
  O  O102  1  0.64889983  0.28847626  0.94109192  1
  O  O103  1  0.97285460  0.62245655  0.61127665  1
