# generated using pymatgen
data_In3CuSe5
_symmetry_space_group_name_H-M   'P 1'
_cell_length_a   5.89087262
_cell_length_b   7.21042929
_cell_length_c   7.25117671
_cell_angle_alpha   80.34588256
_cell_angle_beta   113.60562343
_cell_angle_gamma   113.89376412
_symmetry_Int_Tables_number   1
_chemical_formula_structural   In3CuSe5
_chemical_formula_sum   'In3 Cu1 Se5'
_cell_volume   258.03371152
_cell_formula_units_Z   1
loop_
 _symmetry_equiv_pos_site_id
 _symmetry_equiv_pos_as_xyz
  1  'x, y, z'
loop_
 _atom_site_type_symbol
 _atom_site_label
 _atom_site_symmetry_multiplicity
 _atom_site_fract_x
 _atom_site_fract_y
 _atom_site_fract_z
 _atom_site_occupancy
  In  In0  1  0.80651059  0.18795464  0.41083393  1
  In  In1  1  0.62335022  0.40137427  0.79870845  1
  In  In2  1  0.39765400  0.61696901  0.19384420  1
  Cu  Cu3  1  0.97848514  0.99102245  0.99757439  1
  Se  Se4  1  0.05678770  0.72980837  0.88290762  1
  Se  Se5  1  0.88201096  0.89591216  0.30307179  1
  Se  Se6  1  0.63540766  0.07098620  0.70877467  1
  Se  Se7  1  0.42132299  0.28176905  0.09393475  1
  Se  Se8  1  0.24847074  0.52420384  0.51035020  1
