# generated using pymatgen
data_K6Pd3(BrCl2)4
_symmetry_space_group_name_H-M   'P 1'
_cell_length_a   4.27349580
_cell_length_b   10.20171877
_cell_length_c   16.48574359
_cell_angle_alpha   71.97630419
_cell_angle_beta   90.00000000
_cell_angle_gamma   90.00000000
_symmetry_Int_Tables_number   1
_chemical_formula_structural   K6Pd3(BrCl2)4
_chemical_formula_sum   'K6 Pd3 Br4 Cl8'
_cell_volume   683.45998829
_cell_formula_units_Z   1
loop_
 _symmetry_equiv_pos_site_id
 _symmetry_equiv_pos_as_xyz
  1  'x, y, z'
loop_
 _atom_site_type_symbol
 _atom_site_label
 _atom_site_symmetry_multiplicity
 _atom_site_fract_x
 _atom_site_fract_y
 _atom_site_fract_z
 _atom_site_occupancy
  K  K0  1  0.50000000  0.33596436  0.82775870  1
  K  K1  1  0.50000000  0.66633903  0.16662374  1
  K  K2  1  0.50000000  0.00268527  0.49357899  1
  K  K3  1  0.50000000  0.16372406  0.17224130  1
  K  K4  1  0.50000000  0.49626426  0.50642101  1
  K  K5  1  0.50000000  0.83296177  0.83337626  1
  Pd  Pd6  1  0.00000000  0.00051659  0.00000000  1
  Pd  Pd7  1  -0.00000000  0.33063549  0.33389790  1
  Pd  Pd8  1  -0.00000000  0.66453439  0.66610210  1
  Br  Br9  1  0.00000000  0.24301315  0.00000000  1
  Br  Br10  1  -0.00000000  0.57262770  0.33431721  1
  Br  Br11  1  0.00000000  0.90694591  0.66568279  1
  Br  Br12  1  0.00000000  0.75705468  1.00000000  1
  Cl  Cl13  1  0.00000000  0.10007956  0.33364449  1
  Cl  Cl14  1  0.00000000  0.43372505  0.66635551  1
  Cl  Cl15  1  -0.00000000  0.59027960  0.81498899  1
  Cl  Cl16  1  -0.00000000  0.92599906  0.14922136  1
  Cl  Cl17  1  0.00000000  0.25661589  0.48292929  1
  Cl  Cl18  1  -0.00000000  0.40526758  0.18501101  1
  Cl  Cl19  1  0.00000000  0.73954618  0.51707071  1
  Cl  Cl20  1  -0.00000000  0.07522042  0.85077864  1
