# generated using pymatgen
data_K2PdBr3Cl
_symmetry_space_group_name_H-M   'P 1'
_cell_length_a   4.37687462
_cell_length_b   7.45265227
_cell_length_c   7.45265227
_cell_angle_alpha   89.73656619
_cell_angle_beta   90.00000000
_cell_angle_gamma   90.00000000
_symmetry_Int_Tables_number   1
_chemical_formula_structural   K2PdBr3Cl
_chemical_formula_sum   'K2 Pd1 Br3 Cl1'
_cell_volume   243.09791401
_cell_formula_units_Z   1
loop_
 _symmetry_equiv_pos_site_id
 _symmetry_equiv_pos_as_xyz
  1  'x, y, z'
loop_
 _atom_site_type_symbol
 _atom_site_label
 _atom_site_symmetry_multiplicity
 _atom_site_fract_x
 _atom_site_fract_y
 _atom_site_fract_z
 _atom_site_occupancy
  K  K0  1  0.50000000  0.49469483  0.00549823  1
  K  K1  1  0.50000000  0.00549823  0.49469483  1
  Pd  Pd2  1  -0.00000000  0.00237308  0.00237308  1
  Br  Br3  1  -0.00000000  0.76966572  0.76966572  1
  Br  Br4  1  -0.00000000  0.76713739  0.23612266  1
  Br  Br5  1  -0.00000000  0.23612266  0.76713739  1
  Cl  Cl6  1  -0.00000000  0.22450809  0.22450809  1
