# generated using pymatgen
data_K2Ba5(Si2O5)6
_symmetry_space_group_name_H-M   'P 1'
_cell_length_a   7.85284052
_cell_length_b   8.38223725
_cell_length_c   12.69526343
_cell_angle_alpha   91.96382545
_cell_angle_beta   71.98401617
_cell_angle_gamma   90.00000000
_symmetry_Int_Tables_number   1
_chemical_formula_structural   K2Ba5(Si2O5)6
_chemical_formula_sum   'K2 Ba5 Si12 O30'
_cell_volume   794.16954026
_cell_formula_units_Z   1
loop_
 _symmetry_equiv_pos_site_id
 _symmetry_equiv_pos_as_xyz
  1  'x, y, z'
loop_
 _atom_site_type_symbol
 _atom_site_label
 _atom_site_symmetry_multiplicity
 _atom_site_fract_x
 _atom_site_fract_y
 _atom_site_fract_z
 _atom_site_occupancy
  K  K0  1  0.05022638  0.74709279  0.89901691  1
  K  K1  1  0.94924329  0.25290721  0.10098309  1
  Ba  Ba2  1  0.64597684  0.75816722  0.70368771  1
  Ba  Ba3  1  0.34966455  0.24183278  0.29631229  1
  Ba  Ba4  1  0.50045389  0.50000000  0.00000000  1
  Ba  Ba5  1  0.80533582  0.99483050  0.39134522  1
  Ba  Ba6  1  0.19668104  0.00516950  0.60865478  1
  Si  Si7  1  0.35762883  0.05140571  0.87878828  1
  Si  Si8  1  0.76397844  0.05141665  0.87844862  1
  Si  Si9  1  0.64242706  0.94858335  0.12155138  1
  Si  Si10  1  0.23641712  0.94859429  0.12121172  1
  Si  Si11  1  0.48551885  0.68078127  0.45441817  1
  Si  Si12  1  0.07177560  0.66914482  0.45185892  1
  Si  Si13  1  0.52363452  0.33085518  0.54814108  1
  Si  Si14  1  0.93993702  0.31921873  0.54558183  1
  Si  Si15  1  0.30184895  0.38622593  0.80000149  1
  Si  Si16  1  0.89889762  0.38669415  0.79917941  1
  Si  Si17  1  0.69807703  0.61330585  0.20082059  1
  Si  Si18  1  0.10185043  0.61377407  0.19999851  1
  O  O19  1  0.28674253  0.68871315  0.43718875  1
  O  O20  1  0.72393128  0.31128685  0.56281125  1
  O  O21  1  0.63350339  0.68394903  0.32945672  1
  O  O22  1  0.04547711  0.68540315  0.32822565  1
  O  O23  1  0.37370276  0.31459685  0.67177435  1
  O  O24  1  0.96296011  0.31605097  0.67054328  1
  O  O25  1  0.56057534  0.00050205  0.87905952  1
  O  O26  1  0.43963486  0.99949795  0.12094048  1
  O  O27  1  0.08114013  0.39242034  0.83771606  1
  O  O28  1  0.91885620  0.60757966  0.16228394  1
  O  O29  1  0.21730625  0.00000000  0.00000000  1
  O  O30  1  0.78245859  0.00000000  0.00000000  1
  O  O31  1  0.34862810  0.25006601  0.88085754  1
  O  O32  1  0.77123992  0.25010186  0.87956225  1
  O  O33  1  0.65080217  0.74989814  0.12043775  1
  O  O34  1  0.22948564  0.74993399  0.11914246  1
  O  O35  1  0.32018718  0.95752939  0.77792954  1
  O  O36  1  0.90222798  0.95791612  0.77740196  1
  O  O37  1  0.67962994  0.04208388  0.22259804  1
  O  O38  1  0.09811673  0.04247061  0.22207046  1
  O  O39  1  0.51732895  0.82804864  0.52908539  1
  O  O40  1  0.95230118  0.80306228  0.53385036  1
  O  O41  1  0.48615153  0.19693772  0.46614964  1
  O  O42  1  0.04641434  0.17195136  0.47091461  1
  O  O43  1  0.38121490  0.55378397  0.82466830  1
  O  O44  1  0.79362000  0.55372148  0.82448489  1
  O  O45  1  0.61810489  0.44627852  0.17551511  1
  O  O46  1  0.20588320  0.44621603  0.17533170  1
  O  O47  1  0.51132569  0.51358981  0.51015016  1
  O  O48  1  0.02147585  0.48641019  0.48984984  1
