# generated using pymatgen
data_Hf2Al3Co
_symmetry_space_group_name_H-M   'P 1'
_cell_length_a   5.22943002
_cell_length_b   5.22921813
_cell_length_c   8.23240001
_cell_angle_alpha   90.00000000
_cell_angle_beta   90.00000000
_cell_angle_gamma   60.00133422
_symmetry_Int_Tables_number   1
_chemical_formula_structural   Hf2Al3Co
_chemical_formula_sum   'Hf4 Al6 Co2'
_cell_volume   194.96383061
_cell_formula_units_Z   2
loop_
 _symmetry_equiv_pos_site_id
 _symmetry_equiv_pos_as_xyz
  1  'x, y, z'
loop_
 _atom_site_type_symbol
 _atom_site_label
 _atom_site_symmetry_multiplicity
 _atom_site_fract_x
 _atom_site_fract_y
 _atom_site_fract_z
 _atom_site_occupancy
  Hf  Hf0  1  0.33335826  0.33332087  0.56069130  1
  Hf  Hf1  1  0.66664174  0.66667913  0.43930870  1
  Hf  Hf2  1  0.66664174  0.66667913  0.06069130  1
  Hf  Hf3  1  0.33335826  0.33332087  0.93930870  1
  Al  Al4  1  0.83419266  0.33166484  0.75000000  1
  Al  Al5  1  0.33168653  0.83415674  0.75000000  1
  Al  Al6  1  0.83419266  0.83414250  0.75000000  1
  Al  Al7  1  0.16580734  0.66833516  0.25000000  1
  Al  Al8  1  0.66831347  0.16584326  0.25000000  1
  Al  Al9  1  0.16580734  0.16585750  0.25000000  1
  Co  Co10  1  -0.00000000  0.00000000  0.50000000  1
  Co  Co11  1  -0.00000000  0.00000000  0.00000000  1
