# generated using pymatgen
data_Mg16Al12F
_symmetry_space_group_name_H-M   'P 1'
_cell_length_a   9.21214011
_cell_length_b   9.08371634
_cell_length_c   9.09097725
_cell_angle_alpha   109.51412678
_cell_angle_beta   110.08074141
_cell_angle_gamma   109.07961076
_symmetry_Int_Tables_number   1
_chemical_formula_structural   Mg16Al12F
_chemical_formula_sum   'Mg16 Al12 F1'
_cell_volume   583.68959192
_cell_formula_units_Z   1
loop_
 _symmetry_equiv_pos_site_id
 _symmetry_equiv_pos_as_xyz
  1  'x, y, z'
loop_
 _atom_site_type_symbol
 _atom_site_label
 _atom_site_symmetry_multiplicity
 _atom_site_fract_x
 _atom_site_fract_y
 _atom_site_fract_z
 _atom_site_occupancy
  Mg  Mg0  1  0.50067600  0.18373945  0.00000442  1
  Mg  Mg1  1  0.01171526  0.98822527  0.00000399  1
  Mg  Mg2  1  0.29932817  0.58976870  0.00000065  1
  Mg  Mg3  1  0.98795716  0.32674833  -0.00000098  1
  Mg  Mg4  1  0.66005195  0.64275115  0.25161715  1
  Mg  Mg5  1  0.57827606  0.99002111  0.28978619  1
  Mg  Mg6  1  0.00207702  0.58878834  0.31520227  1
  Mg  Mg7  1  0.98652242  0.98050592  0.34338464  1
  Mg  Mg8  1  0.39782037  0.70743243  0.39957761  1
  Mg  Mg9  1  0.71562464  0.39375015  0.40919599  1
  Mg  Mg10  1  0.30642669  0.98455425  0.59079728  1
  Mg  Mg11  1  0.99822895  0.30784606  0.60041559  1
  Mg  Mg12  1  0.64312736  0.63711175  0.65660529  1
  Mg  Mg13  1  0.68687416  0.27358555  0.68479164  1
  Mg  Mg14  1  0.28848803  0.70024167  0.71022427  1
  Mg  Mg15  1  0.40844125  0.39113818  0.74839027  1
  Al  Al16  1  0.83182228  0.63243484  -0.00000091  1
  Al  Al17  1  0.63822648  0.80312129  0.00000882  1
  Al  Al18  1  0.82417092  0.17574495  0.18872174  1
  Al  Al19  1  0.34459117  0.35366935  0.18888508  1
  Al  Al20  1  0.19097599  0.82033584  0.19060322  1
  Al  Al21  1  0.36685593  0.18159697  0.38585082  1
  Al  Al22  1  0.18387960  0.36864261  0.39042049  1
  Al  Al23  1  0.79344320  0.97822114  0.60956391  1
  Al  Al24  1  0.98099952  0.79574478  0.61414988  1
  Al  Al25  1  0.00037479  0.62973413  0.80939923  1
  Al  Al26  1  0.15569683  0.16479709  0.81112310  1
  Al  Al27  1  0.63545032  0.98703251  0.81128463  1
  F  F28  1  0.58187945  0.42271818  0.99999471  1
