# generated using pymatgen
data_InNi2Sn
_symmetry_space_group_name_H-M   'P 1'
_cell_length_a   4.43193835
_cell_length_b   5.22245486
_cell_length_c   9.13592196
_cell_angle_alpha   89.99880064
_cell_angle_beta   90.00000000
_cell_angle_gamma   90.00000000
_symmetry_Int_Tables_number   1
_chemical_formula_structural   InNi2Sn
_chemical_formula_sum   'In3 Ni6 Sn3'
_cell_volume   211.45637651
_cell_formula_units_Z   3
loop_
 _symmetry_equiv_pos_site_id
 _symmetry_equiv_pos_as_xyz
  1  'x, y, z'
loop_
 _atom_site_type_symbol
 _atom_site_label
 _atom_site_symmetry_multiplicity
 _atom_site_fract_x
 _atom_site_fract_y
 _atom_site_fract_z
 _atom_site_occupancy
  In  In0  1  0.50000000  0.99998428  0.33290583  1
  In  In1  1  0.50000000  0.50002179  0.83509227  1
  In  In2  1  0.50000000  0.49998295  0.16606543  1
  Ni  Ni3  1  0.00000000  0.99997528  0.50088364  1
  Ni  Ni4  1  -0.00000000  0.49996802  0.00024932  1
  Ni  Ni5  1  -0.00000000  0.24978970  0.25034234  1
  Ni  Ni6  1  -0.00000000  0.75159536  0.74910929  1
  Ni  Ni7  1  0.00000000  0.75017677  0.25043072  1
  Ni  Ni8  1  0.00000000  0.24835819  0.74897106  1
  Sn  Sn9  1  0.50000000  -0.00001126  0.66636958  1
  Sn  Sn10  1  -0.00000000  0.99995206  0.00170513  1
  Sn  Sn11  1  0.00000000  0.50000686  0.49787538  1
