# generated using pymatgen
data_K3NaP4(H2O7)2
_symmetry_space_group_name_H-M   'P 1'
_cell_length_a   7.30368044
_cell_length_b   9.32109275
_cell_length_c   11.17047171
_cell_angle_alpha   99.39387597
_cell_angle_beta   90.00000000
_cell_angle_gamma   66.93454803
_symmetry_Int_Tables_number   1
_chemical_formula_structural   K3NaP4(H2O7)2
_chemical_formula_sum   'K6 Na2 P8 H8 O28'
_cell_volume   688.57529881
_cell_formula_units_Z   2
loop_
 _symmetry_equiv_pos_site_id
 _symmetry_equiv_pos_as_xyz
  1  'x, y, z'
loop_
 _atom_site_type_symbol
 _atom_site_label
 _atom_site_symmetry_multiplicity
 _atom_site_fract_x
 _atom_site_fract_y
 _atom_site_fract_z
 _atom_site_occupancy
  K  K0  1  0.19292610  0.27859344  0.97135190  1
  K  K1  1  0.47211776  0.72041693  0.52827896  1
  K  K2  1  0.80746530  0.72041693  0.02827896  1
  K  K3  1  0.52848046  0.27859344  0.47135190  1
  K  K4  1  0.80142188  0.99786408  0.75061342  1
  K  K5  1  0.20071404  0.99786408  0.25061342  1
  Na  Na6  1  0.49805074  0.50205003  0.00000377  1
  Na  Na7  1  0.99989923  0.50205003  0.50000377  1
  P  P8  1  0.78374252  0.38990919  0.25576981  1
  P  P9  1  0.17377719  0.61023823  0.24462537  1
  P  P10  1  0.21598457  0.61023823  0.74462537  1
  P  P11  1  0.82634829  0.38990919  0.75576981  1
  P  P12  1  0.67610994  0.13830377  0.10624196  1
  P  P13  1  0.80630083  0.86250431  0.39225091  1
  P  P14  1  0.33119486  0.86250431  0.89225091  1
  P  P15  1  0.18558629  0.13830377  0.60624196  1
  H  H16  1  0.52397268  0.60118924  0.23434376  1
  H  H17  1  0.12662355  0.39900531  0.26585805  1
  H  H18  1  0.47437113  0.39900531  0.76585805  1
  H  H19  1  0.87483808  0.60118924  0.73434376  1
  H  H20  1  0.01721785  0.99428849  0.99187057  1
  H  H21  1  0.98849366  0.99428849  0.49187057  1
  H  H22  1  0.57617452  0.01427254  0.23278853  1
  H  H23  1  0.40955294  0.01427254  0.73278853  1
  O  O24  1  0.67888190  0.26388978  0.22657314  1
  O  O25  1  0.94475210  0.73730352  0.27421344  1
  O  O26  1  0.31794438  0.73730352  0.77421344  1
  O  O27  1  0.05722833  0.26388978  0.72657314  1
  O  O28  1  0.99710274  0.31249042  0.19977481  1
  O  O29  1  0.31164547  0.68650994  0.29987956  1
  O  O30  1  0.00184459  0.68650994  0.79987956  1
  O  O31  1  0.69040683  0.31249042  0.69977481  1
  O  O32  1  0.74885538  0.44418517  0.39135651  1
  O  O33  1  0.19280079  0.55506912  0.10918209  1
  O  O34  1  0.25213009  0.55506912  0.60918209  1
  O  O35  1  0.80695944  0.44418517  0.89135651  1
  O  O36  1  0.65976806  0.53147999  0.18660956  1
  O  O37  1  0.19185357  0.46854331  0.31393810  1
  O  O38  1  0.33960313  0.46854331  0.81393810  1
  O  O39  1  0.80875195  0.53147999  0.68660956  1
  O  O40  1  0.59210103  0.22231875  0.00275363  1
  O  O41  1  0.81626719  0.77890089  0.49811129  1
  O  O42  1  0.40483193  0.77890089  0.99811129  1
  O  O43  1  0.18558022  0.22231875  0.50275363  1
  O  O44  1  0.52872760  0.07139304  0.15726142  1
  O  O45  1  0.60496766  0.93737230  0.34003749  1
  O  O46  1  0.45766004  0.93737230  0.84003749  1
  O  O47  1  0.39987936  0.07139304  0.65726142  1
  O  O48  1  0.88438298  0.00531205  0.08513137  1
  O  O49  1  0.89336381  0.99439616  0.41848060  1
  O  O50  1  0.11224003  0.99439616  0.91848060  1
  O  O51  1  0.11030497  0.00531205  0.58513137  1
