# generated using pymatgen
data_Hf10MnSb5
_symmetry_space_group_name_H-M   'P 1'
_cell_length_a   5.55511557
_cell_length_b   8.30154387
_cell_length_c   8.30154387
_cell_angle_alpha   96.42750267
_cell_angle_beta   109.54719651
_cell_angle_gamma   70.45280349
_symmetry_Int_Tables_number   1
_chemical_formula_structural   Hf10MnSb5
_chemical_formula_sum   'Hf10 Mn1 Sb5'
_cell_volume   339.97754810
_cell_formula_units_Z   1
loop_
 _symmetry_equiv_pos_site_id
 _symmetry_equiv_pos_as_xyz
  1  'x, y, z'
loop_
 _atom_site_type_symbol
 _atom_site_label
 _atom_site_symmetry_multiplicity
 _atom_site_fract_x
 _atom_site_fract_y
 _atom_site_fract_z
 _atom_site_occupancy
  Hf  Hf0  1  0.93582888  0.86121933  0.71007608  1
  Hf  Hf1  1  0.08697212  0.13878067  0.28992392  1
  Hf  Hf2  1  0.41302788  0.28992392  0.13878067  1
  Hf  Hf3  1  0.56417112  0.71007608  0.86121933  1
  Hf  Hf4  1  0.22575280  0.71007608  0.13878067  1
  Hf  Hf5  1  0.79704821  0.28992392  0.86121933  1
  Hf  Hf6  1  0.27424720  0.13878067  0.71007608  1
  Hf  Hf7  1  0.70295179  0.86121933  0.28992392  1
  Hf  Hf8  1  0.25000000  0.50000000  0.50000000  1
  Hf  Hf9  1  0.75000000  0.50000000  0.50000000  1
  Mn  Mn10  1  0.25000000  0.00000000  0.00000000  1
  Sb  Sb11  1  0.33587425  0.82825151  0.50000000  1
  Sb  Sb12  1  0.66412575  0.17174849  0.50000000  1
  Sb  Sb13  1  0.83587425  0.50000000  0.17174849  1
  Sb  Sb14  1  0.16412575  0.50000000  0.82825151  1
  Sb  Sb15  1  0.75000000  0.00000000  0.00000000  1
