# generated using pymatgen
data_Mg16Al12Se
_symmetry_space_group_name_H-M   'P 1'
_cell_length_a   9.33180887
_cell_length_b   9.06786620
_cell_length_c   9.06786698
_cell_angle_alpha   108.87409629
_cell_angle_beta   110.06193927
_cell_angle_gamma   110.06193924
_symmetry_Int_Tables_number   1
_chemical_formula_structural   Mg16Al12Se
_chemical_formula_sum   'Mg16 Al12 Se1'
_cell_volume   586.32175869
_cell_formula_units_Z   1
loop_
 _symmetry_equiv_pos_site_id
 _symmetry_equiv_pos_as_xyz
  1  'x, y, z'
loop_
 _atom_site_type_symbol
 _atom_site_label
 _atom_site_symmetry_multiplicity
 _atom_site_fract_x
 _atom_site_fract_y
 _atom_site_fract_z
 _atom_site_occupancy
  Mg  Mg0  1  -0.00012646  0.34589384  0.99999900  1
  Mg  Mg1  1  0.02803012  1.00000000  1.00000000  1
  Mg  Mg2  1  0.31129161  0.60119785  0.00000000  1
  Mg  Mg3  1  0.58847518  0.29536937  1.00000000  1
  Mg  Mg4  1  0.67612680  0.67878694  0.27425928  1
  Mg  Mg5  1  0.58847618  0.00000000  0.29536837  1
  Mg  Mg6  1  0.99733985  0.59547133  0.32121306  1
  Mg  Mg7  1  -0.00012646  0.00000000  0.34589384  1
  Mg  Mg8  1  0.71009376  0.39880315  0.39880315  1
  Mg  Mg9  1  0.40186952  0.72574272  0.40452867  1
  Mg  Mg10  1  0.99733985  0.32121206  0.59547233  1
  Mg  Mg11  1  0.31129161  0.99999900  0.60119785  1
  Mg  Mg12  1  0.65397870  0.65410416  0.65410416  1
  Mg  Mg13  1  0.67612780  0.27425928  0.67878694  1
  Mg  Mg14  1  0.29310681  0.70463063  0.70463063  1
  Mg  Mg15  1  0.40186952  0.40452867  0.72574172  1
  Al  Al16  1  0.81118788  0.62099703  0.00000000  1
  Al  Al17  1  0.64651114  0.81070568  0.00000100  1
  Al  Al18  1  0.36318867  0.37595342  0.18764359  1
  Al  Al19  1  0.17554308  0.81235341  0.18830783  1
  Al  Al20  1  0.83580547  0.18929432  0.18929432  1
  Al  Al21  1  0.36318867  0.18764359  0.37595242  1
  Al  Al22  1  0.19019085  0.37900497  0.37900497  1
  Al  Al23  1  0.81118788  1.00000000  0.62099703  1
  Al  Al24  1  0.98723525  0.81169217  0.62404758  1
  Al  Al25  1  0.64651214  0.00000100  0.81070568  1
  Al  Al26  1  0.98723525  0.62404758  0.81169217  1
  Al  Al27  1  0.17554308  0.18830783  0.81235441  1
  Se  Se28  1  0.37150625  0.00000100  1.00000000  1
