# generated using pymatgen
data_K3Na(B3O5)4
_symmetry_space_group_name_H-M   'P 1'
_cell_length_a   6.70829779
_cell_length_b   9.28317051
_cell_length_c   21.00425540
_cell_angle_alpha   93.89728342
_cell_angle_beta   89.77793320
_cell_angle_gamma   90.07415544
_symmetry_Int_Tables_number   1
_chemical_formula_structural   K3Na(B3O5)4
_chemical_formula_sum   'K9 Na3 B36 O60'
_cell_volume   1304.98941640
_cell_formula_units_Z   3
loop_
 _symmetry_equiv_pos_site_id
 _symmetry_equiv_pos_as_xyz
  1  'x, y, z'
loop_
 _atom_site_type_symbol
 _atom_site_label
 _atom_site_symmetry_multiplicity
 _atom_site_fract_x
 _atom_site_fract_y
 _atom_site_fract_z
 _atom_site_occupancy
  K  K0  1  0.69497215  0.77746498  0.46536418  1
  K  K1  1  0.19506290  0.22263117  0.03456874  1
  K  K2  1  0.30481868  0.22254607  0.53445976  1
  K  K3  1  0.80505938  0.77744645  0.96555664  1
  K  K4  1  0.68489260  0.59023824  0.61844643  1
  K  K5  1  0.18490539  0.40960298  0.88171927  1
  K  K6  1  0.31508879  0.40945235  0.38150789  1
  K  K7  1  0.81511629  0.59044815  0.11843885  1
  K  K8  1  0.01894364  0.93040569  0.74264158  1
  Na  Na9  1  0.50854699  0.06777900  0.75422888  1
  Na  Na10  1  0.99247451  0.06682833  0.25413747  1
  Na  Na11  1  0.49241181  0.93306875  0.24585056  1
  B  B12  1  0.29885257  0.99205201  0.37735526  1
  B  B13  1  0.79873484  0.00799187  0.12258660  1
  B  B14  1  0.69907159  0.01039931  0.62202421  1
  B  B15  1  0.20378737  0.99268196  0.87915238  1
  B  B16  1  0.00477387  0.85018102  0.58572490  1
  B  B17  1  0.50590680  0.15131430  0.91399302  1
  B  B18  1  0.99484286  0.15054231  0.41363736  1
  B  B19  1  0.49493868  0.84936989  0.08632113  1
  B  B20  1  0.03221700  0.58172326  0.72158982  1
  B  B21  1  0.53157105  0.41264054  0.77848521  1
  B  B22  1  0.96640129  0.41438710  0.27810172  1
  B  B23  1  0.46665116  0.58571389  0.22183102  1
  B  B24  1  0.24166783  0.75302118  0.42386413  1
  B  B25  1  0.74189272  0.24701914  0.07605043  1
  B  B26  1  0.75799919  0.24774900  0.57525757  1
  B  B27  1  0.25884576  0.75234244  0.92430813  1
  B  B28  1  0.21758896  0.34948506  0.71563476  1
  B  B29  1  0.71395990  0.64701501  0.78411730  1
  B  B30  1  0.78324744  0.64971867  0.28417410  1
  B  B31  1  0.28328553  0.35012732  0.21578485  1
  B  B32  1  0.35794061  0.88986868  0.60715867  1
  B  B33  1  0.85865464  0.11075252  0.89325434  1
  B  B34  1  0.64209665  0.11020868  0.39204165  1
  B  B35  1  0.14201666  0.88982499  0.10793164  1
  B  B36  1  0.24972508  0.67489251  0.53468672  1
  B  B37  1  0.74948299  0.32546313  0.96541178  1
  B  B38  1  0.74990866  0.32500889  0.46498318  1
  B  B39  1  0.25030767  0.67516960  0.03496110  1
  B  B40  1  0.07231040  0.80397421  0.32555687  1
  B  B41  1  0.57219429  0.19591724  0.17453947  1
  B  B42  1  0.92484587  0.19966636  0.67353878  1
  B  B43  1  0.43100233  0.80416577  0.82652037  1
  B  B44  1  0.21649948  0.51065331  0.62500697  1
  B  B45  1  0.71493875  0.48874238  0.87507998  1
  B  B46  1  0.78404264  0.48934001  0.37490633  1
  B  B47  1  0.28443274  0.51089603  0.12516099  1
  O  O48  1  0.40392028  0.77360877  0.56661740  1
  O  O49  1  0.90345239  0.22717579  0.93366899  1
  O  O50  1  0.59623343  0.22576646  0.43312427  1
  O  O51  1  0.09640362  0.77428419  0.06692900  1
  O  O52  1  0.26745595  0.53432767  0.56329647  1
  O  O53  1  0.76685868  0.46605246  0.93662934  1
  O  O54  1  0.73244325  0.46579096  0.43655235  1
  O  O55  1  0.23259778  0.53452732  0.06367268  1
  O  O56  1  0.80881504  0.87984739  0.59825617  1
  O  O57  1  0.30889733  0.12312972  0.90339902  1
  O  O58  1  0.19158611  0.12163645  0.40234812  1
  O  O59  1  0.69160353  0.87823348  0.09768466  1
  O  O60  1  0.08472301  0.21976612  0.71236178  1
  O  O61  1  0.58864589  0.78027877  0.78679901  1
  O  O62  1  0.91292797  0.78110772  0.28681661  1
  O  O63  1  0.41222125  0.21875361  0.21335784  1
  O  O64  1  0.31481130  0.89061848  0.42903802  1
  O  O65  1  0.81528516  0.10943271  0.07087510  1
  O  O66  1  0.68459775  0.11000859  0.56979031  1
  O  O67  1  0.18682486  0.89005360  0.93013825  1
  O  O68  1  0.28013934  0.38784306  0.65120178  1
  O  O69  1  0.77716704  0.61159658  0.84870734  1
  O  O70  1  0.72084910  0.61208601  0.34871539  1
  O  O71  1  0.22160925  0.38776132  0.15136540  1
  O  O72  1  0.04723389  0.73809177  0.54223111  1
  O  O73  1  0.54804350  0.26199771  0.95812670  1
  O  O74  1  0.95192001  0.26154141  0.45771523  1
  O  O75  1  0.45235756  0.73869298  0.04213582  1
  O  O76  1  0.11770747  0.70888363  0.37280011  1
  O  O77  1  0.61793122  0.29105372  0.12736207  1
  O  O78  1  0.88345067  0.29361131  0.62571492  1
  O  O79  1  0.38194764  0.70758933  0.87285884  1
  O  O80  1  0.19483329  0.92351623  0.31939861  1
  O  O81  1  0.69437893  0.07651054  0.18065341  1
  O  O82  1  0.79558568  0.08430773  0.67936054  1
  O  O83  1  0.31400186  0.92592846  0.82198421  1
  O  O84  1  0.10355778  0.61320063  0.66102906  1
  O  O85  1  0.60242025  0.38501012  0.83932317  1
  O  O86  1  0.89693027  0.38615220  0.33917801  1
  O  O87  1  0.39741231  0.61406588  0.16088635  1
  O  O88  1  0.15740264  0.93238429  0.61597414  1
  O  O89  1  0.65784224  0.06975177  0.88267200  1
  O  O90  1  0.84315732  0.06905200  0.38236090  1
  O  O91  1  0.34294933  0.93089055  0.11766878  1
  O  O92  1  0.10490994  0.46762362  0.75133323  1
  O  O93  1  0.59700740  0.52960489  0.74934725  1
  O  O94  1  0.89756984  0.53068139  0.24890902  1
  O  O95  1  0.39736633  0.46920266  0.25102189  1
  O  O96  1  0.39317349  0.31398980  0.75418415  1
  O  O97  1  0.88808459  0.67485678  0.74460338  1
  O  O98  1  0.60652028  0.68344211  0.24577743  1
  O  O99  1  0.10598780  0.31638419  0.25421710  1
  O  O100  1  0.49548545  0.97127569  0.64184229  1
  O  O101  1  0.99896307  0.02830690  0.86054605  1
  O  O102  1  0.50354925  0.02870558  0.35769919  1
  O  O103  1  0.00293440  0.97154931  0.14220940  1
  O  O104  1  0.29057358  0.65176216  0.46593631  1
  O  O105  1  0.79018661  0.34868705  0.03408780  1
  O  O106  1  0.70819741  0.34905215  0.53352012  1
  O  O107  1  0.20942839  0.65102443  0.96633312  1
