# generated using pymatgen
data_Hf4NiRh
_symmetry_space_group_name_H-M   'P 1'
_cell_length_a   8.60370025
_cell_length_b   8.60370025
_cell_length_c   8.60370025
_cell_angle_alpha   90.00000000
_cell_angle_beta   60.00000000
_cell_angle_gamma   120.00000000
_symmetry_Int_Tables_number   1
_chemical_formula_structural   Hf4NiRh
_chemical_formula_sum   'Hf16 Ni4 Rh4'
_cell_volume   450.34030340
_cell_formula_units_Z   4
loop_
 _symmetry_equiv_pos_site_id
 _symmetry_equiv_pos_as_xyz
  1  'x, y, z'
loop_
 _atom_site_type_symbol
 _atom_site_label
 _atom_site_symmetry_multiplicity
 _atom_site_fract_x
 _atom_site_fract_y
 _atom_site_fract_z
 _atom_site_occupancy
  Hf  Hf0  1  0.46825242  0.45237863  0.01587379  1
  Hf  Hf1  1  0.46825242  0.01587379  0.01587379  1
  Hf  Hf2  1  0.03174758  0.01587379  0.45237863  1
  Hf  Hf3  1  0.03174758  0.01587379  0.01587379  1
  Hf  Hf4  1  0.62177382  0.81088691  0.43911309  1
  Hf  Hf5  1  0.87822618  0.43911309  0.81088691  1
  Hf  Hf6  1  0.25000000  0.81088691  0.81088691  1
  Hf  Hf7  1  0.25000000  0.43911309  0.43911309  1
  Hf  Hf8  1  0.25000000  0.43911309  0.81088691  1
  Hf  Hf9  1  0.25000000  0.81088691  0.43911309  1
  Hf  Hf10  1  0.35864611  0.17932306  0.57067694  1
  Hf  Hf11  1  0.14135389  0.57067694  0.17932306  1
  Hf  Hf12  1  0.75000000  0.17932306  0.17932306  1
  Hf  Hf13  1  0.75000000  0.57067694  0.57067694  1
  Hf  Hf14  1  0.75000000  0.57067694  0.17932306  1
  Hf  Hf15  1  0.75000000  0.17932306  0.57067694  1
  Ni  Ni16  1  0.04022588  0.81033882  0.22988706  1
  Ni  Ni17  1  0.04022588  0.22988706  0.22988706  1
  Ni  Ni18  1  0.45977412  0.22988706  0.81033882  1
  Ni  Ni19  1  0.45977412  0.22988706  0.22988706  1
  Rh  Rh20  1  0.91876663  0.12814994  0.79061669  1
  Rh  Rh21  1  0.91876663  0.79061669  0.79061669  1
  Rh  Rh22  1  0.58123337  0.79061669  0.12814994  1
  Rh  Rh23  1  0.58123337  0.79061669  0.79061669  1
