# generated using pymatgen
data_DyThRe4
_symmetry_space_group_name_H-M   'P 1'
_cell_length_a   5.41970046
_cell_length_b   5.41970046
_cell_length_c   9.17147732
_cell_angle_alpha   89.99092735
_cell_angle_beta   90.00907265
_cell_angle_gamma   119.93519739
_symmetry_Int_Tables_number   1
_chemical_formula_structural   DyThRe4
_chemical_formula_sum   'Dy2 Th2 Re8'
_cell_volume   233.45528525
_cell_formula_units_Z   2
loop_
 _symmetry_equiv_pos_site_id
 _symmetry_equiv_pos_as_xyz
  1  'x, y, z'
loop_
 _atom_site_type_symbol
 _atom_site_label
 _atom_site_symmetry_multiplicity
 _atom_site_fract_x
 _atom_site_fract_y
 _atom_site_fract_z
 _atom_site_occupancy
  Dy  Dy0  1  0.66670591  0.33329409  0.56213796  1
  Dy  Dy1  1  0.33329409  0.66670591  0.43786204  1
  Th  Th2  1  0.33323615  0.66676385  0.06079170  1
  Th  Th3  1  0.66676385  0.33323615  0.93920830  1
  Re  Re4  1  -0.00000000  0.00000000  0.50000000  1
  Re  Re5  1  -0.00000000  0.00000000  -0.00000000  1
  Re  Re6  1  0.17007115  0.34006989  0.74179219  1
  Re  Re7  1  0.17015542  0.82984458  0.74178118  1
  Re  Re8  1  0.65993011  0.82992885  0.74179219  1
  Re  Re9  1  0.82992885  0.65993011  0.25820781  1
  Re  Re10  1  0.82984458  0.17015542  0.25821882  1
  Re  Re11  1  0.34006989  0.17007115  0.25820781  1
