# generated using pymatgen
data_Er(CuS)3
_symmetry_space_group_name_H-M   'P 1'
_cell_length_a   6.66133890
_cell_length_b   6.66142296
_cell_length_c   12.62630128
_cell_angle_alpha   90.00186531
_cell_angle_beta   89.99895913
_cell_angle_gamma   120.00061260
_symmetry_Int_Tables_number   1
_chemical_formula_structural   Er(CuS)3
_chemical_formula_sum   'Er4 Cu12 S12'
_cell_volume   485.21323390
_cell_formula_units_Z   4
loop_
 _symmetry_equiv_pos_site_id
 _symmetry_equiv_pos_as_xyz
  1  'x, y, z'
loop_
 _atom_site_type_symbol
 _atom_site_label
 _atom_site_symmetry_multiplicity
 _atom_site_fract_x
 _atom_site_fract_y
 _atom_site_fract_z
 _atom_site_occupancy
  Er  Er0  1  0.66655637  0.33327976  0.75000073  1
  Er  Er1  1  0.33344363  0.66672024  0.24999927  1
  Er  Er2  1  0.66670044  0.33334853  0.25000018  1
  Er  Er3  1  0.33329956  0.66665147  0.74999982  1
  Cu  Cu4  1  0.00095571  0.33771137  0.06511892  1
  Cu  Cu5  1  0.66224666  0.66331993  0.06510013  1
  Cu  Cu6  1  0.33669668  0.99890625  0.06512061  1
  Cu  Cu7  1  0.99905092  0.33676089  0.56511930  1
  Cu  Cu8  1  0.66330146  0.66220390  0.56512017  1
  Cu  Cu9  1  0.33775720  0.00107059  0.56510107  1
  Cu  Cu10  1  0.99904429  0.66228863  0.93488108  1
  Cu  Cu11  1  0.33775334  0.33668007  0.93489987  1
  Cu  Cu12  1  0.66330332  0.00109375  0.93487939  1
  Cu  Cu13  1  0.00094908  0.66323911  0.43488070  1
  Cu  Cu14  1  0.33669854  0.33779610  0.43487983  1
  Cu  Cu15  1  0.66224280  0.99892941  0.43489893  1
  S  S16  1  0.66737040  0.00036631  0.12593067  1
  S  S17  1  0.99962605  0.66700400  0.12593566  1
  S  S18  1  0.33299849  0.33262747  0.12592573  1
  S  S19  1  0.33262326  0.33299706  0.62592950  1
  S  S20  1  0.66699959  0.99963250  0.62592829  1
  S  S21  1  0.00037390  0.66738127  0.62593944  1
  S  S22  1  0.33262960  0.99963369  0.87406933  1
  S  S23  1  0.00037395  0.33299600  0.87406434  1
  S  S24  1  0.66700151  0.66737253  0.87407427  1
  S  S25  1  0.66737674  0.66700294  0.37407050  1
  S  S26  1  0.33300041  0.00036750  0.37407171  1
  S  S27  1  0.99962610  0.33261873  0.37406056  1
