# generated using pymatgen
data_La9Ce3Si8(S8I)4
_symmetry_space_group_name_H-M   'P 1'
_cell_length_a   9.08624387
_cell_length_b   13.61188071
_cell_length_c   13.40901625
_cell_angle_alpha   64.69193509
_cell_angle_beta   71.48724324
_cell_angle_gamma   80.82518105
_symmetry_Int_Tables_number   1
_chemical_formula_structural   La9Ce3Si8(S8I)4
_chemical_formula_sum   'La9 Ce3 Si8 S32 I4'
_cell_volume   1421.13916297
_cell_formula_units_Z   1
loop_
 _symmetry_equiv_pos_site_id
 _symmetry_equiv_pos_as_xyz
  1  'x, y, z'
loop_
 _atom_site_type_symbol
 _atom_site_label
 _atom_site_symmetry_multiplicity
 _atom_site_fract_x
 _atom_site_fract_y
 _atom_site_fract_z
 _atom_site_occupancy
  La  La0  1  0.39540208  0.67945897  0.00128652  1
  La  La1  1  0.26880470  0.05260173  0.12834078  1
  La  La2  1  0.76904342  0.55233165  0.62806468  1
  La  La3  1  0.10457544  0.82020387  0.49940057  1
  La  La4  1  0.60445573  0.32014376  0.99943575  1
  La  La5  1  0.32844979  0.07913468  0.67125937  1
  La  La6  1  0.82818234  0.57852324  0.17159311  1
  La  La7  1  0.67162132  0.92142415  0.32844601  1
  La  La8  1  0.17160435  0.42135292  0.82853823  1
  Ce  Ce9  1  0.72910458  0.94744611  0.87130576  1
  Ce  Ce10  1  0.22854857  0.44661907  0.37180405  1
  Ce  Ce11  1  0.89660208  0.17834491  0.50288567  1
  Si  Si12  1  0.29283554  0.08481667  0.38553943  1
  Si  Si13  1  0.79328281  0.58477475  0.88534473  1
  Si  Si14  1  0.99528636  0.70373985  0.32652111  1
  Si  Si15  1  0.49578532  0.20373737  0.82619403  1
  Si  Si16  1  0.70666206  0.91619709  0.61467603  1
  Si  Si17  1  0.20609678  0.41563113  0.11524233  1
  Si  Si18  1  0.00531806  0.29568778  0.67311180  1
  Si  Si19  1  0.50543715  0.79578970  0.17316613  1
  S  S20  1  0.24132255  0.20535158  0.45464890  1
  S  S21  1  0.74300798  0.70541890  0.95423452  1
  S  S22  1  0.60729211  0.14394621  0.69647798  1
  S  S23  1  0.10634796  0.64336609  0.19725584  1
  S  S24  1  0.75730491  0.79569361  0.54546673  1
  S  S25  1  0.25734573  0.29549483  0.04539449  1
  S  S26  1  0.39456982  0.85533699  0.30335247  1
  S  S27  1  0.89464023  0.35528656  0.80328290  1
  S  S28  1  0.08676406  0.06405791  0.35139842  1
  S  S29  1  0.58777156  0.56351130  0.85067578  1
  S  S30  1  0.09564170  0.61764097  0.46690787  1
  S  S31  1  0.59570507  0.11787765  0.96685939  1
  S  S32  1  0.91146477  0.93701466  0.65051021  1
  S  S33  1  0.41104368  0.43629536  0.15097514  1
  S  S34  1  0.90592791  0.38072453  0.53200348  1
  S  S35  1  0.40607264  0.88191371  0.03203474  1
  S  S36  1  0.34221486  0.93813098  0.51808856  1
  S  S37  1  0.84179212  0.43800190  0.01812734  1
  S  S38  1  0.75736521  0.66239656  0.38222833  1
  S  S39  1  0.25787151  0.16215299  0.88203282  1
  S  S40  1  0.65945123  0.06324488  0.48169911  1
  S  S41  1  0.15799832  0.56225409  0.98201088  1
  S  S42  1  0.24265849  0.33858276  0.61566000  1
  S  S43  1  0.74286170  0.83868503  0.11577838  1
  S  S44  1  0.47859126  0.12092842  0.23210587  1
  S  S45  1  0.97884887  0.62091588  0.73190235  1
  S  S46  1  0.01506215  0.87346273  0.27342055  1
  S  S47  1  0.51505282  0.37352021  0.77328294  1
  S  S48  1  0.52134086  0.87958825  0.76825697  1
  S  S49  1  0.02090387  0.37887334  0.26881326  1
  S  S50  1  0.98482454  0.12601579  0.72645104  1
  S  S51  1  0.48477396  0.62611964  0.22679685  1
  I  I52  1  0.38129657  0.63181512  0.61847507  1
  I  I53  1  0.88133307  0.13180239  0.11844229  1
  I  I54  1  0.61832691  0.36816733  0.38152530  1
  I  I55  1  0.11811053  0.86845145  0.88126715  1
