# generated using pymatgen
data_GaAgSnSe4
_symmetry_space_group_name_H-M   'P 1'
_cell_length_a   6.04262817
_cell_length_b   6.04262817
_cell_length_c   6.92515447
_cell_angle_alpha   64.13316229
_cell_angle_beta   64.13316229
_cell_angle_gamma   90.00000000
_symmetry_Int_Tables_number   1
_chemical_formula_structural   GaAgSnSe4
_chemical_formula_sum   'Ga1 Ag1 Sn1 Se4'
_cell_volume   198.99306649
_cell_formula_units_Z   1
loop_
 _symmetry_equiv_pos_site_id
 _symmetry_equiv_pos_as_xyz
  1  'x, y, z'
loop_
 _atom_site_type_symbol
 _atom_site_label
 _atom_site_symmetry_multiplicity
 _atom_site_fract_x
 _atom_site_fract_y
 _atom_site_fract_z
 _atom_site_occupancy
  Ga  Ga0  1  0.25000000  0.75000000  0.50000000  1
  Ag  Ag1  1  0.75000000  0.25000000  0.50000000  1
  Sn  Sn2  1  0.50000000  0.50000000  -0.00000000  1
  Se  Se3  1  0.34008538  0.86298539  0.76287343  1
  Se  Se4  1  0.89704119  0.37414118  0.76287343  1
  Se  Se5  1  0.62585882  0.65991462  0.23712657  1
  Se  Se6  1  0.13701461  0.10295881  0.23712657  1
