# generated using pymatgen
data_CsGaAs3H5O12
_symmetry_space_group_name_H-M   'P 1'
_cell_length_a   4.82761814
_cell_length_b   7.87057611
_cell_length_c   15.34542458
_cell_angle_alpha   90.99481599
_cell_angle_beta   86.75469292
_cell_angle_gamma   107.85973045
_symmetry_Int_Tables_number   1
_chemical_formula_structural   CsGaAs3H5O12
_chemical_formula_sum   'Cs2 Ga2 As6 H10 O24'
_cell_volume   554.07896130
_cell_formula_units_Z   2
loop_
 _symmetry_equiv_pos_site_id
 _symmetry_equiv_pos_as_xyz
  1  'x, y, z'
loop_
 _atom_site_type_symbol
 _atom_site_label
 _atom_site_symmetry_multiplicity
 _atom_site_fract_x
 _atom_site_fract_y
 _atom_site_fract_z
 _atom_site_occupancy
  Cs  Cs0  1  0.00073455  0.99404461  0.50111784  1
  Cs  Cs1  1  0.00668994  0.00595539  0.00111784  1
  Ga  Ga2  1  0.14304503  0.29019464  0.24785555  1
  Ga  Ga3  1  0.85285039  0.70980536  0.74785555  1
  As  As4  1  0.49623597  0.99393056  0.24937528  1
  As  As5  1  0.50230541  0.00606944  0.74937528  1
  As  As6  1  0.68801670  0.43693091  0.37336465  1
  As  As7  1  0.73549644  0.43065343  0.11993711  1
  As  As8  1  0.30484301  0.56934657  0.61993711  1
  As  As9  1  0.25108579  0.56306909  0.87336465  1
  H  H10  1  0.17587007  0.73306221  0.30956610  1
  H  H11  1  0.56090221  0.73230732  0.19061602  1
  H  H12  1  0.82859488  0.26769268  0.69061602  1
  H  H13  1  0.44280786  0.26693779  0.80956610  1
  H  H14  1  0.47506678  0.63708941  0.43500172  1
  H  H15  1  0.15476605  0.64039512  0.06964438  1
  H  H16  1  0.51437093  0.35960488  0.56964438  1
  H  H17  1  0.83797738  0.36291059  0.93500172  1
  H  H18  1  0.96348014  0.47600980  0.49433404  1
  H  H19  1  0.48747034  0.52399020  0.99433404  1
  O  O20  1  0.99284011  0.48612715  0.30384501  1
  O  O21  1  0.49103028  0.47930823  0.19542921  1
  O  O22  1  0.01172205  0.52069177  0.69542921  1
  O  O23  1  0.50671296  0.51387285  0.80384501  1
  O  O24  1  0.27535557  0.85533293  0.33139512  1
  O  O25  1  0.57979395  0.85356413  0.16830339  1
  O  O26  1  0.72622983  0.14643587  0.66830339  1
  O  O27  1  0.42002264  0.14466707  0.83139512  1
  O  O28  1  0.30446838  0.10327561  0.19443399  1
  O  O29  1  0.79640120  0.10806297  0.30379936  1
  O  O30  1  0.68833824  0.89193703  0.80379936  1
  O  O31  1  0.20119277  0.89672439  0.69443399  1
  O  O32  1  0.77355302  0.37361736  0.47558564  1
  O  O33  1  0.59467644  0.37752637  0.01943263  1
  O  O34  1  0.21715007  0.62247363  0.51943263  1
  O  O35  1  0.39993566  0.62638264  0.97558564  1
  O  O36  1  0.63954484  0.64765822  0.38936607  1
  O  O37  1  0.99342192  0.64571234  0.11203960  1
  O  O38  1  0.34770958  0.35428766  0.61203960  1
  O  O39  1  0.99188663  0.35234178  0.88936607  1
  O  O40  1  0.36312996  0.28163184  0.35412845  1
  O  O41  1  0.91358599  0.28039607  0.14342881  1
  O  O42  1  0.63318992  0.71960393  0.64342881  1
  O  O43  1  0.08149812  0.71836816  0.85412845  1
