# generated using pymatgen
data_Dy4Fe28BC
_symmetry_space_group_name_H-M   'P 1'
_cell_length_a   8.73397285
_cell_length_b   8.73397285
_cell_length_c   11.85904245
_cell_angle_alpha   90.00000000
_cell_angle_beta   90.00000000
_cell_angle_gamma   90.02924364
_symmetry_Int_Tables_number   1
_chemical_formula_structural   Dy4Fe28BC
_chemical_formula_sum   'Dy8 Fe56 B2 C2'
_cell_volume   904.63470047
_cell_formula_units_Z   2
loop_
 _symmetry_equiv_pos_site_id
 _symmetry_equiv_pos_as_xyz
  1  'x, y, z'
loop_
 _atom_site_type_symbol
 _atom_site_label
 _atom_site_symmetry_multiplicity
 _atom_site_fract_x
 _atom_site_fract_y
 _atom_site_fract_z
 _atom_site_occupancy
  Dy  Dy0  1  0.23307265  0.76692735  0.50000000  1
  Dy  Dy1  1  0.76692735  0.23307265  0.50000000  1
  Dy  Dy2  1  0.26168516  0.26168516  -0.00000000  1
  Dy  Dy3  1  0.73831484  0.73831484  -0.00000000  1
  Dy  Dy4  1  0.64337036  0.64337036  0.50000000  1
  Dy  Dy5  1  0.35662964  0.35662964  0.50000000  1
  Dy  Dy6  1  0.85637901  0.14362099  -0.00000000  1
  Dy  Dy7  1  0.14362099  0.85637901  -0.00000000  1
  Fe  Fe8  1  0.18383210  0.81616790  0.25286015  1
  Fe  Fe9  1  0.81616790  0.18383210  0.25286015  1
  Fe  Fe10  1  0.31745021  0.31745021  0.75514075  1
  Fe  Fe11  1  0.68254979  0.68254979  0.75514075  1
  Fe  Fe12  1  0.81616790  0.18383210  0.74713985  1
  Fe  Fe13  1  0.18383210  0.81616790  0.74713985  1
  Fe  Fe14  1  0.68254979  0.68254979  0.24485925  1
  Fe  Fe15  1  0.31745021  0.31745021  0.24485925  1
  Fe  Fe16  1  0.93426094  0.72436056  0.37321869  1
  Fe  Fe17  1  0.06573906  0.27563944  0.37321869  1
  Fe  Fe18  1  0.56568659  0.22590206  0.87923655  1
  Fe  Fe19  1  0.43431341  0.77409794  0.87923655  1
  Fe  Fe20  1  0.06573906  0.27563944  0.62678131  1
  Fe  Fe21  1  0.93426094  0.72436056  0.62678131  1
  Fe  Fe22  1  0.43431341  0.77409794  0.12076345  1
  Fe  Fe23  1  0.56568659  0.22590206  0.12076345  1
  Fe  Fe24  1  0.72436056  0.93426094  0.37321869  1
  Fe  Fe25  1  0.27563944  0.06573906  0.37321869  1
  Fe  Fe26  1  0.22590206  0.56568659  0.87923655  1
  Fe  Fe27  1  0.77409794  0.43431341  0.87923655  1
  Fe  Fe28  1  0.27563944  0.06573906  0.62678131  1
  Fe  Fe29  1  0.72436056  0.93426094  0.62678131  1
  Fe  Fe30  1  0.77409794  0.43431341  0.12076345  1
  Fe  Fe31  1  0.22590206  0.56568659  0.12076345  1
  Fe  Fe32  1  0.50000000  0.50000000  0.10823542  1
  Fe  Fe33  1  0.00000000  0.00000000  0.61608865  1
  Fe  Fe34  1  0.50000000  0.50000000  0.89176458  1
  Fe  Fe35  1  0.00000000  0.00000000  0.38391135  1
  Fe  Fe36  1  0.14190026  0.53720060  0.32439972  1
  Fe  Fe37  1  0.85809974  0.46279940  0.32439972  1
  Fe  Fe38  1  0.35913025  0.03673584  0.82575903  1
  Fe  Fe39  1  0.64086975  0.96326416  0.82575903  1
  Fe  Fe40  1  0.85809974  0.46279940  0.67560028  1
  Fe  Fe41  1  0.14190026  0.53720060  0.67560028  1
  Fe  Fe42  1  0.64086975  0.96326416  0.17424097  1
  Fe  Fe43  1  0.35913025  0.03673584  0.17424097  1
  Fe  Fe44  1  0.53720060  0.14190026  0.32439972  1
  Fe  Fe45  1  0.46279940  0.85809974  0.32439972  1
  Fe  Fe46  1  0.03673584  0.35913025  0.82575903  1
  Fe  Fe47  1  0.96326416  0.64086975  0.82575903  1
  Fe  Fe48  1  0.46279940  0.85809974  0.67560028  1
  Fe  Fe49  1  0.53720060  0.14190026  0.67560028  1
  Fe  Fe50  1  0.96326416  0.64086975  0.17424097  1
  Fe  Fe51  1  0.03673584  0.35913025  0.17424097  1
  Fe  Fe52  1  0.00000000  0.50000000  0.50000000  1
  Fe  Fe53  1  0.50000000  0.00000000  -0.00000000  1
  Fe  Fe54  1  0.50000000  0.00000000  0.50000000  1
  Fe  Fe55  1  0.00000000  0.50000000  -0.00000000  1
  Fe  Fe56  1  0.40254680  0.59745320  0.29614461  1
  Fe  Fe57  1  0.59745320  0.40254680  0.29614461  1
  Fe  Fe58  1  0.09712835  0.09712835  0.80044574  1
  Fe  Fe59  1  0.90287165  0.90287165  0.80044574  1
  Fe  Fe60  1  0.59745320  0.40254680  0.70385539  1
  Fe  Fe61  1  0.40254680  0.59745320  0.70385539  1
  Fe  Fe62  1  0.90287165  0.90287165  0.19955426  1
  Fe  Fe63  1  0.09712835  0.09712835  0.19955426  1
  B  B64  1  0.87440122  0.87440122  0.50000000  1
  B  B65  1  0.12559878  0.12559878  0.50000000  1
  C  C66  1  0.62612158  0.37387842  -0.00000000  1
  C  C67  1  0.37387842  0.62612158  -0.00000000  1
