# generated using pymatgen
data_Cu12As4S13
_symmetry_space_group_name_H-M   'P 1'
_cell_length_a   8.78224618
_cell_length_b   8.87467861
_cell_length_c   8.77392861
_cell_angle_alpha   70.52765791
_cell_angle_beta   71.00946058
_cell_angle_gamma   109.53260724
_symmetry_Int_Tables_number   1
_chemical_formula_structural   Cu12As4S13
_chemical_formula_sum   'Cu12 As4 S13'
_cell_volume   529.10628924
_cell_formula_units_Z   1
loop_
 _symmetry_equiv_pos_site_id
 _symmetry_equiv_pos_as_xyz
  1  'x, y, z'
loop_
 _atom_site_type_symbol
 _atom_site_label
 _atom_site_symmetry_multiplicity
 _atom_site_fract_x
 _atom_site_fract_y
 _atom_site_fract_z
 _atom_site_occupancy
  Cu  Cu0  1  0.25055357  0.75103752  0.49886373  1
  Cu  Cu1  1  0.75133070  0.50068519  0.74954245  1
  Cu  Cu2  1  0.49998263  0.25017121  0.25021946  1
  Cu  Cu3  1  0.24940879  0.49853341  0.25022357  1
  Cu  Cu4  1  0.74878369  0.24982514  0.50181515  1
  Cu  Cu5  1  0.49983175  0.75003958  0.75029490  1
  Cu  Cu6  1  0.75971306  0.79728571  0.00083756  1
  Cu  Cu7  1  0.79632323  0.99817315  0.24309109  1
  Cu  Cu8  1  0.00096280  0.75867108  0.19761724  1
  Cu  Cu9  1  0.23852749  0.24427865  0.95653267  1
  Cu  Cu10  1  0.19935412  0.95865309  0.80384057  1
  Cu  Cu11  1  0.04375862  0.24279486  0.75928610  1
  As  As12  1  0.47287378  0.47532845  0.52734185  1
  As  As13  1  0.52566174  0.99725549  0.00013152  1
  As  As14  1  0.00225470  0.52715954  0.00028192  1
  As  As15  1  0.99689676  0.00014066  0.47451778  1
  S  S16  1  0.75874777  0.75948541  0.76126487  1
  S  S17  1  0.76175373  0.23846264  0.24064639  1
  S  S18  1  0.23904122  0.75705074  0.23929381  1
  S  S19  1  0.24415056  0.48185945  0.99695244  1
  S  S20  1  0.23957037  0.99818602  0.52178174  1
  S  S21  1  0.76248248  0.52023262  0.47704199  1
  S  S22  1  0.47966672  0.24072845  0.99673662  1
  S  S23  1  0.52174727  0.76186740  0.47985705  1
  S  S24  1  0.00219066  0.24180028  0.52008481  1
  S  S25  1  0.52046804  0.52125195  0.23798113  1
  S  S26  1  0.47966774  0.99803950  0.75850030  1
  S  S27  1  0.00368327  0.48150145  0.75675338  1
  S  S28  1  0.99701276  0.99950138  0.00226791  1
