# generated using pymatgen
data_CeU4N5
_symmetry_space_group_name_H-M   'P 1'
_cell_length_a   3.46409438
_cell_length_b   3.46409438
_cell_length_c   14.26364039
_cell_angle_alpha   96.97469308
_cell_angle_beta   83.02530692
_cell_angle_gamma   120.00000000
_symmetry_Int_Tables_number   1
_chemical_formula_structural   CeU4N5
_chemical_formula_sum   'Ce1 U4 N5'
_cell_volume   146.76708483
_cell_formula_units_Z   1
loop_
 _symmetry_equiv_pos_site_id
 _symmetry_equiv_pos_as_xyz
  1  'x, y, z'
loop_
 _atom_site_type_symbol
 _atom_site_label
 _atom_site_symmetry_multiplicity
 _atom_site_fract_x
 _atom_site_fract_y
 _atom_site_fract_z
 _atom_site_occupancy
  Ce  Ce0  1  0.00000000  0.00000000  0.00000000  1
  U  U1  1  0.59830160  0.40169840  0.20509521  1
  U  U2  1  0.19963843  0.80036157  0.40108472  1
  U  U3  1  0.80036157  0.19963843  0.59891528  1
  U  U4  1  0.40169840  0.59830160  0.79490479  1
  N  N5  1  0.70438728  0.29561272  0.88683816  1
  N  N6  1  0.50000000  0.50000000  0.50000000  1
  N  N7  1  0.10076895  0.89923105  0.69769314  1
  N  N8  1  0.29561272  0.70438728  0.11316184  1
  N  N9  1  0.89923105  0.10076895  0.30230686  1
