# generated using pymatgen
data_Cu2SnS3
_symmetry_space_group_name_H-M   'P 1'
_cell_length_a   6.72257919
_cell_length_b   6.72257919
_cell_length_c   12.23573915
_cell_angle_alpha   79.49377238
_cell_angle_beta   100.50622762
_cell_angle_gamma   70.35212069
_symmetry_Int_Tables_number   1
_chemical_formula_structural   Cu2SnS3
_chemical_formula_sum   'Cu8 Sn4 S12'
_cell_volume   494.00026971
_cell_formula_units_Z   4
loop_
 _symmetry_equiv_pos_site_id
 _symmetry_equiv_pos_as_xyz
  1  'x, y, z'
loop_
 _atom_site_type_symbol
 _atom_site_label
 _atom_site_symmetry_multiplicity
 _atom_site_fract_x
 _atom_site_fract_y
 _atom_site_fract_z
 _atom_site_occupancy
  Cu  Cu0  1  0.26107029  0.24556189  0.49984908  1
  Cu  Cu1  1  0.90994796  0.57661396  0.83333300  1
  Cu  Cu2  1  0.57889489  0.92773729  0.16681792  1
  Cu  Cu3  1  0.34455421  0.66207796  0.66681792  1
  Cu  Cu4  1  0.99541096  0.01122121  0.99984908  1
  Cu  Cu5  1  0.65994796  0.32661396  0.33333300  1
  Cu  Cu6  1  0.41744378  0.08410978  0.83333300  1
  Cu  Cu7  1  0.16744378  0.83410978  0.33333300  1
  Sn  Sn8  1  0.09940678  0.39979448  0.17431346  1
  Sn  Sn9  1  0.73312748  0.76607378  0.49235354  1
  Sn  Sn10  1  0.82410695  0.17509432  0.67431346  1
  Sn  Sn11  1  0.50842732  0.49077395  0.99235354  1
  S  S12  1  0.10543481  0.64708842  0.99006474  1
  S  S13  1  0.79724695  0.96828952  0.32402495  1
  S  S14  1  0.43438183  0.29766729  0.66667770  1
  S  S15  1  0.63100129  0.10104783  -0.00001170  1
  S  S16  1  0.30162252  0.46391395  0.34264205  1
  S  S17  1  0.98042142  0.77210181  0.67660226  1
  S  S18  1  0.05655499  0.20898148  0.84264205  1
  S  S19  1  0.69870408  0.55381915  0.17660226  1
  S  S20  1  0.35103713  0.88101199  0.49998830  1
  S  S21  1  0.88715215  0.36537108  0.49006474  1
  S  S22  1  0.54231448  0.72322199  0.82402495  1
  S  S23  1  0.21434599  0.01770313  0.16667770  1
