# generated using pymatgen
data_Fe7Si3(H4O9)2
_symmetry_space_group_name_H-M   'P 1'
_cell_length_a   5.52895932
_cell_length_b   9.16666435
_cell_length_c   9.13202956
_cell_angle_alpha   74.91214966
_cell_angle_beta   71.67863577
_cell_angle_gamma   106.96508649
_symmetry_Int_Tables_number   1
_chemical_formula_structural   Fe7Si3(H4O9)2
_chemical_formula_sum   'Fe7 Si3 H8 O18'
_cell_volume   387.38080807
_cell_formula_units_Z   1
loop_
 _symmetry_equiv_pos_site_id
 _symmetry_equiv_pos_as_xyz
  1  'x, y, z'
loop_
 _atom_site_type_symbol
 _atom_site_label
 _atom_site_symmetry_multiplicity
 _atom_site_fract_x
 _atom_site_fract_y
 _atom_site_fract_z
 _atom_site_occupancy
  Fe  Fe0  1  0.34156749  0.78578460  0.11442125  1
  Fe  Fe1  1  0.33185018  0.41574680  0.08382236  1
  Fe  Fe2  1  0.32961172  0.91327072  0.58098171  1
  Fe  Fe3  1  0.66764523  0.24530746  0.24846411  1
  Fe  Fe4  1  0.66627408  0.75170891  0.74662315  1
  Fe  Fe5  1  0.00529723  0.58161758  0.91847191  1
  Fe  Fe6  1  0.00127428  0.08118941  0.41045034  1
  Si  Si7  1  0.32829517  0.27499033  0.60500495  1
  Si  Si8  1  0.67272930  0.60593422  0.28548444  1
  Si  Si9  1  0.66777620  0.11993419  0.76715986  1
  H  H10  1  0.67048713  0.44034077  0.78826683  1
  H  H11  1  0.64423694  0.92823833  0.29343107  1
  H  H12  1  0.32846573  0.60195677  0.61733048  1
  H  H13  1  0.36829292  0.12128217  0.10151966  1
  H  H14  1  0.98895063  0.29176281  0.92765324  1
  H  H15  1  0.98279846  0.77919466  0.44329301  1
  H  H16  1  0.00055045  0.39528809  0.38302826  1
  H  H17  1  0.99923783  0.87625223  0.90186046  1
  O  O18  1  0.56129173  0.74829556  0.22973669  1
  O  O19  1  0.52702006  0.25378734  0.70853910  1
  O  O20  1  0.45418321  0.47305120  0.48325557  1
  O  O21  1  0.48632268  0.01369922  0.96803299  1
  O  O22  1  0.97548365  0.69445210  0.28529490  1
  O  O23  1  0.99939395  0.22793293  0.73503453  1
  O  O24  1  0.32154715  0.65744245  0.98369946  1
  O  O25  1  0.32922380  0.15991410  0.49786487  1
  O  O26  1  0.68979313  0.50432902  0.15918539  1
  O  O27  1  0.67038540  0.00403444  0.65913057  1
  O  O28  1  0.68316245  0.51238804  0.85048943  1
  O  O29  1  0.65797571  0.00886911  0.34704051  1
  O  O30  1  0.31565171  0.66849215  0.68545463  1
  O  O31  1  0.33954013  0.18109504  0.17640372  1
  O  O32  1  0.99988549  0.35355089  -0.00000862  1
  O  O33  1  0.99179436  0.84333235  0.51459976  1
  O  O34  1  0.00330268  0.32551808  0.31911892  1
  O  O35  1  0.99870173  0.81221594  0.83206044  1
