# generated using pymatgen
data_CaLaAl3O7
_symmetry_space_group_name_H-M   'P 1'
_cell_length_a   5.19517088
_cell_length_b   7.85962983
_cell_length_c   7.85962983
_cell_angle_alpha   88.72562671
_cell_angle_beta   90.00000000
_cell_angle_gamma   90.00000000
_symmetry_Int_Tables_number   1
_chemical_formula_structural   CaLaAl3O7
_chemical_formula_sum   'Ca2 La2 Al6 O14'
_cell_volume   320.84596994
_cell_formula_units_Z   2
loop_
 _symmetry_equiv_pos_site_id
 _symmetry_equiv_pos_as_xyz
  1  'x, y, z'
loop_
 _atom_site_type_symbol
 _atom_site_label
 _atom_site_symmetry_multiplicity
 _atom_site_fract_x
 _atom_site_fract_y
 _atom_site_fract_z
 _atom_site_occupancy
  Ca  Ca0  1  0.51463303  0.34019586  0.15980414  1
  Ca  Ca1  1  0.51463303  0.65980414  0.84019586  1
  La  La2  1  0.49208976  0.16517889  0.66517889  1
  La  La3  1  0.49208976  0.83482111  0.33482111  1
  Al  Al4  1  0.95857796  0.14667670  0.35332330  1
  Al  Al5  1  0.04228822  0.36029098  0.86029098  1
  Al  Al6  1  0.95857796  0.85332330  0.64667670  1
  Al  Al7  1  0.04228822  0.63970902  0.13970902  1
  Al  Al8  1  0.99515318  0.50000000  0.50000000  1
  Al  Al9  1  0.99515318  -0.00000000  0.00000000  1
  O  O10  1  0.29503753  0.13929527  0.36070473  1
  O  O11  1  0.70674286  0.35746107  0.85746107  1
  O  O12  1  0.29503753  0.86070473  0.63929527  1
  O  O13  1  0.70674286  0.64253893  0.14253893  1
  O  O14  1  0.80251363  0.33723301  0.41322112  1
  O  O15  1  0.19332116  0.16178098  0.91019676  1
  O  O16  1  0.80251363  0.66276699  0.58677888  1
  O  O17  1  0.19332116  0.83821902  0.08980324  1
  O  O18  1  0.19332116  0.58980324  0.33821902  1
  O  O19  1  0.80251363  0.91322112  0.83723301  1
  O  O20  1  0.19332116  0.41019676  0.66178098  1
  O  O21  1  0.80251363  0.08677888  0.16276699  1
  O  O22  1  0.19066232  0.50000000  0.00000000  1
  O  O23  1  0.81695344  -0.00000000  0.50000000  1
