# generated using pymatgen
data_CaNdMn2O6
_symmetry_space_group_name_H-M   'P 1'
_cell_length_a   5.46175191
_cell_length_b   5.51974028
_cell_length_c   7.67900120
_cell_angle_alpha   90.00000000
_cell_angle_beta   90.00000000
_cell_angle_gamma   90.00000000
_symmetry_Int_Tables_number   1
_chemical_formula_structural   CaNdMn2O6
_chemical_formula_sum   'Ca2 Nd2 Mn4 O12'
_cell_volume   231.50232022
_cell_formula_units_Z   2
loop_
 _symmetry_equiv_pos_site_id
 _symmetry_equiv_pos_as_xyz
  1  'x, y, z'
loop_
 _atom_site_type_symbol
 _atom_site_label
 _atom_site_symmetry_multiplicity
 _atom_site_fract_x
 _atom_site_fract_y
 _atom_site_fract_z
 _atom_site_occupancy
  Ca  Ca0  1  0.50854003  0.53819633  0.75000000  1
  Ca  Ca1  1  0.99145997  0.03819633  0.75000000  1
  Nd  Nd2  1  0.49209231  0.45630519  0.25000000  1
  Nd  Nd3  1  0.00790769  0.95630519  0.25000000  1
  Mn  Mn4  1  0.99906505  0.49889150  0.99383412  1
  Mn  Mn5  1  0.50093495  0.99889150  0.50616588  1
  Mn  Mn6  1  0.99906505  0.49889150  0.50616588  1
  Mn  Mn7  1  0.50093495  0.99889150  0.99383412  1
  O  O8  1  0.21854793  0.21722005  0.04669167  1
  O  O9  1  0.28145207  0.71722005  0.45330833  1
  O  O10  1  0.79333565  0.79339912  0.53592202  1
  O  O11  1  0.70666435  0.29339912  0.96407798  1
  O  O12  1  0.79333565  0.79339912  0.96407798  1
  O  O13  1  0.70666435  0.29339912  0.53592202  1
  O  O14  1  0.21854793  0.21722005  0.45330833  1
  O  O15  1  0.28145207  0.71722005  0.04669167  1
  O  O16  1  0.57495986  0.01297715  0.25000000  1
  O  O17  1  0.92504014  0.51297715  0.25000000  1
  O  O18  1  0.41584175  0.97350000  0.75000000  1
  O  O19  1  0.08415825  0.47350000  0.75000000  1
