# generated using pymatgen
data_CaLaGa3S6O
_symmetry_space_group_name_H-M   'P 1'
_cell_length_a   6.08739704
_cell_length_b   9.37853672
_cell_length_c   9.38290822
_cell_angle_alpha   90.00000000
_cell_angle_beta   90.00000000
_cell_angle_gamma   90.09168167
_symmetry_Int_Tables_number   1
_chemical_formula_structural   CaLaGa3S6O
_chemical_formula_sum   'Ca2 La2 Ga6 S12 O2'
_cell_volume   535.67777071
_cell_formula_units_Z   2
loop_
 _symmetry_equiv_pos_site_id
 _symmetry_equiv_pos_as_xyz
  1  'x, y, z'
loop_
 _atom_site_type_symbol
 _atom_site_label
 _atom_site_symmetry_multiplicity
 _atom_site_fract_x
 _atom_site_fract_y
 _atom_site_fract_z
 _atom_site_occupancy
  Ca  Ca0  1  0.48554443  0.84657460  0.34824547  1
  Ca  Ca1  1  0.51445557  0.65342540  0.84824547  1
  La  La2  1  0.48654050  0.14870765  0.65075925  1
  La  La3  1  0.51345950  0.35129235  0.15075925  1
  Ga  Ga4  1  0.99995626  0.50314304  0.50042042  1
  Ga  Ga5  1  0.00004374  0.99685696  0.00042042  1
  Ga  Ga6  1  0.93053951  0.62844601  0.12616486  1
  Ga  Ga7  1  0.06946049  0.87155399  0.62616486  1
  Ga  Ga8  1  0.92868870  0.37488628  0.87260114  1
  Ga  Ga9  1  0.07131130  0.12511372  0.37260114  1
  S  S10  1  0.29461543  0.63269587  0.13401791  1
  S  S11  1  0.70538457  0.86730413  0.63401791  1
  S  S12  1  0.29348830  0.36452133  0.86539601  1
  S  S13  1  0.70651170  0.13547867  0.36539601  1
  S  S14  1  0.25046746  0.06811268  0.16710554  1
  S  S15  1  0.74953254  0.43188732  0.66710554  1
  S  S16  1  0.25078840  0.93258890  0.83262975  1
  S  S17  1  0.74921160  0.56741110  0.33262975  1
  S  S18  1  0.74872108  0.83216312  0.06781737  1
  S  S19  1  0.25127892  0.66783688  0.56781737  1
  S  S20  1  0.74991330  0.16670992  0.93235183  1
  S  S21  1  0.25008670  0.33329008  0.43235183  1
  O  O22  1  0.22320805  0.00289168  0.50249045  1
  O  O23  1  0.77679195  0.49710832  0.00249045  1
