# generated using pymatgen
data_BiSbS3
_symmetry_space_group_name_H-M   'P 1'
_cell_length_a   3.96888490
_cell_length_b   11.20558411
_cell_length_c   11.86769215
_cell_angle_alpha   90.00000000
_cell_angle_beta   90.00000000
_cell_angle_gamma   90.00000000
_symmetry_Int_Tables_number   1
_chemical_formula_structural   BiSbS3
_chemical_formula_sum   'Bi4 Sb4 S12'
_cell_volume   527.79986671
_cell_formula_units_Z   4
loop_
 _symmetry_equiv_pos_site_id
 _symmetry_equiv_pos_as_xyz
  1  'x, y, z'
loop_
 _atom_site_type_symbol
 _atom_site_label
 _atom_site_symmetry_multiplicity
 _atom_site_fract_x
 _atom_site_fract_y
 _atom_site_fract_z
 _atom_site_occupancy
  Bi  Bi0  1  0.25000000  0.16977059  0.51571643  1
  Bi  Bi1  1  0.25000000  0.33022941  0.01571643  1
  Bi  Bi2  1  0.75000000  0.83022941  0.48428357  1
  Bi  Bi3  1  0.75000000  0.66977059  0.98428357  1
  Sb  Sb4  1  0.75000000  0.46180744  0.64622165  1
  Sb  Sb5  1  0.75000000  0.03819256  0.14622165  1
  Sb  Sb6  1  0.25000000  0.53819256  0.35377835  1
  Sb  Sb7  1  0.25000000  0.96180744  0.85377835  1
  S  S8  1  0.25000000  0.62542809  0.54627686  1
  S  S9  1  0.25000000  0.87457191  0.04627686  1
  S  S10  1  0.75000000  0.37457191  0.45372314  1
  S  S11  1  0.75000000  0.12542809  0.95372314  1
  S  S12  1  0.75000000  0.05615205  0.62245532  1
  S  S13  1  0.75000000  0.44384795  0.12245532  1
  S  S14  1  0.25000000  0.94384795  0.37754468  1
  S  S15  1  0.25000000  0.55615205  0.87754468  1
  S  S16  1  0.25000000  0.31318250  0.70233431  1
  S  S17  1  0.25000000  0.18681750  0.20233431  1
  S  S18  1  0.75000000  0.68681750  0.29766569  1
  S  S19  1  0.75000000  0.81318250  0.79766569  1
