# generated using pymatgen
data_Ca10Ge6F
_symmetry_space_group_name_H-M   'P 1'
_cell_length_a   7.72550936
_cell_length_b   7.72550936
_cell_length_c   9.18390831
_cell_angle_alpha   65.12750268
_cell_angle_beta   65.12750268
_cell_angle_gamma   90.00000000
_symmetry_Int_Tables_number   1
_chemical_formula_structural   Ca10Ge6F
_chemical_formula_sum   'Ca10 Ge6 F1'
_cell_volume   440.61788491
_cell_formula_units_Z   1
loop_
 _symmetry_equiv_pos_site_id
 _symmetry_equiv_pos_as_xyz
  1  'x, y, z'
loop_
 _atom_site_type_symbol
 _atom_site_label
 _atom_site_symmetry_multiplicity
 _atom_site_fract_x
 _atom_site_fract_y
 _atom_site_fract_z
 _atom_site_occupancy
  Ca  Ca0  1  0.50000000  0.50000000  0.00000000  1
  Ca  Ca1  1  -0.00000000  -0.00000000  0.00000000  1
  Ca  Ca2  1  0.31504234  0.81504234  0.70273629  1
  Ca  Ca3  1  0.98222137  0.48222137  0.70273629  1
  Ca  Ca4  1  0.46728182  0.31745337  0.71526481  1
  Ca  Ca5  1  0.81745337  0.96728182  0.71526481  1
  Ca  Ca6  1  0.68254663  0.18254663  0.28473519  1
  Ca  Ca7  1  0.03271818  0.53271818  0.28473519  1
  Ca  Ca8  1  0.51777863  0.68495766  0.29726371  1
  Ca  Ca9  1  0.18495766  0.01777863  0.29726371  1
  Ge  Ge10  1  0.75000000  0.75000000  0.50000000  1
  Ge  Ge11  1  0.25000000  0.25000000  0.50000000  1
  Ge  Ge12  1  0.38343430  0.88343430  0.99611974  1
  Ge  Ge13  1  0.62044597  0.12044597  0.99611974  1
  Ge  Ge14  1  0.11656570  0.37955403  0.00388026  1
  Ge  Ge15  1  0.87955403  0.61656570  0.00388026  1
  F  F16  1  0.25000000  0.75000000  0.50000000  1
