# generated using pymatgen
data_Ca(LuTe2)2
_symmetry_space_group_name_H-M   'P 1'
_cell_length_a   4.35211524
_cell_length_b   7.72583889
_cell_length_c   7.42256064
_cell_angle_alpha   72.32165915
_cell_angle_beta   89.99999227
_cell_angle_gamma   89.99999959
_symmetry_Int_Tables_number   1
_chemical_formula_structural   Ca(LuTe2)2
_chemical_formula_sum   'Ca1 Lu2 Te4'
_cell_volume   237.78844890
_cell_formula_units_Z   1
loop_
 _symmetry_equiv_pos_site_id
 _symmetry_equiv_pos_as_xyz
  1  'x, y, z'
loop_
 _atom_site_type_symbol
 _atom_site_label
 _atom_site_symmetry_multiplicity
 _atom_site_fract_x
 _atom_site_fract_y
 _atom_site_fract_z
 _atom_site_occupancy
  Ca  Ca0  1  0.00000000  0.50000000  0.50000000  1
  Lu  Lu1  1  0.00000000  0.00000000  0.00000000  1
  Lu  Lu2  1  0.50000000  0.00000000  0.50000000  1
  Te  Te3  1  0.50000000  0.23971799  0.76222008  1
  Te  Te4  1  1.00000000  0.23378169  0.25500159  1
  Te  Te5  1  0.50000000  0.76028201  0.23777992  1
  Te  Te6  1  0.00000000  0.76621831  0.74499841  1
