# generated using pymatgen
data_Ca2Bi3Au10
_symmetry_space_group_name_H-M   'P 1'
_cell_length_a   5.69846202
_cell_length_b   5.69846202
_cell_length_c   23.73737088
_cell_angle_alpha   90.00000000
_cell_angle_beta   96.89391757
_cell_angle_gamma   120.00000000
_symmetry_Int_Tables_number   1
_chemical_formula_structural   Ca2Bi3Au10
_chemical_formula_sum   'Ca4 Bi6 Au20'
_cell_volume   661.09909729
_cell_formula_units_Z   2
loop_
 _symmetry_equiv_pos_site_id
 _symmetry_equiv_pos_as_xyz
  1  'x, y, z'
loop_
 _atom_site_type_symbol
 _atom_site_label
 _atom_site_symmetry_multiplicity
 _atom_site_fract_x
 _atom_site_fract_y
 _atom_site_fract_z
 _atom_site_occupancy
  Ca  Ca0  1  0.10026660  0.05013330  0.15039991  1
  Ca  Ca1  1  0.89978381  0.44989191  0.34967572  1
  Ca  Ca2  1  0.69942452  0.84971226  0.54913678  1
  Ca  Ca3  1  0.49889195  0.24944597  0.74833792  1
  Bi  Bi4  1  0.20293221  0.60146611  0.80439832  1
  Bi  Bi5  1  0.39938878  0.19969439  0.59908317  1
  Bi  Bi6  1  0.60046029  0.80023015  0.40069044  1
  Bi  Bi7  1  0.99794669  0.99897334  0.99692003  1
  Bi  Bi8  1  0.80019880  0.40009940  0.20029820  1
  Bi  Bi9  1  0.30073910  0.65036955  0.95110864  1
  Au  Au10  1  0.55067031  0.52535069  0.07602100  1
  Au  Au11  1  0.34935218  0.92558694  0.27493912  1
  Au  Au12  1  0.14959398  0.32539933  0.47499331  1
  Au  Au13  1  0.95088369  0.72495100  0.67583469  1
  Au  Au14  1  0.74809012  0.12549040  0.87358052  1
  Au  Au15  1  0.55067031  0.02531962  0.07602100  1
  Au  Au16  1  0.34935218  0.42376524  0.27493912  1
  Au  Au17  1  0.14959398  0.82419465  0.47499331  1
  Au  Au18  1  0.95088369  0.22593269  0.67583469  1
  Au  Au19  1  0.74809012  0.62259972  0.87358052  1
  Au  Au20  1  0.44999612  0.72499806  0.17499418  1
  Au  Au21  1  0.24963143  0.12481571  0.37444714  1
  Au  Au22  1  0.04971018  0.52485509  0.57456527  1
  Au  Au23  1  0.84967115  0.92483558  0.77450673  1
  Au  Au24  1  0.65022107  0.32511053  0.97533160  1
  Au  Au25  1  0.05070138  0.52535069  0.07602100  1
  Au  Au26  1  0.85117388  0.92558694  0.27493912  1
  Au  Au27  1  0.65079866  0.32539933  0.47499331  1
  Au  Au28  1  0.44990200  0.72495100  0.67583469  1
  Au  Au29  1  0.25098081  0.12549040  0.87358052  1
