# generated using pymatgen
data_CaLaGa3O7
_symmetry_space_group_name_H-M   'P 1'
_cell_length_a   5.31461445
_cell_length_b   8.02792093
_cell_length_c   8.02792093
_cell_angle_alpha   88.93665695
_cell_angle_beta   90.00000000
_cell_angle_gamma   90.00000000
_symmetry_Int_Tables_number   1
_chemical_formula_structural   CaLaGa3O7
_chemical_formula_sum   'Ca2 La2 Ga6 O14'
_cell_volume   342.45470723
_cell_formula_units_Z   2
loop_
 _symmetry_equiv_pos_site_id
 _symmetry_equiv_pos_as_xyz
  1  'x, y, z'
loop_
 _atom_site_type_symbol
 _atom_site_label
 _atom_site_symmetry_multiplicity
 _atom_site_fract_x
 _atom_site_fract_y
 _atom_site_fract_z
 _atom_site_occupancy
  Ca  Ca0  1  0.51441477  0.34019168  0.15980832  1
  Ca  Ca1  1  0.51441477  0.65980832  0.84019168  1
  La  La2  1  0.49258535  0.16447424  0.66447424  1
  La  La3  1  0.49258535  0.83552576  0.33552576  1
  Ga  Ga4  1  0.99490878  0.50000000  0.50000000  1
  Ga  Ga5  1  0.99490878  0.00000000  -0.00000000  1
  Ga  Ga6  1  0.96607411  0.14790116  0.35209884  1
  Ga  Ga7  1  0.03563568  0.35918700  0.85918700  1
  Ga  Ga8  1  0.96607411  0.85209884  0.64790116  1
  Ga  Ga9  1  0.03563568  0.64081300  0.14081300  1
  O  O10  1  0.78700796  0.33882824  0.41139580  1
  O  O11  1  0.20841576  0.15938467  0.90771150  1
  O  O12  1  0.78700796  0.66117176  0.58860420  1
  O  O13  1  0.20841576  0.84061533  0.09228850  1
  O  O14  1  0.20841576  0.59228850  0.34061533  1
  O  O15  1  0.78700796  0.91139580  0.83882824  1
  O  O16  1  0.20841576  0.40771150  0.65938467  1
  O  O17  1  0.78700796  0.08860420  0.16117176  1
  O  O18  1  0.20394828  0.50000000  -0.00000000  1
  O  O19  1  0.80283371  0.00000000  0.50000000  1
  O  O20  1  0.30799247  0.13806574  0.36193426  1
  O  O21  1  0.69415039  0.35715951  0.85715951  1
  O  O22  1  0.30799247  0.86193426  0.63806574  1
  O  O23  1  0.69415039  0.64284049  0.14284049  1
