# generated using pymatgen
data_Ba5Ga6
_symmetry_space_group_name_H-M   'P 1'
_cell_length_a   7.84506174
_cell_length_b   7.84508485
_cell_length_c   14.62541964
_cell_angle_alpha   90.00000000
_cell_angle_beta   90.00000000
_cell_angle_gamma   120.00004298
_symmetry_Int_Tables_number   1
_chemical_formula_structural   Ba5Ga6
_chemical_formula_sum   'Ba10 Ga12'
_cell_volume   779.52992292
_cell_formula_units_Z   2
loop_
 _symmetry_equiv_pos_site_id
 _symmetry_equiv_pos_as_xyz
  1  'x, y, z'
loop_
 _atom_site_type_symbol
 _atom_site_label
 _atom_site_symmetry_multiplicity
 _atom_site_fract_x
 _atom_site_fract_y
 _atom_site_fract_z
 _atom_site_occupancy
  Ba  Ba0  1  0.68126091  0.66315260  0.25000000  1
  Ba  Ba1  1  0.98189568  0.31873979  0.25000000  1
  Ba  Ba2  1  0.33685157  0.01810929  0.25000000  1
  Ba  Ba3  1  0.97863975  0.66816282  0.75000000  1
  Ba  Ba4  1  0.33182692  0.31047294  0.75000000  1
  Ba  Ba5  1  0.68952432  0.02135622  0.75000000  1
  Ba  Ba6  1  0.00001200  0.99999252  0.99794095  1
  Ba  Ba7  1  0.00001200  0.99999252  0.50205905  1
  Ba  Ba8  1  0.66666181  0.33333587  0.99841272  1
  Ba  Ba9  1  0.66666181  0.33333587  0.50158728  1
  Ga  Ga10  1  0.53375270  0.86942232  0.07740741  1
  Ga  Ga11  1  0.33568228  0.46624080  0.07741035  1
  Ga  Ga12  1  0.13057142  0.66431535  0.07740797  1
  Ga  Ga13  1  0.53375270  0.86942232  0.42259259  1
  Ga  Ga14  1  0.33568228  0.46624080  0.42258965  1
  Ga  Ga15  1  0.13057142  0.66431535  0.42259203  1
  Ga  Ga16  1  0.32867845  0.86533149  0.57813775  1
  Ga  Ga17  1  0.13467270  0.46333587  0.57813485  1
  Ga  Ga18  1  0.53666907  0.67132895  0.57813870  1
  Ga  Ga19  1  0.32867845  0.86533149  0.92186225  1
  Ga  Ga20  1  0.13467270  0.46333587  0.92186515  1
  Ga  Ga21  1  0.53666907  0.67132895  0.92186130  1
