# generated using pymatgen
data_Ca4Mg3Fe(SiO3)8
_symmetry_space_group_name_H-M   'P 1'
_cell_length_a   5.32235358
_cell_length_b   6.71163959
_cell_length_c   13.39840113
_cell_angle_alpha   89.59903793
_cell_angle_beta   101.16382640
_cell_angle_gamma   78.27225005
_symmetry_Int_Tables_number   1
_chemical_formula_structural   Ca4Mg3Fe(SiO3)8
_chemical_formula_sum   'Ca4 Mg3 Fe1 Si8 O24'
_cell_volume   459.21956922
_cell_formula_units_Z   1
loop_
 _symmetry_equiv_pos_site_id
 _symmetry_equiv_pos_as_xyz
  1  'x, y, z'
loop_
 _atom_site_type_symbol
 _atom_site_label
 _atom_site_symmetry_multiplicity
 _atom_site_fract_x
 _atom_site_fract_y
 _atom_site_fract_z
 _atom_site_occupancy
  Ca  Ca0  1  0.89959018  0.70097622  0.14935379  1
  Ca  Ca1  1  0.39986488  0.70023170  0.65009843  1
  Ca  Ca2  1  0.60143570  0.29739814  0.35119007  1
  Ca  Ca3  1  0.10029173  0.29915108  0.85045303  1
  Mg  Mg4  1  0.70353674  0.09271636  0.95349756  1
  Mg  Mg5  1  0.29639155  0.90709317  0.04618456  1
  Mg  Mg6  1  0.79588416  0.90808942  0.54624772  1
  Fe  Fe7  1  0.20365738  0.09326193  0.45361709  1
  Si  Si8  1  0.13282314  0.62152130  0.40264575  1
  Si  Si9  1  0.63385331  0.62030993  0.90326996  1
  Si  Si10  1  0.95866897  0.19435102  0.18854146  1
  Si  Si11  1  0.45969911  0.19360611  0.69052895  1
  Si  Si12  1  0.36619036  0.37993004  0.09653963  1
  Si  Si13  1  0.86503534  0.38126989  0.59752208  1
  Si  Si14  1  0.54146068  0.80540732  0.30921651  1
  Si  Si15  1  0.04068355  0.80663144  0.81011323  1
  O  O16  1  0.83096005  0.63206060  0.33280940  1
  O  O17  1  0.33055339  0.63323673  0.83351344  1
  O  O18  1  0.18642150  0.33336813  0.18323812  1
  O  O19  1  0.68576161  0.33401136  0.68411780  1
  O  O20  1  0.66920954  0.36740899  0.16616686  1
  O  O21  1  0.16949466  0.36663708  0.66643644  1
  O  O22  1  0.31291861  0.66800922  0.31633767  1
  O  O23  1  0.81384498  0.66691450  0.81668122  1
  O  O24  1  0.26450071  0.39107314  0.44249312  1
  O  O25  1  0.76307934  0.38886524  0.94265852  1
  O  O26  1  0.98254659  0.11451612  0.30377764  1
  O  O27  1  0.48496993  0.11537197  0.80615206  1
  O  O28  1  0.23675386  0.61136355  0.05739510  1
  O  O29  1  0.73659885  0.61227119  0.55764685  1
  O  O30  1  0.51462143  0.88468487  0.19368423  1
  O  O31  1  0.01514161  0.88515232  0.69441400  1
  O  O32  1  0.12807519  0.79301631  0.48730459  1
  O  O33  1  0.62801880  0.79630682  0.98579101  1
  O  O34  1  0.95949444  0.02837441  0.10119173  1
  O  O35  1  0.46293665  0.02549201  0.60415123  1
  O  O36  1  0.37199673  0.20361174  0.01423012  1
  O  O37  1  0.86355495  0.20546288  0.51525971  1
  O  O38  1  0.54909109  0.96929120  0.39735547  1
  O  O39  1  0.04038871  0.97155458  0.89817381  1
