# generated using pymatgen
data_BaU2V2O12
_symmetry_space_group_name_H-M   'P 1'
_cell_length_a   6.73380546
_cell_length_b   8.46560694
_cell_length_c   10.57344098
_cell_angle_alpha   90.00000000
_cell_angle_beta   104.03243883
_cell_angle_gamma   90.00000000
_symmetry_Int_Tables_number   1
_chemical_formula_structural   BaU2V2O12
_chemical_formula_sum   'Ba2 U4 V4 O24'
_cell_volume   584.76012545
_cell_formula_units_Z   2
loop_
 _symmetry_equiv_pos_site_id
 _symmetry_equiv_pos_as_xyz
  1  'x, y, z'
loop_
 _atom_site_type_symbol
 _atom_site_label
 _atom_site_symmetry_multiplicity
 _atom_site_fract_x
 _atom_site_fract_y
 _atom_site_fract_z
 _atom_site_occupancy
  Ba  Ba0  1  0.53190573  0.27656960  0.84486832  1
  Ba  Ba1  1  0.53190573  0.22343040  0.34486832  1
  U  U2  1  0.98250125  0.48146144  0.67923693  1
  U  U3  1  0.01537700  0.97684637  0.82148414  1
  U  U4  1  0.01537700  0.52315363  0.32148414  1
  U  U5  1  0.98250125  0.01853856  0.17923693  1
  V  V6  1  0.11612529  0.14878976  0.55444213  1
  V  V7  1  0.88255235  0.64540589  0.94707608  1
  V  V8  1  0.88255235  0.85459411  0.44707608  1
  V  V9  1  0.11612529  0.35121024  0.05444213  1
  O  O10  1  0.25916299  0.51452987  0.73672845  1
  O  O11  1  0.74487159  0.03658002  0.76910050  1
  O  O12  1  0.74487159  0.46341998  0.26910050  1
  O  O13  1  0.25916299  0.98547013  0.23672845  1
  O  O14  1  0.94787463  0.06802037  0.39138657  1
  O  O15  1  0.04031835  0.55493107  0.10584092  1
  O  O16  1  0.04031835  0.94506893  0.60584092  1
  O  O17  1  0.94787463  0.43197963  0.89138657  1
  O  O18  1  0.71250304  0.41656638  0.62787190  1
  O  O19  1  0.29076242  0.94974387  0.87454417  1
  O  O20  1  0.29076242  0.55025613  0.37454417  1
  O  O21  1  0.71250304  0.08343362  0.12787190  1
  O  O22  1  0.36212090  0.14846489  0.55457768  1
  O  O23  1  0.64079117  0.61859817  0.93951326  1
  O  O24  1  0.64079117  0.88140183  0.43951326  1
  O  O25  1  0.36212090  0.35153511  0.05457768  1
  O  O26  1  0.10438568  0.21118961  0.71996079  1
  O  O27  1  0.92259253  0.70764463  0.78637033  1
  O  O28  1  0.92259253  0.79235537  0.28637033  1
  O  O29  1  0.10438568  0.28881039  0.21996079  1
  O  O30  1  0.02385766  0.34416636  0.49461035  1
  O  O31  1  0.95629743  0.84715410  0.00548748  1
  O  O32  1  0.95629743  0.65284590  0.50548748  1
  O  O33  1  0.02385766  0.15583364  0.99461035  1
