# generated using pymatgen
data_Ca2Tl2O5
_symmetry_space_group_name_H-M   'P 1'
_cell_length_a   3.40180310
_cell_length_b   5.91683248
_cell_length_c   13.68466537
_cell_angle_alpha   90.00000000
_cell_angle_beta   90.00000000
_cell_angle_gamma   73.29355488
_symmetry_Int_Tables_number   1
_chemical_formula_structural   Ca2Tl2O5
_chemical_formula_sum   'Ca4 Tl4 O10'
_cell_volume   263.81713571
_cell_formula_units_Z   2
loop_
 _symmetry_equiv_pos_site_id
 _symmetry_equiv_pos_as_xyz
  1  'x, y, z'
loop_
 _atom_site_type_symbol
 _atom_site_label
 _atom_site_symmetry_multiplicity
 _atom_site_fract_x
 _atom_site_fract_y
 _atom_site_fract_z
 _atom_site_occupancy
  Ca  Ca0  1  0.97062402  0.05875195  0.25801679  1
  Ca  Ca1  1  0.02937598  0.94124805  0.75801679  1
  Ca  Ca2  1  0.22266193  0.55467615  0.11224292  1
  Ca  Ca3  1  0.77733807  0.44532385  0.61224292  1
  Tl  Tl4  1  0.49450679  0.01098643  0.00335725  1
  Tl  Tl5  1  0.50549321  0.98901357  0.50335725  1
  Tl  Tl6  1  0.76588797  0.46822405  0.88602118  1
  Tl  Tl7  1  0.23411203  0.53177595  0.38602118  1
  O  O8  1  0.33063037  0.33873925  0.25127131  1
  O  O9  1  0.66936963  0.66126075  0.75127131  1
  O  O10  1  0.58612571  0.82774858  0.35757245  1
  O  O11  1  0.42228788  0.15542424  0.64583765  1
  O  O12  1  0.57771212  0.84457576  0.14583765  1
  O  O13  1  0.41387429  0.17225142  0.85757245  1
  O  O14  1  0.86673678  0.26652644  0.44684093  1
  O  O15  1  0.15349564  0.69300873  0.53883954  1
  O  O16  1  0.84650436  0.30699127  0.03883954  1
  O  O17  1  0.13326322  0.73347356  0.94684093  1
