# generated using pymatgen
data_Ba3P4O13
_symmetry_space_group_name_H-M   'P 1'
_cell_length_a   5.77714849
_cell_length_b   7.36389354
_cell_length_c   8.20382389
_cell_angle_alpha   82.56684625
_cell_angle_beta   75.75957222
_cell_angle_gamma   70.30242013
_symmetry_Int_Tables_number   1
_chemical_formula_structural   Ba3P4O13
_chemical_formula_sum   'Ba3 P4 O13'
_cell_volume   318.07741983
_cell_formula_units_Z   1
loop_
 _symmetry_equiv_pos_site_id
 _symmetry_equiv_pos_as_xyz
  1  'x, y, z'
loop_
 _atom_site_type_symbol
 _atom_site_label
 _atom_site_symmetry_multiplicity
 _atom_site_fract_x
 _atom_site_fract_y
 _atom_site_fract_z
 _atom_site_occupancy
  Ba  Ba0  1  0.35502266  0.41004043  0.77273861  1
  Ba  Ba1  1  0.65097060  0.58128692  0.22688459  1
  Ba  Ba2  1  0.99915369  0.00208373  0.99837088  1
  P  P3  1  0.00714957  0.78480389  0.47028635  1
  P  P4  1  0.00144465  0.19856070  0.53350361  1
  P  P5  1  0.66687000  0.80627120  0.80889036  1
  P  P6  1  0.33182149  0.19195059  0.19204140  1
  O  O7  1  0.89201503  0.70157270  0.89257301  1
  O  O8  1  0.10839248  0.29855597  0.10655279  1
  O  O9  1  0.58645148  0.02450826  0.81621862  1
  O  O10  1  0.41285038  0.97387974  0.18355770  1
  O  O11  1  0.76563503  0.75956519  0.60570933  1
  O  O12  1  0.23104467  0.23667965  0.39480887  1
  O  O13  1  0.45367992  0.71758913  0.87034056  1
  O  O14  1  0.54302341  0.28276895  0.13107537  1
  O  O15  1  0.24238365  0.62291628  0.49278367  1
  O  O16  1  0.04755324  0.97271045  0.52228431  1
  O  O17  1  0.75180142  0.31858547  0.49270923  1
  O  O18  1  0.94278177  0.80666724  0.30025411  1
  O  O19  1  0.04045485  0.22470351  0.70311665  1
