# generated using pymatgen
data_Ba4SiGeS8
_symmetry_space_group_name_H-M   'P 1'
_cell_length_a   6.86025021
_cell_length_b   9.06367201
_cell_length_c   12.46545238
_cell_angle_alpha   90.00000000
_cell_angle_beta   90.00000000
_cell_angle_gamma   90.00000000
_symmetry_Int_Tables_number   1
_chemical_formula_structural   Ba4SiGeS8
_chemical_formula_sum   'Ba8 Si2 Ge2 S16'
_cell_volume   775.09008416
_cell_formula_units_Z   2
loop_
 _symmetry_equiv_pos_site_id
 _symmetry_equiv_pos_as_xyz
  1  'x, y, z'
loop_
 _atom_site_type_symbol
 _atom_site_label
 _atom_site_symmetry_multiplicity
 _atom_site_fract_x
 _atom_site_fract_y
 _atom_site_fract_z
 _atom_site_occupancy
  Ba  Ba0  1  0.75000000  0.37245666  0.42247151  1
  Ba  Ba1  1  0.75000000  0.87245666  0.07752849  1
  Ba  Ba2  1  0.25000000  0.62894440  0.58309988  1
  Ba  Ba3  1  0.25000000  0.12894440  0.91690012  1
  Ba  Ba4  1  0.75000000  0.01944821  0.66948700  1
  Ba  Ba5  1  0.75000000  0.51944821  0.83051300  1
  Ba  Ba6  1  0.25000000  0.98103516  0.33188535  1
  Ba  Ba7  1  0.25000000  0.48103516  0.16811465  1
  Si  Si8  1  0.25000000  0.73126123  0.92543998  1
  Si  Si9  1  0.25000000  0.23126123  0.57456002  1
  Ge  Ge10  1  0.75000000  0.27014625  0.07583655  1
  Ge  Ge11  1  0.75000000  0.77014625  0.42416345  1
  S  S12  1  0.50442153  0.32411528  0.64401084  1
  S  S13  1  0.99557847  0.82411528  0.85598916  1
  S  S14  1  0.01581810  0.67095242  0.35612629  1
  S  S15  1  0.48418190  0.17095242  0.14387371  1
  S  S16  1  0.48418190  0.67095242  0.35612629  1
  S  S17  1  0.01581810  0.17095242  0.14387371  1
  S  S18  1  0.99557847  0.32411528  0.64401084  1
  S  S19  1  0.50442153  0.82411528  0.85598916  1
  S  S20  1  0.75000000  0.19026238  0.90572141  1
  S  S21  1  0.75000000  0.69026238  0.59427859  1
  S  S22  1  0.25000000  0.80602206  0.08825238  1
  S  S23  1  0.25000000  0.30602206  0.41174762  1
  S  S24  1  0.75000000  0.01294967  0.40229014  1
  S  S25  1  0.75000000  0.51294967  0.09770986  1
  S  S26  1  0.25000000  0.99733858  0.59547054  1
  S  S27  1  0.25000000  0.49733858  0.90452946  1
