# generated using pymatgen
data_Ba3SrMg2(Si2O7)2
_symmetry_space_group_name_H-M   'P 1'
_cell_length_a   5.41676694
_cell_length_b   8.26324655
_cell_length_c   8.26315821
_cell_angle_alpha   89.09743720
_cell_angle_beta   90.34394900
_cell_angle_gamma   89.65570791
_symmetry_Int_Tables_number   1
_chemical_formula_structural   Ba3SrMg2(Si2O7)2
_chemical_formula_sum   'Ba3 Sr1 Mg2 Si4 O14'
_cell_volume   369.80018566
_cell_formula_units_Z   1
loop_
 _symmetry_equiv_pos_site_id
 _symmetry_equiv_pos_as_xyz
  1  'x, y, z'
loop_
 _atom_site_type_symbol
 _atom_site_label
 _atom_site_symmetry_multiplicity
 _atom_site_fract_x
 _atom_site_fract_y
 _atom_site_fract_z
 _atom_site_occupancy
  Ba  Ba0  1  0.49010204  0.16648558  0.66569904  1
  Ba  Ba1  1  0.51176708  0.66257261  0.83741165  1
  Ba  Ba2  1  0.49010574  0.83432138  0.33349847  1
  Sr  Sr3  1  0.50901370  0.33164826  0.16839641  1
  Mg  Mg4  1  0.99708145  0.49922686  0.49771505  1
  Mg  Mg5  1  0.99705897  0.00228731  0.00077255  1
  Si  Si6  1  0.94974156  0.14375309  0.35625603  1
  Si  Si7  1  0.04833922  0.36124926  0.86903248  1
  Si  Si8  1  0.95541317  0.86403839  0.63595121  1
  Si  Si9  1  0.04834195  0.63096956  0.13874263  1
  O  O10  1  0.15454466  0.49478565  0.00521034  1
  O  O11  1  0.86266255  0.00371319  0.49628967  1
  O  O12  1  0.25000277  0.15069066  0.34932894  1
  O  O13  1  0.74800228  0.35880324  0.87062397  1
  O  O14  1  0.25483102  0.86047333  0.63951487  1
  O  O15  1  0.74800175  0.62937257  0.14119528  1
  O  O16  1  0.80999357  0.31102970  0.41384965  1
  O  O17  1  0.18793138  0.19261991  0.92771633  1
  O  O18  1  0.82238519  0.69542003  0.57718890  1
  O  O19  1  0.17217452  0.80371267  0.07839692  1
  O  O20  1  0.18794873  0.57229082  0.30737135  1
  O  O21  1  0.82237763  0.92278728  0.80457727  1
  O  O22  1  0.17218749  0.42158690  0.69628550  1
  O  O23  1  0.80999159  0.08616180  0.18897548  1
