# generated using pymatgen
data_AlIn(AgS2)2
_symmetry_space_group_name_H-M   'P 1'
_cell_length_a   5.84335523
_cell_length_b   5.84335523
_cell_length_c   6.87686088
_cell_angle_alpha   64.85843243
_cell_angle_beta   64.85843252
_cell_angle_gamma   90.00000000
_symmetry_Int_Tables_number   1
_chemical_formula_structural   AlIn(AgS2)2
_chemical_formula_sum   'Al1 In1 Ag2 S4'
_cell_volume   187.69957748
_cell_formula_units_Z   1
loop_
 _symmetry_equiv_pos_site_id
 _symmetry_equiv_pos_as_xyz
  1  'x, y, z'
loop_
 _atom_site_type_symbol
 _atom_site_label
 _atom_site_symmetry_multiplicity
 _atom_site_fract_x
 _atom_site_fract_y
 _atom_site_fract_z
 _atom_site_occupancy
  Al  Al0  1  0.75000000  0.25000000  0.50000000  1
  In  In1  1  0.00000000  0.00000000  -0.00000000  1
  Ag  Ag2  1  0.25000000  0.75000000  0.50000000  1
  Ag  Ag3  1  0.50000000  0.50000000  -0.00000000  1
  S  S4  1  0.40020192  0.91008225  0.73398998  1
  S  S5  1  0.86580810  0.35592776  0.73398998  1
  S  S6  1  0.08991775  0.13419190  0.26601002  1
  S  S7  1  0.64407224  0.59979808  0.26601002  1
