# generated using pymatgen
data_Ba2PrIrO6
_symmetry_space_group_name_H-M   'P 1'
_cell_length_a   6.09166974
_cell_length_b   6.10594700
_cell_length_c   8.61592075
_cell_angle_alpha   90.05339230
_cell_angle_beta   90.00000000
_cell_angle_gamma   90.00000000
_symmetry_Int_Tables_number   1
_chemical_formula_structural   Ba2PrIrO6
_chemical_formula_sum   'Ba4 Pr2 Ir2 O12'
_cell_volume   320.47258786
_cell_formula_units_Z   2
loop_
 _symmetry_equiv_pos_site_id
 _symmetry_equiv_pos_as_xyz
  1  'x, y, z'
loop_
 _atom_site_type_symbol
 _atom_site_label
 _atom_site_symmetry_multiplicity
 _atom_site_fract_x
 _atom_site_fract_y
 _atom_site_fract_z
 _atom_site_occupancy
  Ba  Ba0  1  0.48758730  0.50056053  0.74943189  1
  Ba  Ba1  1  0.98758730  0.99943947  0.75056811  1
  Ba  Ba2  1  0.51241270  0.49943947  0.25056811  1
  Ba  Ba3  1  0.01241270  0.00056053  0.24943189  1
  Pr  Pr4  1  0.50000000  0.00000000  0.00000000  1
  Pr  Pr5  1  0.00000000  0.50000000  0.50000000  1
  Ir  Ir6  1  0.50000000  0.00000000  0.50000000  1
  Ir  Ir7  1  0.00000000  0.50000000  0.00000000  1
  O  O8  1  0.00427304  0.45795976  0.77082530  1
  O  O9  1  0.50427304  0.04204024  0.72917470  1
  O  O10  1  0.99572696  0.54204024  0.22917470  1
  O  O11  1  0.49572696  0.95795976  0.27082530  1
  O  O12  1  0.21142785  0.74842347  0.97875023  1
  O  O13  1  0.71142785  0.75157653  0.52124977  1
  O  O14  1  0.74875809  0.21071869  0.47739208  1
  O  O15  1  0.24875809  0.28928131  0.02260792  1
  O  O16  1  0.78857215  0.25157653  0.02124977  1
  O  O17  1  0.28857215  0.24842347  0.47875023  1
  O  O18  1  0.25124191  0.78928131  0.52260792  1
  O  O19  1  0.75124191  0.71071869  0.97739208  1
