# generated using pymatgen
data_Ba10IBr4N5
_symmetry_space_group_name_H-M   'P 1'
_cell_length_a   7.28436319
_cell_length_b   8.43994848
_cell_length_c   11.12683294
_cell_angle_alpha   106.40705752
_cell_angle_beta   109.10392015
_cell_angle_gamma   81.73702262
_symmetry_Int_Tables_number   1
_chemical_formula_structural   Ba10IBr4N5
_chemical_formula_sum   'Ba10 I1 Br4 N5'
_cell_volume   619.08478897
_cell_formula_units_Z   1
loop_
 _symmetry_equiv_pos_site_id
 _symmetry_equiv_pos_as_xyz
  1  'x, y, z'
loop_
 _atom_site_type_symbol
 _atom_site_label
 _atom_site_symmetry_multiplicity
 _atom_site_fract_x
 _atom_site_fract_y
 _atom_site_fract_z
 _atom_site_occupancy
  Ba  Ba0  1  0.75100648  0.68145650  0.73350963  1
  Ba  Ba1  1  0.35921430  0.68206435  0.93611903  1
  Ba  Ba2  1  0.55430504  0.68605922  0.33722814  1
  Ba  Ba3  1  0.15392915  0.68557015  0.53758808  1
  Ba  Ba4  1  0.95384866  0.68065825  0.13870067  1
  Ba  Ba5  1  0.44569496  0.31394078  0.66277186  1
  Ba  Ba6  1  0.04615134  0.31934175  0.86129933  1
  Ba  Ba7  1  0.24899352  0.31854350  0.26649037  1
  Ba  Ba8  1  0.84607085  0.31442985  0.46241192  1
  Ba  Ba9  1  0.64078570  0.31793565  0.06388097  1
  I  I10  1  0.00000000  0.00000000  0.00000000  1
  Br  Br11  1  0.60007851  0.00000680  0.20024114  1
  Br  Br12  1  0.20019658  0.00004092  0.40038602  1
  Br  Br13  1  0.79980342  0.99995908  0.59961398  1
  Br  Br14  1  0.39992149  0.99999320  0.79975886  1
  N  N15  1  0.10046947  0.49990244  0.69915971  1
  N  N16  1  0.69967154  0.49940103  0.89947674  1
  N  N17  1  0.89953053  0.50009756  0.30084029  1
  N  N18  1  0.50000000  0.50000000  0.50000000  1
  N  N19  1  0.30032846  0.50059897  0.10052326  1
