# generated using pymatgen
data_Ba2FeCoClF7
_symmetry_space_group_name_H-M   'P 1'
_cell_length_a   5.95809143
_cell_length_b   7.82624260
_cell_length_c   9.07469874
_cell_angle_alpha   106.75367432
_cell_angle_beta   90.00000000
_cell_angle_gamma   90.00000000
_symmetry_Int_Tables_number   1
_chemical_formula_structural   Ba2FeCoClF7
_chemical_formula_sum   'Ba4 Fe2 Co2 Cl2 F14'
_cell_volume   405.18695203
_cell_formula_units_Z   2
loop_
 _symmetry_equiv_pos_site_id
 _symmetry_equiv_pos_as_xyz
  1  'x, y, z'
loop_
 _atom_site_type_symbol
 _atom_site_label
 _atom_site_symmetry_multiplicity
 _atom_site_fract_x
 _atom_site_fract_y
 _atom_site_fract_z
 _atom_site_occupancy
  Ba  Ba0  1  0.75000000  0.66494517  0.41041747  1
  Ba  Ba1  1  0.25000000  0.33505483  0.58958253  1
  Ba  Ba2  1  0.75000000  0.69495633  0.92827884  1
  Ba  Ba3  1  0.25000000  0.30504367  0.07172116  1
  Fe  Fe4  1  0.75000000  0.17044106  0.26762241  1
  Fe  Fe5  1  0.25000000  0.82955894  0.73237759  1
  Co  Co6  1  0.75000000  0.18671067  0.82718129  1
  Co  Co7  1  0.25000000  0.81328933  0.17281871  1
  Cl  Cl8  1  0.75000000  0.11770270  0.53593837  1
  Cl  Cl9  1  0.25000000  0.88229730  0.46406163  1
  F  F10  1  0.75000000  0.25600050  0.06520615  1
  F  F11  1  0.25000000  0.74399950  0.93479385  1
  F  F12  1  0.50132868  0.98889654  0.17079451  1
  F  F13  1  0.00132868  0.01110346  0.82920549  1
  F  F14  1  0.49867132  0.01110346  0.82920549  1
  F  F15  1  0.99867132  0.98889654  0.17079451  1
  F  F16  1  0.50746696  0.37404045  0.84052429  1
  F  F17  1  0.00746696  0.62595955  0.15947571  1
  F  F18  1  0.49253304  0.62595955  0.15947571  1
  F  F19  1  0.99253304  0.37404045  0.84052429  1
  F  F20  1  0.49837834  0.35811010  0.34527058  1
  F  F21  1  -0.00162166  0.64188990  0.65472942  1
  F  F22  1  0.50162166  0.64188990  0.65472942  1
  F  F23  1  0.00162166  0.35811010  0.34527058  1
