# generated using pymatgen
data_Ba8Si43Ni3
_symmetry_space_group_name_H-M   'P 1'
_cell_length_a   10.38163586
_cell_length_b   10.38163586
_cell_length_c   10.38163586
_cell_angle_alpha   89.98833410
_cell_angle_beta   90.01166590
_cell_angle_gamma   90.01166590
_symmetry_Int_Tables_number   1
_chemical_formula_structural   Ba8Si43Ni3
_chemical_formula_sum   'Ba8 Si43 Ni3'
_cell_volume   1118.91564925
_cell_formula_units_Z   1
loop_
 _symmetry_equiv_pos_site_id
 _symmetry_equiv_pos_as_xyz
  1  'x, y, z'
loop_
 _atom_site_type_symbol
 _atom_site_label
 _atom_site_symmetry_multiplicity
 _atom_site_fract_x
 _atom_site_fract_y
 _atom_site_fract_z
 _atom_site_occupancy
  Ba  Ba0  1  0.49601763  0.50398237  0.50398237  1
  Ba  Ba1  1  0.00398237  0.99601763  0.99601763  1
  Ba  Ba2  1  0.49083048  0.75000000  0.99083048  1
  Ba  Ba3  1  0.25000000  0.99083048  0.50916952  1
  Ba  Ba4  1  0.00916952  0.50916952  0.75000000  1
  Ba  Ba5  1  0.49036981  0.25000000  0.99036981  1
  Ba  Ba6  1  0.75000000  0.99036981  0.50963019  1
  Ba  Ba7  1  0.00963019  0.50963019  0.25000000  1
  Si  Si8  1  0.31577309  0.68422691  0.68422691  1
  Si  Si9  1  0.68438603  0.31561397  0.31561397  1
  Si  Si10  1  0.68432543  0.31394830  0.68328014  1
  Si  Si11  1  0.31591886  0.68359599  0.31432749  1
  Si  Si12  1  0.68605170  0.68328014  0.31567457  1
  Si  Si13  1  0.31640401  0.31432749  0.68408114  1
  Si  Si14  1  0.31671986  0.31567457  0.31394830  1
  Si  Si15  1  0.68567251  0.68408114  0.68359599  1
  Si  Si16  1  0.18359599  0.81591886  0.18567251  1
  Si  Si17  1  0.81394830  0.18432543  0.81671986  1
  Si  Si18  1  0.81561397  0.18438603  0.18438603  1
  Si  Si19  1  0.18422691  0.81577309  0.81577309  1
  Si  Si20  1  0.18408114  0.18567251  0.81640401  1
  Si  Si21  1  0.81567457  0.81671986  0.18605170  1
  Si  Si22  1  0.81432749  0.81640401  0.81591886  1
  Si  Si23  1  0.18328014  0.18605170  0.18432543  1
  Si  Si24  1  0.36876904  0.49979722  0.81771034  1
  Si  Si25  1  0.50020278  0.81771034  0.63123096  1
  Si  Si26  1  0.18228966  0.63123096  0.49979722  1
  Si  Si27  1  0.61337010  0.50005385  0.19327662  1
  Si  Si28  1  0.49994615  0.19327662  0.38662990  1
  Si  Si29  1  0.80672338  0.38662990  0.50005385  1
  Si  Si30  1  0.61611055  0.49980827  0.80578217  1
  Si  Si31  1  0.49998043  0.18079331  0.62838462  1
  Si  Si32  1  0.37161538  0.50001957  0.18079331  1
  Si  Si33  1  0.50019173  0.80578217  0.38388945  1
  Si  Si34  1  0.81920669  0.62838462  0.50001957  1
  Si  Si35  1  0.19421783  0.38388945  0.49980827  1
  Si  Si36  1  0.00001957  0.87161538  0.31920669  1
  Si  Si37  1  0.30578217  0.00019173  0.11611055  1
  Si  Si38  1  0.13123096  0.68228966  0.00020278  1
  Si  Si39  1  -0.00019173  0.11611055  0.69421783  1
  Si  Si40  1  0.68079331  -0.00001957  0.87161538  1
  Si  Si41  1  0.88662990  0.30672338  0.99994615  1
  Si  Si42  1  0.00005385  0.11337010  0.30672338  1
  Si  Si43  1  0.69327662  0.99994615  0.11337010  1
  Si  Si44  1  0.99979722  0.86876904  0.68228966  1
  Si  Si45  1  0.31771034  0.00020278  0.86876904  1
  Si  Si46  1  0.12838462  0.31920669  -0.00001957  1
  Si  Si47  1  0.88388945  0.69421783  0.00019173  1
  Si  Si48  1  0.00009088  0.25000000  0.50009088  1
  Si  Si49  1  0.75000000  0.50009088  0.99990912  1
  Si  Si50  1  0.49990912  0.99990912  0.25000000  1
  Ni  Ni51  1  0.00026012  0.75000000  0.50026012  1
  Ni  Ni52  1  0.25000000  0.50026012  -0.00026012  1
  Ni  Ni53  1  0.49973988  -0.00026012  0.75000000  1
