# generated using pymatgen
data_AlIn(AgSe2)2
_symmetry_space_group_name_H-M   'P 1'
_cell_length_a   6.11842680
_cell_length_b   6.11842680
_cell_length_c   7.23776011
_cell_angle_alpha   64.99647673
_cell_angle_beta   64.99647682
_cell_angle_gamma   90.00000000
_symmetry_Int_Tables_number   1
_chemical_formula_structural   AlIn(AgSe2)2
_chemical_formula_sum   'Al1 In1 Ag2 Se4'
_cell_volume   217.21291282
_cell_formula_units_Z   1
loop_
 _symmetry_equiv_pos_site_id
 _symmetry_equiv_pos_as_xyz
  1  'x, y, z'
loop_
 _atom_site_type_symbol
 _atom_site_label
 _atom_site_symmetry_multiplicity
 _atom_site_fract_x
 _atom_site_fract_y
 _atom_site_fract_z
 _atom_site_occupancy
  Al  Al0  1  0.75000000  0.25000000  0.50000000  1
  In  In1  1  0.00000000  0.00000000  -0.00000000  1
  Ag  Ag2  1  0.25000000  0.75000000  0.50000000  1
  Ag  Ag3  1  0.50000000  0.50000000  -0.00000000  1
  Se  Se4  1  0.39822942  0.90237667  0.73512742  1
  Se  Se5  1  0.86664316  0.36249591  0.73512742  1
  Se  Se6  1  0.09762333  0.13335684  0.26487258  1
  Se  Se7  1  0.63750409  0.60177058  0.26487258  1
