# generated using pymatgen
data_Ag3AsF12
_symmetry_space_group_name_H-M   'P 1'
_cell_length_a   5.39598598
_cell_length_b   5.84246660
_cell_length_c   8.26910870
_cell_angle_alpha   93.15838272
_cell_angle_beta   91.04829288
_cell_angle_gamma   92.13593255
_symmetry_Int_Tables_number   1
_chemical_formula_structural   Ag3AsF12
_chemical_formula_sum   'Ag3 As1 F12'
_cell_volume   260.05990557
_cell_formula_units_Z   1
loop_
 _symmetry_equiv_pos_site_id
 _symmetry_equiv_pos_as_xyz
  1  'x, y, z'
loop_
 _atom_site_type_symbol
 _atom_site_label
 _atom_site_symmetry_multiplicity
 _atom_site_fract_x
 _atom_site_fract_y
 _atom_site_fract_z
 _atom_site_occupancy
  Ag  Ag0  1  -0.00000000  -0.00000000  0.50000000  1
  Ag  Ag1  1  -0.00000000  -0.00000000  -0.00000000  1
  Ag  Ag2  1  0.50000000  0.50000000  0.50000000  1
  As  As3  1  0.50000000  0.50000000  -0.00000000  1
  F  F4  1  0.81971722  0.66572929  0.45406201  1
  F  F5  1  0.76455766  0.37013983  0.08014936  1
  F  F6  1  0.18028278  0.33427071  0.54593799  1
  F  F7  1  0.23544234  0.62986017  0.91985064  1
  F  F8  1  0.34472971  0.80100870  0.53072889  1
  F  F9  1  0.36871328  0.22110530  0.94076986  1
  F  F10  1  0.65527029  0.19899130  0.46927111  1
  F  F11  1  0.63128672  0.77889470  0.05923014  1
  F  F12  1  0.02864975  0.01044136  0.25810419  1
  F  F13  1  0.97135025  0.98955864  0.74189581  1
  F  F14  1  0.35545197  0.48892457  0.18966443  1
  F  F15  1  0.64454803  0.51107543  0.81033557  1
