# generated using pymatgen
data_Cs4H4SeS3O16
_symmetry_space_group_name_H-M   'P 1'
_cell_length_a   7.88113430
_cell_length_b   7.96943696
_cell_length_c   8.39376465
_cell_angle_alpha   89.91864349
_cell_angle_beta   90.15016886
_cell_angle_gamma   108.43418014
_symmetry_Int_Tables_number   1
_chemical_formula_structural   Cs4H4SeS3O16
_chemical_formula_sum   'Cs4 H4 Se1 S3 O16'
_cell_volume   500.14367035
_cell_formula_units_Z   1
loop_
 _symmetry_equiv_pos_site_id
 _symmetry_equiv_pos_as_xyz
  1  'x, y, z'
loop_
 _atom_site_type_symbol
 _atom_site_label
 _atom_site_symmetry_multiplicity
 _atom_site_fract_x
 _atom_site_fract_y
 _atom_site_fract_z
 _atom_site_occupancy
  Cs  Cs0  1  0.70426418  0.21198868  0.37605212  1
  Cs  Cs1  1  0.79582083  0.79161018  0.87723824  1
  Cs  Cs2  1  0.29534813  0.79047425  0.62723344  1
  Cs  Cs3  1  0.20626606  0.21105174  0.12314114  1
  H  H4  1  0.54044644  0.62493176  0.20674038  1
  H  H5  1  0.94856866  0.36693123  0.71652101  1
  H  H6  1  0.44933691  0.36604089  0.78390357  1
  H  H7  1  0.05589797  0.62968647  0.28817597  1
  Se  Se8  1  0.78386079  0.75589207  0.37312675  1
  S  S9  1  0.71649152  0.24714608  0.87190689  1
  S  S10  1  0.21654791  0.24637643  0.62793318  1
  S  S11  1  0.28352332  0.75335288  0.12769419  1
  O  O12  1  0.68561230  0.81671871  0.52537611  1
  O  O13  1  0.80489285  0.19388618  0.00732564  1
  O  O14  1  0.30415015  0.19256903  0.49287198  1
  O  O15  1  0.19628965  0.80769273  0.99217418  1
  O  O16  1  0.62359783  0.57809908  0.27618732  1
  O  O17  1  0.86147317  0.40791289  0.78279566  1
  O  O18  1  0.36167386  0.40720171  0.71724736  1
  O  O19  1  0.13975784  0.59093073  0.21433499  1
  O  O20  1  0.86234922  0.91401469  0.24020813  1
  O  O21  1  0.64754324  0.10638765  0.75372167  1
  O  O22  1  0.14808213  0.10572189  0.74612104  1
  O  O23  1  0.35199251  0.89264091  0.24679977  1
  O  O24  1  0.93287664  0.65801510  0.42957736  1
  O  O25  1  0.58283029  0.33216314  0.92111694  1
  O  O26  1  0.08222645  0.33104974  0.57817301  1
  O  O27  1  0.41827916  0.66951316  0.07630198  1
