# generated using pymatgen
data_Al(V4Sn)3
_symmetry_space_group_name_H-M   'P 1'
_cell_length_a   4.94285282
_cell_length_b   4.93352585
_cell_length_c   9.80322618
_cell_angle_alpha   90.00000000
_cell_angle_beta   90.00000000
_cell_angle_gamma   90.00000000
_symmetry_Int_Tables_number   1
_chemical_formula_structural   Al(V4Sn)3
_chemical_formula_sum   'Al1 V12 Sn3'
_cell_volume   239.05845580
_cell_formula_units_Z   1
loop_
 _symmetry_equiv_pos_site_id
 _symmetry_equiv_pos_as_xyz
  1  'x, y, z'
loop_
 _atom_site_type_symbol
 _atom_site_label
 _atom_site_symmetry_multiplicity
 _atom_site_fract_x
 _atom_site_fract_y
 _atom_site_fract_z
 _atom_site_occupancy
  Al  Al0  1  0.50000000  0.50000000  0.25000000  1
  V  V1  1  0.00000000  0.50000000  0.36555149  1
  V  V2  1  -0.00000000  0.50000000  0.87554429  1
  V  V3  1  0.50000000  0.25555671  0.00874194  1
  V  V4  1  0.50000000  0.25555671  0.49125806  1
  V  V5  1  0.73014733  0.00000000  0.25000000  1
  V  V6  1  0.75046805  0.00000000  0.75000000  1
  V  V7  1  -0.00000000  0.50000000  0.13444851  1
  V  V8  1  0.00000000  0.50000000  0.62445571  1
  V  V9  1  0.50000000  0.74444329  0.00874194  1
  V  V10  1  0.50000000  0.74444329  0.49125806  1
  V  V11  1  0.26985267  -0.00000000  0.25000000  1
  V  V12  1  0.24953195  0.00000000  0.75000000  1
  Sn  Sn13  1  0.50000000  0.50000000  0.75000000  1
  Sn  Sn14  1  -0.00000000  -0.00000000  0.00073877  1
  Sn  Sn15  1  0.00000000  0.00000000  0.49926123  1
