# generated using pymatgen
data_Cs2TeP2H8O13
_symmetry_space_group_name_H-M   'P 1'
_cell_length_a   8.58617391
_cell_length_b   11.20616036
_cell_length_c   16.90387962
_cell_angle_alpha   105.02719381
_cell_angle_beta   90.00000000
_cell_angle_gamma   67.47412420
_symmetry_Int_Tables_number   1
_chemical_formula_structural   Cs2TeP2H8O13
_chemical_formula_sum   'Cs8 Te4 P8 H32 O52'
_cell_volume   1441.97155082
_cell_formula_units_Z   4
loop_
 _symmetry_equiv_pos_site_id
 _symmetry_equiv_pos_as_xyz
  1  'x, y, z'
loop_
 _atom_site_type_symbol
 _atom_site_label
 _atom_site_symmetry_multiplicity
 _atom_site_fract_x
 _atom_site_fract_y
 _atom_site_fract_z
 _atom_site_occupancy
  Cs  Cs0  1  0.81453949  0.31176352  0.95449609  1
  Cs  Cs1  1  0.12879943  0.68526283  0.54657452  1
  Cs  Cs2  1  0.18593774  0.68526283  0.04657452  1
  Cs  Cs3  1  0.87369698  0.31176352  0.45449609  1
  Cs  Cs4  1  0.73163775  0.82302945  0.33146317  1
  Cs  Cs5  1  0.55903698  0.17500261  0.16775886  1
  Cs  Cs6  1  0.26596041  0.17500261  0.66775886  1
  Cs  Cs7  1  0.44533280  0.82302945  0.83146317  1
  Te  Te8  1  0.33551011  0.25933068  0.92839025  1
  Te  Te9  1  0.59490070  0.74022558  0.57152800  1
  Te  Te10  1  0.66487372  0.74022558  0.07152800  1
  Te  Te11  1  0.40515920  0.25933068  0.42839025  1
  P  P12  1  0.19083794  0.91361105  0.36914546  1
  P  P13  1  0.09630627  0.09196392  0.12572415  1
  P  P14  1  0.81172981  0.09196392  0.62572415  1
  P  P15  1  0.89555101  0.91361105  0.86914546  1
  P  P16  1  0.37920630  0.62052208  0.28952335  1
  P  P17  1  0.99918191  0.38139920  0.21070493  1
  P  P18  1  0.61941888  0.38139920  0.71070493  1
  P  P19  1  0.00027162  0.62052208  0.78952335  1
  H  H20  1  0.46449237  0.42415781  0.37256805  1
  H  H21  1  0.88903656  0.57503679  0.12747278  1
  H  H22  1  0.53592664  0.57503679  0.62747278  1
  H  H23  1  0.11134983  0.42415781  0.87256805  1
  H  H24  1  0.40287636  0.91689672  0.04496747  1
  H  H25  1  0.31797904  0.08437591  0.45572432  1
  H  H26  1  0.59764505  0.08437591  0.95572432  1
  H  H27  1  0.68022692  0.91689672  0.54496747  1
  H  H28  1  0.72236007  0.51254126  0.26156341  1
  H  H29  1  0.23521214  0.48812844  0.23902950  1
  H  H30  1  0.27665942  0.48812844  0.73902950  1
  H  H31  1  0.76509867  0.51254126  0.76156341  1
  H  H32  1  0.37249493  0.87506122  0.49780049  1
  H  H33  1  0.25046611  0.12420670  0.00252961  1
  H  H34  1  0.62532719  0.12420670  0.50252961  1
  H  H35  1  0.75244385  0.87506122  0.99780049  1
  H  H36  1  0.52404160  0.61733946  0.43785812  1
  H  H37  1  0.14124888  0.38280680  0.06212243  1
  H  H38  1  0.47594432  0.38280680  0.56212243  1
  H  H39  1  0.85861894  0.61733946  0.93785812  1
  H  H40  1  0.56317320  0.62141684  0.15131583  1
  H  H41  1  0.18469490  0.37892519  0.34887084  1
  H  H42  1  0.43637991  0.37892519  0.84887084  1
  H  H43  1  0.81540996  0.62141684  0.65131583  1
  H  H44  1  0.42501799  0.90042312  0.17643032  1
  H  H45  1  0.32281796  0.10042477  0.32376312  1
  H  H46  1  0.57675727  0.10042477  0.82376312  1
  H  H47  1  0.67455888  0.90042312  0.67643032  1
  H  H48  1  0.00799546  0.98249099  0.48394579  1
  H  H49  1  0.00951356  0.98249099  0.98394579  1
  H  H50  1  0.12101446  0.00438689  0.23706528  1
  H  H51  1  0.87459865  0.00438689  0.73706528  1
  O  O52  1  0.53216812  0.18158495  0.98578793  1
  O  O53  1  0.71401621  0.81916943  0.51515205  1
  O  O54  1  0.46681436  0.81916943  0.01515205  1
  O  O55  1  0.28624693  0.18158495  0.48578793  1
  O  O56  1  0.62767632  0.14033593  0.44618042  1
  O  O57  1  0.76882065  0.85910144  0.05428386  1
  O  O58  1  0.37207791  0.85910144  0.55428386  1
  O  O59  1  0.23198775  0.14033593  0.94618042  1
  O  O60  1  0.54571886  0.60894057  0.25015016  1
  O  O61  1  0.15472749  0.39117757  0.24991713  1
  O  O62  1  0.45409494  0.39117757  0.74991713  1
  O  O63  1  0.84534057  0.60894057  0.75015016  1
  O  O64  1  0.56952146  0.61643733  0.09111849  1
  O  O65  1  0.18637088  0.38392943  0.40907879  1
  O  O66  1  0.42969970  0.38392943  0.90907879  1
  O  O67  1  0.81404121  0.61643733  0.59111849  1
  O  O68  1  0.52998253  0.32579353  0.36596348  1
  O  O69  1  0.85556689  0.67367163  0.13393788  1
  O  O70  1  0.47076148  0.67367163  0.63393788  1
  O  O71  1  0.14422394  0.32579353  0.86596348  1
  O  O72  1  0.34391038  0.91698767  0.41360313  1
  O  O73  1  0.26319999  0.08300514  0.08822262  1
  O  O74  1  0.65379486  0.08300514  0.58822262  1
  O  O75  1  0.73910195  0.91698767  0.91360313  1
  O  O76  1  0.96553426  0.08482821  0.06641378  1
  O  O77  1  0.04951716  0.90909599  0.42681639  1
  O  O78  1  0.04138685  0.90909599  0.92681639  1
  O  O79  1  0.94963753  0.08482821  0.56641378  1
  O  O80  1  0.24009381  0.77289874  0.29784658  1
  O  O81  1  0.00992698  0.22946836  0.20062944  1
  O  O82  1  0.76060466  0.22946836  0.70062944  1
  O  O83  1  0.98700746  0.77289874  0.79784658  1
  O  O84  1  0.54766933  0.87543503  0.17713744  1
  O  O85  1  0.42214954  0.12380110  0.32327691  1
  O  O86  1  0.45404936  0.12380110  0.82327691  1
  O  O87  1  0.57689565  0.87543503  0.67713744  1
  O  O88  1  0.13565546  0.97995800  0.17250161  1
  O  O89  1  0.11994847  0.02412701  0.32611918  1
  O  O90  1  0.85592452  0.02412701  0.82611918  1
  O  O91  1  0.88438654  0.97995800  0.67250161  1
  O  O92  1  0.30852720  0.53403219  0.22274616  1
  O  O93  1  0.84210566  0.46789742  0.27763829  1
  O  O94  1  0.68999692  0.46789742  0.77763829  1
  O  O95  1  0.15744061  0.53403219  0.72274616  1
  O  O96  1  0.38063249  0.59243981  0.37268247  1
  O  O97  1  0.97292629  0.41112263  0.12785242  1
  O  O98  1  0.61595108  0.41112263  0.62785242  1
  O  O99  1  0.02692769  0.59243981  0.87268247  1
  O  O100  1  0.62716440  0.60359356  0.46824841  1
  O  O101  1  0.23020340  0.39643751  0.03135878  1
  O  O102  1  0.37335909  0.39643751  0.53135878  1
  O  O103  1  0.76924204  0.60359356  0.96824841  1
