# generated using pymatgen
data_Ba12SrCa3(Ru2O9)4
_symmetry_space_group_name_H-M   'P 1'
_cell_length_a   5.98769933
_cell_length_b   5.98762991
_cell_length_c   30.20472809
_cell_angle_alpha   89.99974843
_cell_angle_beta   90.00079516
_cell_angle_gamma   120.00035780
_symmetry_Int_Tables_number   1
_chemical_formula_structural   Ba12SrCa3(Ru2O9)4
_chemical_formula_sum   'Ba12 Sr1 Ca3 Ru8 O36'
_cell_volume   937.81879023
_cell_formula_units_Z   1
loop_
 _symmetry_equiv_pos_site_id
 _symmetry_equiv_pos_as_xyz
  1  'x, y, z'
loop_
 _atom_site_type_symbol
 _atom_site_label
 _atom_site_symmetry_multiplicity
 _atom_site_fract_x
 _atom_site_fract_y
 _atom_site_fract_z
 _atom_site_occupancy
  Ba  Ba0  1  0.66667369  0.33333819  0.30646863  1
  Ba  Ba1  1  0.66667175  0.33333528  0.80001911  1
  Ba  Ba2  1  0.33334342  0.66667122  0.04832640  1
  Ba  Ba3  1  0.33332838  0.66666372  0.55049402  1
  Ba  Ba4  1  0.33332631  0.66666181  0.19353137  1
  Ba  Ba5  1  0.33332825  0.66666472  0.69998089  1
  Ba  Ba6  1  0.66665658  0.33332878  0.45167360  1
  Ba  Ba7  1  0.66667162  0.33333628  0.94950598  1
  Ba  Ba8  1  0.00000776  0.00000164  0.37767878  1
  Ba  Ba9  1  0.00000282  0.99999675  0.87461725  1
  Ba  Ba10  1  -0.00000776  -0.00000164  0.12232122  1
  Ba  Ba11  1  -0.00000282  0.00000325  0.62538275  1
  Sr  Sr12  1  -0.00000000  -0.00000000  0.25000000  1
  Ca  Ca13  1  -0.00000000  -0.00000000  0.75000000  1
  Ca  Ca14  1  0.00000510  0.00000206  0.99870358  1
  Ca  Ca15  1  -0.00000510  0.99999794  0.50129642  1
  Ru  Ru16  1  0.66665901  0.33333619  0.16812004  1
  Ru  Ru17  1  0.66665439  0.33333270  0.67143349  1
  Ru  Ru18  1  0.33333121  0.66667000  0.42349832  1
  Ru  Ru19  1  0.33334718  0.66667587  0.92070339  1
  Ru  Ru20  1  0.33334099  0.66666381  0.33187996  1
  Ru  Ru21  1  0.33334561  0.66666730  0.82856651  1
  Ru  Ru22  1  0.66666879  0.33333000  0.07650168  1
  Ru  Ru23  1  0.66665282  0.33332413  0.57929661  1
  O  O24  1  0.97021139  0.48135975  0.12209962  1
  O  O25  1  0.96773813  0.48092980  0.62535968  1
  O  O26  1  0.51863581  0.48885528  0.12209803  1
  O  O27  1  0.51905024  0.48680893  0.62535930  1
  O  O28  1  0.51114827  0.02978581  0.12210082  1
  O  O29  1  0.51316939  0.03224809  0.62536125  1
  O  O30  1  0.02978861  0.51864025  0.37790038  1
  O  O31  1  0.03226187  0.51907020  0.87464032  1
  O  O32  1  0.48136419  0.51114472  0.37790197  1
  O  O33  1  0.48094976  0.51319107  0.87464070  1
  O  O34  1  0.48885173  0.97021419  0.37789918  1
  O  O35  1  0.48683061  0.96775191  0.87463875  1
  O  O36  1  0.64557146  0.81672443  0.29955594  1
  O  O37  1  0.64810316  0.82033665  0.79543981  1
  O  O38  1  0.18327305  0.82881784  0.29955205  1
  O  O39  1  0.17966254  0.82774810  0.79544092  1
  O  O40  1  0.17118093  0.35443367  0.29955453  1
  O  O41  1  0.17225301  0.35189973  0.79544178  1
  O  O42  1  0.35189203  0.17990504  0.04361454  1
  O  O43  1  0.35244909  0.17998349  0.54618630  1
  O  O44  1  0.82008592  0.17197373  0.04361476  1
  O  O45  1  0.81999929  0.17245434  0.54619091  1
  O  O46  1  0.82802119  0.64810417  0.04361290  1
  O  O47  1  0.82752856  0.64753693  0.54618854  1
  O  O48  1  0.35442854  0.18327557  0.20044406  1
  O  O49  1  0.35189684  0.17966335  0.70456019  1
  O  O50  1  0.81672695  0.17118216  0.20044795  1
  O  O51  1  0.82033746  0.17225190  0.70455908  1
  O  O52  1  0.82881907  0.64556633  0.20044547  1
  O  O53  1  0.82774699  0.64810027  0.70455822  1
  O  O54  1  0.64810797  0.82009496  0.45638546  1
  O  O55  1  0.64755091  0.82001651  0.95381370  1
  O  O56  1  0.17991408  0.82802627  0.45638524  1
  O  O57  1  0.18000071  0.82754566  0.95380909  1
  O  O58  1  0.17197881  0.35189583  0.45638710  1
  O  O59  1  0.17247144  0.35246307  0.95381146  1
