# generated using pymatgen
data_ThPS
_symmetry_space_group_name_H-M   'P 1'
_cell_length_a   3.96294360
_cell_length_b   3.96294360
_cell_length_c   8.21830225
_cell_angle_alpha   90.00000000
_cell_angle_beta   90.00000000
_cell_angle_gamma   90.00000000
_symmetry_Int_Tables_number   1
_chemical_formula_structural   ThPS
_chemical_formula_sum   'Th2 P2 S2'
_cell_volume   129.06779562
_cell_formula_units_Z   2
loop_
 _symmetry_equiv_pos_site_id
 _symmetry_equiv_pos_as_xyz
  1  'x, y, z'
loop_
 _atom_site_type_symbol
 _atom_site_label
 _atom_site_symmetry_multiplicity
 _atom_site_fract_x
 _atom_site_fract_y
 _atom_site_fract_z
 _atom_site_occupancy
  P  P0  1  0.75000000  0.25000000  0.00000000  1
  P  P1  1  0.25000000  0.75000000  0.00000000  1
  S  S2  1  0.25000000  0.25000000  0.63289577  1
  S  S3  1  0.75000000  0.75000000  0.36710423  1
  Th  Th4  1  0.25000000  0.25000000  0.26735963  1
  Th  Th5  1  0.75000000  0.75000000  0.73264037  1
