# generated using pymatgen
data_As3Pd4Pb
_symmetry_space_group_name_H-M   'P 1'
_cell_length_a   3.93571555
_cell_length_b   7.12971974
_cell_length_c   6.27724659
_cell_angle_alpha   63.88628359
_cell_angle_beta   89.98697646
_cell_angle_gamma   106.01611090
_symmetry_Int_Tables_number   1
_chemical_formula_structural   As3Pd4Pb
_chemical_formula_sum   'As3 Pd4 Pb1'
_cell_volume   150.50529495
_cell_formula_units_Z   1
loop_
 _symmetry_equiv_pos_site_id
 _symmetry_equiv_pos_as_xyz
  1  'x, y, z'
loop_
 _atom_site_type_symbol
 _atom_site_label
 _atom_site_symmetry_multiplicity
 _atom_site_fract_x
 _atom_site_fract_y
 _atom_site_fract_z
 _atom_site_occupancy
  As  As0  1  0.37495536  0.75000000  0.94121528  1
  As  As1  1  0.16615720  0.33257692  0.50250553  1
  As  As2  1  0.58358029  0.16742308  0.08508245  1
  Pd  Pd3  1  0.75101440  0.50272582  0.17819063  1
  Pd  Pd4  1  0.21908530  0.43768527  0.84602192  1
  Pd  Pd5  1  0.53140003  0.06231473  0.53370719  1
  Pd  Pd6  1  0.99828858  0.99727418  0.93091645  1
  Pb  Pb7  1  0.87551885  0.75000000  0.48236055  1
