# generated using pymatgen
data_Cs3BAsP
_symmetry_space_group_name_H-M   'P 1'
_cell_length_a   7.08696448
_cell_length_b   7.08696448
_cell_length_c   10.07693998
_cell_angle_alpha   75.68402251
_cell_angle_beta   75.68402251
_cell_angle_gamma   89.18208974
_symmetry_Int_Tables_number   1
_chemical_formula_structural   Cs3BAsP
_chemical_formula_sum   'Cs6 B2 As2 P2'
_cell_volume   474.57763438
_cell_formula_units_Z   2
loop_
 _symmetry_equiv_pos_site_id
 _symmetry_equiv_pos_as_xyz
  1  'x, y, z'
loop_
 _atom_site_type_symbol
 _atom_site_label
 _atom_site_symmetry_multiplicity
 _atom_site_fract_x
 _atom_site_fract_y
 _atom_site_fract_z
 _atom_site_occupancy
  Cs  Cs0  1  0.25833590  0.15284321  0.01951382  1
  Cs  Cs1  1  0.84729581  0.74176362  0.48023823  1
  Cs  Cs2  1  0.74176362  0.84729581  0.98023823  1
  Cs  Cs3  1  0.15284321  0.25833590  0.51951382  1
  Cs  Cs4  1  0.65550502  0.34487981  0.24972545  1
  Cs  Cs5  1  0.34487981  0.65550502  0.74972545  1
  B  B6  1  0.29265210  0.71298883  0.25086732  1
  B  B7  1  0.71298883  0.29265210  0.75086732  1
  As  As8  1  0.15729380  0.60294507  0.14499979  1
  As  As9  1  0.60294507  0.15729380  0.64499979  1
  P  P10  1  0.41802891  0.81844793  0.34841539  1
  P  P11  1  0.81844793  0.41802891  0.84841539  1
