# generated using pymatgen
data_Ca3Ti3Si2GeO15
_symmetry_space_group_name_H-M   'P 1'
_cell_length_a   6.70533704
_cell_length_b   7.18747065
_cell_length_c   26.50565046
_cell_angle_alpha   90.03979657
_cell_angle_beta   89.97495801
_cell_angle_gamma   114.22495945
_symmetry_Int_Tables_number   1
_chemical_formula_structural   Ca3Ti3Si2GeO15
_chemical_formula_sum   'Ca12 Ti12 Si8 Ge4 O60'
_cell_volume   1164.93585322
_cell_formula_units_Z   4
loop_
 _symmetry_equiv_pos_site_id
 _symmetry_equiv_pos_as_xyz
  1  'x, y, z'
loop_
 _atom_site_type_symbol
 _atom_site_label
 _atom_site_symmetry_multiplicity
 _atom_site_fract_x
 _atom_site_fract_y
 _atom_site_fract_z
 _atom_site_occupancy
  Ca  Ca0  1  0.24575941  0.74682932  0.02520272  1
  Ca  Ca1  1  0.24609373  0.74711716  0.35895036  1
  Ca  Ca2  1  0.24598182  0.74696275  0.69185195  1
  Ca  Ca3  1  0.75418718  0.75304401  0.19236370  1
  Ca  Ca4  1  0.75406437  0.75523350  0.52637996  1
  Ca  Ca5  1  0.75400147  0.75522534  0.85943019  1
  Ca  Ca6  1  0.75591919  0.25591440  0.30777492  1
  Ca  Ca7  1  0.75560416  0.25537674  0.64001504  1
  Ca  Ca8  1  0.75566492  0.25554957  0.97309056  1
  Ca  Ca9  1  0.24413437  0.24389317  0.14072952  1
  Ca  Ca10  1  0.24538627  0.24388418  0.47488771  1
  Ca  Ca11  1  0.24544703  0.24387660  0.80805061  1
  Ti  Ti12  1  0.74706066  0.00282743  0.08096627  1
  Ti  Ti13  1  0.74675855  0.00483367  0.41581050  1
  Ti  Ti14  1  0.74699046  0.00540567  0.74880862  1
  Ti  Ti15  1  0.25385238  0.49793919  0.24804377  1
  Ti  Ti16  1  0.25021159  0.49713632  0.58086265  1
  Ti  Ti17  1  0.24955995  0.49695188  0.91399683  1
  Ti  Ti18  1  0.24841860  0.99099711  0.25085041  1
  Ti  Ti19  1  0.25184779  0.99354338  0.58342764  1
  Ti  Ti20  1  0.25228375  0.99347333  0.91657870  1
  Ti  Ti21  1  0.75111953  0.50917543  0.08384806  1
  Ti  Ti22  1  0.75196175  0.50862516  0.41868337  1
  Ti  Ti23  1  0.75193382  0.50864476  0.75175979  1
  Si  Si24  1  0.74859885  0.25042727  0.52304434  1
  Si  Si25  1  0.74856502  0.25036339  0.85618254  1
  Si  Si26  1  0.74820184  0.75056781  0.31043451  1
  Si  Si27  1  0.74815933  0.75029787  0.64349242  1
  Si  Si28  1  0.74823254  0.75009986  0.97616016  1
  Si  Si29  1  0.25180713  0.74957673  0.14304430  1
  Si  Si30  1  0.25146530  0.74949674  0.47631100  1
  Si  Si31  1  0.25150807  0.74952483  0.80945139  1
  Ge  Ge32  1  0.25072457  0.24967273  0.02207419  1
  Ge  Ge33  1  0.25059533  0.24952489  0.35664030  1
  Ge  Ge34  1  0.25073484  0.24949521  0.68949769  1
  Ge  Ge35  1  0.74938987  0.25043129  0.18923063  1
  O  O36  1  0.64688415  0.87983194  0.01194468  1
  O  O37  1  0.64749812  0.87995210  0.34639911  1
  O  O38  1  0.64779180  0.88043259  0.67937095  1
  O  O39  1  0.35358337  0.62069055  0.17897392  1
  O  O40  1  0.35300197  0.61981706  0.51223005  1
  O  O41  1  0.35288968  0.61989281  0.84540693  1
  O  O42  1  0.36066464  0.10870667  0.32004647  1
  O  O43  1  0.36226946  0.10940276  0.65279653  1
  O  O44  1  0.36342596  0.10956174  0.98575257  1
  O  O45  1  0.63828092  0.39102696  0.15288481  1
  O  O46  1  0.64819641  0.38190249  0.48790770  1
  O  O47  1  0.64808288  0.38178368  0.82103459  1
  O  O48  1  0.43933088  0.41525954  0.06560635  1
  O  O49  1  0.44020204  0.41289411  0.40049303  1
  O  O50  1  0.43997600  0.41286190  0.73343868  1
  O  O51  1  0.56025370  0.08493538  0.23268724  1
  O  O52  1  0.56359532  0.09869984  0.56263474  1
  O  O53  1  0.56390793  0.09857895  0.89581628  1
  O  O54  1  0.56349944  0.59911015  0.27059220  1
  O  O55  1  0.56235766  0.59939528  0.60369170  1
  O  O56  1  0.56243147  0.59884945  0.93661014  1
  O  O57  1  0.43656134  0.90131360  0.10341634  1
  O  O58  1  0.43561720  0.90077616  0.43681368  1
  O  O59  1  0.43579772  0.90075369  0.76994413  1
  O  O60  1  0.75855385  0.24939067  0.06032476  1
  O  O61  1  0.75845080  0.24916238  0.39408609  1
  O  O62  1  0.75850389  0.24907182  0.72693338  1
  O  O63  1  0.24150797  0.25039815  0.22749064  1
  O  O64  1  0.24202251  0.24980136  0.56114620  1
  O  O65  1  0.24204087  0.24981333  0.89436451  1
  O  O66  1  0.24067923  0.74934334  0.27266694  1
  O  O67  1  0.24080339  0.74916109  0.60511725  1
  O  O68  1  0.24077247  0.74924718  0.93843627  1
  O  O69  1  0.75942413  0.75050373  0.10581900  1
  O  O70  1  0.75838294  0.74962631  0.44071357  1
  O  O71  1  0.75838272  0.74950653  0.77375032  1
  O  O72  1  0.85032494  0.10065980  0.15312668  1
  O  O73  1  0.84096179  0.11071702  0.48842625  1
  O  O74  1  0.84114189  0.11089893  0.82152893  1
  O  O75  1  0.15071117  0.39955256  0.32037699  1
  O  O76  1  0.14925512  0.39893598  0.65328018  1
  O  O77  1  0.14820347  0.39895137  0.98616805  1
  O  O78  1  0.15939385  0.88847386  0.17828294  1
  O  O79  1  0.15857862  0.88810728  0.51155658  1
  O  O80  1  0.15869792  0.88808125  0.84473287  1
  O  O81  1  0.84061353  0.61099550  0.01128864  1
  O  O82  1  0.83990591  0.61144056  0.34566784  1
  O  O83  1  0.83988962  0.61103214  0.67868252  1
  O  O84  1  0.06361054  0.58807137  0.10571461  1
  O  O85  1  0.06451102  0.58902863  0.43876531  1
  O  O86  1  0.06440247  0.58894493  0.77193031  1
  O  O87  1  0.93653410  0.91120441  0.27289900  1
  O  O88  1  0.93757355  0.91051342  0.60604089  1
  O  O89  1  0.93749186  0.91116455  0.93897060  1
  O  O90  1  0.94221018  0.42625847  0.23035448  1
  O  O91  1  0.93692392  0.41008928  0.56059611  1
  O  O92  1  0.93657154  0.41018424  0.89377513  1
  O  O93  1  0.05852712  0.07337761  0.06319918  1
  O  O94  1  0.05783670  0.07505743  0.39822132  1
  O  O95  1  0.05827894  0.07486551  0.73114547  1
