# generated using pymatgen
data_BaNaNd(SiO3)3
_symmetry_space_group_name_H-M   'P 1'
_cell_length_a   5.73474544
_cell_length_b   11.69683211
_cell_length_c   12.76818251
_cell_angle_alpha   90.00000000
_cell_angle_beta   90.00000000
_cell_angle_gamma   90.00000000
_symmetry_Int_Tables_number   1
_chemical_formula_structural   BaNaNd(SiO3)3
_chemical_formula_sum   'Ba4 Na4 Nd4 Si12 O36'
_cell_volume   856.46867407
_cell_formula_units_Z   4
loop_
 _symmetry_equiv_pos_site_id
 _symmetry_equiv_pos_as_xyz
  1  'x, y, z'
loop_
 _atom_site_type_symbol
 _atom_site_label
 _atom_site_symmetry_multiplicity
 _atom_site_fract_x
 _atom_site_fract_y
 _atom_site_fract_z
 _atom_site_occupancy
  O  O0  1  0.14706177  0.94203748  0.32543931  1
  O  O1  1  0.64706177  0.55796252  0.67456069  1
  O  O2  1  0.85293823  0.44203748  0.17456069  1
  O  O3  1  0.35293823  0.05796252  0.82543931  1
  O  O4  1  0.34332521  0.68418626  0.87667751  1
  O  O5  1  0.84332521  0.81581374  0.12332249  1
  O  O6  1  0.65667479  0.18418626  0.62332249  1
  O  O7  1  0.15667479  0.31581374  0.37667751  1
  O  O8  1  0.50539144  0.50110889  0.03679940  1
  O  O9  1  0.00539144  0.99889111  0.96320060  1
  O  O10  1  0.49460856  0.00110889  0.46320060  1
  O  O11  1  0.99460856  0.49889111  0.53679940  1
  O  O12  1  0.39213883  0.77788034  0.42516087  1
  O  O13  1  0.89213883  0.72211966  0.57483913  1
  O  O14  1  0.08929220  0.81844740  0.74384616  1
  O  O15  1  0.60786117  0.27788034  0.07483913  1
  O  O16  1  0.37314740  0.81226842  0.11210555  1
  O  O17  1  0.87314740  0.68773158  0.88789445  1
  O  O18  1  0.62685260  0.31226842  0.38789445  1
  O  O19  1  0.12685260  0.18773158  0.61210555  1
  O  O20  1  0.09878266  0.59627286  0.71875918  1
  O  O21  1  0.59878266  0.90372714  0.28124082  1
  O  O22  1  0.90121734  0.09627286  0.78124082  1
  O  O23  1  0.40121734  0.40372714  0.21875918  1
  O  O24  1  0.35774007  0.37346046  0.81572252  1
  O  O25  1  0.85774007  0.12653954  0.18427748  1
  O  O26  1  0.64225993  0.87346046  0.68427748  1
  O  O27  1  0.14225993  0.62653954  0.31572252  1
  O  O28  1  0.96401450  0.43984976  0.92796423  1
  O  O29  1  0.46401450  0.06015024  0.07203577  1
  O  O30  1  0.03598550  0.93984976  0.57203577  1
  O  O31  1  0.53598550  0.56015024  0.42796423  1
  O  O32  1  0.41070780  0.18155260  0.24384616  1
  O  O33  1  0.91070780  0.31844740  0.75615384  1
  O  O34  1  0.58929220  0.68155260  0.25615384  1
  O  O35  1  0.10786117  0.22211966  0.92516087  1
  Na  Na36  1  0.06541741  0.28722149  0.10396026  1
  Na  Na37  1  0.56541741  0.21277851  0.89603974  1
  Na  Na38  1  0.43458259  0.71277851  0.60396026  1
  Na  Na39  1  0.93458259  0.78722149  0.39603974  1
  Si  Si40  1  0.10104615  0.08734571  0.87687735  1
  Si  Si41  1  0.60099389  0.80350511  0.18696732  1
  Si  Si42  1  0.89900611  0.19649489  0.68696732  1
  Si  Si43  1  0.10099389  0.69649489  0.81303268  1
  Si  Si44  1  0.40504538  0.65351872  0.35602193  1
  Si  Si45  1  0.90504538  0.84648128  0.64397807  1
  Si  Si46  1  0.59495462  0.15351872  0.14397807  1
  Si  Si47  1  0.09495462  0.34648128  0.85602193  1
  Si  Si48  1  0.39895385  0.91265429  0.37687735  1
  Si  Si49  1  0.89895385  0.58734571  0.62312265  1
  Si  Si50  1  0.39900611  0.30350511  0.31303268  1
  Si  Si51  1  0.60104615  0.41265429  0.12312265  1
  Ba  Ba52  1  0.10403852  0.61847168  0.07965662  1
  Ba  Ba53  1  0.60403852  0.88152832  0.92034338  1
  Ba  Ba54  1  0.89596148  0.11847168  0.42034338  1
  Ba  Ba55  1  0.39596148  0.38152832  0.57965662  1
  Nd  Nd56  1  0.38655607  0.02776918  0.63988912  1
  Nd  Nd57  1  0.88655607  0.47223082  0.36011088  1
  Nd  Nd58  1  0.61344393  0.52776918  0.86011088  1
  Nd  Nd59  1  0.11344393  0.97223082  0.13988912  1
