# generated using pymatgen
data_Li3In2(PO4)3
_symmetry_space_group_name_H-M   'P 1'
_cell_length_a   8.70171693
_cell_length_b   9.00054826
_cell_length_c   12.45342981
_cell_angle_alpha   90.00000000
_cell_angle_beta   89.96936905
_cell_angle_gamma   90.00000000
_symmetry_Int_Tables_number   1
_chemical_formula_structural   Li3In2(PO4)3
_chemical_formula_sum   'Li12 In8 P12 O48'
_cell_volume   975.35526309
_cell_formula_units_Z   4
loop_
 _symmetry_equiv_pos_site_id
 _symmetry_equiv_pos_as_xyz
  1  'x, y, z'
loop_
 _atom_site_type_symbol
 _atom_site_label
 _atom_site_symmetry_multiplicity
 _atom_site_fract_x
 _atom_site_fract_y
 _atom_site_fract_z
 _atom_site_occupancy
  Li  Li0  1  0.82050192  0.21786940  0.17984604  1
  Li  Li1  1  0.67949808  0.71786940  0.32015396  1
  Li  Li2  1  0.17949808  0.78213060  0.82015396  1
  Li  Li3  1  0.32050192  0.28213060  0.67984604  1
  Li  Li4  1  0.56478237  0.98770126  0.15151310  1
  Li  Li5  1  0.93521763  0.48770126  0.34848690  1
  Li  Li6  1  0.43521763  0.01229874  0.84848690  1
  Li  Li7  1  0.06478237  0.51229874  0.65151310  1
  Li  Li8  1  0.91542805  0.91398925  0.68556309  1
  Li  Li9  1  0.58457195  0.41398925  0.81443691  1
  Li  Li10  1  0.08457195  0.08601075  0.31443691  1
  Li  Li11  1  0.41542805  0.58601075  0.18556309  1
  O  O12  1  0.88071489  0.79064781  0.81765119  1
  O  O13  1  0.61928511  0.29064781  0.68234881  1
  O  O14  1  0.11928511  0.20935219  0.18234881  1
  O  O15  1  0.38071489  0.70935219  0.31765119  1
  O  O16  1  0.55856498  0.92203100  0.30635579  1
  O  O17  1  0.94143502  0.42203100  0.19364421  1
  O  O18  1  0.44143502  0.07796900  0.69364421  1
  O  O19  1  0.05856498  0.57796900  0.80635579  1
  O  O20  1  0.54891863  0.83027205  0.90311439  1
  O  O21  1  0.95108137  0.33027205  0.59688561  1
  O  O22  1  0.45108137  0.16972795  0.09688561  1
  O  O23  1  0.04891863  0.66972795  0.40311439  1
  O  O24  1  0.95895626  0.12843063  0.44732431  1
  O  O25  1  0.54104374  0.62843063  0.05267569  1
  O  O26  1  0.04104374  0.87156937  0.55267569  1
  O  O27  1  0.45895626  0.37156937  0.94732431  1
  O  O28  1  0.88244141  0.00661174  0.24946239  1
  O  O29  1  0.61755859  0.50661174  0.25053761  1
  O  O30  1  0.11755859  0.99338826  0.75053761  1
  O  O31  1  0.38244141  0.49338826  0.74946239  1
  O  O32  1  0.67558301  0.23908775  0.30688268  1
  O  O33  1  0.82441699  0.73908775  0.19311732  1
  O  O34  1  0.32441699  0.76091225  0.69311732  1
  O  O35  1  0.17558301  0.26091225  0.80688268  1
  O  O36  1  0.76256152  0.95718866  0.07265643  1
  O  O37  1  0.73743848  0.45718866  0.42734357  1
  O  O38  1  0.23743848  0.04281134  0.92734357  1
  O  O39  1  0.26256152  0.54281134  0.57265643  1
  O  O40  1  0.72745907  0.02728373  0.72144475  1
  O  O41  1  0.77254093  0.52728373  0.77855525  1
  O  O42  1  0.27254093  0.97271627  0.27855525  1
  O  O43  1  0.22745907  0.47271627  0.22144475  1
  O  O44  1  0.80559864  0.81192415  0.43948849  1
  O  O45  1  0.69440136  0.31192415  0.06051151  1
  O  O46  1  0.19440136  0.18807585  0.56051151  1
  O  O47  1  0.30559864  0.68807585  0.93948849  1
  O  O48  1  0.95667766  0.11498339  0.89692468  1
  O  O49  1  0.54332234  0.61498339  0.60307532  1
  O  O50  1  0.04332234  0.88501661  0.10307532  1
  O  O51  1  0.45667766  0.38501661  0.39692468  1
  O  O52  1  0.59206742  0.13720812  0.91753801  1
  O  O53  1  0.90793258  0.63720812  0.58246199  1
  O  O54  1  0.40793258  0.86279188  0.08246199  1
  O  O55  1  0.09206742  0.36279188  0.41753801  1
  O  O56  1  0.62633806  0.09851280  0.53647839  1
  O  O57  1  0.87366194  0.59851280  0.96352161  1
  O  O58  1  0.37366194  0.90148720  0.46352161  1
  O  O59  1  0.12633806  0.40148720  0.03647839  1
  P  P60  1  0.54597482  0.24783152  0.00815416  1
  P  P61  1  0.95402518  0.74783152  0.49184584  1
  P  P62  1  0.45402518  0.75216848  0.99184584  1
  P  P63  1  0.04597482  0.25216848  0.50815416  1
  P  P64  1  0.61027423  0.12030624  0.65727054  1
  P  P65  1  0.88972577  0.62030624  0.84272946  1
  P  P66  1  0.38972577  0.87969376  0.34272946  1
  P  P67  1  0.11027423  0.37969376  0.15727054  1
  P  P68  1  0.88342541  0.89289711  0.15379647  1
  P  P69  1  0.61657459  0.39289711  0.34620353  1
  P  P70  1  0.11657459  0.10710289  0.84620353  1
  P  P71  1  0.38342541  0.60710289  0.65379647  1
  In  In72  1  0.74082697  0.03812522  0.39712039  1
  In  In73  1  0.75917303  0.53812522  0.10287961  1
  In  In74  1  0.25917303  0.96187478  0.60287961  1
  In  In75  1  0.24082697  0.46187478  0.89712039  1
  In  In76  1  0.76229725  0.96890749  0.89834734  1
  In  In77  1  0.73770275  0.46890749  0.60165266  1
  In  In78  1  0.23770275  0.03109251  0.10165266  1
  In  In79  1  0.26229725  0.53109251  0.39834734  1
