# generated using pymatgen
data_PrNiGe3
_symmetry_space_group_name_H-M   'P 1'
_cell_length_a   4.17526956
_cell_length_b   4.20152300
_cell_length_c   11.18504271
_cell_angle_alpha   90.00000000
_cell_angle_beta   100.75706753
_cell_angle_gamma   90.00000000
_symmetry_Int_Tables_number   1
_chemical_formula_structural   PrNiGe3
_chemical_formula_sum   'Pr2 Ni2 Ge6'
_cell_volume   192.76552695
_cell_formula_units_Z   2
loop_
 _symmetry_equiv_pos_site_id
 _symmetry_equiv_pos_as_xyz
  1  'x, y, z'
loop_
 _atom_site_type_symbol
 _atom_site_label
 _atom_site_symmetry_multiplicity
 _atom_site_fract_x
 _atom_site_fract_y
 _atom_site_fract_z
 _atom_site_occupancy
  Ni  Ni0  1  0.10846991  0.00000000  0.21693982  1
  Ni  Ni1  1  0.89153009  0.00000000  0.78306018  1
  Ge  Ge2  1  0.55667339  0.00000000  0.11334678  1
  Ge  Ge3  1  0.44332661  0.00000000  0.88665322  1
  Ge  Ge4  1  0.94332468  0.50000000  0.88664935  1
  Ge  Ge5  1  0.05667532  0.50000000  0.11335065  1
  Ge  Ge6  1  0.78410418  0.00000000  0.56820837  1
  Ge  Ge7  1  0.21589582  0.00000000  0.43179163  1
  Pr  Pr8  1  0.33133404  0.50000000  0.66266809  1
  Pr  Pr9  1  0.66866596  0.50000000  0.33733191  1
