# generated using pymatgen
data_Zr5Si4
_symmetry_space_group_name_H-M   'P 1'
_cell_length_a   7.16250067
_cell_length_b   7.16250067
_cell_length_c   13.07875590
_cell_angle_alpha   90.00000000
_cell_angle_beta   90.00000000
_cell_angle_gamma   90.00000000
_symmetry_Int_Tables_number   1
_chemical_formula_structural   Zr5Si4
_chemical_formula_sum   'Zr20 Si16'
_cell_volume   670.95869520
_cell_formula_units_Z   4
loop_
 _symmetry_equiv_pos_site_id
 _symmetry_equiv_pos_as_xyz
  1  'x, y, z'
loop_
 _atom_site_type_symbol
 _atom_site_label
 _atom_site_symmetry_multiplicity
 _atom_site_fract_x
 _atom_site_fract_y
 _atom_site_fract_z
 _atom_site_occupancy
  Si  Si0  1  0.05041756  0.69898649  0.43793122  1
  Si  Si1  1  0.94958244  0.30101351  0.93793122  1
  Si  Si2  1  0.69898649  0.05041756  0.56206878  1
  Si  Si3  1  0.19898649  0.44958244  0.18793122  1
  Si  Si4  1  0.80101351  0.55041756  0.68793122  1
  Si  Si5  1  0.44958244  0.19898649  0.81206878  1
  Si  Si6  1  0.55041756  0.80101351  0.31206878  1
  Si  Si7  1  0.30101351  0.94958244  0.06206878  1
  Si  Si8  1  0.85282584  0.79499146  0.82253349  1
  Si  Si9  1  0.14717416  0.20500854  0.32253349  1
  Si  Si10  1  0.79499146  0.85282584  0.17746651  1
  Si  Si11  1  0.29499146  0.64717416  0.57253349  1
  Si  Si12  1  0.70500854  0.35282584  0.07253349  1
  Si  Si13  1  0.64717416  0.29499146  0.42746651  1
  Si  Si14  1  0.35282584  0.70500854  0.92746651  1
  Si  Si15  1  0.20500854  0.14717416  0.67746651  1
  Zr  Zr16  1  0.35443757  0.50102916  0.37660316  1
  Zr  Zr17  1  0.85443757  0.99897084  0.37339684  1
  Zr  Zr18  1  0.00102916  0.14556243  0.12660316  1
  Zr  Zr19  1  0.99897084  0.85443757  0.62660316  1
  Zr  Zr20  1  0.64556243  0.49897084  0.87660316  1
  Zr  Zr21  1  0.50102916  0.35443757  0.62339684  1
  Zr  Zr22  1  0.49897084  0.64556243  0.12339684  1
  Zr  Zr23  1  0.14556243  0.00102916  0.87339684  1
  Zr  Zr24  1  0.99865854  0.64978635  0.03536078  1
  Zr  Zr25  1  0.00134146  0.35021365  0.53536078  1
  Zr  Zr26  1  0.64978635  0.99865854  0.96463922  1
  Zr  Zr27  1  0.14978635  0.50134146  0.78536078  1
  Zr  Zr28  1  0.85021365  0.49865854  0.28536078  1
  Zr  Zr29  1  0.50134146  0.14978635  0.21463922  1
  Zr  Zr30  1  0.49865854  0.85021365  0.71463922  1
  Zr  Zr31  1  0.35021365  0.00134146  0.46463922  1
  Zr  Zr32  1  0.67523732  0.67523732  0.50000000  1
  Zr  Zr33  1  0.82476268  0.17523732  0.75000000  1
  Zr  Zr34  1  0.17523732  0.82476268  0.25000000  1
  Zr  Zr35  1  0.32476268  0.32476268  0.00000000  1
