# generated using pymatgen
data_KNa2Zn3(PO4)3
_symmetry_space_group_name_H-M   'P 1'
_cell_length_a   17.90930334
_cell_length_b   17.90930304
_cell_length_c   8.29936301
_cell_angle_alpha   90.00000000
_cell_angle_beta   90.00000000
_cell_angle_gamma   120.00000056
_symmetry_Int_Tables_number   1
_chemical_formula_structural   KNa2Zn3(PO4)3
_chemical_formula_sum   'K8 Na16 Zn24 P24 O96'
_cell_volume   2305.32822555
_cell_formula_units_Z   8
loop_
 _symmetry_equiv_pos_site_id
 _symmetry_equiv_pos_as_xyz
  1  'x, y, z'
loop_
 _atom_site_type_symbol
 _atom_site_label
 _atom_site_symmetry_multiplicity
 _atom_site_fract_x
 _atom_site_fract_y
 _atom_site_fract_z
 _atom_site_occupancy
  O  O0  1  0.03972882  0.25771206  0.07177503  1
  O  O1  1  0.78201676  0.03972882  0.57177503  1
  O  O2  1  0.25771206  0.21798324  0.57177503  1
  O  O3  1  0.74228794  0.78201676  0.07177503  1
  O  O4  1  0.21798324  0.96027118  0.07177503  1
  O  O5  1  0.96027118  0.74228794  0.57177503  1
  O  O6  1  0.12023073  0.57434481  0.56212717  1
  O  O7  1  0.54588592  0.12023073  0.06212717  1
  O  O8  1  0.57434481  0.45411408  0.06212717  1
  O  O9  1  0.42565519  0.54588592  0.56212717  1
  O  O10  1  0.45411408  0.87976927  0.56212717  1
  O  O11  1  0.87976927  0.42565519  0.06212717  1
  O  O12  1  0.20135405  0.05650466  0.28207468  1
  O  O13  1  0.14484939  0.20135405  0.78207468  1
  O  O14  1  0.05650466  0.85515061  0.78207468  1
  O  O15  1  0.94349534  0.14484939  0.28207468  1
  O  O16  1  0.85515061  0.79864595  0.28207468  1
  O  O17  1  0.79864595  0.94349534  0.78207468  1
  O  O18  1  0.24075587  0.28483016  0.10410592  1
  O  O19  1  0.95592570  0.24075587  0.60410592  1
  O  O20  1  0.28483016  0.04407430  0.60410592  1
  O  O21  1  0.71516984  0.95592570  0.10410592  1
  O  O22  1  0.04407430  0.75924413  0.10410592  1
  O  O23  1  0.75924413  0.71516984  0.60410592  1
  O  O24  1  0.21397160  0.45532339  0.07431464  1
  O  O25  1  0.75864821  0.21397160  0.57431464  1
  O  O26  1  0.45532339  0.24135179  0.57431464  1
  O  O27  1  0.54467661  0.75864821  0.07431464  1
  O  O28  1  0.24135179  0.78602840  0.07431464  1
  O  O29  1  0.78602840  0.54467661  0.57431464  1
  O  O30  1  0.11314777  0.20138453  0.48714712  1
  O  O31  1  0.91176324  0.11314777  0.98714712  1
  O  O32  1  0.20138453  0.08823676  0.98714712  1
  O  O33  1  0.79861547  0.91176324  0.48714712  1
  O  O34  1  0.08823676  0.88685223  0.48714712  1
  O  O35  1  0.88685223  0.79861547  0.98714712  1
  O  O36  1  0.07156970  0.45162299  0.07143629  1
  O  O37  1  0.61994671  0.07156970  0.57143629  1
  O  O38  1  0.45162299  0.38005329  0.57143629  1
  O  O39  1  0.54837701  0.61994671  0.07143629  1
  O  O40  1  0.38005329  0.92843030  0.07143629  1
  O  O41  1  0.92843030  0.54837701  0.57143629  1
  O  O42  1  0.05041291  0.62231581  0.06245276  1
  O  O43  1  0.42809710  0.05041291  0.56245276  1
  O  O44  1  0.62231581  0.57190290  0.56245276  1
  O  O45  1  0.37768419  0.42809710  0.06245276  1
  O  O46  1  0.57190290  0.94958709  0.06245276  1
  O  O47  1  0.94958709  0.37768419  0.56245276  1
  O  O48  1  0.12139565  0.07448086  0.60674664  1
  O  O49  1  0.04691478  0.12139565  0.10674664  1
  O  O50  1  0.07448086  0.95308522  0.10674664  1
  O  O51  1  0.92551914  0.04691478  0.60674664  1
  O  O52  1  0.95308522  0.87860435  0.60674664  1
  O  O53  1  0.87860435  0.92551914  0.10674664  1
  O  O54  1  0.28571419  0.54646802  0.58229855  1
  O  O55  1  0.73924617  0.28571419  0.08229855  1
  O  O56  1  0.54646802  0.26075383  0.08229855  1
  O  O57  1  0.45353198  0.73924617  0.58229855  1
  O  O58  1  0.26075383  0.71428581  0.58229855  1
  O  O59  1  0.71428581  0.45353198  0.08229855  1
  O  O60  1  0.20489485  0.58536390  0.18198218  1
  O  O61  1  0.61953095  0.20489485  0.68198218  1
  O  O62  1  0.58536390  0.38046905  0.68198218  1
  O  O63  1  0.41463610  0.61953095  0.18198218  1
  O  O64  1  0.38046905  0.79510515  0.18198218  1
  O  O65  1  0.79510515  0.41463610  0.68198218  1
  O  O66  1  0.08410604  0.38571704  0.68442940  1
  O  O67  1  0.69838900  0.08410604  0.18442940  1
  O  O68  1  0.38571704  0.30161100  0.18442940  1
  O  O69  1  0.61428296  0.69838900  0.68442940  1
  O  O70  1  0.30161100  0.91589396  0.68442940  1
  O  O71  1  0.91589396  0.61428296  0.18442940  1
  O  O72  1  0.19161402  0.55531928  0.88515336  1
  O  O73  1  0.63629474  0.19161402  0.38515336  1
  O  O74  1  0.55531928  0.36370526  0.38515336  1
  O  O75  1  0.44468072  0.63629474  0.88515336  1
  O  O76  1  0.36370526  0.80838598  0.88515336  1
  O  O77  1  0.80838598  0.44468072  0.38515336  1
  O  O78  1  0.05164241  0.35053747  0.39047871  1
  O  O79  1  0.70110494  0.05164241  0.89047871  1
  O  O80  1  0.35053747  0.29889506  0.89047871  1
  O  O81  1  0.64946253  0.70110494  0.39047871  1
  O  O82  1  0.29889506  0.94835759  0.39047871  1
  O  O83  1  0.94835759  0.64946253  0.89047871  1
  O  O84  1  0.29276455  0.41387614  0.67889688  1
  O  O85  1  0.87888841  0.29276455  0.17889688  1
  O  O86  1  0.41387614  0.12111159  0.17889688  1
  O  O87  1  0.58612386  0.87888841  0.67889688  1
  O  O88  1  0.12111159  0.70723545  0.67889688  1
  O  O89  1  0.70723545  0.58612386  0.17889688  1
  O  O90  1  0.30115763  0.44574603  0.38241315  1
  O  O91  1  0.85541160  0.30115763  0.88241315  1
  O  O92  1  0.44574603  0.14458840  0.88241315  1
  O  O93  1  0.55425397  0.85541160  0.38241315  1
  O  O94  1  0.14458840  0.69884237  0.38241315  1
  O  O95  1  0.69884237  0.55425397  0.88241315  1
  Na  Na96  1  0.32214923  0.15283096  0.81020133  1
  Na  Na97  1  0.16931826  0.32214923  0.31020133  1
  Na  Na98  1  0.15283096  0.83068174  0.31020133  1
  Na  Na99  1  0.84716904  0.16931826  0.81020133  1
  Na  Na100  1  0.83068174  0.67785077  0.81020133  1
  Na  Na101  1  0.67785077  0.84716904  0.31020133  1
  Na  Na102  1  0.15763703  0.33850833  0.86065371  1
  Na  Na103  1  0.81912871  0.15763703  0.36065371  1
  Na  Na104  1  0.33850833  0.18087129  0.36065371  1
  Na  Na105  1  0.66149167  0.81912871  0.86065371  1
  Na  Na106  1  0.18087129  0.84236297  0.86065371  1
  Na  Na107  1  0.84236297  0.66149167  0.36065371  1
  Na  Na108  1  0.33333333  0.66666667  0.36514542  1
  Na  Na109  1  0.66666667  0.33333333  0.86514542  1
  Na  Na110  1  0.33333333  0.66666667  0.80511127  1
  Na  Na111  1  0.66666667  0.33333333  0.30511127  1
  P  P112  1  0.15963174  0.17378577  0.61263363  1
  P  P113  1  0.98584597  0.15963174  0.11263363  1
  P  P114  1  0.17378577  0.01415403  0.11263363  1
  P  P115  1  0.82621423  0.98584597  0.61263363  1
  P  P116  1  0.01415403  0.84036826  0.61263363  1
  P  P117  1  0.84036826  0.82621423  0.11263363  1
  P  P118  1  0.00963636  0.33846851  0.55947148  1
  P  P119  1  0.67116785  0.00963636  0.05947148  1
  P  P120  1  0.33846851  0.32883215  0.05947148  1
  P  P121  1  0.66153149  0.67116785  0.55947148  1
  P  P122  1  0.32883215  0.99036364  0.55947148  1
  P  P123  1  0.99036364  0.66153149  0.05947148  1
  P  P124  1  0.17062025  0.51153802  0.05372407  1
  P  P125  1  0.65908223  0.17062025  0.55372407  1
  P  P126  1  0.51153802  0.34091777  0.55372407  1
  P  P127  1  0.48846198  0.65908223  0.05372407  1
  P  P128  1  0.34091777  0.82937975  0.05372407  1
  P  P129  1  0.82937975  0.48846198  0.55372407  1
  P  P130  1  0.32606910  0.48795933  0.55177190  1
  P  P131  1  0.83810977  0.32606910  0.05177190  1
  P  P132  1  0.48795933  0.16189023  0.05177190  1
  P  P133  1  0.51204067  0.83810977  0.55177190  1
  P  P134  1  0.16189023  0.67393090  0.55177190  1
  P  P135  1  0.67393090  0.51204067  0.05177190  1
  K  K136  1  0.00000000  0.00000000  0.34361124  1
  K  K137  1  0.00000000  0.00000000  0.84361124  1
  K  K138  1  0.99918284  0.50192960  0.32844980  1
  K  K139  1  0.49725324  0.99918284  0.82844980  1
  K  K140  1  0.50192960  0.50274676  0.82844980  1
  K  K141  1  0.49807040  0.49725324  0.32844980  1
  K  K142  1  0.50274676  0.00081716  0.32844980  1
  K  K143  1  0.00081716  0.49807040  0.82844980  1
  Zn  Zn144  1  0.16191876  0.17251942  0.00688579  1
  Zn  Zn145  1  0.98939934  0.16191876  0.50688579  1
  Zn  Zn146  1  0.17251942  0.01060066  0.50688579  1
  Zn  Zn147  1  0.82748058  0.98939934  0.00688579  1
  Zn  Zn148  1  0.01060066  0.83808124  0.00688579  1
  Zn  Zn149  1  0.83808124  0.82748058  0.50688579  1
  Zn  Zn150  1  0.00423991  0.33580150  0.16814315  1
  Zn  Zn151  1  0.66843841  0.00423991  0.66814315  1
  Zn  Zn152  1  0.33580150  0.33156159  0.66814315  1
  Zn  Zn153  1  0.66419850  0.66843841  0.16814315  1
  Zn  Zn154  1  0.33156159  0.99576009  0.16814315  1
  Zn  Zn155  1  0.99576009  0.66419850  0.66814315  1
  Zn  Zn156  1  0.50848649  0.33927511  0.15990824  1
  Zn  Zn157  1  0.16921138  0.50848649  0.65990824  1
  Zn  Zn158  1  0.33927511  0.83078862  0.65990824  1
  Zn  Zn159  1  0.66072489  0.16921138  0.15990824  1
  Zn  Zn160  1  0.83078862  0.49151351  0.15990824  1
  Zn  Zn161  1  0.49151351  0.66072489  0.65990824  1
  Zn  Zn162  1  0.32939958  0.49550247  0.16053511  1
  Zn  Zn163  1  0.83389711  0.32939958  0.66053511  1
  Zn  Zn164  1  0.49550247  0.16610289  0.66053511  1
  Zn  Zn165  1  0.50449753  0.83389711  0.16053511  1
  Zn  Zn166  1  0.16610289  0.67060042  0.16053511  1
  Zn  Zn167  1  0.67060042  0.50449753  0.66053511  1
