# generated using pymatgen
data_KLaSiS4
_symmetry_space_group_name_H-M   'P 1'
_cell_length_a   6.64393116
_cell_length_b   6.64266597
_cell_length_c   8.85169362
_cell_angle_alpha   90.00000000
_cell_angle_beta   106.74723634
_cell_angle_gamma   90.00000000
_symmetry_Int_Tables_number   1
_chemical_formula_structural   KLaSiS4
_chemical_formula_sum   'K2 La2 Si2 S8'
_cell_volume   374.08592170
_cell_formula_units_Z   2
loop_
 _symmetry_equiv_pos_site_id
 _symmetry_equiv_pos_as_xyz
  1  'x, y, z'
loop_
 _atom_site_type_symbol
 _atom_site_label
 _atom_site_symmetry_multiplicity
 _atom_site_fract_x
 _atom_site_fract_y
 _atom_site_fract_z
 _atom_site_occupancy
  Si  Si0  1  0.21534456  0.25000000  0.31731422  1
  Si  Si1  1  0.78465544  0.75000000  0.68268578  1
  S  S2  1  0.99402083  0.49895293  0.72189533  1
  S  S3  1  0.00597917  0.99895293  0.27810467  1
  S  S4  1  0.00597917  0.50104707  0.27810467  1
  S  S5  1  0.99402083  0.00104707  0.72189533  1
  S  S6  1  0.41075398  0.25000000  0.16663289  1
  S  S7  1  0.58924602  0.75000000  0.83336711  1
  S  S8  1  0.39360421  0.25000000  0.56124444  1
  S  S9  1  0.60639579  0.75000000  0.43875556  1
  K  K10  1  0.72666758  0.25000000  0.93376669  1
  K  K11  1  0.27333242  0.75000000  0.06623331  1
  La  La12  1  0.76623937  0.25000000  0.44783024  1
  La  La13  1  0.23376063  0.75000000  0.55216976  1
