# generated using pymatgen
data_CaAl2O4
_symmetry_space_group_name_H-M   'P 1'
_cell_length_a   8.03956600
_cell_length_b   8.70714680
_cell_length_c   10.37778688
_cell_angle_alpha   90.00000000
_cell_angle_beta   95.01358757
_cell_angle_gamma   90.00000000
_symmetry_Int_Tables_number   1
_chemical_formula_structural   CaAl2O4
_chemical_formula_sum   'Ca8 Al16 O32'
_cell_volume   723.68308588
_cell_formula_units_Z   8
loop_
 _symmetry_equiv_pos_site_id
 _symmetry_equiv_pos_as_xyz
  1  'x, y, z'
loop_
 _atom_site_type_symbol
 _atom_site_label
 _atom_site_symmetry_multiplicity
 _atom_site_fract_x
 _atom_site_fract_y
 _atom_site_fract_z
 _atom_site_occupancy
  O  O0  1  0.01995335  0.01444588  0.83139564  1
  O  O1  1  0.98004665  0.51444588  0.66860436  1
  O  O2  1  0.98004665  0.98555412  0.16860436  1
  O  O3  1  0.01995335  0.48555412  0.33139564  1
  O  O4  1  0.76886562  0.25614739  0.70771939  1
  O  O5  1  0.23113438  0.75614739  0.79228061  1
  O  O6  1  0.23113438  0.74385261  0.29228061  1
  O  O7  1  0.76886562  0.24385261  0.20771939  1
  O  O8  1  0.71382509  0.92566883  0.70373214  1
  O  O9  1  0.28617491  0.42566883  0.79626786  1
  O  O10  1  0.28617491  0.07433117  0.29626786  1
  O  O11  1  0.71382509  0.57433117  0.20373214  1
  O  O12  1  0.21550034  0.93420904  0.53859323  1
  O  O13  1  0.78449966  0.43420904  0.96140677  1
  O  O14  1  0.78449966  0.06579096  0.46140677  1
  O  O15  1  0.21550034  0.56579096  0.03859323  1
  O  O16  1  0.48836073  0.15734721  0.56127777  1
  O  O17  1  0.51163927  0.65734721  0.93872223  1
  O  O18  1  0.51163927  0.84265279  0.43872223  1
  O  O19  1  0.48836073  0.34265279  0.06127777  1
  O  O20  1  0.15251980  0.25701420  0.57145470  1
  O  O21  1  0.84748020  0.75701420  0.92854530  1
  O  O22  1  0.84748020  0.74298580  0.42854530  1
  O  O23  1  0.15251980  0.24298580  0.07145470  1
  O  O24  1  0.34658353  0.43232022  0.28241053  1
  O  O25  1  0.65341647  0.93232022  0.21758947  1
  O  O26  1  0.65341647  0.56767978  0.71758947  1
  O  O27  1  0.34658353  0.06767978  0.78241053  1
  O  O28  1  0.72888264  0.42319149  0.46278074  1
  O  O29  1  0.27111736  0.92319149  0.03721926  1
  O  O30  1  0.27111736  0.57680851  0.53721926  1
  O  O31  1  0.72888264  0.07680851  0.96278074  1
  Al  Al32  1  0.22430139  0.94099488  0.86787401  1
  Al  Al33  1  0.77569861  0.44099488  0.63212599  1
  Al  Al34  1  0.77569861  0.05900512  0.13212599  1
  Al  Al35  1  0.22430139  0.55900512  0.36787401  1
  Al  Al36  1  0.82058101  0.94274153  0.86156211  1
  Al  Al37  1  0.17941899  0.44274153  0.63843789  1
  Al  Al38  1  0.17941899  0.05725847  0.13843789  1
  Al  Al39  1  0.82058101  0.55725847  0.36156211  1
  Al  Al40  1  0.69498704  0.09740949  0.61055178  1
  Al  Al41  1  0.30501296  0.59740949  0.88944822  1
  Al  Al42  1  0.30501296  0.90259051  0.38944822  1
  Al  Al43  1  0.69498704  0.40259051  0.11055178  1
  Al  Al44  1  0.29369473  0.10741106  0.61561595  1
  Al  Al45  1  0.70630527  0.60741106  0.88438405  1
  Al  Al46  1  0.70630527  0.89258894  0.38438405  1
  Al  Al47  1  0.29369473  0.39258894  0.11561595  1
  Ca  Ca48  1  0.99498418  0.28265289  0.87416811  1
  Ca  Ca49  1  0.00501582  0.78265289  0.62583189  1
  Ca  Ca50  1  0.00501582  0.71734711  0.12583189  1
  Ca  Ca51  1  0.99498418  0.21734711  0.37416811  1
  Ca  Ca52  1  0.53239198  0.25594039  0.85586249  1
  Ca  Ca53  1  0.46760802  0.75594039  0.64413751  1
  Ca  Ca54  1  0.46760802  0.74405961  0.14413751  1
  Ca  Ca55  1  0.53239198  0.24405961  0.35586249  1
