# generated using pymatgen
data_Na3Y(Si2O5)3
_symmetry_space_group_name_H-M   'P 1'
_cell_length_a   10.62574304
_cell_length_b   11.66639237
_cell_length_c   11.66639236
_cell_angle_alpha   100.63066956
_cell_angle_beta   90.00000000
_cell_angle_gamma   90.00000000
_symmetry_Int_Tables_number   1
_chemical_formula_structural   Na3Y(Si2O5)3
_chemical_formula_sum   'Na12 Y4 Si24 O60'
_cell_volume   1421.39194498
_cell_formula_units_Z   4
loop_
 _symmetry_equiv_pos_site_id
 _symmetry_equiv_pos_as_xyz
  1  'x, y, z'
loop_
 _atom_site_type_symbol
 _atom_site_label
 _atom_site_symmetry_multiplicity
 _atom_site_fract_x
 _atom_site_fract_y
 _atom_site_fract_z
 _atom_site_occupancy
  O  O0  1  0.15727539  0.34336607  0.98827625  1
  O  O1  1  0.65727539  0.15663393  0.51172375  1
  O  O2  1  0.84272461  0.98827625  0.34336607  1
  O  O3  1  0.34272461  0.51172375  0.15663393  1
  O  O4  1  0.84272461  0.65663393  0.01172375  1
  O  O5  1  0.34272461  0.84336607  0.48827625  1
  O  O6  1  0.15727539  0.01172375  0.65663393  1
  O  O7  1  0.65727539  0.48827625  0.84336607  1
  O  O8  1  0.16894208  0.51277395  0.76275972  1
  O  O9  1  0.66894208  0.98722605  0.73724028  1
  O  O10  1  0.83105792  0.76275972  0.51277395  1
  O  O11  1  0.33105792  0.73724028  0.98722605  1
  O  O12  1  0.83105792  0.48722605  0.23724028  1
  O  O13  1  0.33105792  0.01277395  0.26275972  1
  O  O14  1  0.16894208  0.23724028  0.48722605  1
  O  O15  1  0.66894208  0.26275972  0.01277395  1
  O  O16  1  0.48643383  0.33283231  0.88548926  1
  O  O17  1  0.98643383  0.16716769  0.61451074  1
  O  O18  1  0.51356617  0.88548926  0.33283231  1
  O  O19  1  0.01356617  0.61451074  0.16716769  1
  O  O20  1  0.51356617  0.66716769  0.11451074  1
  O  O21  1  0.01356617  0.83283231  0.38548926  1
  O  O22  1  0.48643383  0.11451074  0.66716769  1
  O  O23  1  0.98643383  0.38548926  0.83283231  1
  O  O24  1  0.43221886  0.66550606  0.33449394  1
  O  O25  1  0.42487767  0.25238551  0.07793152  1
  O  O26  1  0.57512233  0.07793152  0.25238551  1
  O  O27  1  0.07512233  0.42206848  0.24761449  1
  O  O28  1  0.57512233  0.74761449  0.92206848  1
  O  O29  1  0.07512233  0.75238551  0.57793152  1
  O  O30  1  0.42487767  0.92206848  0.74761449  1
  O  O31  1  0.92487767  0.57793152  0.75238551  1
  O  O32  1  0.31872793  0.34333568  0.34625529  1
  O  O33  1  0.81872793  0.15666432  0.15374471  1
  O  O34  1  0.68127207  0.34625529  0.34333568  1
  O  O35  1  0.18127207  0.15374471  0.15666432  1
  O  O36  1  0.68127207  0.65666432  0.65374471  1
  O  O37  1  0.18127207  0.84333568  0.84625529  1
  O  O38  1  0.31872793  0.65374471  0.65666432  1
  O  O39  1  0.81872793  0.84625529  0.84333568  1
  O  O40  1  0.79865420  0.06829259  0.93170741  1
  O  O41  1  0.29865420  0.43170741  0.56829259  1
  O  O42  1  0.20134580  0.93170741  0.06829259  1
  O  O43  1  0.70134580  0.56829259  0.43170741  1
  O  O44  1  0.50568583  0.10711858  0.89288142  1
  O  O45  1  0.00568583  0.39288142  0.60711858  1
  O  O46  1  0.49431417  0.89288142  0.10711858  1
  O  O47  1  0.99431417  0.60711858  0.39288142  1
  O  O48  1  0.58745599  0.50177962  0.22197866  1
  O  O49  1  0.08745599  0.99822038  0.27802134  1
  O  O50  1  0.41254401  0.22197866  0.50177962  1
  O  O51  1  0.91254401  0.27802134  0.99822038  1
  O  O52  1  0.41254401  0.49822038  0.77802134  1
  O  O53  1  0.91254401  0.00177962  0.72197866  1
  O  O54  1  0.58745599  0.77802134  0.49822038  1
  O  O55  1  0.08745599  0.72197866  0.00177962  1
  O  O56  1  0.06778114  0.16550606  0.83449394  1
  O  O57  1  0.56778114  0.33449394  0.66550606  1
  O  O58  1  0.93221886  0.83449394  0.16550606  1
  O  O59  1  0.92487767  0.24761449  0.42206848  1
  Na  Na60  1  0.75000000  0.97133343  0.52866657  1
  Na  Na61  1  0.25000000  0.52866657  0.97133343  1
  Na  Na62  1  0.25000000  0.02866657  0.47133343  1
  Na  Na63  1  0.75000000  0.47133343  0.02866657  1
  Na  Na64  1  0.00000000  0.23889494  0.23889494  1
  Na  Na65  1  0.50000000  0.26110506  0.26110506  1
  Na  Na66  1  0.00000000  0.76110506  0.76110506  1
  Na  Na67  1  0.50000000  0.73889494  0.73889494  1
  Na  Na68  1  0.75024047  0.92797693  0.07202307  1
  Na  Na69  1  0.25024047  0.57202307  0.42797693  1
  Na  Na70  1  0.24975953  0.07202307  0.92797693  1
  Na  Na71  1  0.74975953  0.42797693  0.57202307  1
  Si  Si72  1  0.01984915  0.47066357  0.73967204  1
  Si  Si73  1  0.51984915  0.02933643  0.76032796  1
  Si  Si74  1  0.98015085  0.73967204  0.47066357  1
  Si  Si75  1  0.48015085  0.76032796  0.02933643  1
  Si  Si76  1  0.98015085  0.52933643  0.26032796  1
  Si  Si77  1  0.48015085  0.97066357  0.23967204  1
  Si  Si78  1  0.01984915  0.26032796  0.52933643  1
  Si  Si79  1  0.51984915  0.23967204  0.97066357  1
  Si  Si80  1  0.53519894  0.41502176  0.79499725  1
  Si  Si81  1  0.03519894  0.08497824  0.70500275  1
  Si  Si82  1  0.46480106  0.79499725  0.41502176  1
  Si  Si83  1  0.96480106  0.70500275  0.08497824  1
  Si  Si84  1  0.46480106  0.58497824  0.20500275  1
  Si  Si85  1  0.96480106  0.91502176  0.29499725  1
  Si  Si86  1  0.53519894  0.20500275  0.58497824  1
  Si  Si87  1  0.03519894  0.29499725  0.91502176  1
  Si  Si88  1  0.30028633  0.52771102  0.69008473  1
  Si  Si89  1  0.80028633  0.97228898  0.80991527  1
  Si  Si90  1  0.69971367  0.69008473  0.52771102  1
  Si  Si91  1  0.19971367  0.80991527  0.97228898  1
  Si  Si92  1  0.69971367  0.47228898  0.30991527  1
  Si  Si93  1  0.19971367  0.02771102  0.19008473  1
  Si  Si94  1  0.30028633  0.30991527  0.47228898  1
  Si  Si95  1  0.80028633  0.19008473  0.02771102  1
  Y  Y96  1  0.25000000  0.84091094  0.65908906  1
  Y  Y97  1  0.75000000  0.65908906  0.84091094  1
  Y  Y98  1  0.75000000  0.15908906  0.34091094  1
  Y  Y99  1  0.25000000  0.34091094  0.15908906  1
