# generated using pymatgen
data_K2Ca2(SO4)3
_symmetry_space_group_name_H-M   'P 1'
_cell_length_a   10.64134951
_cell_length_b   10.64134951
_cell_length_c   10.64134951
_cell_angle_alpha   90.00000000
_cell_angle_beta   90.00000000
_cell_angle_gamma   90.00000000
_symmetry_Int_Tables_number   1
_chemical_formula_structural   K2Ca2(SO4)3
_chemical_formula_sum   'K8 Ca8 S12 O48'
_cell_volume   1205.00853460
_cell_formula_units_Z   4
loop_
 _symmetry_equiv_pos_site_id
 _symmetry_equiv_pos_as_xyz
  1  'x, y, z'
loop_
 _atom_site_type_symbol
 _atom_site_label
 _atom_site_symmetry_multiplicity
 _atom_site_fract_x
 _atom_site_fract_y
 _atom_site_fract_z
 _atom_site_occupancy
  O  O0  1  0.23212098  0.57851900  0.63479596  1
  O  O1  1  0.73212098  0.92148100  0.36520404  1
  O  O2  1  0.76787902  0.07851900  0.86520404  1
  O  O3  1  0.92148100  0.36520404  0.73212098  1
  O  O4  1  0.86520404  0.76787902  0.07851900  1
  O  O5  1  0.36520404  0.73212098  0.92148100  1
  O  O6  1  0.57851900  0.63479596  0.23212098  1
  O  O7  1  0.63479596  0.23212098  0.57851900  1
  O  O8  1  0.07851900  0.86520404  0.76787902  1
  O  O9  1  0.42148100  0.13479596  0.26787902  1
  O  O10  1  0.13479596  0.26787902  0.42148100  1
  O  O11  1  0.26787902  0.42148100  0.13479596  1
  O  O12  1  0.27397574  0.51994875  0.41754517  1
  O  O13  1  0.77397574  0.98005125  0.58245483  1
  O  O14  1  0.72602426  0.01994875  0.08245483  1
  O  O15  1  0.98005125  0.58245483  0.77397574  1
  O  O16  1  0.08245483  0.72602426  0.01994875  1
  O  O17  1  0.58245483  0.77397574  0.98005125  1
  O  O18  1  0.98310240  0.60127176  0.18385016  1
  O  O19  1  0.51994875  0.41754517  0.27397574  1
  O  O20  1  0.01994875  0.08245483  0.72602426  1
  O  O21  1  0.48005125  0.91754517  0.22602426  1
  O  O22  1  0.91754517  0.22602426  0.48005125  1
  O  O23  1  0.22602426  0.48005125  0.91754517  1
  O  O24  1  0.39872824  0.68385016  0.51689760  1
  O  O25  1  0.89872824  0.81614984  0.48310240  1
  O  O26  1  0.60127176  0.18385016  0.98310240  1
  O  O27  1  0.81614984  0.48310240  0.89872824  1
  O  O28  1  0.32126221  0.28069027  0.96252088  1
  O  O29  1  0.96252088  0.32126221  0.28069027  1
  O  O30  1  0.28069027  0.96252088  0.32126221  1
  O  O31  1  0.21930973  0.03747912  0.82126221  1
  O  O32  1  0.46252088  0.17873779  0.71930973  1
  O  O33  1  0.71930973  0.46252088  0.17873779  1
  O  O34  1  0.53747912  0.67873779  0.78069027  1
  O  O35  1  0.03747912  0.82126221  0.21930973  1
  O  O36  1  0.78069027  0.53747912  0.67873779  1
  O  O37  1  0.82126221  0.21930973  0.03747912  1
  O  O38  1  0.67873779  0.78069027  0.53747912  1
  O  O39  1  0.17873779  0.71930973  0.46252088  1
  O  O40  1  0.10127176  0.31614984  0.01689760  1
  O  O41  1  0.01689760  0.10127176  0.31614984  1
  O  O42  1  0.31614984  0.01689760  0.10127176  1
  O  O43  1  0.18385016  0.98310240  0.60127176  1
  O  O44  1  0.51689760  0.39872824  0.68385016  1
  O  O45  1  0.68385016  0.51689760  0.39872824  1
  O  O46  1  0.48310240  0.89872824  0.81614984  1
  O  O47  1  0.41754517  0.27397574  0.51994875  1
  S  S48  1  0.27139153  0.62553228  0.50876105  1
  S  S49  1  0.77139153  0.87446772  0.49123895  1
  S  S50  1  0.72860847  0.12553228  0.99123895  1
  S  S51  1  0.87446772  0.49123895  0.77139153  1
  S  S52  1  0.99123895  0.72860847  0.12553228  1
  S  S53  1  0.49123895  0.77139153  0.87446772  1
  S  S54  1  0.62553228  0.50876105  0.27139153  1
  S  S55  1  0.50876105  0.27139153  0.62553228  1
  S  S56  1  0.12553228  0.99123895  0.72860847  1
  S  S57  1  0.22860847  0.37446772  0.00876105  1
  S  S58  1  0.00876105  0.22860847  0.37446772  1
  S  S59  1  0.37446772  0.00876105  0.22860847  1
  K  K60  1  0.68552747  0.18552747  0.31447253  1
  K  K61  1  0.31447253  0.68552747  0.18552747  1
  K  K62  1  0.94450742  0.55549258  0.44450742  1
  K  K63  1  0.18552747  0.31447253  0.68552747  1
  K  K64  1  0.05549258  0.05549258  0.05549258  1
  K  K65  1  0.44450742  0.94450742  0.55549258  1
  K  K66  1  0.55549258  0.44450742  0.94450742  1
  K  K67  1  0.81447253  0.81447253  0.81447253  1
  Ca  Ca68  1  0.32930503  0.32930503  0.32930503  1
  Ca  Ca69  1  0.17069497  0.67069497  0.82930503  1
  Ca  Ca70  1  0.82930503  0.17069497  0.67069497  1
  Ca  Ca71  1  0.67069497  0.82930503  0.17069497  1
  Ca  Ca72  1  0.58905129  0.58905129  0.58905129  1
  Ca  Ca73  1  0.08905129  0.91094871  0.41094871  1
  Ca  Ca74  1  0.41094871  0.08905129  0.91094871  1
  Ca  Ca75  1  0.91094871  0.41094871  0.08905129  1
