# generated using pymatgen
data_Cs4Ta2S11
_symmetry_space_group_name_H-M   'P 1'
_cell_length_a   8.16637157
_cell_length_b   14.31581316
_cell_length_c   18.93649054
_cell_angle_alpha   90.00000000
_cell_angle_beta   90.00000000
_cell_angle_gamma   90.00000000
_symmetry_Int_Tables_number   1
_chemical_formula_structural   Cs4Ta2S11
_chemical_formula_sum   'Cs16 Ta8 S44'
_cell_volume   2213.83196243
_cell_formula_units_Z   4
loop_
 _symmetry_equiv_pos_site_id
 _symmetry_equiv_pos_as_xyz
  1  'x, y, z'
loop_
 _atom_site_type_symbol
 _atom_site_label
 _atom_site_symmetry_multiplicity
 _atom_site_fract_x
 _atom_site_fract_y
 _atom_site_fract_z
 _atom_site_occupancy
  S  S0  1  0.25108082  0.43449674  0.03221591  1
  S  S1  1  0.74891918  0.56550326  0.53221591  1
  S  S2  1  0.74891918  0.93449674  0.03221591  1
  S  S3  1  0.25108082  0.06550326  0.53221591  1
  S  S4  1  0.45100680  0.52700507  0.87234673  1
  S  S5  1  0.54899320  0.47299493  0.37234673  1
  S  S6  1  0.54899320  0.02700507  0.87234673  1
  S  S7  1  0.45100680  0.97299493  0.37234673  1
  S  S8  1  0.26160072  0.68059820  0.07132307  1
  S  S9  1  0.73839928  0.31940180  0.57132307  1
  S  S10  1  0.73839928  0.18059820  0.07132307  1
  S  S11  1  0.26160072  0.81940180  0.57132307  1
  S  S12  1  0.03558130  0.66301663  0.02208163  1
  S  S13  1  0.96441870  0.33698337  0.52208163  1
  S  S14  1  0.96441870  0.16301663  0.02208163  1
  S  S15  1  0.03558130  0.83698337  0.52208163  1
  S  S16  1  0.39931221  0.57457892  0.69132615  1
  S  S17  1  0.55263713  0.60235644  0.95613001  1
  S  S18  1  0.44736287  0.10235644  0.95613001  1
  S  S19  1  0.55263713  0.89764356  0.45613001  1
  S  S20  1  0.25821266  0.46773962  0.73501466  1
  S  S21  1  0.74178734  0.53226038  0.23501466  1
  S  S22  1  0.74178734  0.96773962  0.73501466  1
  S  S23  1  0.25821266  0.03226038  0.23501466  1
  S  S24  1  0.00351590  0.81638961  0.22662307  1
  S  S25  1  0.99648410  0.18361039  0.72662307  1
  S  S26  1  0.99648410  0.31638961  0.22662307  1
  S  S27  1  0.00351590  0.68361039  0.72662307  1
  S  S28  1  0.39759194  0.74491040  0.30735294  1
  S  S29  1  0.60240806  0.25508960  0.80735294  1
  S  S30  1  0.60240806  0.24491040  0.30735294  1
  S  S31  1  0.39759194  0.75508960  0.80735294  1
  S  S32  1  0.23086199  0.76403647  0.38971911  1
  S  S33  1  0.76913801  0.23596353  0.88971911  1
  S  S34  1  0.76913801  0.26403647  0.38971911  1
  S  S35  1  0.23086199  0.73596353  0.88971911  1
  S  S36  1  0.04737457  0.96894418  0.37811395  1
  S  S37  1  0.95262543  0.03105582  0.87811395  1
  S  S38  1  0.95262543  0.46894418  0.37811395  1
  S  S39  1  0.04737457  0.53105582  0.87811395  1
  S  S40  1  0.39931221  0.92542108  0.19132615  1
  S  S41  1  0.60068779  0.07457892  0.69132615  1
  S  S42  1  0.60068779  0.42542108  0.19132615  1
  S  S43  1  0.44736287  0.39764356  0.45613001  1
  Cs  Cs44  1  0.66678782  0.76576000  0.62657427  1
  Cs  Cs45  1  0.33321218  0.23424000  0.12657427  1
  Cs  Cs46  1  0.33321218  0.26576000  0.62657427  1
  Cs  Cs47  1  0.66678782  0.73424000  0.12657427  1
  Cs  Cs48  1  0.18667515  0.58010962  0.52698355  1
  Cs  Cs49  1  0.81332485  0.41989038  0.02698355  1
  Cs  Cs50  1  0.81332485  0.08010962  0.52698355  1
  Cs  Cs51  1  0.18667515  0.91989038  0.02698355  1
  Cs  Cs52  1  0.79496994  0.45830937  0.72796234  1
  Cs  Cs53  1  0.20503006  0.54169063  0.22796234  1
  Cs  Cs54  1  0.20503006  0.95830937  0.72796234  1
  Cs  Cs55  1  0.79496994  0.04169063  0.22796234  1
  Cs  Cs56  1  0.20213565  0.28843548  0.87806840  1
  Cs  Cs57  1  0.79786435  0.71156452  0.37806840  1
  Cs  Cs58  1  0.79786435  0.78843548  0.87806840  1
  Cs  Cs59  1  0.20213565  0.21156452  0.37806840  1
  Ta  Ta60  1  0.25885940  0.56884528  0.96959524  1
  Ta  Ta61  1  0.74114060  0.43115472  0.46959524  1
  Ta  Ta62  1  0.74114060  0.06884528  0.96959524  1
  Ta  Ta63  1  0.25885940  0.93115472  0.46959524  1
  Ta  Ta64  1  0.21176545  0.62206257  0.78992898  1
  Ta  Ta65  1  0.78823455  0.37793743  0.28992898  1
  Ta  Ta66  1  0.78823455  0.12206257  0.78992898  1
  Ta  Ta67  1  0.21176545  0.87793743  0.28992898  1
