# generated using pymatgen
data_SrAlF5
_symmetry_space_group_name_H-M   'P 1'
_cell_length_a   7.54791717
_cell_length_b   9.07104364
_cell_length_c   10.89039642
_cell_angle_alpha   94.30171295
_cell_angle_beta   90.00000000
_cell_angle_gamma   90.00000000
_symmetry_Int_Tables_number   1
_chemical_formula_structural   SrAlF5
_chemical_formula_sum   'Sr8 Al8 F40'
_cell_volume   743.53752092
_cell_formula_units_Z   8
loop_
 _symmetry_equiv_pos_site_id
 _symmetry_equiv_pos_as_xyz
  1  'x, y, z'
loop_
 _atom_site_type_symbol
 _atom_site_label
 _atom_site_symmetry_multiplicity
 _atom_site_fract_x
 _atom_site_fract_y
 _atom_site_fract_z
 _atom_site_occupancy
  F  F0  1  0.06482124  0.18011071  0.83180381  1
  F  F1  1  0.56482124  0.31988929  0.66819619  1
  F  F2  1  0.93517876  0.81988929  0.16819619  1
  F  F3  1  0.43517876  0.68011071  0.33180381  1
  F  F4  1  0.50770132  0.40780556  0.27114124  1
  F  F5  1  0.00770132  0.09219444  0.22885876  1
  F  F6  1  0.49229868  0.59219444  0.72885876  1
  F  F7  1  0.99229868  0.90780556  0.77114124  1
  F  F8  1  0.55399481  0.31324763  0.04236162  1
  F  F9  1  0.05399481  0.18675237  0.45763838  1
  F  F10  1  0.44600519  0.68675237  0.95763838  1
  F  F11  1  0.94600519  0.81324763  0.54236162  1
  F  F12  1  0.60712866  0.87410772  0.14844788  1
  F  F13  1  0.10712866  0.62589228  0.35155212  1
  F  F14  1  0.39287134  0.12589228  0.85155212  1
  F  F15  1  0.89287134  0.37410772  0.64844788  1
  F  F16  1  0.81210403  0.67118313  0.71405537  1
  F  F17  1  0.31210403  0.82881687  0.78594463  1
  F  F18  1  0.18789597  0.32881687  0.28594463  1
  F  F19  1  0.68789597  0.17118313  0.21405537  1
  F  F20  1  0.73831553  0.46434382  0.84762737  1
  F  F21  1  0.23831553  0.03565618  0.65237263  1
  F  F22  1  0.26168447  0.53565618  0.15237263  1
  F  F23  1  0.76168447  0.96434382  0.34762737  1
  F  F24  1  0.66925553  0.90367707  0.80471756  1
  F  F25  1  0.16925553  0.59632293  0.69528244  1
  F  F26  1  0.33074447  0.09632293  0.19528244  1
  F  F27  1  0.83074447  0.40367707  0.30471756  1
  F  F28  1  0.60907644  0.82001283  0.56371651  1
  F  F29  1  0.10907644  0.67998717  0.93628349  1
  F  F30  1  0.39092356  0.17998717  0.43628349  1
  F  F31  1  0.89092356  0.32001283  0.06371651  1
  F  F32  1  0.78186804  0.06048886  0.63748937  1
  F  F33  1  0.28186804  0.43951114  0.86251063  1
  F  F34  1  0.21813196  0.93951114  0.36251063  1
  F  F35  1  0.71813196  0.56048886  0.13748937  1
  F  F36  1  0.31794728  0.48649918  0.47459126  1
  F  F37  1  0.81794728  0.01350082  0.02540874  1
  F  F38  1  0.68205272  0.51350082  0.52540874  1
  F  F39  1  0.18205272  0.98649918  0.97459126  1
  Al  Al40  1  0.70600355  0.36731083  0.16488683  1
  Al  Al41  1  0.20600355  0.13268917  0.33511317  1
  Al  Al42  1  0.29399645  0.63268917  0.83511317  1
  Al  Al43  1  0.79399645  0.86731083  0.66488683  1
  Al  Al44  1  0.80009835  0.99083699  0.18699825  1
  Al  Al45  1  0.30009835  0.50916301  0.31300175  1
  Al  Al46  1  0.19990165  0.00916301  0.81300175  1
  Al  Al47  1  0.69990165  0.49083699  0.68699825  1
  Sr  Sr48  1  0.77925956  0.68210230  0.36182464  1
  Sr  Sr49  1  0.27925956  0.81789770  0.13817536  1
  Sr  Sr50  1  0.22074044  0.31789770  0.63817536  1
  Sr  Sr51  1  0.72074044  0.18210230  0.86182464  1
  Sr  Sr52  1  0.72243466  0.22129494  0.46187364  1
  Sr  Sr53  1  0.22243466  0.27870506  0.03812636  1
  Sr  Sr54  1  0.27756534  0.77870506  0.53812636  1
  Sr  Sr55  1  0.77756534  0.72129494  0.96187364  1
