# generated using pymatgen
data_Sr3Y(BO3)3
_symmetry_space_group_name_H-M   'P 1'
_cell_length_a   7.92928998
_cell_length_b   7.92928998
_cell_length_c   7.92928998
_cell_angle_alpha   105.02345772
_cell_angle_beta   105.02345772
_cell_angle_gamma   105.02345770
_symmetry_Int_Tables_number   1
_chemical_formula_structural   Sr3Y(BO3)3
_chemical_formula_sum   'Sr6 Y2 B6 O18'
_cell_volume   435.64505386
_cell_formula_units_Z   2
loop_
 _symmetry_equiv_pos_site_id
 _symmetry_equiv_pos_as_xyz
  1  'x, y, z'
loop_
 _atom_site_type_symbol
 _atom_site_label
 _atom_site_symmetry_multiplicity
 _atom_site_fract_x
 _atom_site_fract_y
 _atom_site_fract_z
 _atom_site_occupancy
  B  B0  1  0.61093786  0.70741333  0.95993325  1
  B  B1  1  0.70741333  0.95993325  0.61093786  1
  B  B2  1  0.95993325  0.61093786  0.70741333  1
  B  B3  1  0.29258667  0.04006675  0.38906214  1
  B  B4  1  0.04006675  0.38906214  0.29258667  1
  B  B5  1  0.38906214  0.29258667  0.04006675  1
  O  O6  1  0.81181886  0.04495635  0.52228087  1
  O  O7  1  0.04495635  0.52228087  0.81181886  1
  O  O8  1  0.49315216  0.44552799  0.20485533  1
  O  O9  1  0.20485533  0.49315216  0.44552799  1
  O  O10  1  0.44552799  0.20485533  0.49315216  1
  O  O11  1  0.55447201  0.79514467  0.50684784  1
  O  O12  1  0.50684784  0.55447201  0.79514467  1
  O  O13  1  0.79514467  0.50684784  0.55447201  1
  O  O14  1  0.19721210  0.25229885  0.96796088  1
  O  O15  1  0.96796088  0.19721210  0.25229885  1
  O  O16  1  0.25229885  0.96796088  0.19721210  1
  O  O17  1  0.80278790  0.74770115  0.03203912  1
  O  O18  1  0.03203912  0.80278790  0.74770115  1
  O  O19  1  0.74770115  0.03203912  0.80278790  1
  O  O20  1  0.47771913  0.18818114  0.95504365  1
  O  O21  1  0.95504365  0.47771913  0.18818114  1
  O  O22  1  0.18818114  0.95504365  0.47771913  1
  O  O23  1  0.52228087  0.81181886  0.04495635  1
  Sr  Sr24  1  0.73517679  0.36010909  0.86109217  1
  Sr  Sr25  1  0.36010909  0.86109217  0.73517679  1
  Sr  Sr26  1  0.86109217  0.73517679  0.36010909  1
  Sr  Sr27  1  0.26482321  0.63989091  0.13890783  1
  Sr  Sr28  1  0.63989091  0.13890783  0.26482321  1
  Sr  Sr29  1  0.13890783  0.26482321  0.63989091  1
  Y  Y30  1  0.50000000  0.50000000  0.50000000  1
  Y  Y31  1  0.00000000  0.00000000  0.00000000  1
