# generated using pymatgen
data_Sr(Ni5P3)2
_symmetry_space_group_name_H-M   'P 1'
_cell_length_a   6.42981706
_cell_length_b   8.65425463
_cell_length_c   8.72641622
_cell_angle_alpha   90.00000000
_cell_angle_beta   90.00000000
_cell_angle_gamma   111.80710726
_symmetry_Int_Tables_number   1
_chemical_formula_structural   Sr(Ni5P3)2
_chemical_formula_sum   'Sr2 Ni20 P12'
_cell_volume   450.83532383
_cell_formula_units_Z   2
loop_
 _symmetry_equiv_pos_site_id
 _symmetry_equiv_pos_as_xyz
  1  'x, y, z'
loop_
 _atom_site_type_symbol
 _atom_site_label
 _atom_site_symmetry_multiplicity
 _atom_site_fract_x
 _atom_site_fract_y
 _atom_site_fract_z
 _atom_site_occupancy
  P  P0  1  0.35555844  0.21111689  0.75000000  1
  P  P1  1  0.14444156  0.78888311  0.25000000  1
  P  P2  1  0.59118446  0.18236893  0.37142049  1
  P  P3  1  0.40881554  0.81763107  0.62857951  1
  P  P4  1  0.90881554  0.81763107  0.87142049  1
  P  P5  1  0.09118446  0.18236893  0.12857951  1
  P  P6  1  0.70841228  0.41682455  0.07302687  1
  P  P7  1  0.29158772  0.58317545  0.92697313  1
  P  P8  1  0.79158772  0.58317545  0.57302687  1
  P  P9  1  0.20841228  0.41682455  0.42697313  1
  P  P10  1  0.64444156  0.78888311  0.25000000  1
  P  P11  1  0.85555844  0.21111689  0.75000000  1
  Ni  Ni12  1  0.79347745  0.58695491  0.29074378  1
  Ni  Ni13  1  0.70652255  0.41304509  0.79074378  1
  Ni  Ni14  1  0.58647750  0.67295500  0.75000000  1
  Ni  Ni15  1  0.29347745  0.58695491  0.20925622  1
  Ni  Ni16  1  0.41352250  0.32704500  0.25000000  1
  Ni  Ni17  1  0.08647750  0.67295500  0.75000000  1
  Ni  Ni18  1  0.04367608  0.08735217  0.88054269  1
  Ni  Ni19  1  0.95632392  0.91264783  0.11945731  1
  Ni  Ni20  1  0.45632392  0.91264783  0.38054269  1
  Ni  Ni21  1  0.54367608  0.08735217  0.61945731  1
  Ni  Ni22  1  0.12624319  0.65301314  0.47005630  1
  Ni  Ni23  1  0.47323004  0.34698686  0.52994370  1
  Ni  Ni24  1  0.37375681  0.34698686  0.97005630  1
  Ni  Ni25  1  0.02676996  0.65301314  0.02994370  1
  Ni  Ni26  1  0.87375681  0.34698686  0.52994370  1
  Ni  Ni27  1  0.52676996  0.65301314  0.47005630  1
  Ni  Ni28  1  0.62624319  0.65301314  0.02994370  1
  Ni  Ni29  1  0.97323004  0.34698686  0.97005630  1
  Ni  Ni30  1  0.91352250  0.32704500  0.25000000  1
  Ni  Ni31  1  0.20652255  0.41304509  0.70925622  1
  Sr  Sr32  1  0.00000000  0.00000000  0.50000000  1
  Sr  Sr33  1  0.50000000  0.00000000  0.00000000  1
