# generated using pymatgen
data_Hf7P4
_symmetry_space_group_name_H-M   'P 1'
_cell_length_a   3.53421400
_cell_length_b   8.06899148
_cell_length_c   14.69895213
_cell_angle_alpha   104.18231800
_cell_angle_beta   90.00000000
_cell_angle_gamma   102.65028946
_symmetry_Int_Tables_number   1
_chemical_formula_structural   Hf7P4
_chemical_formula_sum   'Hf14 P8'
_cell_volume   395.89804873
_cell_formula_units_Z   2
loop_
 _symmetry_equiv_pos_site_id
 _symmetry_equiv_pos_as_xyz
  1  'x, y, z'
loop_
 _atom_site_type_symbol
 _atom_site_label
 _atom_site_symmetry_multiplicity
 _atom_site_fract_x
 _atom_site_fract_y
 _atom_site_fract_z
 _atom_site_occupancy
  P  P0  1  0.93691168  0.87382335  0.14740458  1
  P  P1  1  0.06308832  0.12617665  0.85259542  1
  P  P2  1  0.62985769  0.25971538  0.66072947  1
  P  P3  1  0.37014231  0.74028462  0.33927053  1
  P  P4  1  0.62431725  0.24863449  0.39951605  1
  P  P5  1  0.37568275  0.75136551  0.60048395  1
  P  P6  1  0.82346381  0.64692762  0.88832437  1
  P  P7  1  0.17653619  0.35307238  0.11167563  1
  Hf  Hf8  1  0.33925569  0.67851139  0.02872185  1
  Hf  Hf9  1  0.66074431  0.32148861  0.97127815  1
  Hf  Hf10  1  0.00378337  0.00756673  0.66921145  1
  Hf  Hf11  1  0.99621663  0.99243327  0.33078855  1
  Hf  Hf12  1  0.17622702  0.35245403  0.54093485  1
  Hf  Hf13  1  0.82377298  0.64754597  0.45906515  1
  Hf  Hf14  1  0.79468381  0.58936762  0.20263002  1
  Hf  Hf15  1  0.20531619  0.41063238  0.79736998  1
  Hf  Hf16  1  0.80341431  0.60682862  0.68849270  1
  Hf  Hf17  1  0.19658569  0.39317138  0.31150730  1
  Hf  Hf18  1  0.56905468  0.13810936  0.16863623  1
  Hf  Hf19  1  0.43094532  0.86189064  0.83136377  1
  Hf  Hf20  1  0.50000000  0.00000000  0.50000000  1
  Hf  Hf21  1  0.00000000  0.00000000  0.00000000  1
