# generated using pymatgen
data_Cs3GeF7
_symmetry_space_group_name_H-M   'P 1'
_cell_length_a   6.33167825
_cell_length_b   8.58169747
_cell_length_c   8.58169747
_cell_angle_alpha   90.00000000
_cell_angle_beta   90.00000000
_cell_angle_gamma   90.00000000
_symmetry_Int_Tables_number   1
_chemical_formula_structural   Cs3GeF7
_chemical_formula_sum   'Cs6 Ge2 F14'
_cell_volume   466.29980980
_cell_formula_units_Z   2
loop_
 _symmetry_equiv_pos_site_id
 _symmetry_equiv_pos_as_xyz
  1  'x, y, z'
loop_
 _atom_site_type_symbol
 _atom_site_label
 _atom_site_symmetry_multiplicity
 _atom_site_fract_x
 _atom_site_fract_y
 _atom_site_fract_z
 _atom_site_occupancy
  F  F0  1  0.50000000  0.50000000  0.50000000  1
  F  F1  1  0.50000000  0.00000000  0.00000000  1
  F  F2  1  0.79292503  0.89367811  0.39367811  1
  F  F3  1  0.79292503  0.10632189  0.60632189  1
  F  F4  1  0.79292503  0.39367811  0.10632189  1
  F  F5  1  0.79292503  0.60632189  0.89367811  1
  F  F6  1  0.20707497  0.89367811  0.39367811  1
  F  F7  1  0.20707497  0.60632189  0.89367811  1
  F  F8  1  0.00000000  0.34873903  0.84873903  1
  F  F9  1  0.00000000  0.15126097  0.34873903  1
  F  F10  1  0.00000000  0.84873903  0.65126097  1
  F  F11  1  0.00000000  0.65126097  0.15126097  1
  F  F12  1  0.20707497  0.10632189  0.60632189  1
  F  F13  1  0.20707497  0.39367811  0.10632189  1
  Ge  Ge14  1  0.00000000  0.50000000  0.00000000  1
  Ge  Ge15  1  0.00000000  0.00000000  0.50000000  1
  Cs  Cs16  1  0.50000000  0.69495912  0.19495912  1
  Cs  Cs17  1  0.50000000  0.80504088  0.69495912  1
  Cs  Cs18  1  0.50000000  0.19495912  0.30504088  1
  Cs  Cs19  1  0.50000000  0.30504088  0.80504088  1
  Cs  Cs20  1  0.00000000  0.50000000  0.50000000  1
  Cs  Cs21  1  0.00000000  0.00000000  0.00000000  1
