# generated using pymatgen
data_YbV4O8
_symmetry_space_group_name_H-M   'P 1'
_cell_length_a   5.88486932
_cell_length_b   9.18727349
_cell_length_c   10.73398471
_cell_angle_alpha   90.00000000
_cell_angle_beta   90.00000000
_cell_angle_gamma   90.48271208
_symmetry_Int_Tables_number   1
_chemical_formula_structural   YbV4O8
_chemical_formula_sum   'Yb4 V16 O32'
_cell_volume   580.32199025
_cell_formula_units_Z   4
loop_
 _symmetry_equiv_pos_site_id
 _symmetry_equiv_pos_as_xyz
  1  'x, y, z'
loop_
 _atom_site_type_symbol
 _atom_site_label
 _atom_site_symmetry_multiplicity
 _atom_site_fract_x
 _atom_site_fract_y
 _atom_site_fract_z
 _atom_site_occupancy
  O  O0  1  0.12269116  0.92233635  0.07239269  1
  O  O1  1  0.37730947  0.57766378  0.57239243  1
  O  O2  1  0.87730803  0.07766434  0.92760773  1
  O  O3  1  0.62269147  0.42233581  0.42760799  1
  O  O4  1  0.14897159  0.01384821  0.71095434  1
  O  O5  1  0.35102801  0.48615213  0.21095460  1
  O  O6  1  0.85102935  0.98615248  0.28904514  1
  O  O7  1  0.64897119  0.51384747  0.78904582  1
  O  O8  1  0.11689902  0.61345280  0.02076142  1
  O  O9  1  0.38309987  0.88654734  0.52076210  1
  O  O10  1  0.88310018  0.38654680  0.97923806  1
  O  O11  1  0.61689933  0.11345335  0.47923832  1
  O  O12  1  0.13806491  0.70733529  0.34948072  1
  O  O13  1  0.36193572  0.79266484  0.84948046  1
  O  O14  1  0.86193602  0.29266540  0.65051970  1
  O  O15  1  0.63806522  0.20733475  0.15051903  1
  O  O16  1  0.62629883  0.92020246  0.07094237  1
  O  O17  1  0.87369996  0.57979749  0.57094211  1
  O  O18  1  0.37370037  0.07979714  0.92905805  1
  O  O19  1  0.12629923  0.42020211  0.42905737  1
  O  O20  1  0.10014385  0.20292594  0.15372555  1
  O  O21  1  0.39985749  0.29707440  0.65372530  1
  O  O22  1  0.89985709  0.79707475  0.84627487  1
  O  O23  1  0.60014345  0.70292519  0.34627512  1
  O  O24  1  0.12425924  0.11817332  0.48009427  1
  O  O25  1  0.37574036  0.38182703  0.98009495  1
  O  O26  1  0.62082026  0.03751190  0.72286938  1
  O  O27  1  0.62425884  0.61817367  0.01990547  1
  O  O28  1  0.12081995  0.53751244  0.77713079  1
  O  O29  1  0.37918068  0.96248770  0.27713011  1
  O  O30  1  0.87918099  0.46248825  0.22286963  1
  O  O31  1  0.87573996  0.88182628  0.51990521  1
  V  V32  1  0.12591903  0.92106175  0.39238328  1
  V  V33  1  0.37408160  0.57893839  0.89238303  1
  V  V34  1  0.87408017  0.07893895  0.60761714  1
  V  V35  1  0.62591934  0.42106121  0.10761739  1
  V  V36  1  0.13508668  0.95173148  0.88904651  1
  V  V37  1  0.36491395  0.54826866  0.38904677  1
  V  V38  1  0.86491251  0.04826921  0.11095297  1
  V  V39  1  0.63508699  0.45173094  0.61095271  1
  V  V40  1  0.61886675  0.90869044  0.40238747  1
  V  V41  1  0.88113378  0.59130950  0.90238722  1
  V  V42  1  0.12474011  0.42575973  0.61955531  1
  V  V43  1  0.11886716  0.40869010  0.09761227  1
  V  V44  1  0.62473971  0.92575898  0.88044485  1
  V  V45  1  0.87525908  0.57424096  0.38044511  1
  V  V46  1  0.37525948  0.07424061  0.11955557  1
  V  V47  1  0.38113418  0.09131024  0.59761201  1
  Yb  Yb48  1  0.63114072  0.25674826  0.84619282  1
  Yb  Yb49  1  0.86885879  0.24325189  0.34619308  1
  Yb  Yb50  1  0.36885848  0.74325134  0.15380666  1
  Yb  Yb51  1  0.13114215  0.75674879  0.65380734  1
