# generated using pymatgen
data_Ba3(GaN2)2
_symmetry_space_group_name_H-M   'P 1'
_cell_length_a   6.28477866
_cell_length_b   10.19874485
_cell_length_c   10.64545892
_cell_angle_alpha   90.00000000
_cell_angle_beta   90.00000000
_cell_angle_gamma   90.00000000
_symmetry_Int_Tables_number   1
_chemical_formula_structural   Ba3(GaN2)2
_chemical_formula_sum   'Ba12 Ga8 N16'
_cell_volume   682.34042607
_cell_formula_units_Z   4
loop_
 _symmetry_equiv_pos_site_id
 _symmetry_equiv_pos_as_xyz
  1  'x, y, z'
loop_
 _atom_site_type_symbol
 _atom_site_label
 _atom_site_symmetry_multiplicity
 _atom_site_fract_x
 _atom_site_fract_y
 _atom_site_fract_z
 _atom_site_occupancy
  N  N0  1  0.47869849  0.17129987  0.59699580  1
  N  N1  1  0.47869849  0.32870013  0.90300420  1
  N  N2  1  0.02130151  0.17129987  0.40300420  1
  N  N3  1  0.02130151  0.32870013  0.09699580  1
  N  N4  1  0.52130151  0.82870013  0.40300420  1
  N  N5  1  0.52130151  0.67129987  0.09699580  1
  N  N6  1  0.97869849  0.82870013  0.59699580  1
  N  N7  1  0.97869849  0.67129987  0.90300420  1
  N  N8  1  0.13770577  0.37020751  0.64612573  1
  N  N9  1  0.13770577  0.12979249  0.85387427  1
  N  N10  1  0.36229423  0.37020751  0.35387427  1
  N  N11  1  0.36229423  0.12979249  0.14612573  1
  N  N12  1  0.86229423  0.87020751  0.14612573  1
  N  N13  1  0.63770577  0.62979249  0.64612573  1
  N  N14  1  0.63770577  0.87020751  0.85387427  1
  N  N15  1  0.86229423  0.62979249  0.35387427  1
  Ga  Ga16  1  0.83585775  0.75000000  0.75000000  1
  Ga  Ga17  1  0.66414225  0.75000000  0.25000000  1
  Ga  Ga18  1  0.16414225  0.25000000  0.25000000  1
  Ga  Ga19  1  0.33585775  0.25000000  0.75000000  1
  Ga  Ga20  1  0.25000000  0.23050226  0.00000000  1
  Ga  Ga21  1  0.75000000  0.73050226  0.50000000  1
  Ga  Ga22  1  0.75000000  0.76949774  0.00000000  1
  Ga  Ga23  1  0.25000000  0.26949774  0.50000000  1
  Ba  Ba24  1  0.25000000  0.59296526  0.50000000  1
  Ba  Ba25  1  0.25000000  0.90703474  0.00000000  1
  Ba  Ba26  1  0.75000000  0.40703474  0.50000000  1
  Ba  Ba27  1  0.75000000  0.09296526  0.00000000  1
  Ba  Ba28  1  0.39197486  0.58827526  0.84547415  1
  Ba  Ba29  1  0.39197486  0.91172474  0.65452585  1
  Ba  Ba30  1  0.10802514  0.58827526  0.15452585  1
  Ba  Ba31  1  0.10802514  0.91172474  0.34547415  1
  Ba  Ba32  1  0.60802514  0.41172474  0.15452585  1
  Ba  Ba33  1  0.60802514  0.08827526  0.34547415  1
  Ba  Ba34  1  0.89197486  0.41172474  0.84547415  1
  Ba  Ba35  1  0.89197486  0.08827526  0.65452585  1
