# generated using pymatgen
data_Sr5Ge3
_symmetry_space_group_name_H-M   'P 1'
_cell_length_a   8.17466679
_cell_length_b   8.17467109
_cell_length_c   9.85505958
_cell_angle_alpha   114.51172664
_cell_angle_beta   114.51189601
_cell_angle_gamma   89.97993289
_symmetry_Int_Tables_number   1
_chemical_formula_structural   Sr5Ge3
_chemical_formula_sum   'Sr10 Ge6'
_cell_volume   533.34460705
_cell_formula_units_Z   2
loop_
 _symmetry_equiv_pos_site_id
 _symmetry_equiv_pos_as_xyz
  1  'x, y, z'
loop_
 _atom_site_type_symbol
 _atom_site_label
 _atom_site_symmetry_multiplicity
 _atom_site_fract_x
 _atom_site_fract_y
 _atom_site_fract_z
 _atom_site_occupancy
  Ge  Ge0  1  0.61370216  0.11370183  0.00000920  1
  Ge  Ge1  1  0.88624957  0.61375593  0.00000580  1
  Ge  Ge2  1  0.11375043  0.38624407  0.99999420  1
  Ge  Ge3  1  0.38629784  0.88629817  0.99999080  1
  Ge  Ge4  1  0.74999579  0.75000021  0.49999993  1
  Ge  Ge5  1  0.25000421  0.24999979  0.50000007  1
  Sr  Sr6  1  0.18092449  0.03761003  0.71852992  1
  Sr  Sr7  1  0.03759725  0.53760268  0.71853857  1
  Sr  Sr8  1  0.68093299  0.18093845  0.71854765  1
  Sr  Sr9  1  0.96240275  0.46239732  0.28146143  1
  Sr  Sr10  1  0.53761835  0.68092360  0.71853756  1
  Sr  Sr11  1  0.81907551  0.96238997  0.28147008  1
  Sr  Sr12  1  0.46238165  0.31907640  0.28146244  1
  Sr  Sr13  1  0.31906701  0.81906155  0.28145235  1
  Sr  Sr14  1  0.50000000  0.50000000  0.00000000  1
  Sr  Sr15  1  0.00000000  0.00000000  0.00000000  1
