# generated using pymatgen
data_Ba(ScTe2)2
_symmetry_space_group_name_H-M   'P 1'
_cell_length_a   4.32163878
_cell_length_b   13.46869468
_cell_length_c   15.70948876
_cell_angle_alpha   90.00000000
_cell_angle_beta   90.00000000
_cell_angle_gamma   90.00000000
_symmetry_Int_Tables_number   1
_chemical_formula_structural   Ba(ScTe2)2
_chemical_formula_sum   'Ba4 Sc8 Te16'
_cell_volume   914.39959262
_cell_formula_units_Z   4
loop_
 _symmetry_equiv_pos_site_id
 _symmetry_equiv_pos_as_xyz
  1  'x, y, z'
loop_
 _atom_site_type_symbol
 _atom_site_label
 _atom_site_symmetry_multiplicity
 _atom_site_fract_x
 _atom_site_fract_y
 _atom_site_fract_z
 _atom_site_occupancy
  Sc  Sc0  1  0.25000000  0.05636910  0.88996908  1
  Sc  Sc1  1  0.75000000  0.94363090  0.11003092  1
  Sc  Sc2  1  0.25000000  0.55636910  0.61003092  1
  Sc  Sc3  1  0.75000000  0.44363090  0.38996908  1
  Sc  Sc4  1  0.75000000  0.91991381  0.59651018  1
  Sc  Sc5  1  0.25000000  0.08008619  0.40348982  1
  Sc  Sc6  1  0.75000000  0.41991381  0.90348982  1
  Sc  Sc7  1  0.25000000  0.58008619  0.09651018  1
  Te  Te8  1  0.75000000  0.52827066  0.21524228  1
  Te  Te9  1  0.25000000  0.47172934  0.78475772  1
  Te  Te10  1  0.75000000  0.02827066  0.28475772  1
  Te  Te11  1  0.25000000  0.97172934  0.71524228  1
  Te  Te12  1  0.75000000  0.91308193  0.92639323  1
  Te  Te13  1  0.25000000  0.08691807  0.07360677  1
  Te  Te14  1  0.75000000  0.41308193  0.57360677  1
  Te  Te15  1  0.25000000  0.58691807  0.42639323  1
  Te  Te16  1  0.75000000  0.70320464  0.64944794  1
  Te  Te17  1  0.25000000  0.29679536  0.35055206  1
  Te  Te18  1  0.75000000  0.20320464  0.85055206  1
  Te  Te19  1  0.25000000  0.79679536  0.14944794  1
  Te  Te20  1  0.75000000  0.62150448  0.97406848  1
  Te  Te21  1  0.25000000  0.37849552  0.02593152  1
  Te  Te22  1  0.75000000  0.12150448  0.52593152  1
  Te  Te23  1  0.25000000  0.87849552  0.47406848  1
  Ba  Ba24  1  0.25000000  0.73777025  0.82821023  1
  Ba  Ba25  1  0.75000000  0.26222975  0.17178977  1
  Ba  Ba26  1  0.25000000  0.23777025  0.67178977  1
  Ba  Ba27  1  0.75000000  0.76222975  0.32821023  1
