# generated using pymatgen
data_Na2BeGeO4
_symmetry_space_group_name_H-M   'P 1'
_cell_length_a   5.08670348
_cell_length_b   7.28374919
_cell_length_c   10.25294802
_cell_angle_alpha   90.43324063
_cell_angle_beta   90.00000000
_cell_angle_gamma   90.00000000
_symmetry_Int_Tables_number   1
_chemical_formula_structural   Na2BeGeO4
_chemical_formula_sum   'Na8 Be4 Ge4 O16'
_cell_volume   379.86365701
_cell_formula_units_Z   4
loop_
 _symmetry_equiv_pos_site_id
 _symmetry_equiv_pos_as_xyz
  1  'x, y, z'
loop_
 _atom_site_type_symbol
 _atom_site_label
 _atom_site_symmetry_multiplicity
 _atom_site_fract_x
 _atom_site_fract_y
 _atom_site_fract_z
 _atom_site_occupancy
  Be  Be0  1  0.65648333  0.49952125  0.58710123  1
  Be  Be1  1  0.34351667  0.50047875  0.41289877  1
  Be  Be2  1  0.84351667  0.49952125  0.08710123  1
  Be  Be3  1  0.15648333  0.50047875  0.91289877  1
  O  O4  1  0.16785869  0.45341986  0.07365472  1
  O  O5  1  0.66785869  0.54658014  0.42634528  1
  O  O6  1  0.83214131  0.54658014  0.92634528  1
  O  O7  1  0.33214131  0.45341986  0.57365472  1
  O  O8  1  0.31418670  0.68648110  0.87459971  1
  O  O9  1  0.18581330  0.68648110  0.37459971  1
  O  O10  1  0.81418670  0.31351890  0.62540029  1
  O  O11  1  0.68581330  0.31351890  0.12540029  1
  O  O12  1  0.28333735  0.31543308  0.32941198  1
  O  O13  1  0.78333735  0.68456692  0.17058802  1
  O  O14  1  0.71666265  0.68456692  0.67058802  1
  O  O15  1  0.21666265  0.31543308  0.82941198  1
  O  O16  1  0.23776115  0.05198522  0.62188761  1
  O  O17  1  0.73776115  0.94801478  0.87811239  1
  O  O18  1  0.76223885  0.94801478  0.37811239  1
  O  O19  1  0.26223885  0.05198522  0.12188761  1
  Na  Na20  1  0.20721592  0.00093699  0.89153874  1
  Na  Na21  1  0.70721592  0.99906301  0.60846126  1
  Na  Na22  1  0.79278408  0.99906301  0.10846126  1
  Na  Na23  1  0.29278408  0.00093699  0.39153874  1
  Na  Na24  1  0.31866504  0.73819598  0.13892619  1
  Na  Na25  1  0.81866504  0.26180402  0.36107381  1
  Na  Na26  1  0.68133496  0.26180402  0.86107381  1
  Na  Na27  1  0.18133496  0.73819598  0.63892619  1
  Ge  Ge28  1  0.15545948  0.27970450  0.65942250  1
  Ge  Ge29  1  0.65545948  0.72029550  0.84057750  1
  Ge  Ge30  1  0.84454052  0.72029550  0.34057750  1
  Ge  Ge31  1  0.34454052  0.27970450  0.15942250  1
