# generated using pymatgen
data_FePO4
_symmetry_space_group_name_H-M   'P 1'
_cell_length_a   5.20019317
_cell_length_b   5.20019317
_cell_length_c   11.54867412
_cell_angle_alpha   90.00000000
_cell_angle_beta   90.00000000
_cell_angle_gamma   120.00000005
_symmetry_Int_Tables_number   1
_chemical_formula_structural   FePO4
_chemical_formula_sum   'Fe3 P3 O12'
_cell_volume   270.45917031
_cell_formula_units_Z   3
loop_
 _symmetry_equiv_pos_site_id
 _symmetry_equiv_pos_as_xyz
  1  'x, y, z'
loop_
 _atom_site_type_symbol
 _atom_site_label
 _atom_site_symmetry_multiplicity
 _atom_site_fract_x
 _atom_site_fract_y
 _atom_site_fract_z
 _atom_site_occupancy
  O  O0  1  0.25046922  0.41660259  0.11995646  1
  O  O1  1  0.58339741  0.83386663  0.45328979  1
  O  O2  1  0.16613337  0.74953078  0.78662312  1
  O  O3  1  0.83386663  0.58339741  0.54671021  1
  O  O4  1  0.74953078  0.16613337  0.21337688  1
  O  O5  1  0.41660259  0.25046922  0.88004354  1
  O  O6  1  0.41910497  0.30329811  0.40081369  1
  O  O7  1  0.69670189  0.11580686  0.73414703  1
  O  O8  1  0.88419314  0.58089503  0.06748036  1
  O  O9  1  0.11580686  0.69670189  0.26585297  1
  O  O10  1  0.58089503  0.88419314  0.93251964  1
  O  O11  1  0.30329811  0.41910497  0.59918631  1
  P  P12  1  0.53397502  0.53397502  0.50000000  1
  P  P13  1  0.00000000  0.46602498  0.16666667  1
  P  P14  1  0.46602498  0.00000000  0.83333333  1
  Fe  Fe15  1  0.53398151  0.53398151  0.00000000  1
  Fe  Fe16  1  0.00000000  0.46601849  0.66666667  1
  Fe  Fe17  1  0.46601849  0.00000000  0.33333333  1
