# generated using pymatgen
data_Ba3CrO5
_symmetry_space_group_name_H-M   'P 1'
_cell_length_a   7.39904285
_cell_length_b   7.90031069
_cell_length_c   7.39904272
_cell_angle_alpha   117.92240859
_cell_angle_beta   90.00000256
_cell_angle_gamma   117.92240363
_symmetry_Int_Tables_number   1
_chemical_formula_structural   Ba3CrO5
_chemical_formula_sum   'Ba6 Cr2 O10'
_cell_volume   324.07497478
_cell_formula_units_Z   2
loop_
 _symmetry_equiv_pos_site_id
 _symmetry_equiv_pos_as_xyz
  1  'x, y, z'
loop_
 _atom_site_type_symbol
 _atom_site_label
 _atom_site_symmetry_multiplicity
 _atom_site_fract_x
 _atom_site_fract_y
 _atom_site_fract_z
 _atom_site_occupancy
  Ba  Ba0  1  0.75000000  0.50000000  0.75000100  1
  Ba  Ba1  1  0.25000000  0.50000000  0.25000100  1
  Ba  Ba2  1  0.31919672  -0.00000478  0.18079850  1
  Ba  Ba3  1  0.68079850  -0.00000478  0.81919672  1
  Ba  Ba4  1  0.18080328  0.00000478  0.68080228  1
  Ba  Ba5  1  0.81920150  0.00000478  0.31920250  1
  Cr  Cr6  1  0.25000000  0.50000000  0.74999900  1
  Cr  Cr7  1  0.75000000  0.50000000  0.25000000  1
  O  O8  1  0.00000000  0.00000000  0.00000000  1
  O  O9  1  0.50000000  0.00000000  0.50000000  1
  O  O10  1  0.52094568  0.31353367  0.02094468  1
  O  O11  1  0.20740608  0.68646376  0.70740608  1
  O  O12  1  0.47905667  0.68646376  0.97905767  1
  O  O13  1  0.97905332  0.68646533  0.20741101  1
  O  O14  1  0.70741201  0.68646633  0.47905432  1
  O  O15  1  0.02094233  0.31353724  0.79259392  1
  O  O16  1  0.29259392  0.31353724  0.52094233  1
  O  O17  1  0.79258799  0.31353367  0.29258799  1
