# generated using pymatgen
data_KSrVO4
_symmetry_space_group_name_H-M   'P 1'
_cell_length_a   5.96336622
_cell_length_b   7.54848358
_cell_length_c   10.11853923
_cell_angle_alpha   90.00000000
_cell_angle_beta   90.00000000
_cell_angle_gamma   90.00000000
_symmetry_Int_Tables_number   1
_chemical_formula_structural   KSrVO4
_chemical_formula_sum   'K4 Sr4 V4 O16'
_cell_volume   455.47968893
_cell_formula_units_Z   4
loop_
 _symmetry_equiv_pos_site_id
 _symmetry_equiv_pos_as_xyz
  1  'x, y, z'
loop_
 _atom_site_type_symbol
 _atom_site_label
 _atom_site_symmetry_multiplicity
 _atom_site_fract_x
 _atom_site_fract_y
 _atom_site_fract_z
 _atom_site_occupancy
  O  O0  1  0.99168084  0.71982824  0.67277975  1
  O  O1  1  0.49168084  0.28017176  0.32722025  1
  O  O2  1  0.50831916  0.21982824  0.82722025  1
  O  O3  1  0.00831916  0.78017176  0.17277975  1
  O  O4  1  0.00831916  0.28017176  0.32722025  1
  O  O5  1  0.50831916  0.71982824  0.67277975  1
  O  O6  1  0.49168084  0.78017176  0.17277975  1
  O  O7  1  0.99168084  0.21982824  0.82722025  1
  O  O8  1  0.25000000  0.32420291  0.57127566  1
  O  O9  1  0.75000000  0.67579709  0.42872434  1
  O  O10  1  0.25000000  0.82420291  0.92872434  1
  O  O11  1  0.75000000  0.17579709  0.07127566  1
  O  O12  1  0.75000000  0.00258369  0.55618764  1
  O  O13  1  0.25000000  0.99741631  0.44381236  1
  O  O14  1  0.75000000  0.50258369  0.94381236  1
  O  O15  1  0.25000000  0.49741631  0.05618764  1
  K  K16  1  0.25000000  0.65752925  0.42401090  1
  K  K17  1  0.75000000  0.34247075  0.57598910  1
  K  K18  1  0.25000000  0.15752925  0.07598910  1
  K  K19  1  0.75000000  0.84247075  0.92401090  1
  V  V20  1  0.25000000  0.22214056  0.41583771  1
  V  V21  1  0.75000000  0.77785944  0.58416229  1
  V  V22  1  0.25000000  0.72214056  0.08416229  1
  V  V23  1  0.75000000  0.27785944  0.91583771  1
  Sr  Sr24  1  0.25000000  0.50341776  0.79826431  1
  Sr  Sr25  1  0.75000000  0.49658224  0.20173569  1
  Sr  Sr26  1  0.25000000  0.00341776  0.70173569  1
  Sr  Sr27  1  0.75000000  0.99658224  0.29826431  1
