# generated using pymatgen
data_SrNi2(PO4)2
_symmetry_space_group_name_H-M   'P 1'
_cell_length_a   5.51209342
_cell_length_b   6.88776023
_cell_length_c   9.26204259
_cell_angle_alpha   111.28777912
_cell_angle_beta   100.98888644
_cell_angle_gamma   98.11348985
_symmetry_Int_Tables_number   1
_chemical_formula_structural   SrNi2(PO4)2
_chemical_formula_sum   'Sr2 Ni4 P4 O16'
_cell_volume   313.02193115
_cell_formula_units_Z   2
loop_
 _symmetry_equiv_pos_site_id
 _symmetry_equiv_pos_as_xyz
  1  'x, y, z'
loop_
 _atom_site_type_symbol
 _atom_site_label
 _atom_site_symmetry_multiplicity
 _atom_site_fract_x
 _atom_site_fract_y
 _atom_site_fract_z
 _atom_site_occupancy
  O  O0  1  0.66316042  0.45364095  0.62553143  1
  O  O1  1  0.33684038  0.54635896  0.37446843  1
  O  O2  1  0.24677160  0.00977657  0.63558396  1
  O  O3  1  0.75322861  0.99022348  0.36441615  1
  O  O4  1  0.14649812  0.48268963  0.70181294  1
  O  O5  1  0.85350271  0.51731029  0.29818719  1
  O  O6  1  0.84291671  0.20072820  0.73711358  1
  O  O7  1  0.15708357  0.79927151  0.26288631  1
  O  O8  1  0.54504067  0.88034515  0.80313521  1
  O  O9  1  0.45495936  0.11965500  0.19686457  1
  O  O10  1  0.11869896  0.40420699  0.09137233  1
  O  O11  1  0.88130105  0.59579252  0.90862756  1
  O  O12  1  0.49198583  0.74484132  0.07040721  1
  O  O13  1  0.12168541  0.95363661  0.86903742  1
  O  O14  1  0.87831462  0.04636319  0.13096264  1
  O  O15  1  0.50801450  0.25515872  0.92959300  1
  P  P16  1  0.89167017  0.42873089  0.74214676  1
  P  P17  1  0.10833022  0.57126901  0.25785313  1
  P  P18  1  0.34658147  0.02646719  0.80572571  1
  P  P19  1  0.65341870  0.97353297  0.19427436  1
  Ni  Ni20  1  0.51176237  0.60374182  0.83953836  1
  Ni  Ni21  1  0.14184707  0.85624528  0.06119346  1
  Ni  Ni22  1  0.85815272  0.14375402  0.93880617  1
  Ni  Ni23  1  0.48823794  0.39625940  0.16046227  1
  Sr  Sr24  1  0.24108316  0.19950846  0.44685755  1
  Sr  Sr25  1  0.75891768  0.80049134  0.55314248  1
