# generated using pymatgen
data_CeAlO3
_symmetry_space_group_name_H-M   'P 1'
_cell_length_a   5.37035261
_cell_length_b   5.36448043
_cell_length_c   5.36448043
_cell_angle_alpha   60.44697761
_cell_angle_beta   59.96378297
_cell_angle_gamma   59.96378290
_symmetry_Int_Tables_number   1
_chemical_formula_structural   CeAlO3
_chemical_formula_sum   'Ce2 Al2 O6'
_cell_volume   109.58450947
_cell_formula_units_Z   2
loop_
 _symmetry_equiv_pos_site_id
 _symmetry_equiv_pos_as_xyz
  1  'x, y, z'
loop_
 _atom_site_type_symbol
 _atom_site_label
 _atom_site_symmetry_multiplicity
 _atom_site_fract_x
 _atom_site_fract_y
 _atom_site_fract_z
 _atom_site_occupancy
  O  O0  1  0.77861750  0.22138250  0.72138250  1
  O  O1  1  0.72138250  0.77861750  0.27861750  1
  O  O2  1  0.22138250  0.77861750  0.27861750  1
  O  O3  1  0.27861750  0.22138250  0.72138250  1
  O  O4  1  0.25000000  0.69518157  0.80481843  1
  O  O5  1  0.75000000  0.30481843  0.19518157  1
  Al  Al6  1  0.50000000  0.50000000  0.50000000  1
  Al  Al7  1  0.00000000  0.00000000  0.00000000  1
  Ce  Ce8  1  0.75000000  0.75183984  0.74816016  1
  Ce  Ce9  1  0.25000000  0.24816016  0.25183984  1
