# generated using pymatgen
data_CoSO4
_symmetry_space_group_name_H-M   'P 1'
_cell_length_a   4.78419075
_cell_length_b   4.78419075
_cell_length_c   6.64384503
_cell_angle_alpha   90.00000000
_cell_angle_beta   90.00000000
_cell_angle_gamma   113.73616566
_symmetry_Int_Tables_number   1
_chemical_formula_structural   CoSO4
_chemical_formula_sum   'Co2 S2 O8'
_cell_volume   139.20393210
_cell_formula_units_Z   2
loop_
 _symmetry_equiv_pos_site_id
 _symmetry_equiv_pos_as_xyz
  1  'x, y, z'
loop_
 _atom_site_type_symbol
 _atom_site_label
 _atom_site_symmetry_multiplicity
 _atom_site_fract_x
 _atom_site_fract_y
 _atom_site_fract_z
 _atom_site_occupancy
  O  O0  1  0.22246647  0.30812838  0.75000000  1
  O  O1  1  0.77753353  0.69187162  0.25000000  1
  O  O2  1  0.30812838  0.22246647  0.25000000  1
  O  O3  1  0.69187162  0.77753353  0.75000000  1
  O  O4  1  0.24683389  0.75316611  0.93562901  1
  O  O5  1  0.75316611  0.24683389  0.43562901  1
  O  O6  1  0.75316611  0.24683389  0.06437099  1
  O  O7  1  0.24683389  0.75316611  0.56437099  1
  S  S8  1  0.65306498  0.34693502  0.25000000  1
  S  S9  1  0.34693502  0.65306498  0.75000000  1
  Co  Co10  1  0.00000000  0.00000000  0.50000000  1
  Co  Co11  1  0.00000000  0.00000000  0.00000000  1
