# generated using pymatgen
data_InAgS2
_symmetry_space_group_name_H-M   'P 1'
_cell_length_a   6.80573841
_cell_length_b   7.15301657
_cell_length_c   8.35362098
_cell_angle_alpha   90.00000000
_cell_angle_beta   90.00000000
_cell_angle_gamma   90.00000000
_symmetry_Int_Tables_number   1
_chemical_formula_structural   InAgS2
_chemical_formula_sum   'In4 Ag4 S8'
_cell_volume   406.66729776
_cell_formula_units_Z   4
loop_
 _symmetry_equiv_pos_site_id
 _symmetry_equiv_pos_as_xyz
  1  'x, y, z'
loop_
 _atom_site_type_symbol
 _atom_site_label
 _atom_site_symmetry_multiplicity
 _atom_site_fract_x
 _atom_site_fract_y
 _atom_site_fract_z
 _atom_site_occupancy
  S  S0  1  0.98263835  0.57626127  0.38008114  1
  S  S1  1  0.48263835  0.42373873  0.61991886  1
  S  S2  1  0.48263835  0.92373873  0.88008114  1
  S  S3  1  0.98263835  0.07626127  0.11991886  1
  S  S4  1  0.99879899  0.59291726  0.87594024  1
  S  S5  1  0.99879899  0.09291726  0.62405976  1
  S  S6  1  0.49879899  0.90708274  0.37594024  1
  S  S7  1  0.49879899  0.40708274  0.12405976  1
  Ag  Ag8  1  0.12063605  0.91214712  0.36927562  1
  Ag  Ag9  1  0.62063605  0.58785288  0.86927562  1
  Ag  Ag10  1  0.62063605  0.08785288  0.63072438  1
  Ag  Ag11  1  0.12063605  0.41214712  0.13072438  1
  In  In12  1  0.61292661  0.07285282  0.12897015  1
  In  In13  1  0.11292661  0.92714718  0.87102985  1
  In  In14  1  0.11292661  0.42714718  0.62897015  1
  In  In15  1  0.61292661  0.57285282  0.37102985  1
