# generated using pymatgen
data_UGePt
_symmetry_space_group_name_H-M   'P 1'
_cell_length_a   4.39192798
_cell_length_b   5.63544508
_cell_length_c   5.63544507
_cell_angle_alpha   77.59237643
_cell_angle_beta   67.06603144
_cell_angle_gamma   67.06603142
_symmetry_Int_Tables_number   1
_chemical_formula_structural   UGePt
_chemical_formula_sum   'U2 Ge2 Pt2'
_cell_volume   117.97386121
_cell_formula_units_Z   2
loop_
 _symmetry_equiv_pos_site_id
 _symmetry_equiv_pos_as_xyz
  1  'x, y, z'
loop_
 _atom_site_type_symbol
 _atom_site_label
 _atom_site_symmetry_multiplicity
 _atom_site_fract_x
 _atom_site_fract_y
 _atom_site_fract_z
 _atom_site_occupancy
  Ge  Ge0  1  0.83628690  0.44369332  0.88373287  1
  Ge  Ge1  1  0.83628690  0.88373287  0.44369332  1
  Pt  Pt2  1  0.16623481  0.62277112  0.04475927  1
  Pt  Pt3  1  0.16623481  0.04475927  0.62277112  1
  U  U4  1  0.46088629  0.03911371  0.03911371  1
  U  U5  1  0.52907030  0.47092970  0.47092970  1
