# generated using pymatgen
data_Cs2Pd(IBr2)2
_symmetry_space_group_name_H-M   'P 1'
_cell_length_a   7.54933028
_cell_length_b   7.54933027
_cell_length_c   7.78646742
_cell_angle_alpha   106.65461403
_cell_angle_beta   108.83621305
_cell_angle_gamma   111.80136810
_symmetry_Int_Tables_number   1
_chemical_formula_structural   Cs2Pd(IBr2)2
_chemical_formula_sum   'Cs2 Pd1 I2 Br4'
_cell_volume   345.72905545
_cell_formula_units_Z   1
loop_
 _symmetry_equiv_pos_site_id
 _symmetry_equiv_pos_as_xyz
  1  'x, y, z'
loop_
 _atom_site_type_symbol
 _atom_site_label
 _atom_site_symmetry_multiplicity
 _atom_site_fract_x
 _atom_site_fract_y
 _atom_site_fract_z
 _atom_site_occupancy
  Br  Br0  1  0.98995405  0.77708049  0.18146393  1
  Br  Br1  1  0.01004595  0.22291951  0.81853607  1
  Br  Br2  1  0.40438344  0.19150989  0.18146393  1
  Br  Br3  1  0.59561656  0.80849011  0.81853607  1
  Pd  Pd4  1  0.00000000  0.00000000  0.00000000  1
  I  I5  1  0.00607432  0.34308653  0.34916085  1
  I  I6  1  0.99392568  0.65691347  0.65083915  1
  Cs  Cs7  1  0.52165632  0.75423067  0.27588699  1
  Cs  Cs8  1  0.47834368  0.24576933  0.72411301  1
