# generated using pymatgen
data_Na2ZnH8(SO6)2
_symmetry_space_group_name_H-M   'P 1'
_cell_length_a   5.57486536
_cell_length_b   8.37235093
_cell_length_c   11.17139830
_cell_angle_alpha   90.00000000
_cell_angle_beta   99.39848711
_cell_angle_gamma   90.00000000
_symmetry_Int_Tables_number   1
_chemical_formula_structural   Na2ZnH8(SO6)2
_chemical_formula_sum   'Na4 Zn2 H16 S4 O24'
_cell_volume   514.42266882
_cell_formula_units_Z   2
loop_
 _symmetry_equiv_pos_site_id
 _symmetry_equiv_pos_as_xyz
  1  'x, y, z'
loop_
 _atom_site_type_symbol
 _atom_site_label
 _atom_site_symmetry_multiplicity
 _atom_site_fract_x
 _atom_site_fract_y
 _atom_site_fract_z
 _atom_site_occupancy
  H  H0  1  0.24486941  0.72743182  0.01222947  1
  H  H1  1  0.75513059  0.22743182  0.48777053  1
  H  H2  1  0.75513059  0.27256818  0.98777053  1
  H  H3  1  0.24486941  0.77256818  0.51222947  1
  H  H4  1  0.32853064  0.80452630  0.13869627  1
  H  H5  1  0.67146936  0.30452630  0.36130373  1
  H  H6  1  0.67146936  0.19547370  0.86130373  1
  H  H7  1  0.32853064  0.69547370  0.63869627  1
  H  H8  1  0.77113450  0.13606314  0.15470921  1
  H  H9  1  0.22886550  0.63606314  0.34529079  1
  H  H10  1  0.76323099  0.94653300  0.18204493  1
  H  H11  1  0.23676901  0.44653300  0.31795507  1
  H  H12  1  0.23676901  0.05346700  0.81795507  1
  H  H13  1  0.76323099  0.55346700  0.68204493  1
  H  H14  1  0.22886550  0.86393686  0.84529079  1
  H  H15  1  0.77113450  0.36393686  0.65470921  1
  O  O16  1  0.21730181  0.08479898  0.57749776  1
  O  O17  1  0.78269819  0.91520102  0.42250224  1
  O  O18  1  0.68282530  0.86980555  0.92200937  1
  O  O19  1  0.21730181  0.41520102  0.07749776  1
  O  O20  1  0.31717470  0.13019445  0.07799063  1
  O  O21  1  0.68282530  0.63019445  0.42200937  1
  O  O22  1  0.36013160  0.67669272  0.87298301  1
  O  O23  1  0.63986840  0.17669272  0.62701699  1
  O  O24  1  0.63986840  0.32330728  0.12701699  1
  O  O25  1  0.36013160  0.82330728  0.37298301  1
  O  O26  1  0.12923524  0.96362018  0.83615894  1
  O  O27  1  0.87076476  0.46362018  0.66384106  1
  O  O28  1  0.87076476  0.03637982  0.16384106  1
  O  O29  1  0.12923524  0.53637982  0.33615894  1
  O  O30  1  0.18071704  0.71450454  0.57781689  1
  O  O31  1  0.81928296  0.21450454  0.92218311  1
  O  O32  1  0.81928296  0.28549546  0.42218311  1
  O  O33  1  0.18071704  0.78549546  0.07781689  1
  O  O34  1  0.63953067  0.77916498  0.23046022  1
  O  O35  1  0.36046933  0.27916498  0.26953978  1
  O  O36  1  0.36046933  0.22083502  0.76953978  1
  O  O37  1  0.63953067  0.72083502  0.73046022  1
  O  O38  1  0.31717470  0.36980555  0.57799063  1
  O  O39  1  0.78269819  0.58479898  0.92250224  1
  Na  Na40  1  0.11893440  0.07264621  0.36186027  1
  Na  Na41  1  0.88106560  0.92735379  0.63813973  1
  Na  Na42  1  0.11893440  0.42735379  0.86186027  1
  Na  Na43  1  0.88106560  0.57264621  0.13813973  1
  S  S44  1  0.62209061  0.78813547  0.36373554  1
  S  S45  1  0.37790939  0.28813547  0.13626446  1
  S  S46  1  0.37790939  0.21186453  0.63626446  1
  S  S47  1  0.62209061  0.71186453  0.86373554  1
  Zn  Zn48  1  0.00000000  0.50000000  0.50000000  1
  Zn  Zn49  1  0.00000000  0.00000000  0.00000000  1
