# generated using pymatgen
data_Ca2MgP2(H2O5)2
_symmetry_space_group_name_H-M   'P 1'
_cell_length_a   5.51251908
_cell_length_b   5.77383842
_cell_length_c   6.88634884
_cell_angle_alpha   107.64215578
_cell_angle_beta   97.09591913
_cell_angle_gamma   108.73522316
_symmetry_Int_Tables_number   1
_chemical_formula_structural   Ca2MgP2(H2O5)2
_chemical_formula_sum   'Ca2 Mg1 P2 H4 O10'
_cell_volume   191.78956547
_cell_formula_units_Z   1
loop_
 _symmetry_equiv_pos_site_id
 _symmetry_equiv_pos_as_xyz
  1  'x, y, z'
loop_
 _atom_site_type_symbol
 _atom_site_label
 _atom_site_symmetry_multiplicity
 _atom_site_fract_x
 _atom_site_fract_y
 _atom_site_fract_z
 _atom_site_occupancy
  H  H0  1  0.85384162  0.87610854  0.60233515  1
  H  H1  1  0.14615838  0.12389146  0.39766485  1
  H  H2  1  0.08040213  0.17134994  0.68370092  1
  H  H3  1  0.91959787  0.82865006  0.31629908  1
  O  O4  1  0.93157891  0.04984457  0.72260872  1
  O  O5  1  0.40345500  0.25737127  0.07355265  1
  O  O6  1  0.59654500  0.74262873  0.92644735  1
  O  O7  1  0.89092734  0.33343411  0.12746521  1
  O  O8  1  0.10907266  0.66656589  0.87253479  1
  O  O9  1  0.63285743  0.16075344  0.37505776  1
  O  O10  1  0.36714257  0.83924656  0.62494224  1
  O  O11  1  0.72223172  0.62726955  0.38384213  1
  O  O12  1  0.27776828  0.37273045  0.61615787  1
  O  O13  1  0.06842109  0.95015543  0.27739128  1
  Mg  Mg14  1  0.00000000  0.00000000  0.00000000  1
  P  P15  1  0.33664659  0.66386892  0.75650999  1
  P  P16  1  0.66335341  0.33613108  0.24349001  1
  Ca  Ca17  1  0.34822412  0.70063408  0.24048553  1
  Ca  Ca18  1  0.65177588  0.29936592  0.75951447  1
