# generated using pymatgen
data_K2Os(Cl2O)2
_symmetry_space_group_name_H-M   'P 1'
_cell_length_a   6.73929212
_cell_length_b   6.73929213
_cell_length_c   6.73929212
_cell_angle_alpha   98.61234503
_cell_angle_beta   115.15862709
_cell_angle_gamma   115.15862706
_symmetry_Int_Tables_number   1
_chemical_formula_structural   K2Os(Cl2O)2
_chemical_formula_sum   'K2 Os1 Cl4 O2'
_cell_volume   229.45862568
_cell_formula_units_Z   1
loop_
 _symmetry_equiv_pos_site_id
 _symmetry_equiv_pos_as_xyz
  1  'x, y, z'
loop_
 _atom_site_type_symbol
 _atom_site_label
 _atom_site_symmetry_multiplicity
 _atom_site_fract_x
 _atom_site_fract_y
 _atom_site_fract_z
 _atom_site_occupancy
  O  O0  1  1.00000000  0.80015105  0.80015105  1
  O  O1  1  0.00000000  0.19984895  0.19984895  1
  Cl  Cl2  1  0.52702326  0.76351163  0.76351163  1
  Cl  Cl3  1  0.47297674  0.23648837  0.23648837  1
  Cl  Cl4  1  0.00000000  0.23648837  0.76351163  1
  Cl  Cl5  1  0.00000000  0.76351163  0.23648837  1
  K  K6  1  0.50000000  0.75000000  0.25000000  1
  K  K7  1  0.50000000  0.25000000  0.75000000  1
  Os  Os8  1  0.00000000  0.00000000  0.00000000  1
