# generated using pymatgen
data_ZnP4H16(NO8)2
_symmetry_space_group_name_H-M   'P 1'
_cell_length_a   7.14772428
_cell_length_b   7.41927038
_cell_length_c   7.83863606
_cell_angle_alpha   80.73188696
_cell_angle_beta   71.08985453
_cell_angle_gamma   89.75051168
_symmetry_Int_Tables_number   1
_chemical_formula_structural   ZnP4H16(NO8)2
_chemical_formula_sum   'Zn1 P4 H16 N2 O16'
_cell_volume   387.61072526
_cell_formula_units_Z   1
loop_
 _symmetry_equiv_pos_site_id
 _symmetry_equiv_pos_as_xyz
  1  'x, y, z'
loop_
 _atom_site_type_symbol
 _atom_site_label
 _atom_site_symmetry_multiplicity
 _atom_site_fract_x
 _atom_site_fract_y
 _atom_site_fract_z
 _atom_site_occupancy
  H  H0  1  0.42630978  0.28191679  0.32862012  1
  H  H1  1  0.57369022  0.71808321  0.67137988  1
  H  H2  1  0.55457695  0.31652769  0.10020114  1
  H  H3  1  0.44542305  0.68347231  0.89979886  1
  H  H4  1  0.32380905  0.39267053  0.17592888  1
  H  H5  1  0.64385964  0.83492577  0.81079303  1
  H  H6  1  0.87992977  0.29824683  0.34750242  1
  H  H7  1  0.12007023  0.70175317  0.65249758  1
  H  H8  1  0.35614036  0.16507423  0.18920697  1
  H  H9  1  0.12210509  0.83443897  0.79416446  1
  H  H10  1  0.24229752  0.97902828  0.02268968  1
  H  H11  1  0.75770248  0.02097172  0.97731032  1
  H  H12  1  0.43379714  0.72627416  0.42272349  1
  H  H13  1  0.56620286  0.27372584  0.57727651  1
  H  H14  1  0.67619095  0.60732947  0.82407112  1
  H  H15  1  0.87789491  0.16556103  0.20583554  1
  N  N16  1  0.41568639  0.28898098  0.19828453  1
  N  N17  1  0.58431361  0.71101902  0.80171547  1
  O  O18  1  0.92882833  0.76235607  0.34929632  1
  O  O19  1  0.05850362  0.72089454  0.78076113  1
  O  O20  1  0.94149638  0.27910546  0.21923887  1
  O  O21  1  0.76288770  0.30890071  0.58124261  1
  O  O22  1  0.74578162  0.05689231  0.84462572  1
  O  O23  1  0.79761652  0.38443059  0.88089903  1
  O  O24  1  0.25421838  0.94310769  0.15537428  1
  O  O25  1  0.07117167  0.23764393  0.65070368  1
  O  O26  1  0.76792616  0.97988398  0.15920620  1
  O  O27  1  0.23207384  0.02011602  0.84079380  1
  O  O28  1  0.57092739  0.75096695  0.44005539  1
  O  O29  1  0.42907261  0.24903305  0.55994461  1
  O  O30  1  0.76007033  0.63718449  0.14323031  1
  O  O31  1  0.23992967  0.36281551  0.85676969  1
  O  O32  1  0.23711230  0.69109929  0.41875739  1
  O  O33  1  0.20238348  0.61556941  0.11910097  1
  P  P34  1  0.16517610  0.74600095  0.25742525  1
  P  P35  1  0.83482390  0.25399905  0.74257475  1
  P  P36  1  0.75395827  0.78319567  0.25836178  1
  P  P37  1  0.24604173  0.21680433  0.74163822  1
  Zn  Zn38  1  0.00000000  0.50000000  0.00000000  1
