# generated using pymatgen
data_PH5NO3F
_symmetry_space_group_name_H-M   'P 1'
_cell_length_a   7.54341168
_cell_length_b   7.55254853
_cell_length_c   7.92849124
_cell_angle_alpha   83.25173822
_cell_angle_beta   83.93985331
_cell_angle_gamma   70.05154605
_symmetry_Int_Tables_number   1
_chemical_formula_structural   PH5NO3F
_chemical_formula_sum   'P4 H20 N4 O12 F4'
_cell_volume   420.61940640
_cell_formula_units_Z   4
loop_
 _symmetry_equiv_pos_site_id
 _symmetry_equiv_pos_as_xyz
  1  'x, y, z'
loop_
 _atom_site_type_symbol
 _atom_site_label
 _atom_site_symmetry_multiplicity
 _atom_site_fract_x
 _atom_site_fract_y
 _atom_site_fract_z
 _atom_site_occupancy
  H  H0  1  0.19597467  0.75275718  0.72789033  1
  H  H1  1  0.80402533  0.24724282  0.27210967  1
  H  H2  1  0.12710015  0.76824433  0.52819121  1
  H  H3  1  0.87289985  0.23175567  0.47180879  1
  H  H4  1  0.19922779  0.94100419  0.58557115  1
  H  H5  1  0.80077221  0.05899581  0.41442885  1
  H  H6  1  0.35877562  0.72158148  0.56053216  1
  H  H7  1  0.64122438  0.27841852  0.43946784  1
  H  H8  1  0.77248916  0.59487341  0.09701073  1
  H  H9  1  0.22751084  0.40512659  0.90298927  1
  H  H10  1  0.94096972  0.69797202  0.04736511  1
  H  H11  1  0.05903028  0.30202798  0.95263489  1
  H  H12  1  0.71071277  0.83579846  0.06554460  1
  H  H13  1  0.28928723  0.16420154  0.93445540  1
  H  H14  1  0.81996578  0.72417427  0.24012537  1
  H  H15  1  0.18003422  0.27582573  0.75987463  1
  H  H16  1  0.51805069  0.89194307  0.79040916  1
  H  H17  1  0.48194931  0.10805693  0.20959084  1
  H  H18  1  0.62032633  0.45730939  0.72550073  1
  H  H19  1  0.37967367  0.54269061  0.27449927  1
  N  N20  1  0.19033481  0.28831184  0.88787907  1
  N  N21  1  0.80966519  0.71168816  0.11212093  1
  N  N22  1  0.77993213  0.20432523  0.40045566  1
  N  N23  1  0.22006787  0.79567477  0.59954434  1
  O  O24  1  0.58076149  0.36455033  0.81501536  1
  O  O25  1  0.18413321  0.66723152  0.95665899  1
  O  O26  1  0.60515358  0.91570243  0.68730266  1
  O  O27  1  0.39484642  0.08429757  0.31269734  1
  O  O28  1  0.64223180  0.59761645  0.57615141  1
  O  O29  1  0.35776820  0.40238355  0.42384859  1
  O  O30  1  0.84757513  0.80311182  0.44673922  1
  O  O31  1  0.15242487  0.19688818  0.55326078  1
  O  O32  1  0.81586679  0.33276848  0.04334101  1
  O  O33  1  0.38520775  0.88560030  0.94374957  1
  O  O34  1  0.41923851  0.63544967  0.18498464  1
  O  O35  1  0.61479225  0.11439970  0.05625043  1
  F  F36  1  0.89175531  0.63397467  0.73596845  1
  F  F37  1  0.12070214  0.90700851  0.16373303  1
  F  F38  1  0.87929786  0.09299149  0.83626697  1
  F  F39  1  0.10824469  0.36602533  0.26403155  1
  P  P40  1  0.73852273  0.73878652  0.59800792  1
  P  P41  1  0.26147727  0.26121348  0.40199208  1
  P  P42  1  0.71565910  0.23465708  0.95029123  1
  P  P43  1  0.28434090  0.76534292  0.04970877  1
