# generated using pymatgen
data_Na5VO5
_symmetry_space_group_name_H-M   'P 1'
_cell_length_a   5.85936517
_cell_length_b   6.67406596
_cell_length_c   16.29542889
_cell_angle_alpha   90.00000000
_cell_angle_beta   90.00000000
_cell_angle_gamma   90.00000000
_symmetry_Int_Tables_number   1
_chemical_formula_structural   Na5VO5
_chemical_formula_sum   'Na20 V4 O20'
_cell_volume   637.24561408
_cell_formula_units_Z   4
loop_
 _symmetry_equiv_pos_site_id
 _symmetry_equiv_pos_as_xyz
  1  'x, y, z'
loop_
 _atom_site_type_symbol
 _atom_site_label
 _atom_site_symmetry_multiplicity
 _atom_site_fract_x
 _atom_site_fract_y
 _atom_site_fract_z
 _atom_site_occupancy
  O  O0  1  0.64961870  0.25000000  0.17294769  1
  O  O1  1  0.64961870  0.75000000  0.32705231  1
  O  O2  1  0.35038130  0.25000000  0.67294769  1
  O  O3  1  0.35038130  0.75000000  0.82705231  1
  O  O4  1  0.83581665  0.46172908  0.84645523  1
  O  O5  1  0.83581665  0.53827092  0.65354477  1
  O  O6  1  0.16418335  0.96172908  0.15354477  1
  O  O7  1  0.16418335  0.03827092  0.34645523  1
  O  O8  1  0.16418335  0.53827092  0.15354477  1
  O  O9  1  0.16418335  0.46172908  0.34645523  1
  O  O10  1  0.83581665  0.03827092  0.84645523  1
  O  O11  1  0.83581665  0.96172908  0.65354477  1
  O  O12  1  0.97020362  0.25000000  0.98814337  1
  O  O13  1  0.97020362  0.75000000  0.51185663  1
  O  O14  1  0.02979638  0.75000000  0.01185663  1
  O  O15  1  0.02979638  0.25000000  0.48814337  1
  O  O16  1  0.49767869  0.25000000  0.94424484  1
  O  O17  1  0.49767869  0.75000000  0.55575516  1
  O  O18  1  0.50232131  0.75000000  0.05575516  1
  O  O19  1  0.50232131  0.25000000  0.44424484  1
  Na  Na20  1  0.51125967  0.00000000  0.75000000  1
  Na  Na21  1  0.48874033  0.50000000  0.25000000  1
  Na  Na22  1  0.51125967  0.50000000  0.75000000  1
  Na  Na23  1  0.48874033  0.00000000  0.25000000  1
  Na  Na24  1  0.21001204  0.98605981  0.91723309  1
  Na  Na25  1  0.21001204  0.01394019  0.58276691  1
  Na  Na26  1  0.78998796  0.48605981  0.08276691  1
  Na  Na27  1  0.78998796  0.51394019  0.41723309  1
  Na  Na28  1  0.78998796  0.01394019  0.08276691  1
  Na  Na29  1  0.78998796  0.98605981  0.41723309  1
  Na  Na30  1  0.21001204  0.51394019  0.91723309  1
  Na  Na31  1  0.21001204  0.48605981  0.58276691  1
  Na  Na32  1  -0.00000965  0.75000000  0.76898238  1
  Na  Na33  1  -0.00000965  0.25000000  0.73101762  1
  Na  Na34  1  1.00000965  0.25000000  0.23101762  1
  Na  Na35  1  1.00000965  0.75000000  0.26898238  1
  Na  Na36  1  0.66510900  0.75000000  0.91543768  1
  Na  Na37  1  0.66510900  0.25000000  0.58456232  1
  Na  Na38  1  0.33489100  0.25000000  0.08456232  1
  Na  Na39  1  0.33489100  0.75000000  0.41543768  1
  V  V40  1  0.22271327  0.25000000  0.40658339  1
  V  V41  1  0.22271327  0.75000000  0.09341661  1
  V  V42  1  0.77728673  0.75000000  0.59341661  1
  V  V43  1  0.77728673  0.25000000  0.90658339  1
