# generated using pymatgen
data_Cs3H(SeO4)2
_symmetry_space_group_name_H-M   'P 1'
_cell_length_a   6.42977584
_cell_length_b   6.42977584
_cell_length_c   8.68068559
_cell_angle_alpha   71.30743512
_cell_angle_beta   71.30743517
_cell_angle_gamma   60.85277042
_symmetry_Int_Tables_number   1
_chemical_formula_structural   Cs3H(SeO4)2
_chemical_formula_sum   'Cs3 H1 Se2 O8'
_cell_volume   290.97912564
_cell_formula_units_Z   1
loop_
 _symmetry_equiv_pos_site_id
 _symmetry_equiv_pos_as_xyz
  1  'x, y, z'
loop_
 _atom_site_type_symbol
 _atom_site_label
 _atom_site_symmetry_multiplicity
 _atom_site_fract_x
 _atom_site_fract_y
 _atom_site_fract_z
 _atom_site_occupancy
  H  H0  1  0.50000000  0.50000000  0.00000000  1
  O  O1  1  0.71292307  0.71292307  0.25760601  1
  O  O2  1  0.28707693  0.28707693  0.74239399  1
  O  O3  1  0.60301111  0.60301111  0.02214158  1
  O  O4  1  0.39698889  0.39698889  0.97785842  1
  O  O5  1  0.69739126  0.27281619  0.30934585  1
  O  O6  1  0.72718381  0.30260874  0.69065415  1
  O  O7  1  0.30260874  0.72718381  0.69065415  1
  O  O8  1  0.27281619  0.69739126  0.30934585  1
  Se  Se9  1  0.57107445  0.57107445  0.23409925  1
  Se  Se10  1  0.42892555  0.42892555  0.76590075  1
  Cs  Cs11  1  0.80202809  0.80202809  0.60994867  1
  Cs  Cs12  1  0.19797191  0.19797191  0.39005133  1
  Cs  Cs13  1  0.00000000  0.00000000  0.00000000  1
