# generated using pymatgen
data_Nd2H16S3O20
_symmetry_space_group_name_H-M   'P 1'
_cell_length_a   6.89794165
_cell_length_b   7.67090483
_cell_length_c   18.56349594
_cell_angle_alpha   101.36812759
_cell_angle_beta   90.00000000
_cell_angle_gamma   116.71912713
_symmetry_Int_Tables_number   1
_chemical_formula_structural   Nd2H16S3O20
_chemical_formula_sum   'Nd4 H32 S6 O40'
_cell_volume   855.74477278
_cell_formula_units_Z   2
loop_
 _symmetry_equiv_pos_site_id
 _symmetry_equiv_pos_as_xyz
  1  'x, y, z'
loop_
 _atom_site_type_symbol
 _atom_site_label
 _atom_site_symmetry_multiplicity
 _atom_site_fract_x
 _atom_site_fract_y
 _atom_site_fract_z
 _atom_site_occupancy
  H  H0  1  0.28964482  0.54272781  0.75656013  1
  H  H1  1  0.74691701  0.45727219  0.74343987  1
  H  H2  1  0.71035518  0.45727219  0.24343987  1
  H  H3  1  0.25308299  0.54272781  0.25656013  1
  H  H4  1  0.13642770  0.33478945  0.70064762  1
  H  H5  1  0.80163824  0.66521055  0.79935238  1
  H  H6  1  0.86357230  0.66521055  0.29935238  1
  H  H7  1  0.19836176  0.33478945  0.20064762  1
  H  H8  1  0.44947350  0.10807589  0.64938928  1
  H  H9  1  0.34139761  0.89192411  0.85061072  1
  H  H10  1  0.55052650  0.89192411  0.35061072  1
  H  H11  1  0.65860239  0.10807589  0.14938928  1
  H  H12  1  0.19666245  0.99018914  0.66144458  1
  H  H13  1  0.20647331  0.00981086  0.83855542  1
  H  H14  1  0.80333755  0.00981086  0.33855542  1
  H  H15  1  0.79352669  0.99018914  0.16144458  1
  H  H16  1  0.99417424  0.27673874  0.51728589  1
  H  H17  1  0.71743550  0.72326126  0.98271411  1
  H  H18  1  0.00582576  0.72326126  0.48271411  1
  H  H19  1  0.28256450  0.27673874  0.01728589  1
  H  H20  1  0.20015655  0.23565858  0.50517480  1
  H  H21  1  0.96449797  0.76434142  0.99482520  1
  H  H22  1  0.79984345  0.76434142  0.49482520  1
  H  H23  1  0.03550203  0.23565858  0.00517480  1
  H  H24  1  0.82124365  0.98789303  0.60669720  1
  H  H25  1  0.83335062  0.01210697  0.89330280  1
  H  H26  1  0.17875635  0.01210697  0.39330280  1
  H  H27  1  0.16664938  0.98789303  0.10669720  1
  H  H28  1  0.69570794  0.02880724  0.54589131  1
  H  H29  1  0.66690070  0.97119276  0.95410869  1
  H  H30  1  0.30429206  0.97119276  0.45410869  1
  H  H31  1  0.33309930  0.02880724  0.04589131  1
  O  O32  1  0.23780286  0.47751744  0.70379631  1
  O  O33  1  0.76028541  0.52248256  0.79620369  1
  O  O34  1  0.76219714  0.52248256  0.29620369  1
  O  O35  1  0.23971459  0.47751744  0.20379631  1
  O  O36  1  0.32240330  0.97298779  0.64269106  1
  O  O37  1  0.34941551  0.02701221  0.85730894  1
  O  O38  1  0.67759670  0.02701221  0.35730894  1
  O  O39  1  0.65058449  0.97298779  0.14269106  1
  O  O40  1  0.13694909  0.30526537  0.54050509  1
  O  O41  1  0.83168372  0.69473463  0.95949491  1
  O  O42  1  0.86305091  0.69473463  0.45949491  1
  O  O43  1  0.16831628  0.30526537  0.04050509  1
  O  O44  1  0.70518633  0.92040232  0.56426981  1
  O  O45  1  0.78478401  0.07959768  0.93573019  1
  O  O46  1  0.29481367  0.07959768  0.43573019  1
  O  O47  1  0.21521599  0.92040232  0.06426981  1
  O  O48  1  0.79166768  0.16982129  0.78724084  1
  O  O49  1  0.62184639  0.83017871  0.71275916  1
  O  O50  1  0.20833232  0.83017871  0.21275916  1
  O  O51  1  0.37815361  0.16982129  0.28724084  1
  O  O52  1  0.98671825  0.06616712  0.69338231  1
  O  O53  1  0.92055114  0.93383288  0.80661769  1
  O  O54  1  0.01328175  0.93383288  0.30661769  1
  O  O55  1  0.07944886  0.06616712  0.19338231  1
  O  O56  1  0.72630918  0.27825578  0.51925636  1
  O  O57  1  0.44805340  0.72174422  0.98074364  1
  O  O58  1  0.27369082  0.72174422  0.48074364  1
  O  O59  1  0.55194660  0.27825578  0.01925636  1
  O  O60  1  0.68696622  0.32122382  0.65134127  1
  O  O61  1  0.36574240  0.67877618  0.84865873  1
  O  O62  1  0.31303378  0.67877618  0.34865873  1
  O  O63  1  0.63425760  0.32122382  0.15134127  1
  O  O64  1  0.97106129  0.59037285  0.60471183  1
  O  O65  1  0.38068844  0.40962715  0.89528817  1
  O  O66  1  0.02893871  0.40962715  0.39528817  1
  O  O67  1  0.61931156  0.59037285  0.10471183  1
  O  O68  1  0.59205060  0.50773024  0.57721900  1
  O  O69  1  0.08432036  0.49226976  0.92278100  1
  O  O70  1  0.40794940  0.49226976  0.42278100  1
  O  O71  1  0.91567964  0.50773024  0.07721900  1
  S  S72  1  0.82969195  0.00000000  0.75000000  1
  S  S73  1  0.17030805  0.00000000  0.25000000  1
  S  S74  1  0.74412539  0.42657824  0.58991995  1
  S  S75  1  0.31754716  0.57342176  0.91008005  1
  S  S76  1  0.25587461  0.57342176  0.41008005  1
  S  S77  1  0.68245284  0.42657824  0.08991995  1
  Nd  Nd78  1  0.35495920  0.66170315  0.60687826  1
  Nd  Nd79  1  0.69325605  0.33829685  0.89312174  1
  Nd  Nd80  1  0.64504080  0.33829685  0.39312174  1
  Nd  Nd81  1  0.30674395  0.66170315  0.10687826  1
