# generated using pymatgen
data_Sr(H9O5)2
_symmetry_space_group_name_H-M   'P 1'
_cell_length_a   9.02287587
_cell_length_b   9.02287587
_cell_length_c   11.52481731
_cell_angle_alpha   90.00000000
_cell_angle_beta   90.00000000
_cell_angle_gamma   90.00000000
_symmetry_Int_Tables_number   1
_chemical_formula_structural   Sr(H9O5)2
_chemical_formula_sum   'Sr4 H72 O40'
_cell_volume   938.26175712
_cell_formula_units_Z   4
loop_
 _symmetry_equiv_pos_site_id
 _symmetry_equiv_pos_as_xyz
  1  'x, y, z'
loop_
 _atom_site_type_symbol
 _atom_site_label
 _atom_site_symmetry_multiplicity
 _atom_site_fract_x
 _atom_site_fract_y
 _atom_site_fract_z
 _atom_site_occupancy
  H  H0  1  0.71199014  0.59319058  0.46378001  1
  H  H1  1  0.28800986  0.40680942  0.46378001  1
  H  H2  1  0.59319058  0.71199014  0.03621999  1
  H  H3  1  0.09319058  0.78800986  0.46378001  1
  H  H4  1  0.90680942  0.21199014  0.46378001  1
  H  H5  1  0.78800986  0.09319058  0.03621999  1
  H  H6  1  0.21199014  0.90680942  0.03621999  1
  H  H7  1  0.40680942  0.28800986  0.03621999  1
  H  H8  1  0.78800986  0.90680942  0.53621999  1
  H  H9  1  0.21199014  0.09319058  0.53621999  1
  H  H10  1  0.90680942  0.78800986  0.96378001  1
  H  H11  1  0.40680942  0.71199014  0.53621999  1
  H  H12  1  0.59319058  0.28800986  0.53621999  1
  H  H13  1  0.71199014  0.40680942  0.96378001  1
  H  H14  1  0.28800986  0.59319058  0.96378001  1
  H  H15  1  0.09319058  0.21199014  0.96378001  1
  H  H16  1  0.82904299  0.55890099  0.36376459  1
  H  H17  1  0.17095701  0.44109901  0.36376459  1
  H  H18  1  0.55890099  0.82904299  0.13623541  1
  H  H19  1  0.05890099  0.67095701  0.36376459  1
  H  H20  1  0.94109901  0.32904299  0.36376459  1
  H  H21  1  0.67095701  0.05890099  0.13623541  1
  H  H22  1  0.32904299  0.94109901  0.13623541  1
  H  H23  1  0.44109901  0.17095701  0.13623541  1
  H  H24  1  0.67095701  0.94109901  0.63623541  1
  H  H25  1  0.32904299  0.05890099  0.63623541  1
  H  H26  1  0.94109901  0.67095701  0.86376459  1
  H  H27  1  0.44109901  0.82904299  0.63623541  1
  H  H28  1  0.70808104  0.26152922  0.37175698  1
  H  H29  1  0.55890099  0.17095701  0.63623541  1
  H  H30  1  0.17095701  0.55890099  0.86376459  1
  H  H31  1  0.05890099  0.32904299  0.86376459  1
  H  H32  1  0.73847078  0.70808104  0.62824302  1
  H  H33  1  0.26152922  0.29191896  0.62824302  1
  H  H34  1  0.70808104  0.73847078  0.87175698  1
  H  H35  1  0.20808104  0.76152922  0.62824302  1
  H  H36  1  0.79191896  0.23847078  0.62824302  1
  H  H37  1  0.76152922  0.20808104  0.87175698  1
  H  H38  1  0.23847078  0.79191896  0.87175698  1
  H  H39  1  0.29191896  0.26152922  0.87175698  1
  H  H40  1  0.76152922  0.79191896  0.37175698  1
  H  H41  1  0.23847078  0.20808104  0.37175698  1
  H  H42  1  0.79191896  0.76152922  0.12824302  1
  H  H43  1  0.29191896  0.73847078  0.37175698  1
  H  H44  1  0.00000000  0.50000000  0.01477692  1
  H  H45  1  0.50000000  0.00000000  0.48522308  1
  H  H46  1  0.50000000  0.00000000  0.98522308  1
  H  H47  1  0.00000000  0.50000000  0.51477692  1
  H  H48  1  0.00000000  0.50000000  0.25907065  1
  H  H49  1  0.50000000  0.00000000  0.24092935  1
  H  H50  1  0.50000000  0.00000000  0.74092935  1
  H  H51  1  0.00000000  0.50000000  0.75907065  1
  H  H52  1  0.05625379  0.32654003  0.11955003  1
  H  H53  1  0.17345997  0.55625379  0.11955003  1
  H  H54  1  0.82654003  0.44374621  0.11955003  1
  H  H55  1  0.55625379  0.17345997  0.38044997  1
  H  H56  1  0.44374621  0.82654003  0.38044997  1
  H  H57  1  0.94374621  0.67345997  0.11955003  1
  H  H58  1  0.32654003  0.05625379  0.38044997  1
  H  H59  1  0.67345997  0.94374621  0.38044997  1
  H  H60  1  0.44374621  0.17345997  0.88044997  1
  H  H61  1  0.32654003  0.94374621  0.88044997  1
  H  H62  1  0.67345997  0.05625379  0.88044997  1
  H  H63  1  0.94374621  0.32654003  0.61955003  1
  H  H64  1  0.05625379  0.67345997  0.61955003  1
  H  H65  1  0.55625379  0.82654003  0.88044997  1
  H  H66  1  0.17345997  0.44374621  0.61955003  1
  H  H67  1  0.82654003  0.55625379  0.61955003  1
  H  H68  1  0.20808104  0.23847078  0.12824302  1
  H  H69  1  0.26152922  0.70808104  0.12824302  1
  H  H70  1  0.73847078  0.29191896  0.12824302  1
  H  H71  1  0.82904299  0.44109901  0.86376459  1
  O  O72  1  0.72576758  0.60084716  0.37813096  1
  O  O73  1  0.27423242  0.39915284  0.37813096  1
  O  O74  1  0.60084716  0.72576758  0.12186904  1
  O  O75  1  0.10084716  0.77423242  0.37813096  1
  O  O76  1  0.89915284  0.22576758  0.37813096  1
  O  O77  1  0.77423242  0.10084716  0.12186904  1
  O  O78  1  0.22576758  0.89915284  0.12186904  1
  O  O79  1  0.39915284  0.27423242  0.12186904  1
  O  O80  1  0.77423242  0.89915284  0.62186904  1
  O  O81  1  0.22576758  0.10084716  0.62186904  1
  O  O82  1  0.89915284  0.77423242  0.87813096  1
  O  O83  1  0.39915284  0.72576758  0.62186904  1
  O  O84  1  0.60084716  0.27423242  0.62186904  1
  O  O85  1  0.72576758  0.39915284  0.87813096  1
  O  O86  1  0.27423242  0.60084716  0.87813096  1
  O  O87  1  0.10084716  0.22576758  0.87813096  1
  O  O88  1  0.72242076  0.59878934  0.62017118  1
  O  O89  1  0.27757924  0.40121066  0.62017118  1
  O  O90  1  0.59878934  0.72242076  0.87982882  1
  O  O91  1  0.09878934  0.77757924  0.62017118  1
  O  O92  1  0.90121066  0.22242076  0.62017118  1
  O  O93  1  0.77757924  0.09878934  0.87982882  1
  O  O94  1  0.22242076  0.90121066  0.87982882  1
  O  O95  1  0.40121066  0.27757924  0.87982882  1
  O  O96  1  0.77757924  0.90121066  0.37982882  1
  O  O97  1  0.22242076  0.09878934  0.37982882  1
  O  O98  1  0.90121066  0.77757924  0.12017118  1
  O  O99  1  0.40121066  0.72242076  0.37982882  1
  O  O100  1  0.59878934  0.27757924  0.37982882  1
  O  O101  1  0.72242076  0.40121066  0.12017118  1
  O  O102  1  0.27757924  0.59878934  0.12017118  1
  O  O103  1  0.09878934  0.22242076  0.12017118  1
  O  O104  1  0.00000000  0.50000000  0.84427584  1
  O  O105  1  0.50000000  0.00000000  0.65572416  1
  O  O106  1  0.50000000  0.00000000  0.15572416  1
  O  O107  1  0.00000000  0.50000000  0.34427584  1
  O  O108  1  0.00000000  0.50000000  0.59987742  1
  O  O109  1  0.50000000  0.00000000  0.90012258  1
  O  O110  1  0.50000000  0.00000000  0.40012258  1
  O  O111  1  0.00000000  0.50000000  0.09987742  1
  Sr  Sr112  1  0.00000000  0.00000000  0.75000000  1
  Sr  Sr113  1  0.50000000  0.50000000  0.75000000  1
  Sr  Sr114  1  0.50000000  0.50000000  0.25000000  1
  Sr  Sr115  1  0.00000000  0.00000000  0.25000000  1
