# generated using pymatgen
data_AgH2ClO5
_symmetry_space_group_name_H-M   'P 1'
_cell_length_a   8.05477661
_cell_length_b   8.13747592
_cell_length_c   13.75687915
_cell_angle_alpha   90.00000000
_cell_angle_beta   90.00000000
_cell_angle_gamma   90.00000000
_symmetry_Int_Tables_number   1
_chemical_formula_structural   AgH2ClO5
_chemical_formula_sum   'Ag8 H16 Cl8 O40'
_cell_volume   901.70221987
_cell_formula_units_Z   8
loop_
 _symmetry_equiv_pos_site_id
 _symmetry_equiv_pos_as_xyz
  1  'x, y, z'
loop_
 _atom_site_type_symbol
 _atom_site_label
 _atom_site_symmetry_multiplicity
 _atom_site_fract_x
 _atom_site_fract_y
 _atom_site_fract_z
 _atom_site_occupancy
  H  H0  1  0.65448880  0.40497465  0.96332600  1
  H  H1  1  0.15448880  0.59502535  0.53667400  1
  H  H2  1  0.84551120  0.90497465  0.03667400  1
  H  H3  1  0.34551120  0.09502535  0.46332600  1
  H  H4  1  0.34551120  0.59502535  0.03667400  1
  H  H5  1  0.84551120  0.40497465  0.46332600  1
  H  H6  1  0.15448880  0.09502535  0.96332600  1
  H  H7  1  0.65448880  0.90497465  0.53667400  1
  H  H8  1  0.65051447  0.50825575  0.86688971  1
  H  H9  1  0.15051447  0.49174425  0.63311029  1
  H  H10  1  0.84948553  0.00825575  0.13311029  1
  H  H11  1  0.34948553  0.99174425  0.36688971  1
  H  H12  1  0.34948553  0.49174425  0.13311029  1
  H  H13  1  0.84948553  0.50825575  0.36688971  1
  H  H14  1  0.15051447  0.99174425  0.86688971  1
  H  H15  1  0.65051447  0.00825575  0.63311029  1
  O  O16  1  0.64318873  0.39486668  0.89225636  1
  O  O17  1  0.14318873  0.60513332  0.60774364  1
  O  O18  1  0.85681127  0.89486668  0.10774364  1
  O  O19  1  0.35681127  0.10513332  0.39225636  1
  O  O20  1  0.35681127  0.60513332  0.10774364  1
  O  O21  1  0.85681127  0.39486668  0.39225636  1
  O  O22  1  0.14318873  0.10513332  0.89225636  1
  O  O23  1  0.64318873  0.89486668  0.60774364  1
  O  O24  1  0.50940697  0.46592622  0.68470745  1
  O  O25  1  0.00940697  0.53407378  0.81529255  1
  O  O26  1  0.99059303  0.96592622  0.31529255  1
  O  O27  1  0.49059303  0.03407378  0.18470745  1
  O  O28  1  0.49059303  0.53407378  0.31529255  1
  O  O29  1  0.99059303  0.46592622  0.18470745  1
  O  O30  1  0.00940697  0.03407378  0.68470745  1
  O  O31  1  0.50940697  0.96592622  0.81529255  1
  O  O32  1  0.67390099  0.22265883  0.68226360  1
  O  O33  1  0.17390099  0.77734117  0.81773640  1
  O  O34  1  0.82609901  0.72265883  0.31773640  1
  O  O35  1  0.32609901  0.27734117  0.18226360  1
  O  O36  1  0.32609901  0.77734117  0.31773640  1
  O  O37  1  0.82609901  0.22265883  0.18226360  1
  O  O38  1  0.17390099  0.27734117  0.68226360  1
  O  O39  1  0.67390099  0.72265883  0.81773640  1
  O  O40  1  0.76424013  0.46216614  0.59471119  1
  O  O41  1  0.26424013  0.53783386  0.90528881  1
  O  O42  1  0.73575987  0.96216614  0.40528881  1
  O  O43  1  0.23575987  0.03783386  0.09471119  1
  O  O44  1  0.23575987  0.53783386  0.40528881  1
  O  O45  1  0.73575987  0.46216614  0.09471119  1
  O  O46  1  0.26424013  0.03783386  0.59471119  1
  O  O47  1  0.76424013  0.96216614  0.90528881  1
  O  O48  1  0.53184579  0.30698554  0.53793446  1
  O  O49  1  0.03184579  0.69301446  0.96206554  1
  O  O50  1  0.96815421  0.80698554  0.46206554  1
  O  O51  1  0.46815421  0.19301446  0.03793446  1
  O  O52  1  0.46815421  0.69301446  0.46206554  1
  O  O53  1  0.96815421  0.30698554  0.03793446  1
  O  O54  1  0.03184579  0.19301446  0.53793446  1
  O  O55  1  0.53184579  0.80698554  0.96206554  1
  Cl  Cl56  1  0.61825393  0.36473902  0.62384813  1
  Cl  Cl57  1  0.11825393  0.63526098  0.87615187  1
  Cl  Cl58  1  0.88174607  0.86473902  0.37615187  1
  Cl  Cl59  1  0.38174607  0.13526098  0.12384813  1
  Cl  Cl60  1  0.38174607  0.63526098  0.37615187  1
  Cl  Cl61  1  0.88174607  0.36473902  0.12384813  1
  Cl  Cl62  1  0.11825393  0.13526098  0.62384813  1
  Cl  Cl63  1  0.61825393  0.86473902  0.87615187  1
  Ag  Ag64  1  0.88594511  0.23700026  0.83920724  1
  Ag  Ag65  1  0.38594511  0.76299974  0.66079276  1
  Ag  Ag66  1  0.61405489  0.73700026  0.16079276  1
  Ag  Ag67  1  0.11405489  0.26299974  0.33920724  1
  Ag  Ag68  1  0.11405489  0.76299974  0.16079276  1
  Ag  Ag69  1  0.61405489  0.23700026  0.33920724  1
  Ag  Ag70  1  0.38594511  0.26299974  0.83920724  1
  Ag  Ag71  1  0.88594511  0.73700026  0.66079276  1
