# generated using pymatgen
data_Na2TeO4
_symmetry_space_group_name_H-M   'P 1'
_cell_length_a   5.29160976
_cell_length_b   5.84186479
_cell_length_c   12.36747759
_cell_angle_alpha   90.00000000
_cell_angle_beta   90.00000000
_cell_angle_gamma   90.00000000
_symmetry_Int_Tables_number   1
_chemical_formula_structural   Na2TeO4
_chemical_formula_sum   'Na8 Te4 O16'
_cell_volume   382.31421138
_cell_formula_units_Z   4
loop_
 _symmetry_equiv_pos_site_id
 _symmetry_equiv_pos_as_xyz
  1  'x, y, z'
loop_
 _atom_site_type_symbol
 _atom_site_label
 _atom_site_symmetry_multiplicity
 _atom_site_fract_x
 _atom_site_fract_y
 _atom_site_fract_z
 _atom_site_occupancy
  O  O0  1  0.11234350  0.29836353  0.67392395  1
  O  O1  1  0.61234350  0.20163647  0.82607605  1
  O  O2  1  0.88765650  0.79836353  0.82607605  1
  O  O3  1  0.38765650  0.70163647  0.67392395  1
  O  O4  1  0.88765650  0.70163647  0.32607605  1
  O  O5  1  0.38765650  0.79836353  0.17392395  1
  O  O6  1  0.11234350  0.20163647  0.17392395  1
  O  O7  1  0.61234350  0.29836353  0.32607605  1
  O  O8  1  0.07090392  0.32068116  0.44975462  1
  O  O9  1  0.57090392  0.17931884  0.05024538  1
  O  O10  1  0.92909608  0.82068116  0.05024538  1
  O  O11  1  0.42909608  0.67931884  0.44975462  1
  O  O12  1  0.57090392  0.32068116  0.55024538  1
  O  O13  1  0.07090392  0.17931884  0.94975462  1
  O  O14  1  0.42909608  0.82068116  0.94975462  1
  O  O15  1  0.92909608  0.67931884  0.55024538  1
  Na  Na16  1  0.75000000  0.00000000  0.63829886  1
  Na  Na17  1  0.25000000  0.50000000  0.86170114  1
  Na  Na18  1  0.25000000  0.00000000  0.36170114  1
  Na  Na19  1  0.75000000  0.50000000  0.13829886  1
  Na  Na20  1  0.75000000  0.00000000  0.22592900  1
  Na  Na21  1  0.25000000  0.50000000  0.27407100  1
  Na  Na22  1  0.25000000  0.00000000  0.77407100  1
  Na  Na23  1  0.75000000  0.50000000  0.72592900  1
  Te  Te24  1  0.75000000  0.00000000  0.92830290  1
  Te  Te25  1  0.25000000  0.50000000  0.57169710  1
  Te  Te26  1  0.25000000  0.00000000  0.07169710  1
  Te  Te27  1  0.75000000  0.50000000  0.42830290  1
