# generated using pymatgen
data_Ca(FeO2)2
_symmetry_space_group_name_H-M   'P 1'
_cell_length_a   3.05415874
_cell_length_b   9.33868941
_cell_length_c   10.85258337
_cell_angle_alpha   90.01225901
_cell_angle_beta   89.99056990
_cell_angle_gamma   89.98327282
_symmetry_Int_Tables_number   1
_chemical_formula_structural   Ca(FeO2)2
_chemical_formula_sum   'Ca4 Fe8 O16'
_cell_volume   309.53562073
_cell_formula_units_Z   4
loop_
 _symmetry_equiv_pos_site_id
 _symmetry_equiv_pos_as_xyz
  1  'x, y, z'
loop_
 _atom_site_type_symbol
 _atom_site_label
 _atom_site_symmetry_multiplicity
 _atom_site_fract_x
 _atom_site_fract_y
 _atom_site_fract_z
 _atom_site_occupancy
  Ca  Ca0  1  0.24979359  0.25743007  0.15650265  1
  Ca  Ca1  1  0.25006393  0.75758386  0.34364800  1
  Ca  Ca2  1  0.75020641  0.74256993  0.84349735  1
  Ca  Ca3  1  0.74993607  0.24241614  0.65635200  1
  Fe  Fe4  1  0.25014549  0.43531456  0.38824296  1
  Fe  Fe5  1  0.24956113  0.93544020  0.11167032  1
  Fe  Fe6  1  0.74985451  0.56468544  0.61175704  1
  Fe  Fe7  1  0.75043887  0.06455980  0.88832968  1
  Fe  Fe8  1  0.25020878  0.41741033  0.89629034  1
  Fe  Fe9  1  0.25010268  0.91742666  0.60371998  1
  Fe  Fe10  1  0.74979122  0.58258967  0.10370966  1
  Fe  Fe11  1  0.74989732  0.08257334  0.39628002  1
  O  O12  1  0.25023581  0.20387422  0.83582868  1
  O  O13  1  0.24987507  0.70369242  0.66406554  1
  O  O14  1  0.74976419  0.79612578  0.16417132  1
  O  O15  1  0.75012493  0.29630758  0.33593446  1
  O  O16  1  0.24984144  0.11934373  0.52530533  1
  O  O17  1  0.24990517  0.61929675  0.97473187  1
  O  O18  1  0.75015856  0.88065627  0.47469467  1
  O  O19  1  0.75009483  0.38070325  0.02526813  1
  O  O20  1  0.24993264  0.02847345  0.28365024  1
  O  O21  1  0.24983933  0.52848125  0.21627893  1
  O  O22  1  0.75006736  0.97152655  0.71634976  1
  O  O23  1  0.75016067  0.47151875  0.78372107  1
  O  O24  1  0.25008552  0.41701884  0.57311401  1
  O  O25  1  0.25024496  0.91705295  0.92695918  1
  O  O26  1  0.74991448  0.58298116  0.42688599  1
  O  O27  1  0.74975504  0.08294705  0.07304082  1
