# generated using pymatgen
data_AsO2
_symmetry_space_group_name_H-M   'P 1'
_cell_length_a   5.32533629
_cell_length_b   7.52727564
_cell_length_c   8.96144117
_cell_angle_alpha   90.00000000
_cell_angle_beta   90.00000000
_cell_angle_gamma   90.00000000
_symmetry_Int_Tables_number   1
_chemical_formula_structural   AsO2
_chemical_formula_sum   'As8 O16'
_cell_volume   359.22182590
_cell_formula_units_Z   8
loop_
 _symmetry_equiv_pos_site_id
 _symmetry_equiv_pos_as_xyz
  1  'x, y, z'
loop_
 _atom_site_type_symbol
 _atom_site_label
 _atom_site_symmetry_multiplicity
 _atom_site_fract_x
 _atom_site_fract_y
 _atom_site_fract_z
 _atom_site_occupancy
  O  O0  1  0.25000000  0.43423315  0.41546476  1
  O  O1  1  0.75000000  0.56576685  0.58453524  1
  O  O2  1  0.75000000  0.93423315  0.08453524  1
  O  O3  1  0.25000000  0.06576685  0.91546476  1
  O  O4  1  0.25000000  0.45045411  0.74705708  1
  O  O5  1  0.75000000  0.54954589  0.25294292  1
  O  O6  1  0.75000000  0.95045411  0.75294292  1
  O  O7  1  0.25000000  0.04954589  0.24705708  1
  O  O8  1  0.99546715  0.31725859  0.09440000  1
  O  O9  1  0.49546715  0.68274141  0.90560000  1
  O  O10  1  0.00453285  0.81725859  0.40560000  1
  O  O11  1  0.50453285  0.18274141  0.59440000  1
  O  O12  1  0.00453285  0.68274141  0.90560000  1
  O  O13  1  0.50453285  0.31725859  0.09440000  1
  O  O14  1  0.99546715  0.18274141  0.59440000  1
  O  O15  1  0.49546715  0.81725859  0.40560000  1
  As  As16  1  0.25000000  0.69667690  0.76171978  1
  As  As17  1  0.75000000  0.30332310  0.23828022  1
  As  As18  1  0.75000000  0.19667690  0.73828022  1
  As  As19  1  0.25000000  0.80332310  0.26171978  1
  As  As20  1  0.25000000  0.32954282  0.57856367  1
  As  As21  1  0.75000000  0.67045718  0.42143633  1
  As  As22  1  0.75000000  0.82954282  0.92143633  1
  As  As23  1  0.25000000  0.17045718  0.07856367  1
