# generated using pymatgen
data_LiGdCl4
_symmetry_space_group_name_H-M   'P 1'
_cell_length_a   6.52028169
_cell_length_b   6.52028169
_cell_length_c   8.08114062
_cell_angle_alpha   113.79251903
_cell_angle_beta   113.79251902
_cell_angle_gamma   90.00000002
_symmetry_Int_Tables_number   1
_chemical_formula_structural   LiGdCl4
_chemical_formula_sum   'Li2 Gd2 Cl8'
_cell_volume   282.15958880
_cell_formula_units_Z   2
loop_
 _symmetry_equiv_pos_site_id
 _symmetry_equiv_pos_as_xyz
  1  'x, y, z'
loop_
 _atom_site_type_symbol
 _atom_site_label
 _atom_site_symmetry_multiplicity
 _atom_site_fract_x
 _atom_site_fract_y
 _atom_site_fract_z
 _atom_site_occupancy
  Li  Li0  1  0.12500000  0.37500000  0.25000000  1
  Li  Li1  1  0.87500000  0.62500000  0.75000000  1
  Cl  Cl2  1  0.76131851  0.46618712  0.08935210  1
  Cl  Cl3  1  0.62316498  0.26131851  0.58935210  1
  Cl  Cl4  1  0.67196641  0.87683502  0.91064790  1
  Cl  Cl5  1  0.03381288  0.17196641  0.41064790  1
  Cl  Cl6  1  0.37683502  0.73868149  0.41064790  1
  Cl  Cl7  1  0.23868149  0.53381288  0.91064790  1
  Cl  Cl8  1  0.32803359  0.12316498  0.08935210  1
  Cl  Cl9  1  0.96618712  0.82803359  0.58935210  1
  Gd  Gd10  1  0.37500000  0.12500000  0.75000000  1
  Gd  Gd11  1  0.62500000  0.87500000  0.25000000  1
