# generated using pymatgen
data_DySi
_symmetry_space_group_name_H-M   'P 1'
_cell_length_a   3.83474486
_cell_length_b   4.28546104
_cell_length_c   5.68876860
_cell_angle_alpha   112.12693672
_cell_angle_beta   90.00000000
_cell_angle_gamma   90.00000000
_symmetry_Int_Tables_number   1
_chemical_formula_structural   DySi
_chemical_formula_sum   'Dy2 Si2'
_cell_volume   86.60205046
_cell_formula_units_Z   2
loop_
 _symmetry_equiv_pos_site_id
 _symmetry_equiv_pos_as_xyz
  1  'x, y, z'
loop_
 _atom_site_type_symbol
 _atom_site_label
 _atom_site_symmetry_multiplicity
 _atom_site_fract_x
 _atom_site_fract_y
 _atom_site_fract_z
 _atom_site_occupancy
  Si  Si0  1  0.25000000  0.57626617  0.15253233  1
  Si  Si1  1  0.75000000  0.42373383  0.84746767  1
  Dy  Dy2  1  0.25000000  0.85986245  0.71972490  1
  Dy  Dy3  1  0.75000000  0.14013755  0.28027510  1
