# generated using pymatgen
data_Ti(PO3)4
_symmetry_space_group_name_H-M   'P 1'
_cell_length_a   12.99585527
_cell_length_b   8.33176968
_cell_length_c   9.30344473
_cell_angle_alpha   90.00000000
_cell_angle_beta   90.00000000
_cell_angle_gamma   90.00000000
_symmetry_Int_Tables_number   1
_chemical_formula_structural   Ti(PO3)4
_chemical_formula_sum   'Ti4 P16 O48'
_cell_volume   1007.36278811
_cell_formula_units_Z   4
loop_
 _symmetry_equiv_pos_site_id
 _symmetry_equiv_pos_as_xyz
  1  'x, y, z'
loop_
 _atom_site_type_symbol
 _atom_site_label
 _atom_site_symmetry_multiplicity
 _atom_site_fract_x
 _atom_site_fract_y
 _atom_site_fract_z
 _atom_site_occupancy
  O  O0  1  0.07327956  0.20078236  0.63457024  1
  O  O1  1  0.07327956  0.79921764  0.13457024  1
  O  O2  1  0.06942423  0.47592672  0.13667137  1
  O  O3  1  0.06942423  0.52407328  0.63667137  1
  O  O4  1  0.11763134  0.08817403  0.37973232  1
  O  O5  1  0.11763134  0.91182597  0.87973232  1
  O  O6  1  0.11563098  0.36554125  0.88786298  1
  O  O7  1  0.11563098  0.63445875  0.38786298  1
  O  O8  1  0.18282067  0.36368578  0.46494148  1
  O  O9  1  0.18282067  0.63631422  0.96494148  1
  O  O10  1  0.25179446  0.11665178  0.58468418  1
  O  O11  1  0.25179446  0.88334822  0.08468418  1
  O  O12  1  0.24820554  0.38334822  0.08468418  1
  O  O13  1  0.24820554  0.61665178  0.58468418  1
  O  O14  1  0.31717933  0.13631422  0.96494148  1
  O  O15  1  0.31717933  0.86368578  0.46494148  1
  O  O16  1  0.38436902  0.13445875  0.38786298  1
  O  O17  1  0.38436902  0.86554125  0.88786298  1
  O  O18  1  0.38236866  0.41182597  0.87973232  1
  O  O19  1  0.38236866  0.58817403  0.37973232  1
  O  O20  1  0.43057577  0.02407328  0.63667137  1
  O  O21  1  0.43057577  0.97592672  0.13667137  1
  O  O22  1  0.42672044  0.29921764  0.13457024  1
  O  O23  1  0.42672044  0.70078236  0.63457024  1
  O  O24  1  0.57327956  0.29921764  0.36542976  1
  O  O25  1  0.57327956  0.70078236  0.86542976  1
  O  O26  1  0.56942423  0.02407328  0.86332863  1
  O  O27  1  0.56942423  0.97592672  0.36332863  1
  O  O28  1  0.61763134  0.41182597  0.62026768  1
  O  O29  1  0.61763134  0.58817403  0.12026768  1
  O  O30  1  0.61563098  0.13445875  0.11213702  1
  O  O31  1  0.61563098  0.86554125  0.61213702  1
  O  O32  1  0.68282067  0.13631422  0.53505852  1
  O  O33  1  0.68282067  0.86368578  0.03505852  1
  O  O34  1  0.75179446  0.38334822  0.41531582  1
  O  O35  1  0.75179446  0.61665178  0.91531582  1
  O  O36  1  0.74820554  0.11665178  0.91531582  1
  O  O37  1  0.74820554  0.88334822  0.41531582  1
  O  O38  1  0.81717933  0.36368578  0.03505852  1
  O  O39  1  0.81717933  0.63631422  0.53505852  1
  O  O40  1  0.88436902  0.36554125  0.61213702  1
  O  O41  1  0.88436902  0.63445875  0.11213702  1
  O  O42  1  0.88236866  0.08817403  0.12026768  1
  O  O43  1  0.88236866  0.91182597  0.62026768  1
  O  O44  1  0.93057577  0.47592672  0.36332863  1
  O  O45  1  0.93057577  0.52407328  0.86332863  1
  O  O46  1  0.92672044  0.20078236  0.86542976  1
  O  O47  1  0.92672044  0.79921764  0.36542976  1
  P  P48  1  0.14728043  0.18120930  0.50608165  1
  P  P49  1  0.14728043  0.81879070  0.00608165  1
  P  P50  1  0.14825722  0.46294894  0.01771827  1
  P  P51  1  0.14825722  0.53705106  0.51771827  1
  P  P52  1  0.35174278  0.03705106  0.51771827  1
  P  P53  1  0.35174278  0.96294894  0.01771827  1
  P  P54  1  0.35271957  0.31879070  0.00608165  1
  P  P55  1  0.35271957  0.68120930  0.50608165  1
  P  P56  1  0.64728043  0.31879070  0.49391835  1
  P  P57  1  0.64728043  0.68120930  0.99391835  1
  P  P58  1  0.64825722  0.03705106  0.98228173  1
  P  P59  1  0.64825722  0.96294894  0.48228173  1
  P  P60  1  0.85174278  0.46294894  0.48228173  1
  P  P61  1  0.85174278  0.53705106  0.98228173  1
  P  P62  1  0.85271957  0.18120930  0.99391835  1
  P  P63  1  0.85271957  0.81879070  0.49391835  1
  Ti  Ti64  1  0.00000000  0.34812079  0.75000000  1
  Ti  Ti65  1  0.00000000  0.65187921  0.25000000  1
  Ti  Ti66  1  0.50000000  0.15187921  0.25000000  1
  Ti  Ti67  1  0.50000000  0.84812079  0.75000000  1
