# generated using pymatgen
data_Mo2P2O11
_symmetry_space_group_name_H-M   'P 1'
_cell_length_a   7.98624802
_cell_length_b   12.73440007
_cell_length_c   8.68015154
_cell_angle_alpha   90.00000000
_cell_angle_beta   108.20514220
_cell_angle_gamma   90.00000000
_symmetry_Int_Tables_number   1
_chemical_formula_structural   Mo2P2O11
_chemical_formula_sum   'Mo8 P8 O44'
_cell_volume   838.58405786
_cell_formula_units_Z   4
loop_
 _symmetry_equiv_pos_site_id
 _symmetry_equiv_pos_as_xyz
  1  'x, y, z'
loop_
 _atom_site_type_symbol
 _atom_site_label
 _atom_site_symmetry_multiplicity
 _atom_site_fract_x
 _atom_site_fract_y
 _atom_site_fract_z
 _atom_site_occupancy
  O  O0  1  0.81553275  0.52826612  0.43377757  1
  O  O1  1  0.95821862  0.74999977  0.28192347  1
  O  O2  1  0.88673462  0.25000019  0.41555369  1
  O  O3  1  0.99605347  0.50149241  0.75381956  1
  O  O4  1  0.99605347  0.99850712  0.75381956  1
  O  O5  1  0.81553275  0.97173420  0.43377757  1
  O  O6  1  0.90086947  0.25000019  0.10340333  1
  O  O7  1  0.72006685  0.90374985  0.14518439  1
  O  O8  1  0.09913007  0.74999977  0.89659596  1
  O  O9  1  0.04178224  0.25000019  0.71807619  1
  O  O10  1  0.11326624  0.74999977  0.58444597  1
  O  O11  1  0.00394609  0.49850754  0.24618089  1
  O  O12  1  0.00394609  0.00149283  0.24618089  1
  O  O13  1  0.18446679  0.02826575  0.56622172  1
  O  O14  1  0.18446679  0.47173383  0.56622172  1
  O  O15  1  0.27993403  0.09625010  0.85481642  1
  O  O16  1  0.27993403  0.40374948  0.85481642  1
  O  O17  1  0.28555284  0.59551564  0.80534685  1
  O  O18  1  0.28555284  0.90448469  0.80534685  1
  O  O19  1  0.24266075  0.65186034  0.39452405  1
  O  O20  1  0.24266075  0.84813920  0.39452405  1
  O  O21  1  0.26362633  0.15351881  0.33001480  1
  O  O22  1  0.26362633  0.34648156  0.33001480  1
  O  O23  1  0.36581882  0.25000019  0.67068226  1
  O  O24  1  0.23802114  0.25000019  0.06561433  1
  O  O25  1  0.72006685  0.59625047  0.14518439  1
  O  O26  1  0.47372291  0.74999977  0.70264746  1
  O  O27  1  0.31807260  0.52369864  0.17843201  1
  O  O28  1  0.31807260  0.97630168  0.17843201  1
  O  O29  1  0.49999978  0.00000000  0.50000022  1
  O  O30  1  0.49999978  0.50000037  0.50000022  1
  O  O31  1  0.68192694  0.02369827  0.82156728  1
  O  O32  1  0.68192694  0.47630210  0.82156728  1
  O  O33  1  0.52627663  0.25000019  0.29735183  1
  O  O34  1  0.46043150  0.74999977  0.01450429  1
  O  O35  1  0.76197842  0.74999977  0.93438611  1
  O  O36  1  0.63418074  0.74999977  0.32931818  1
  O  O37  1  0.73637455  0.65351839  0.66998601  1
  O  O38  1  0.73637455  0.84648193  0.66998601  1
  O  O39  1  0.75733879  0.15186076  0.60547524  1
  O  O40  1  0.75733879  0.34813961  0.60547524  1
  O  O41  1  0.71444804  0.09551527  0.19465397  1
  O  O42  1  0.71444804  0.40448432  0.19465397  1
  O  O43  1  0.53956806  0.25000019  0.98549615  1
  P  P44  1  0.18356856  0.00686515  0.73694297  1
  P  P45  1  0.18356856  0.49313522  0.73694297  1
  P  P46  1  0.32614392  0.25000019  0.24808109  1
  P  P47  1  0.67385562  0.74999977  0.75191820  1
  P  P48  1  0.81643232  0.50686473  0.26305784  1
  P  P49  1  0.81643232  0.99313480  0.26305784  1
  P  P50  1  0.13870531  0.74999977  0.41389270  1
  P  P51  1  0.86129423  0.25000019  0.58610659  1
  Mo  Mo52  1  0.73031663  0.25000019  0.18155513  1
  Mo  Mo53  1  0.69591002  0.74999977  0.15862478  1
  Mo  Mo54  1  0.73397175  0.50128174  0.64948662  1
  Mo  Mo55  1  0.73397175  0.99871858  0.64948662  1
  Mo  Mo56  1  0.26602780  0.00128137  0.35051382  1
  Mo  Mo57  1  0.26602780  0.49871821  0.35051382  1
  Mo  Mo58  1  0.30408951  0.25000019  0.84137451  1
  Mo  Mo59  1  0.26968423  0.74999977  0.81844453  1
