# generated using pymatgen
data_Fe7P6(HO6)4
_symmetry_space_group_name_H-M   'P 1'
_cell_length_a   6.67537445
_cell_length_b   8.10758901
_cell_length_c   9.58312752
_cell_angle_alpha   103.41336162
_cell_angle_beta   108.96054235
_cell_angle_gamma   101.62690960
_symmetry_Int_Tables_number   1
_chemical_formula_structural   Fe7P6(HO6)4
_chemical_formula_sum   'Fe7 P6 H4 O24'
_cell_volume   455.00096484
_cell_formula_units_Z   1
loop_
 _symmetry_equiv_pos_site_id
 _symmetry_equiv_pos_as_xyz
  1  'x, y, z'
loop_
 _atom_site_type_symbol
 _atom_site_label
 _atom_site_symmetry_multiplicity
 _atom_site_fract_x
 _atom_site_fract_y
 _atom_site_fract_z
 _atom_site_occupancy
  H  H0  1  0.66082362  0.73420257  0.42071474  1
  H  H1  1  0.17760386  0.87935379  0.80541074  1
  H  H2  1  0.82239614  0.12064621  0.19458926  1
  H  H3  1  0.33917638  0.26579743  0.57928526  1
  O  O4  1  0.74052039  0.73875945  0.53169985  1
  O  O5  1  0.25947961  0.26124055  0.46830015  1
  O  O6  1  0.55007099  0.63265432  0.70104620  1
  O  O7  1  0.44992901  0.36734568  0.29895380  1
  O  O8  1  0.38229323  0.79203456  0.51145949  1
  O  O9  1  0.61770677  0.20796544  0.48854051  1
  O  O10  1  0.88028853  0.46287337  0.83487932  1
  O  O11  1  0.11971147  0.53712663  0.16512068  1
  O  O12  1  0.89790152  0.21568547  0.10407793  1
  O  O13  1  0.01442063  0.16983531  0.65949014  1
  O  O14  1  0.98557937  0.83016469  0.34050986  1
  O  O15  1  0.22511739  0.18800801  0.93975294  1
  O  O16  1  0.77488261  0.81199199  0.06024706  1
  O  O17  1  0.56903970  0.75271363  0.24567253  1
  O  O18  1  0.43096030  0.24728637  0.75432747  1
  O  O19  1  0.78963877  0.05925600  0.27499806  1
  O  O20  1  0.21036123  0.94074400  0.72500194  1
  O  O21  1  0.27380669  0.03872833  0.23551176  1
  O  O22  1  0.72619331  0.96127167  0.76448824  1
  O  O23  1  0.30257108  0.54906776  0.92243436  1
  O  O24  1  0.69742892  0.45093224  0.07756564  1
  O  O25  1  0.06353522  0.54553502  0.65642065  1
  O  O26  1  0.93646478  0.45446498  0.34357935  1
  O  O27  1  0.10209848  0.78431453  0.89592207  1
  P  P28  1  0.59320353  0.77919931  0.63318278  1
  P  P29  1  0.40679647  0.22080069  0.36681722  1
  P  P30  1  0.91219925  0.41516367  0.17097968  1
  P  P31  1  0.08780075  0.58483633  0.82902032  1
  P  P32  1  0.77788139  0.85434493  0.22645328  1
  P  P33  1  0.22211861  0.14565507  0.77354672  1
  Fe  Fe34  1  0.05577836  0.70967517  0.51637049  1
  Fe  Fe35  1  0.94422164  0.29032483  0.48362951  1
  Fe  Fe36  1  0.26859169  0.80391617  0.28048865  1
  Fe  Fe37  1  0.73140831  0.19608383  0.71951135  1
  Fe  Fe38  1  0.61353851  0.54602209  0.88677874  1
  Fe  Fe39  1  0.38646149  0.45397791  0.11322126  1
  Fe  Fe40  1  0.00000000  0.00000000  0.00000000  1
