# generated using pymatgen
data_Te5(O2F11)2
_symmetry_space_group_name_H-M   'P 1'
_cell_length_a   10.04503187
_cell_length_b   10.04503186
_cell_length_c   12.57513638
_cell_angle_alpha   113.54070699
_cell_angle_beta   113.54070705
_cell_angle_gamma   90.00000003
_symmetry_Int_Tables_number   1
_chemical_formula_structural   Te5(O2F11)2
_chemical_formula_sum   'Te10 O8 F44'
_cell_volume   1047.06984117
_cell_formula_units_Z   2
loop_
 _symmetry_equiv_pos_site_id
 _symmetry_equiv_pos_as_xyz
  1  'x, y, z'
loop_
 _atom_site_type_symbol
 _atom_site_label
 _atom_site_symmetry_multiplicity
 _atom_site_fract_x
 _atom_site_fract_y
 _atom_site_fract_z
 _atom_site_occupancy
  O  O0  1  0.05779645  0.56715799  0.74701463  1
  O  O1  1  0.17985663  0.55779645  0.24701463  1
  O  O2  1  0.06715799  0.18921817  0.24701463  1
  O  O3  1  0.68921817  0.67985663  0.74701463  1
  O  O4  1  0.94220355  0.43284201  0.25298537  1
  O  O5  1  0.82014337  0.44220355  0.75298537  1
  O  O6  1  0.93284201  0.81078183  0.75298537  1
  O  O7  1  0.31078183  0.32014337  0.25298537  1
  F  F8  1  0.32761674  0.33472056  0.85998461  1
  F  F9  1  0.52526404  0.82761674  0.35998461  1
  F  F10  1  0.03437928  0.28437928  0.06875856  1
  F  F11  1  0.78437928  0.53437928  0.56875856  1
  F  F12  1  0.96562072  0.71562072  0.93124144  1
  F  F13  1  0.21562072  0.46562072  0.43124144  1
  F  F14  1  0.57274666  0.25326730  0.30994241  1
  F  F15  1  0.05667512  0.07274666  0.80994241  1
  F  F16  1  0.75326730  0.23719576  0.80994241  1
  F  F17  1  0.73719576  0.55667512  0.30994241  1
  F  F18  1  0.42725334  0.74673270  0.69005759  1
  F  F19  1  0.94332488  0.92725334  0.19005759  1
  F  F20  1  0.24673270  0.76280424  0.19005759  1
  F  F21  1  0.26280424  0.44332488  0.69005759  1
  F  F22  1  0.39673398  0.18606144  0.06659548  1
  F  F23  1  0.88053404  0.89673398  0.56659548  1
  F  F24  1  0.68606144  0.16986150  0.56659548  1
  F  F25  1  0.66986150  0.38053404  0.06659548  1
  F  F26  1  0.60326602  0.81393856  0.93340452  1
  F  F27  1  0.11946596  0.10326602  0.43340452  1
  F  F28  1  0.31393856  0.83013850  0.43340452  1
  F  F29  1  0.33013850  0.61946596  0.93340452  1
  F  F30  1  0.37309677  0.09113459  0.31809543  1
  F  F31  1  0.22696084  0.87309677  0.81809543  1
  F  F32  1  0.59113459  0.44499865  0.81809543  1
  F  F33  1  0.94499865  0.72696084  0.31809543  1
  F  F34  1  0.62690323  0.90886541  0.68190457  1
  F  F35  1  0.77303916  0.12690323  0.18190457  1
  F  F36  1  0.40886541  0.55500135  0.18190457  1
  F  F37  1  0.05500135  0.27303916  0.68190457  1
  F  F38  1  0.19600418  0.02489689  0.07453414  1
  F  F39  1  0.04963725  0.69600418  0.57453414  1
  F  F40  1  0.52489689  0.37852995  0.57453414  1
  F  F41  1  0.87852995  0.54963725  0.07453414  1
  F  F42  1  0.80399582  0.97510311  0.92546586  1
  F  F43  1  0.95036275  0.30399582  0.42546586  1
  F  F44  1  0.47510311  0.62147005  0.42546586  1
  F  F45  1  0.12147005  0.45036275  0.92546586  1
  F  F46  1  0.46763213  0.97473596  0.14001539  1
  F  F47  1  0.16527944  0.96763213  0.64001539  1
  F  F48  1  0.47473596  0.17238326  0.64001539  1
  F  F49  1  0.67238326  0.66527944  0.14001539  1
  F  F50  1  0.53236787  0.02526404  0.85998461  1
  F  F51  1  0.83472056  0.03236787  0.35998461  1
  Te  Te52  1  0.19128290  0.44757450  0.80725248  1
  Te  Te53  1  0.35967798  0.69128290  0.30725248  1
  Te  Te54  1  0.94757450  0.11596958  0.30725248  1
  Te  Te55  1  0.61596958  0.85967798  0.80725248  1
  Te  Te56  1  0.80871710  0.55242550  0.19274752  1
  Te  Te57  1  0.64032202  0.30871710  0.69274752  1
  Te  Te58  1  0.05242550  0.88403042  0.69274752  1
  Te  Te59  1  0.38403042  0.14032202  0.19274752  1
  Te  Te60  1  0.87500000  0.62500000  0.75000000  1
  Te  Te61  1  0.12500000  0.37500000  0.25000000  1
