# generated using pymatgen
data_Zr6CI12
_symmetry_space_group_name_H-M   'P 1'
_cell_length_a   9.34505156
_cell_length_b   9.34505155
_cell_length_c   9.34505156
_cell_angle_alpha   106.77183207
_cell_angle_beta   106.77183207
_cell_angle_gamma   106.77183205
_symmetry_Int_Tables_number   1
_chemical_formula_structural   Zr6CI12
_chemical_formula_sum   'Zr6 C1 I12'
_cell_volume   683.84480168
_cell_formula_units_Z   1
loop_
 _symmetry_equiv_pos_site_id
 _symmetry_equiv_pos_as_xyz
  1  'x, y, z'
loop_
 _atom_site_type_symbol
 _atom_site_label
 _atom_site_symmetry_multiplicity
 _atom_site_fract_x
 _atom_site_fract_y
 _atom_site_fract_z
 _atom_site_occupancy
  C  C0  1  0.00000000  0.00000000  0.00000000  1
  Zr  Zr1  1  0.97540966  0.91528462  0.73750737  1
  Zr  Zr2  1  0.91528462  0.73750737  0.97540966  1
  Zr  Zr3  1  0.73750737  0.97540966  0.91528462  1
  Zr  Zr4  1  0.02459034  0.08471538  0.26249263  1
  Zr  Zr5  1  0.08471538  0.26249263  0.02459034  1
  Zr  Zr6  1  0.26249263  0.02459034  0.08471538  1
  I  I7  1  0.13935881  0.43549458  0.36200150  1
  I  I8  1  0.36200150  0.13935881  0.43549458  1
  I  I9  1  0.56450542  0.63799850  0.86064119  1
  I  I10  1  0.86064119  0.56450542  0.63799850  1
  I  I11  1  0.63799850  0.86064119  0.56450542  1
  I  I12  1  0.43549458  0.36200150  0.13935881  1
  I  I13  1  0.92198453  0.77637547  0.30379120  1
  I  I14  1  0.77637547  0.30379120  0.92198453  1
  I  I15  1  0.30379120  0.92198453  0.77637547  1
  I  I16  1  0.07801547  0.22362453  0.69620880  1
  I  I17  1  0.22362453  0.69620880  0.07801547  1
  I  I18  1  0.69620880  0.07801547  0.22362453  1
