# generated using pymatgen
data_CsAsSe2
_symmetry_space_group_name_H-M   'P 1'
_cell_length_a   6.89393614
_cell_length_b   10.09622048
_cell_length_c   17.16284094
_cell_angle_alpha   90.00000000
_cell_angle_beta   90.00000000
_cell_angle_gamma   90.00000000
_symmetry_Int_Tables_number   1
_chemical_formula_structural   CsAsSe2
_chemical_formula_sum   'Cs8 As8 Se16'
_cell_volume   1194.58005613
_cell_formula_units_Z   8
loop_
 _symmetry_equiv_pos_site_id
 _symmetry_equiv_pos_as_xyz
  1  'x, y, z'
loop_
 _atom_site_type_symbol
 _atom_site_label
 _atom_site_symmetry_multiplicity
 _atom_site_fract_x
 _atom_site_fract_y
 _atom_site_fract_z
 _atom_site_occupancy
  As  As0  1  0.23304770  0.97069943  0.71149194  1
  As  As1  1  0.76695230  0.02930057  0.28850806  1
  As  As2  1  0.26695230  0.47069943  0.71149194  1
  As  As3  1  0.23304770  0.52930057  0.21149194  1
  As  As4  1  0.73304770  0.97069943  0.78850806  1
  As  As5  1  0.73304770  0.52930057  0.28850806  1
  As  As6  1  0.76695230  0.47069943  0.78850806  1
  As  As7  1  0.26695230  0.02930057  0.21149194  1
  Se  Se8  1  0.48676872  0.87461897  0.28195707  1
  Se  Se9  1  0.98676872  0.62538103  0.71804293  1
  Se  Se10  1  0.51323128  0.37461897  0.21804293  1
  Se  Se11  1  0.98676872  0.87461897  0.21804293  1
  Se  Se12  1  0.01323128  0.12538103  0.78195707  1
  Se  Se13  1  0.51323128  0.12538103  0.71804293  1
  Se  Se14  1  0.01323128  0.37461897  0.28195707  1
  Se  Se15  1  0.48676872  0.62538103  0.78195707  1
  Se  Se16  1  0.36098935  0.02340420  0.08008525  1
  Se  Se17  1  0.86098935  0.47659580  0.91991475  1
  Se  Se18  1  0.63901065  0.52340420  0.41991475  1
  Se  Se19  1  0.13901065  0.97659580  0.58008525  1
  Se  Se20  1  0.63901065  0.97659580  0.91991475  1
  Se  Se21  1  0.13901065  0.52340420  0.08008525  1
  Se  Se22  1  0.36098935  0.47659580  0.58008525  1
  Se  Se23  1  0.86098935  0.02340420  0.41991475  1
  Cs  Cs24  1  0.86033319  0.19831382  0.07928773  1
  Cs  Cs25  1  0.36033319  0.30168618  0.92071227  1
  Cs  Cs26  1  0.13966681  0.69831382  0.42071227  1
  Cs  Cs27  1  0.63966681  0.80168618  0.57928773  1
  Cs  Cs28  1  0.13966681  0.80168618  0.92071227  1
  Cs  Cs29  1  0.63966681  0.69831382  0.07928773  1
  Cs  Cs30  1  0.86033319  0.30168618  0.57928773  1
  Cs  Cs31  1  0.36033319  0.19831382  0.42071227  1
