# generated using pymatgen
data_Ba7Ga4Sb9
_symmetry_space_group_name_H-M   'P 1'
_cell_length_a   7.22471466
_cell_length_b   10.98757169
_cell_length_c   18.38533743
_cell_angle_alpha   90.00000000
_cell_angle_beta   90.00000000
_cell_angle_gamma   90.00000000
_symmetry_Int_Tables_number   1
_chemical_formula_structural   Ba7Ga4Sb9
_chemical_formula_sum   'Ba14 Ga8 Sb18'
_cell_volume   1459.46614774
_cell_formula_units_Z   2
loop_
 _symmetry_equiv_pos_site_id
 _symmetry_equiv_pos_as_xyz
  1  'x, y, z'
loop_
 _atom_site_type_symbol
 _atom_site_label
 _atom_site_symmetry_multiplicity
 _atom_site_fract_x
 _atom_site_fract_y
 _atom_site_fract_z
 _atom_site_occupancy
  Ga  Ga0  1  0.05777750  0.43056307  0.25000000  1
  Ga  Ga1  1  0.05777750  0.06943693  0.25000000  1
  Ga  Ga2  1  0.94222250  0.56943693  0.75000000  1
  Ga  Ga3  1  0.94222250  0.93056307  0.75000000  1
  Ga  Ga4  1  0.74119975  0.25000000  0.62253890  1
  Ga  Ga5  1  0.74119975  0.25000000  0.87746110  1
  Ga  Ga6  1  0.25880025  0.75000000  0.37746110  1
  Ga  Ga7  1  0.25880025  0.75000000  0.12253890  1
  Sb  Sb8  1  0.47936728  0.75000000  0.00706933  1
  Sb  Sb9  1  0.47936728  0.75000000  0.49293067  1
  Sb  Sb10  1  0.95453806  0.03979190  0.61778312  1
  Sb  Sb11  1  0.95453806  0.46020810  0.88221688  1
  Sb  Sb12  1  0.04546194  0.53979190  0.38221688  1
  Sb  Sb13  1  0.04546194  0.96020810  0.11778312  1
  Sb  Sb14  1  0.52063272  0.25000000  0.50706933  1
  Sb  Sb15  1  0.52063272  0.25000000  0.99293067  1
  Sb  Sb16  1  0.21172887  0.75000000  0.75000000  1
  Sb  Sb17  1  0.78827113  0.25000000  0.25000000  1
  Sb  Sb18  1  0.66959592  0.75000000  0.75000000  1
  Sb  Sb19  1  0.33040408  0.25000000  0.25000000  1
  Sb  Sb20  1  0.45618764  0.75000000  0.25000000  1
  Sb  Sb21  1  0.54381236  0.25000000  0.75000000  1
  Sb  Sb22  1  0.95453806  0.03979190  0.88221688  1
  Sb  Sb23  1  0.95453806  0.46020810  0.61778312  1
  Sb  Sb24  1  0.04546194  0.53979190  0.11778312  1
  Sb  Sb25  1  0.04546194  0.96020810  0.38221688  1
  Ba  Ba26  1  0.92364451  0.75000000  0.25000000  1
  Ba  Ba27  1  0.07635549  0.25000000  0.75000000  1
  Ba  Ba28  1  0.45751912  0.52098331  0.62553128  1
  Ba  Ba29  1  0.45751912  0.97901669  0.87446872  1
  Ba  Ba30  1  0.54248088  0.02098331  0.37446872  1
  Ba  Ba31  1  0.54248088  0.47901669  0.12553128  1
  Ba  Ba32  1  0.54248088  0.47901669  0.37446872  1
  Ba  Ba33  1  0.54248088  0.02098331  0.12553128  1
  Ba  Ba34  1  0.45751912  0.97901669  0.62553128  1
  Ba  Ba35  1  0.45751912  0.52098331  0.87446872  1
  Ba  Ba36  1  0.04095653  0.25000000  0.46399491  1
  Ba  Ba37  1  0.04095653  0.25000000  0.03600509  1
  Ba  Ba38  1  0.95904347  0.75000000  0.53600509  1
  Ba  Ba39  1  0.95904347  0.75000000  0.96399491  1
