# generated using pymatgen
data_Ba2Nb15O32
_symmetry_space_group_name_H-M   'P 1'
_cell_length_a   12.91664241
_cell_length_b   12.91664241
_cell_length_c   12.91664241
_cell_angle_alpha   35.60895016
_cell_angle_beta   35.60895019
_cell_angle_gamma   35.60895017
_symmetry_Int_Tables_number   1
_chemical_formula_structural   Ba2Nb15O32
_chemical_formula_sum   'Ba2 Nb15 O32'
_cell_volume   653.00528916
_cell_formula_units_Z   1
loop_
 _symmetry_equiv_pos_site_id
 _symmetry_equiv_pos_as_xyz
  1  'x, y, z'
loop_
 _atom_site_type_symbol
 _atom_site_label
 _atom_site_symmetry_multiplicity
 _atom_site_fract_x
 _atom_site_fract_y
 _atom_site_fract_z
 _atom_site_occupancy
  O  O0  1  0.18432710  0.95636475  0.76369334  1
  O  O1  1  0.95636475  0.76369334  0.18432710  1
  O  O2  1  0.76369334  0.18432710  0.95636475  1
  O  O3  1  0.81567290  0.04363525  0.23630666  1
  O  O4  1  0.04363525  0.23630666  0.81567290  1
  O  O5  1  0.23630666  0.81567290  0.04363525  1
  O  O6  1  0.35239308  0.47026781  0.05737781  1
  O  O7  1  0.47026781  0.05737781  0.35239308  1
  O  O8  1  0.05737781  0.35239308  0.47026781  1
  O  O9  1  0.64760692  0.52973219  0.94262219  1
  O  O10  1  0.52973219  0.94262219  0.64760692  1
  O  O11  1  0.94262219  0.64760692  0.52973219  1
  O  O12  1  0.95831962  0.06959974  0.65960876  1
  O  O13  1  0.06959974  0.65960876  0.95831962  1
  O  O14  1  0.65960876  0.95831962  0.06959974  1
  O  O15  1  0.04168038  0.93040026  0.34039124  1
  O  O16  1  0.93040026  0.34039124  0.04168038  1
  O  O17  1  0.80072552  0.53708410  0.36629117  1
  O  O18  1  0.36629117  0.80072552  0.53708410  1
  O  O19  1  0.53708410  0.36629117  0.80072552  1
  O  O20  1  0.19927448  0.46291590  0.63370883  1
  O  O21  1  0.63370883  0.19927448  0.46291590  1
  O  O22  1  0.46291590  0.63370883  0.19927448  1
  O  O23  1  0.07305753  0.76273806  0.66336869  1
  O  O24  1  0.66336869  0.07305753  0.76273806  1
  O  O25  1  0.76273806  0.66336869  0.07305753  1
  O  O26  1  0.92694247  0.23726194  0.33663131  1
  O  O27  1  0.33663131  0.92694247  0.23726194  1
  O  O28  1  0.23726194  0.33663131  0.92694247  1
  O  O29  1  0.23809366  0.23809366  0.23809366  1
  O  O30  1  0.76190634  0.76190634  0.76190634  1
  O  O31  1  0.34039124  0.04168038  0.93040026  1
  Nb  Nb32  1  0.86077567  0.86077567  0.86077567  1
  Nb  Nb33  1  0.13922433  0.13922433  0.13922433  1
  Nb  Nb34  1  0.55635799  0.72633245  0.31592833  1
  Nb  Nb35  1  0.72633245  0.31592833  0.55635799  1
  Nb  Nb36  1  0.31592833  0.55635799  0.72633245  1
  Nb  Nb37  1  0.44364201  0.27366755  0.68407167  1
  Nb  Nb38  1  0.27366755  0.68407167  0.44364201  1
  Nb  Nb39  1  0.68407167  0.44364201  0.27366755  1
  Nb  Nb40  1  0.81067708  0.92156924  0.46931605  1
  Nb  Nb41  1  0.92156924  0.46931605  0.81067708  1
  Nb  Nb42  1  0.46931605  0.81067708  0.92156924  1
  Nb  Nb43  1  0.18932292  0.07843076  0.53068395  1
  Nb  Nb44  1  0.07843076  0.53068395  0.18932292  1
  Nb  Nb45  1  0.53068395  0.18932292  0.07843076  1
  Nb  Nb46  1  0.00000000  0.00000000  0.00000000  1
  Ba  Ba47  1  0.63862456  0.63862456  0.63862456  1
  Ba  Ba48  1  0.36137544  0.36137544  0.36137544  1
