# generated using pymatgen
data_Ba4P2O
_symmetry_space_group_name_H-M   'P 1'
_cell_length_a   7.25727575
_cell_length_b   7.62743208
_cell_length_c   9.05226864
_cell_angle_alpha   90.00000000
_cell_angle_beta   113.63157550
_cell_angle_gamma   90.00000000
_symmetry_Int_Tables_number   1
_chemical_formula_structural   Ba4P2O
_chemical_formula_sum   'Ba8 P4 O2'
_cell_volume   459.06288574
_cell_formula_units_Z   2
loop_
 _symmetry_equiv_pos_site_id
 _symmetry_equiv_pos_as_xyz
  1  'x, y, z'
loop_
 _atom_site_type_symbol
 _atom_site_label
 _atom_site_symmetry_multiplicity
 _atom_site_fract_x
 _atom_site_fract_y
 _atom_site_fract_z
 _atom_site_occupancy
  O  O0  1  0.50000000  0.50000000  0.00000000  1
  O  O1  1  0.00000000  0.00000000  0.00000000  1
  P  P2  1  0.13436135  0.47542398  0.26872269  1
  P  P3  1  0.86563865  0.52457602  0.73127731  1
  P  P4  1  0.36563865  0.97542398  0.73127731  1
  P  P5  1  0.63436135  0.02457602  0.26872269  1
  Ba  Ba6  1  0.67758744  0.43020603  0.35517489  1
  Ba  Ba7  1  0.32241256  0.56979397  0.64482511  1
  Ba  Ba8  1  0.17758744  0.06979397  0.35517489  1
  Ba  Ba9  1  0.82241256  0.93020603  0.64482511  1
  Ba  Ba10  1  0.72982284  0.25000000  0.95964568  1
  Ba  Ba11  1  0.77017716  0.75000000  0.04035432  1
  Ba  Ba12  1  0.27017716  0.75000000  0.04035432  1
  Ba  Ba13  1  0.22982284  0.25000000  0.95964568  1
