# generated using pymatgen
data_Ta7(Te12I5)2
_symmetry_space_group_name_H-M   'P 1'
_cell_length_a   6.90567290
_cell_length_b   8.17718173
_cell_length_c   27.57934743
_cell_angle_alpha   96.46707544
_cell_angle_beta   90.62340800
_cell_angle_gamma   101.52853298
_symmetry_Int_Tables_number   1
_chemical_formula_structural   Ta7(Te12I5)2
_chemical_formula_sum   'Ta7 Te24 I10'
_cell_volume   1515.35492094
_cell_formula_units_Z   1
loop_
 _symmetry_equiv_pos_site_id
 _symmetry_equiv_pos_as_xyz
  1  'x, y, z'
loop_
 _atom_site_type_symbol
 _atom_site_label
 _atom_site_symmetry_multiplicity
 _atom_site_fract_x
 _atom_site_fract_y
 _atom_site_fract_z
 _atom_site_occupancy
  Te  Te0  1  0.45448390  0.79378198  0.55210104  1
  Te  Te1  1  0.54551610  0.20621802  0.44789896  1
  Te  Te2  1  0.43997106  0.75224126  0.44839499  1
  Te  Te3  1  0.56002894  0.24775874  0.55160501  1
  Te  Te4  1  0.99302470  0.98429446  0.41606203  1
  Te  Te5  1  0.00697530  0.01570554  0.58393797  1
  Te  Te6  1  0.06555878  0.27665346  0.48419032  1
  Te  Te7  1  0.93444122  0.72334654  0.51580968  1
  Te  Te8  1  0.36738280  0.45325706  0.29840955  1
  Te  Te9  1  0.63261720  0.54674294  0.70159045  1
  Te  Te10  1  0.29380303  0.15983894  0.23044749  1
  Te  Te11  1  0.70619697  0.84016106  0.76955251  1
  Te  Te12  1  0.42467325  0.71332931  0.20043591  1
  Te  Te13  1  0.57532675  0.28667069  0.79956409  1
  Te  Te14  1  0.35377214  0.43074823  0.13069715  1
  Te  Te15  1  0.64622786  0.56925177  0.86930285  1
  Te  Te16  1  0.90504773  0.64122509  0.16251251  1
  Te  Te17  1  0.18555309  0.76509960  0.73219425  1
  Te  Te18  1  0.81444691  0.23490040  0.26780575  1
  Te  Te19  1  0.20156163  0.81892951  0.83431910  1
  Te  Te20  1  0.79843837  0.18107049  0.16568090  1
  Te  Te21  1  0.08072414  0.31743122  0.73366563  1
  Te  Te22  1  0.91927586  0.68256878  0.26633437  1
  Te  Te23  1  0.09495227  0.35877491  0.83748749  1
  I  I24  1  0.45999456  0.85177783  0.33727717  1
  I  I25  1  0.54000544  0.14822217  0.66272283  1
  I  I26  1  0.89892829  0.57637455  0.37546791  1
  I  I27  1  0.10107171  0.42362545  0.62453209  1
  I  I28  1  0.70837463  0.77272432  0.03657485  1
  I  I29  1  0.29162537  0.22727568  0.96342515  1
  I  I30  1  0.15884021  0.73644934  0.95529878  1
  I  I31  1  0.84115979  0.26355066  0.04470122  1
  I  I32  1  0.76246802  0.99078738  0.91701852  1
  I  I33  1  0.23753198  0.00921262  0.08298148  1
  Ta  Ta34  1  0.25025177  0.99918271  0.50012860  1
  Ta  Ta35  1  0.74974823  0.00081729  0.49987140  1
  Ta  Ta36  1  0.10924916  0.43679219  0.21476165  1
  Ta  Ta37  1  0.89075084  0.56320781  0.78523835  1
  Ta  Ta38  1  0.60950368  0.43533575  0.21463090  1
  Ta  Ta39  1  0.39049632  0.56466425  0.78536910  1
  Ta  Ta40  1  0.00000000  0.00000000  0.00000000  1
