# generated using pymatgen
data_Ta5Ga2Sn
_symmetry_space_group_name_H-M   'P 1'
_cell_length_a   5.33615168
_cell_length_b   7.82252654
_cell_length_c   7.82252654
_cell_angle_alpha   83.31949407
_cell_angle_beta   70.05755838
_cell_angle_gamma   70.05755838
_symmetry_Int_Tables_number   1
_chemical_formula_structural   Ta5Ga2Sn
_chemical_formula_sum   'Ta10 Ga4 Sn2'
_cell_volume   288.54329239
_cell_formula_units_Z   2
loop_
 _symmetry_equiv_pos_site_id
 _symmetry_equiv_pos_as_xyz
  1  'x, y, z'
loop_
 _atom_site_type_symbol
 _atom_site_label
 _atom_site_symmetry_multiplicity
 _atom_site_fract_x
 _atom_site_fract_y
 _atom_site_fract_z
 _atom_site_occupancy
  Ta  Ta0  1  0.73472086  0.84214120  0.68841709  1
  Ta  Ta1  1  0.26527914  0.15785880  0.31158291  1
  Ta  Ta2  1  0.76527914  0.31158291  0.15785880  1
  Ta  Ta3  1  0.23472086  0.68841709  0.84214120  1
  Ta  Ta4  1  0.57686205  0.68841709  0.15785880  1
  Ta  Ta5  1  0.42313795  0.31158291  0.84214120  1
  Ta  Ta6  1  0.07686205  0.15785880  0.68841709  1
  Ta  Ta7  1  0.92313795  0.84214120  0.31158291  1
  Ta  Ta8  1  0.75000000  0.50000000  0.50000000  1
  Ta  Ta9  1  0.25000000  0.50000000  0.50000000  1
  Ga  Ga10  1  0.16645985  0.50000000  0.16708029  1
  Ga  Ga11  1  0.83354015  0.50000000  0.83291971  1
  Ga  Ga12  1  0.33354015  0.83291971  0.50000000  1
  Ga  Ga13  1  0.66645985  0.16708029  0.50000000  1
  Sn  Sn14  1  0.25000000  -0.00000000  -0.00000000  1
  Sn  Sn15  1  0.75000000  -0.00000000  -0.00000000  1
