# generated using pymatgen
data_P3RuO9
_symmetry_space_group_name_H-M   'P 1'
_cell_length_a   6.40187855
_cell_length_b   8.47358598
_cell_length_c   15.56266401
_cell_angle_alpha   90.00000000
_cell_angle_beta   90.00000000
_cell_angle_gamma   106.58067342
_symmetry_Int_Tables_number   1
_chemical_formula_structural   P3RuO9
_chemical_formula_sum   'P12 Ru4 O36'
_cell_volume   809.12193762
_cell_formula_units_Z   4
loop_
 _symmetry_equiv_pos_site_id
 _symmetry_equiv_pos_as_xyz
  1  'x, y, z'
loop_
 _atom_site_type_symbol
 _atom_site_label
 _atom_site_symmetry_multiplicity
 _atom_site_fract_x
 _atom_site_fract_y
 _atom_site_fract_z
 _atom_site_occupancy
  O  O0  1  0.18244981  0.12463463  0.37854242  1
  O  O1  1  0.81755019  0.37536537  0.87854242  1
  O  O2  1  0.81755019  0.87536537  0.62145758  1
  O  O3  1  0.18244981  0.62463463  0.12145758  1
  O  O4  1  0.94211801  0.15996616  0.50628574  1
  O  O5  1  0.05788199  0.34003384  0.00628574  1
  O  O6  1  0.05788199  0.84003384  0.49371426  1
  O  O7  1  0.94211801  0.65996616  0.99371426  1
  O  O8  1  0.55476803  0.09406409  0.61123022  1
  O  O9  1  0.44523197  0.40593591  0.11123022  1
  O  O10  1  0.44523197  0.90593591  0.38876978  1
  O  O11  1  0.55476803  0.59406409  0.88876978  1
  O  O12  1  0.19931465  0.14028078  0.66343558  1
  O  O13  1  0.80068535  0.35971922  0.16343558  1
  O  O14  1  0.80068535  0.85971922  0.33656442  1
  O  O15  1  0.19931465  0.64028078  0.83656442  1
  O  O16  1  0.53594316  0.88136780  0.84659838  1
  O  O17  1  0.46405684  0.61863220  0.34659838  1
  O  O18  1  0.46405684  0.11863220  0.15340162  1
  O  O19  1  0.53594316  0.38136780  0.65340162  1
  O  O20  1  0.82559971  0.09278664  0.92634888  1
  O  O21  1  0.17440029  0.40721336  0.42634888  1
  O  O22  1  0.17440029  0.90721336  0.07365112  1
  O  O23  1  0.82559971  0.59278664  0.57365112  1
  O  O24  1  0.36178011  0.75352227  0.98275451  1
  O  O25  1  0.63821989  0.74647773  0.48275451  1
  O  O26  1  0.63821989  0.24647773  0.01724549  1
  O  O27  1  0.36178011  0.25352227  0.51724549  1
  O  O28  1  0.81449945  0.09710907  0.76503943  1
  O  O29  1  0.18550055  0.40289093  0.26503943  1
  O  O30  1  0.18550055  0.90289093  0.23496057  1
  O  O31  1  0.81449945  0.59710907  0.73496057  1
  O  O32  1  0.93504666  0.87242470  0.84977619  1
  O  O33  1  0.06495334  0.62757530  0.34977619  1
  O  O34  1  0.06495334  0.12757530  0.15022381  1
  O  O35  1  0.93504666  0.37242470  0.65022381  1
  P  P36  1  0.15143780  0.22245033  0.45619312  1
  P  P37  1  0.84856220  0.27754967  0.95619312  1
  P  P38  1  0.84856220  0.77754967  0.54380688  1
  P  P39  1  0.15143780  0.72245033  0.04380688  1
  P  P40  1  0.40852482  0.20406483  0.61409031  1
  P  P41  1  0.59147518  0.29593517  0.11409031  1
  P  P42  1  0.59147518  0.79593517  0.38590969  1
  P  P43  1  0.40852482  0.70406483  0.88590969  1
  P  P44  1  0.78966904  0.48370190  0.66000726  1
  P  P45  1  0.21033096  0.01629810  0.16000726  1
  P  P46  1  0.21033096  0.51629810  0.33999274  1
  P  P47  1  0.78966904  0.98370190  0.83999274  1
  Ru  Ru48  1  0.88044828  0.12413435  0.63617515  1
  Ru  Ru49  1  0.11955172  0.37586565  0.13617515  1
  Ru  Ru50  1  0.11955172  0.87586565  0.36382485  1
  Ru  Ru51  1  0.88044828  0.62413435  0.86382485  1
