# generated using pymatgen
data_RbAg5Se3
_symmetry_space_group_name_H-M   'P 1'
_cell_length_a   6.09085646
_cell_length_b   6.09085646
_cell_length_c   11.48144946
_cell_angle_alpha   90.00000000
_cell_angle_beta   90.00000000
_cell_angle_gamma   90.00000000
_symmetry_Int_Tables_number   1
_chemical_formula_structural   RbAg5Se3
_chemical_formula_sum   'Rb2 Ag10 Se6'
_cell_volume   425.94492498
_cell_formula_units_Z   2
loop_
 _symmetry_equiv_pos_site_id
 _symmetry_equiv_pos_as_xyz
  1  'x, y, z'
loop_
 _atom_site_type_symbol
 _atom_site_label
 _atom_site_symmetry_multiplicity
 _atom_site_fract_x
 _atom_site_fract_y
 _atom_site_fract_z
 _atom_site_occupancy
  Rb  Rb0  1  0.25000000  0.75000000  0.50000000  1
  Rb  Rb1  1  0.75000000  0.25000000  0.50000000  1
  Ag  Ag2  1  0.04788056  0.54788056  0.81139533  1
  Ag  Ag3  1  0.54788056  0.04788056  0.18860467  1
  Ag  Ag4  1  0.95211944  0.04788056  0.81139533  1
  Ag  Ag5  1  0.04788056  0.95211944  0.18860467  1
  Ag  Ag6  1  0.75000000  0.75000000  0.00000000  1
  Ag  Ag7  1  0.45211944  0.54788056  0.18860467  1
  Ag  Ag8  1  0.25000000  0.25000000  0.00000000  1
  Ag  Ag9  1  0.54788056  0.45211944  0.81139533  1
  Ag  Ag10  1  0.95211944  0.45211944  0.18860467  1
  Ag  Ag11  1  0.45211944  0.95211944  0.81139533  1
  Se  Se12  1  0.75000000  0.75000000  0.32452392  1
  Se  Se13  1  0.25000000  0.25000000  0.67547608  1
  Se  Se14  1  0.25000000  0.75000000  0.00000000  1
  Se  Se15  1  0.75000000  0.75000000  0.67547608  1
  Se  Se16  1  0.25000000  0.25000000  0.32452392  1
  Se  Se17  1  0.75000000  0.25000000  0.00000000  1
