# generated using pymatgen
data_Ba4Ge20Pd3
_symmetry_space_group_name_H-M   'P 1'
_cell_length_a   10.90699314
_cell_length_b   10.90699314
_cell_length_c   10.90699314
_cell_angle_alpha   90.00000000
_cell_angle_beta   90.00000000
_cell_angle_gamma   90.00000000
_symmetry_Int_Tables_number   1
_chemical_formula_structural   Ba4Ge20Pd3
_chemical_formula_sum   'Ba8 Ge40 Pd6'
_cell_volume   1297.52316439
_cell_formula_units_Z   2
loop_
 _symmetry_equiv_pos_site_id
 _symmetry_equiv_pos_as_xyz
  1  'x, y, z'
loop_
 _atom_site_type_symbol
 _atom_site_label
 _atom_site_symmetry_multiplicity
 _atom_site_fract_x
 _atom_site_fract_y
 _atom_site_fract_z
 _atom_site_occupancy
  Ge  Ge0  1  0.18302011  0.18302011  0.18302011  1
  Ge  Ge1  1  0.68302011  0.31697989  0.68302011  1
  Ge  Ge2  1  0.68302011  0.68302011  0.31697989  1
  Ge  Ge3  1  0.31697989  0.68302011  0.68302011  1
  Ge  Ge4  1  0.81697989  0.81697989  0.18302011  1
  Ge  Ge5  1  0.18302011  0.81697989  0.81697989  1
  Ge  Ge6  1  0.81697989  0.18302011  0.81697989  1
  Ge  Ge7  1  0.31697989  0.31697989  0.31697989  1
  Ge  Ge8  1  0.81697989  0.81697989  0.81697989  1
  Ge  Ge9  1  0.31697989  0.68302011  0.31697989  1
  Ge  Ge10  1  0.31697989  0.31697989  0.68302011  1
  Ge  Ge11  1  0.68302011  0.31697989  0.31697989  1
  Ge  Ge12  1  0.18302011  0.18302011  0.81697989  1
  Ge  Ge13  1  0.81697989  0.18302011  0.18302011  1
  Ge  Ge14  1  0.18302011  0.81697989  0.18302011  1
  Ge  Ge15  1  0.68302011  0.68302011  0.68302011  1
  Ge  Ge16  1  0.00000000  0.31458673  0.11902432  1
  Ge  Ge17  1  0.50000000  0.38097568  0.81458673  1
  Ge  Ge18  1  0.50000000  0.61902432  0.18541327  1
  Ge  Ge19  1  0.61902432  0.81458673  0.50000000  1
  Ge  Ge20  1  0.38097568  0.81458673  0.50000000  1
  Ge  Ge21  1  0.18541327  0.50000000  0.61902432  1
  Ge  Ge22  1  0.81458673  0.50000000  0.61902432  1
  Ge  Ge23  1  0.11902432  0.00000000  0.31458673  1
  Ge  Ge24  1  0.31458673  0.11902432  0.00000000  1
  Ge  Ge25  1  0.68541327  0.88097568  0.00000000  1
  Ge  Ge26  1  0.11902432  0.00000000  0.68541327  1
  Ge  Ge27  1  0.68541327  0.11902432  0.00000000  1
  Ge  Ge28  1  0.88097568  0.00000000  0.31458673  1
  Ge  Ge29  1  0.88097568  0.00000000  0.68541327  1
  Ge  Ge30  1  0.31458673  0.88097568  0.00000000  1
  Ge  Ge31  1  0.00000000  0.68541327  0.88097568  1
  Ge  Ge32  1  0.00000000  0.31458673  0.88097568  1
  Ge  Ge33  1  0.00000000  0.68541327  0.11902432  1
  Ge  Ge34  1  0.81458673  0.50000000  0.38097568  1
  Ge  Ge35  1  0.18541327  0.50000000  0.38097568  1
  Ge  Ge36  1  0.61902432  0.18541327  0.50000000  1
  Ge  Ge37  1  0.38097568  0.18541327  0.50000000  1
  Ge  Ge38  1  0.50000000  0.61902432  0.81458673  1
  Ge  Ge39  1  0.50000000  0.38097568  0.18541327  1
  Pd  Pd40  1  0.25000000  0.00000000  0.50000000  1
  Pd  Pd41  1  0.75000000  0.00000000  0.50000000  1
  Pd  Pd42  1  0.00000000  0.50000000  0.25000000  1
  Pd  Pd43  1  0.00000000  0.50000000  0.75000000  1
  Pd  Pd44  1  0.50000000  0.75000000  0.00000000  1
  Pd  Pd45  1  0.50000000  0.25000000  0.00000000  1
  Ba  Ba46  1  0.00000000  0.00000000  0.00000000  1
  Ba  Ba47  1  0.50000000  0.50000000  0.50000000  1
  Ba  Ba48  1  0.25000000  0.50000000  0.00000000  1
  Ba  Ba49  1  0.75000000  0.50000000  0.00000000  1
  Ba  Ba50  1  0.50000000  0.00000000  0.25000000  1
  Ba  Ba51  1  0.50000000  0.00000000  0.75000000  1
  Ba  Ba52  1  0.00000000  0.75000000  0.50000000  1
  Ba  Ba53  1  0.00000000  0.25000000  0.50000000  1
