# generated using pymatgen
data_Ba3Si5O13
_symmetry_space_group_name_H-M   'P 1'
_cell_length_a   4.78093584
_cell_length_b   14.03799116
_cell_length_c   20.51382932
_cell_angle_alpha   98.68637180
_cell_angle_beta   90.00000000
_cell_angle_gamma   90.00000000
_symmetry_Int_Tables_number   1
_chemical_formula_structural   Ba3Si5O13
_chemical_formula_sum   'Ba12 Si20 O52'
_cell_volume   1360.98832701
_cell_formula_units_Z   4
loop_
 _symmetry_equiv_pos_site_id
 _symmetry_equiv_pos_as_xyz
  1  'x, y, z'
loop_
 _atom_site_type_symbol
 _atom_site_label
 _atom_site_symmetry_multiplicity
 _atom_site_fract_x
 _atom_site_fract_y
 _atom_site_fract_z
 _atom_site_occupancy
  O  O0  1  0.14864575  0.78542622  0.49719773  1
  O  O1  1  0.64864575  0.71457378  0.50280227  1
  O  O2  1  0.85135425  0.21457378  0.50280227  1
  O  O3  1  0.35135425  0.28542622  0.49719773  1
  O  O4  1  0.73408819  0.90482482  0.47963974  1
  O  O5  1  0.23408819  0.59517518  0.52036026  1
  O  O6  1  0.26591181  0.09517518  0.52036026  1
  O  O7  1  0.76591181  0.40482482  0.47963974  1
  O  O8  1  0.80975369  0.85444776  0.59696608  1
  O  O9  1  0.30975369  0.64555224  0.40303392  1
  O  O10  1  0.19024631  0.14555224  0.40303392  1
  O  O11  1  0.69024631  0.35444776  0.59696608  1
  O  O12  1  0.73634976  0.72911526  0.68728802  1
  O  O13  1  0.23634976  0.77088474  0.31271198  1
  O  O14  1  0.26365024  0.27088474  0.31271198  1
  O  O15  1  0.76365024  0.22911526  0.68728802  1
  O  O16  1  0.14866708  0.85699553  0.69997137  1
  O  O17  1  0.64866708  0.64300447  0.30002863  1
  O  O18  1  0.85133292  0.14300447  0.30002863  1
  O  O19  1  0.35133292  0.35699553  0.69997137  1
  O  O20  1  0.25004195  0.01316645  0.79022674  1
  O  O21  1  0.64768344  0.92674155  0.71382708  1
  O  O22  1  0.35231656  0.07325845  0.28617292  1
  O  O23  1  0.85231656  0.42674155  0.71382708  1
  O  O24  1  0.25600514  0.03876223  0.66621919  1
  O  O25  1  0.75600514  0.46123777  0.33378081  1
  O  O26  1  0.74399486  0.96123777  0.33378081  1
  O  O27  1  0.24399486  0.53876223  0.66621919  1
  O  O28  1  0.27898792  0.86893805  0.86600964  1
  O  O29  1  0.77898792  0.63106195  0.13399036  1
  O  O30  1  0.72101208  0.13106195  0.13399036  1
  O  O31  1  0.22101208  0.36893805  0.86600964  1
  O  O32  1  0.71611641  0.66137753  0.98012876  1
  O  O33  1  0.21611641  0.83862247  0.01987124  1
  O  O34  1  0.28388359  0.33862247  0.01987124  1
  O  O35  1  0.78388359  0.16137753  0.98012876  1
  O  O36  1  0.77415929  0.67863522  0.85180440  1
  O  O37  1  0.27415929  0.82136478  0.14819560  1
  O  O38  1  0.22584071  0.32136478  0.14819560  1
  O  O39  1  0.72584071  0.17863522  0.85180440  1
  O  O40  1  0.11381734  0.56067349  0.91477111  1
  O  O41  1  0.61381734  0.93932651  0.08522889  1
  O  O42  1  0.88618266  0.43932651  0.08522889  1
  O  O43  1  0.38618266  0.06067349  0.91477111  1
  O  O44  1  0.61720172  0.50342865  0.88668688  1
  O  O45  1  0.11720172  0.99657135  0.11331312  1
  O  O46  1  0.38279828  0.49657135  0.11331312  1
  O  O47  1  0.88279828  0.00342865  0.88668688  1
  O  O48  1  0.24995805  0.51316645  0.79022674  1
  O  O49  1  0.74995805  0.98683355  0.20977326  1
  O  O50  1  0.75004195  0.48683355  0.20977326  1
  O  O51  1  0.14768344  0.57325845  0.28617292  1
  Si  Si52  1  0.82216502  0.81754193  0.51684689  1
  Si  Si53  1  0.32216502  0.68245807  0.48315311  1
  Si  Si54  1  0.17783498  0.18245807  0.48315311  1
  Si  Si55  1  0.67783498  0.31754193  0.51684689  1
  Si  Si56  1  0.82288024  0.83437628  0.67412662  1
  Si  Si57  1  0.32288024  0.66562372  0.32587338  1
  Si  Si58  1  0.17711976  0.16562372  0.32587338  1
  Si  Si59  1  0.67711976  0.33437628  0.67412662  1
  Si  Si60  1  0.31837685  0.96141874  0.71394841  1
  Si  Si61  1  0.81837685  0.53858126  0.28605159  1
  Si  Si62  1  0.68162315  0.03858126  0.28605159  1
  Si  Si63  1  0.18162315  0.46141874  0.71394841  1
  Si  Si64  1  0.20881809  0.97949365  0.86347364  1
  Si  Si65  1  0.70881809  0.52050635  0.13652636  1
  Si  Si66  1  0.79118191  0.02050635  0.13652636  1
  Si  Si67  1  0.29118191  0.47949365  0.86347364  1
  Si  Si68  1  0.70751799  0.10737476  0.90680240  1
  Si  Si69  1  0.20751799  0.39262524  0.09319760  1
  Si  Si70  1  0.29248201  0.89262524  0.09319760  1
  Si  Si71  1  0.79248201  0.60737476  0.90680240  1
  Ba  Ba72  1  0.75212876  0.56491778  0.59241280  1
  Ba  Ba73  1  0.25212876  0.93508222  0.40758720  1
  Ba  Ba74  1  0.24787124  0.43508222  0.40758720  1
  Ba  Ba75  1  0.74787124  0.06491778  0.59241280  1
  Ba  Ba76  1  0.29509617  0.70661302  0.77406210  1
  Ba  Ba77  1  0.79509617  0.79338698  0.22593790  1
  Ba  Ba78  1  0.70490383  0.29338698  0.22593790  1
  Ba  Ba79  1  0.20490383  0.20661302  0.77406210  1
  Ba  Ba80  1  0.72505272  0.84367794  0.94896068  1
  Ba  Ba81  1  0.22505272  0.65632206  0.05103932  1
  Ba  Ba82  1  0.27494728  0.15632206  0.05103932  1
  Ba  Ba83  1  0.77494728  0.34367794  0.94896068  1
