# generated using pymatgen
data_Bi2Te4Cl7
_symmetry_space_group_name_H-M   'P 1'
_cell_length_a   8.98363442
_cell_length_b   16.83373706
_cell_length_c   23.44742091
_cell_angle_alpha   90.00000000
_cell_angle_beta   90.00000000
_cell_angle_gamma   90.00000000
_symmetry_Int_Tables_number   1
_chemical_formula_structural   Bi2Te4Cl7
_chemical_formula_sum   'Bi16 Te32 Cl56'
_cell_volume   3545.90984427
_cell_formula_units_Z   8
loop_
 _symmetry_equiv_pos_site_id
 _symmetry_equiv_pos_as_xyz
  1  'x, y, z'
loop_
 _atom_site_type_symbol
 _atom_site_label
 _atom_site_symmetry_multiplicity
 _atom_site_fract_x
 _atom_site_fract_y
 _atom_site_fract_z
 _atom_site_occupancy
  Cl  Cl0  1  0.98239308  0.00464199  0.21673889  1
  Cl  Cl1  1  0.48239308  0.99535801  0.28326111  1
  Cl  Cl2  1  0.51760692  0.50464199  0.78326111  1
  Cl  Cl3  1  0.01760692  0.49535801  0.71673889  1
  Cl  Cl4  1  0.84652119  0.97732227  0.35474723  1
  Cl  Cl5  1  0.34652119  0.02267773  0.14525277  1
  Cl  Cl6  1  0.65347881  0.47732227  0.64525277  1
  Cl  Cl7  1  0.15347881  0.52267773  0.85474723  1
  Cl  Cl8  1  0.17681992  0.86254748  0.30885594  1
  Cl  Cl9  1  0.67681992  0.13745252  0.19114406  1
  Cl  Cl10  1  0.32318008  0.36254748  0.69114406  1
  Cl  Cl11  1  0.82318008  0.63745252  0.80885594  1
  Cl  Cl12  1  0.41858757  0.70221522  0.19941474  1
  Cl  Cl13  1  0.91858757  0.29778478  0.30058526  1
  Cl  Cl14  1  0.08141243  0.20221522  0.80058526  1
  Cl  Cl15  1  0.58141243  0.79778478  0.69941474  1
  Cl  Cl16  1  0.37076338  0.83298260  0.08217545  1
  Cl  Cl17  1  0.87076338  0.16701740  0.41782455  1
  Cl  Cl18  1  0.12923662  0.33298260  0.91782455  1
  Cl  Cl19  1  0.62923662  0.66701740  0.58217545  1
  Cl  Cl20  1  0.67495731  0.87395678  0.17068669  1
  Cl  Cl21  1  0.17495731  0.12604322  0.32931331  1
  Cl  Cl22  1  0.82504269  0.37395678  0.82931331  1
  Cl  Cl23  1  0.32504269  0.62604322  0.67068669  1
  Cl  Cl24  1  0.55922221  0.80864241  0.31431958  1
  Cl  Cl25  1  0.05922221  0.19135759  0.18568042  1
  Cl  Cl26  1  0.94077779  0.30864241  0.68568042  1
  Cl  Cl27  1  0.44077779  0.69135759  0.81431958  1
  Cl  Cl28  1  0.63288099  0.65777692  0.41692207  1
  Cl  Cl29  1  0.13288099  0.34222308  0.08307793  1
  Cl  Cl30  1  0.86711901  0.15777692  0.58307793  1
  Cl  Cl31  1  0.36711901  0.84222308  0.91692207  1
  Cl  Cl32  1  0.30038186  0.63506800  0.33750328  1
  Cl  Cl33  1  0.80038186  0.36493200  0.16249672  1
  Cl  Cl34  1  0.19961814  0.13506800  0.66249672  1
  Cl  Cl35  1  0.69961814  0.86493200  0.83750328  1
  Cl  Cl36  1  0.00268417  0.49598038  0.27165310  1
  Cl  Cl37  1  0.50268417  0.50401962  0.22834690  1
  Cl  Cl38  1  0.49731583  0.99598038  0.72834690  1
  Cl  Cl39  1  0.99731583  0.00401962  0.77165310  1
  Cl  Cl40  1  0.80021580  0.63154015  0.17736242  1
  Cl  Cl41  1  0.30021580  0.36845985  0.32263758  1
  Cl  Cl42  1  0.69978420  0.13154015  0.82263758  1
  Cl  Cl43  1  0.19978420  0.86845985  0.67736242  1
  Cl  Cl44  1  0.14721257  0.54470201  0.13135969  1
  Cl  Cl45  1  0.64721257  0.45529799  0.36864031  1
  Cl  Cl46  1  0.35278743  0.04470201  0.86864031  1
  Cl  Cl47  1  0.85278743  0.95529799  0.63135969  1
  Cl  Cl48  1  0.89786924  0.70417548  0.31077138  1
  Cl  Cl49  1  0.39786924  0.29582452  0.18922862  1
  Cl  Cl50  1  0.60213076  0.20417548  0.68922862  1
  Cl  Cl51  1  0.10213076  0.79582452  0.81077138  1
  Cl  Cl52  1  0.06058015  0.80345153  0.17549111  1
  Cl  Cl53  1  0.56058015  0.19654847  0.32450889  1
  Cl  Cl54  1  0.43941985  0.30345153  0.82450889  1
  Cl  Cl55  1  0.93941985  0.69654847  0.67549111  1
  Te  Te56  1  0.86821604  0.18651280  0.04784659  1
  Te  Te57  1  0.36821604  0.81348720  0.45215341  1
  Te  Te58  1  0.63178396  0.68651280  0.95215341  1
  Te  Te59  1  0.13178396  0.31348720  0.54784659  1
  Te  Te60  1  0.12277429  0.14125784  0.98125769  1
  Te  Te61  1  0.62277429  0.85874216  0.51874231  1
  Te  Te62  1  0.37722571  0.64125784  0.01874231  1
  Te  Te63  1  0.87722571  0.35874216  0.48125769  1
  Te  Te64  1  0.16148202  0.99369589  0.02516237  1
  Te  Te65  1  0.66148202  0.00630411  0.47483763  1
  Te  Te66  1  0.33851798  0.49369589  0.97483763  1
  Te  Te67  1  0.83851798  0.50630411  0.52516237  1
  Te  Te68  1  0.01195055  0.92766273  0.93243975  1
  Te  Te69  1  0.51195055  0.07233727  0.56756025  1
  Te  Te70  1  0.48804945  0.42766273  0.06756025  1
  Te  Te71  1  0.98804945  0.57233727  0.43243975  1
  Te  Te72  1  0.71648849  0.97178816  0.96328316  1
  Te  Te73  1  0.21648849  0.02821184  0.53671684  1
  Te  Te74  1  0.78351151  0.47178816  0.03671684  1
  Te  Te75  1  0.28351151  0.52821184  0.46328316  1
  Te  Te76  1  0.75329846  0.03117801  0.06862365  1
  Te  Te77  1  0.25329846  0.96882199  0.43137635  1
  Te  Te78  1  0.74670154  0.53117801  0.93137635  1
  Te  Te79  1  0.24670154  0.46882199  0.56862365  1
  Te  Te80  1  0.05028153  0.76647005  0.97327405  1
  Te  Te81  1  0.55028153  0.23352995  0.52672595  1
  Te  Te82  1  0.44971847  0.26647005  0.02672595  1
  Te  Te83  1  0.94971847  0.73352995  0.47327405  1
  Te  Te84  1  0.81446879  0.74144104  0.04130873  1
  Te  Te85  1  0.31446879  0.25855896  0.45869127  1
  Te  Te86  1  0.68553121  0.24144104  0.95869127  1
  Te  Te87  1  0.18553121  0.75855896  0.54130873  1
  Bi  Bi88  1  0.91542760  0.87442785  0.26585487  1
  Bi  Bi89  1  0.41542760  0.12557215  0.23414513  1
  Bi  Bi90  1  0.58457240  0.37442785  0.73414513  1
  Bi  Bi91  1  0.08457240  0.62557215  0.76585487  1
  Bi  Bi92  1  0.39108907  0.85975100  0.18915125  1
  Bi  Bi93  1  0.89108907  0.14024900  0.31084875  1
  Bi  Bi94  1  0.10891093  0.35975100  0.81084875  1
  Bi  Bi95  1  0.60891093  0.64024900  0.68915125  1
  Bi  Bi96  1  0.57601175  0.65635799  0.30747415  1
  Bi  Bi97  1  0.07601175  0.34364201  0.19252585  1
  Bi  Bi98  1  0.92398825  0.15635799  0.69252585  1
  Bi  Bi99  1  0.42398825  0.84364201  0.80747415  1
  Bi  Bi100  1  0.05839745  0.62586722  0.21894766  1
  Bi  Bi101  1  0.55839745  0.37413278  0.28105234  1
  Bi  Bi102  1  0.44160255  0.12586722  0.78105234  1
  Bi  Bi103  1  0.94160255  0.87413278  0.71894766  1
