# generated using pymatgen
data_Sb3ClO4
_symmetry_space_group_name_H-M   'P 1'
_cell_length_a   5.52647447
_cell_length_b   5.73414157
_cell_length_c   9.67615997
_cell_angle_alpha   95.08765943
_cell_angle_beta   90.00000000
_cell_angle_gamma   90.00000000
_symmetry_Int_Tables_number   1
_chemical_formula_structural   Sb3ClO4
_chemical_formula_sum   'Sb6 Cl2 O8'
_cell_volume   305.42543498
_cell_formula_units_Z   2
loop_
 _symmetry_equiv_pos_site_id
 _symmetry_equiv_pos_as_xyz
  1  'x, y, z'
loop_
 _atom_site_type_symbol
 _atom_site_label
 _atom_site_symmetry_multiplicity
 _atom_site_fract_x
 _atom_site_fract_y
 _atom_site_fract_z
 _atom_site_occupancy
  O  O0  1  0.91562528  0.10123281  0.61997296  1
  O  O1  1  0.91562528  0.39876719  0.38002704  1
  O  O2  1  0.08437472  0.89876719  0.38002704  1
  O  O3  1  0.08437472  0.60123281  0.61997296  1
  O  O4  1  0.52563251  0.45222196  0.70193539  1
  O  O5  1  0.47436749  0.54777804  0.29806461  1
  O  O6  1  0.52563251  0.04777804  0.29806461  1
  O  O7  1  0.47436749  0.95222196  0.70193539  1
  Cl  Cl8  1  0.28990870  0.25000000  0.00000000  1
  Cl  Cl9  1  0.71009130  0.75000000  0.00000000  1
  Sb  Sb10  1  0.30453737  0.69834150  0.79288843  1
  Sb  Sb11  1  0.17317798  0.25000000  0.50000000  1
  Sb  Sb12  1  0.82682202  0.75000000  0.50000000  1
  Sb  Sb13  1  0.30453737  0.80165850  0.20711157  1
  Sb  Sb14  1  0.69546263  0.30165850  0.20711157  1
  Sb  Sb15  1  0.69546263  0.19834150  0.79288843  1
