# generated using pymatgen
data_K3PSe16
_symmetry_space_group_name_H-M   'P 1'
_cell_length_a   11.88976402
_cell_length_b   11.88976403
_cell_length_c   11.88976403
_cell_angle_alpha   60.00000002
_cell_angle_beta   60.00000001
_cell_angle_gamma   60.00000002
_symmetry_Int_Tables_number   1
_chemical_formula_structural   K3PSe16
_chemical_formula_sum   'K6 P2 Se32'
_cell_volume   1188.51511287
_cell_formula_units_Z   2
loop_
 _symmetry_equiv_pos_site_id
 _symmetry_equiv_pos_as_xyz
  1  'x, y, z'
loop_
 _atom_site_type_symbol
 _atom_site_label
 _atom_site_symmetry_multiplicity
 _atom_site_fract_x
 _atom_site_fract_y
 _atom_site_fract_z
 _atom_site_occupancy
  P  P0  1  0.87500000  0.87500000  0.87500000  1
  P  P1  1  0.12500000  0.12500000  0.12500000  1
  K  K2  1  0.62500000  0.62500000  0.62500000  1
  K  K3  1  0.00000000  0.50000000  0.00000000  1
  K  K4  1  0.00000000  0.00000000  0.50000000  1
  K  K5  1  0.50000000  0.00000000  0.00000000  1
  K  K6  1  0.00000000  0.00000000  0.00000000  1
  K  K7  1  0.37500000  0.37500000  0.37500000  1
  Se  Se8  1  0.53462557  0.69239850  0.94742927  1
  Se  Se9  1  0.53462557  0.32554666  0.69239850  1
  Se  Se10  1  0.94742927  0.32554666  0.53462557  1
  Se  Se11  1  0.69239850  0.94742927  0.53462557  1
  Se  Se12  1  0.69239850  0.53462557  0.32554666  1
  Se  Se13  1  0.94742927  0.53462557  0.69239850  1
  Se  Se14  1  0.53462557  0.94742927  0.32554666  1
  Se  Se15  1  0.32554666  0.69239850  0.53462557  1
  Se  Se16  1  0.30760150  0.67445334  0.05257073  1
  Se  Se17  1  0.05257073  0.30760150  0.67445334  1
  Se  Se18  1  0.67445334  0.05257073  0.30760150  1
  Se  Se19  1  0.46537443  0.30760150  0.05257073  1
  Se  Se20  1  0.32554666  0.53462557  0.94742927  1
  Se  Se21  1  0.46537443  0.67445334  0.30760150  1
  Se  Se22  1  0.05257073  0.67445334  0.46537443  1
  Se  Se23  1  0.30760150  0.05257073  0.46537443  1
  Se  Se24  1  0.30760150  0.46537443  0.67445334  1
  Se  Se25  1  0.05257073  0.46537443  0.30760150  1
  Se  Se26  1  0.46537443  0.05257073  0.67445334  1
  Se  Se27  1  0.67445334  0.30760150  0.46537443  1
  Se  Se28  1  0.79818481  0.10544558  0.79818481  1
  Se  Se29  1  0.79818481  0.79818481  0.10544558  1
  Se  Se30  1  0.10544558  0.79818481  0.79818481  1
  Se  Se31  1  0.79818481  0.79818481  0.79818481  1
  Se  Se32  1  0.20181519  0.89455442  0.20181519  1
  Se  Se33  1  0.20181519  0.20181519  0.89455442  1
  Se  Se34  1  0.89455442  0.20181519  0.20181519  1
  Se  Se35  1  0.20181519  0.20181519  0.20181519  1
  Se  Se36  1  0.32554666  0.94742927  0.69239850  1
  Se  Se37  1  0.94742927  0.69239850  0.32554666  1
  Se  Se38  1  0.69239850  0.32554666  0.94742927  1
  Se  Se39  1  0.67445334  0.46537443  0.05257073  1
