# generated using pymatgen
data_Ca2AlF7
_symmetry_space_group_name_H-M   'P 1'
_cell_length_a   7.08560885
_cell_length_b   7.80113035
_cell_length_c   9.66667188
_cell_angle_alpha   90.00000000
_cell_angle_beta   90.00000000
_cell_angle_gamma   90.00000000
_symmetry_Int_Tables_number   1
_chemical_formula_structural   Ca2AlF7
_chemical_formula_sum   'Ca8 Al4 F28'
_cell_volume   534.33261790
_cell_formula_units_Z   4
loop_
 _symmetry_equiv_pos_site_id
 _symmetry_equiv_pos_as_xyz
  1  'x, y, z'
loop_
 _atom_site_type_symbol
 _atom_site_label
 _atom_site_symmetry_multiplicity
 _atom_site_fract_x
 _atom_site_fract_y
 _atom_site_fract_z
 _atom_site_occupancy
  F  F0  1  0.92817100  0.13247001  0.68600153  1
  F  F1  1  0.42817100  0.86752999  0.31399847  1
  F  F2  1  0.57182900  0.63247001  0.81399847  1
  F  F3  1  0.07182900  0.36752999  0.18600153  1
  F  F4  1  0.07182900  0.86752999  0.31399847  1
  F  F5  1  0.57182900  0.13247001  0.68600153  1
  F  F6  1  0.42817100  0.36752999  0.18600153  1
  F  F7  1  0.92817100  0.63247001  0.81399847  1
  F  F8  1  0.92637930  0.25050382  0.42533935  1
  F  F9  1  0.42637930  0.74949618  0.57466065  1
  F  F10  1  0.57362070  0.75050382  0.07466065  1
  F  F11  1  0.07362070  0.24949618  0.92533935  1
  F  F12  1  0.75000000  0.62595007  0.36959776  1
  F  F13  1  0.25000000  0.37404993  0.63040224  1
  F  F14  1  0.75000000  0.12595007  0.13040224  1
  F  F15  1  0.25000000  0.87404993  0.86959776  1
  F  F16  1  0.75000000  0.96909189  0.49111962  1
  F  F17  1  0.25000000  0.03090811  0.50888038  1
  F  F18  1  0.75000000  0.46909189  0.00888038  1
  F  F19  1  0.25000000  0.53090811  0.99111962  1
  F  F20  1  0.75000000  0.90523993  0.87557871  1
  F  F21  1  0.25000000  0.09476007  0.12442129  1
  F  F22  1  0.75000000  0.40523993  0.62442129  1
  F  F23  1  0.25000000  0.59476007  0.37557871  1
  F  F24  1  0.92637930  0.75050382  0.07466065  1
  F  F25  1  0.42637930  0.24949618  0.92533935  1
  F  F26  1  0.57362070  0.25050382  0.42533935  1
  F  F27  1  0.07362070  0.74949618  0.57466065  1
  Al  Al28  1  0.25000000  0.81004728  0.44313269  1
  Al  Al29  1  0.75000000  0.18995272  0.55686731  1
  Al  Al30  1  0.25000000  0.31004728  0.05686731  1
  Al  Al31  1  0.75000000  0.68995272  0.94313269  1
  Ca  Ca32  1  0.25000000  0.30615114  0.39646959  1
  Ca  Ca33  1  0.75000000  0.69384886  0.60353041  1
  Ca  Ca34  1  0.25000000  0.80615114  0.10353041  1
  Ca  Ca35  1  0.75000000  0.19384886  0.89646959  1
  Ca  Ca36  1  0.25000000  0.61645163  0.75873234  1
  Ca  Ca37  1  0.75000000  0.38354837  0.24126766  1
  Ca  Ca38  1  0.25000000  0.11645163  0.74126766  1
  Ca  Ca39  1  0.75000000  0.88354837  0.25873234  1
