# generated using pymatgen
data_RbEu2I5
_symmetry_space_group_name_H-M   'P 1'
_cell_length_a   9.10135543
_cell_length_b   10.15150865
_cell_length_c   14.41070288
_cell_angle_alpha   90.30603095
_cell_angle_beta   90.00000000
_cell_angle_gamma   90.00000000
_symmetry_Int_Tables_number   1
_chemical_formula_structural   RbEu2I5
_chemical_formula_sum   'Rb4 Eu8 I20'
_cell_volume   1331.42170678
_cell_formula_units_Z   4
loop_
 _symmetry_equiv_pos_site_id
 _symmetry_equiv_pos_as_xyz
  1  'x, y, z'
loop_
 _atom_site_type_symbol
 _atom_site_label
 _atom_site_symmetry_multiplicity
 _atom_site_fract_x
 _atom_site_fract_y
 _atom_site_fract_z
 _atom_site_occupancy
  Rb  Rb0  1  0.94740054  0.49279798  0.16886708  1
  Rb  Rb1  1  0.44740054  0.50720202  0.33113292  1
  Rb  Rb2  1  0.05259946  0.50720202  0.83113292  1
  Rb  Rb3  1  0.55259946  0.49279798  0.66886708  1
  I  I4  1  0.18756749  0.22582347  0.28426597  1
  I  I5  1  0.83885393  0.21606608  0.68352150  1
  I  I6  1  0.33885393  0.78393392  0.81647850  1
  I  I7  1  0.16114607  0.78393392  0.31647850  1
  I  I8  1  0.66114607  0.21606608  0.18352150  1
  I  I9  1  0.81243251  0.77417653  0.71573403  1
  I  I10  1  0.31243251  0.22582347  0.78426597  1
  I  I11  1  0.95459602  0.78846050  0.99750784  1
  I  I12  1  0.83842791  0.04115942  0.40095807  1
  I  I13  1  0.33842791  0.95884058  0.09904193  1
  I  I14  1  0.16157209  0.95884058  0.59904193  1
  I  I15  1  0.66157209  0.04115942  0.90095807  1
  I  I16  1  0.04540398  0.21153950  0.00249216  1
  I  I17  1  0.45459602  0.21153950  0.50249216  1
  I  I18  1  0.67418708  0.46303602  0.91951243  1
  I  I19  1  0.54540398  0.78846050  0.49750784  1
  I  I20  1  0.82581292  0.46303602  0.41951243  1
  I  I21  1  0.32581292  0.53696398  0.08048757  1
  I  I22  1  0.17418708  0.53696398  0.58048757  1
  I  I23  1  0.68756749  0.77417653  0.21573403  1
  Eu  Eu24  1  0.97376165  0.99701053  0.18069833  1
  Eu  Eu25  1  0.92679657  0.75303545  0.49392951  1
  Eu  Eu26  1  0.42679657  0.24696455  0.00607049  1
  Eu  Eu27  1  0.07320343  0.24696455  0.50607049  1
  Eu  Eu28  1  0.57320343  0.75303545  0.99392951  1
  Eu  Eu29  1  0.52623835  0.99701053  0.68069833  1
  Eu  Eu30  1  0.02623835  0.00298947  0.81930167  1
  Eu  Eu31  1  0.47376165  0.00298947  0.31930167  1
