# generated using pymatgen
data_Zr3(Mn2Si3)2
_symmetry_space_group_name_H-M   'P 1'
_cell_length_a   5.09150570
_cell_length_b   17.13424812
_cell_length_c   17.13424812
_cell_angle_alpha   90.00000000
_cell_angle_beta   90.00000000
_cell_angle_gamma   90.00000000
_symmetry_Int_Tables_number   1
_chemical_formula_structural   Zr3(Mn2Si3)2
_chemical_formula_sum   'Zr24 Mn32 Si48'
_cell_volume   1494.77676157
_cell_formula_units_Z   8
loop_
 _symmetry_equiv_pos_site_id
 _symmetry_equiv_pos_as_xyz
  1  'x, y, z'
loop_
 _atom_site_type_symbol
 _atom_site_label
 _atom_site_symmetry_multiplicity
 _atom_site_fract_x
 _atom_site_fract_y
 _atom_site_fract_z
 _atom_site_occupancy
  Si  Si0  1  0.00000000  0.02359933  0.43511085  1
  Si  Si1  1  0.50000000  0.56488915  0.02359933  1
  Si  Si2  1  0.50000000  0.43511085  0.97640067  1
  Si  Si3  1  0.00000000  0.97640067  0.56488915  1
  Si  Si4  1  0.00000000  0.52359933  0.06488915  1
  Si  Si5  1  0.00000000  0.47640067  0.93511085  1
  Si  Si6  1  0.50000000  0.93511085  0.52359933  1
  Si  Si7  1  0.50000000  0.06488915  0.47640067  1
  Si  Si8  1  0.00000000  0.06192396  0.03099819  1
  Si  Si9  1  0.50000000  0.96900181  0.06192396  1
  Si  Si10  1  0.50000000  0.03099819  0.93807604  1
  Si  Si11  1  0.00000000  0.93807604  0.96900181  1
  Si  Si12  1  0.00000000  0.56192396  0.46900181  1
  Si  Si13  1  0.00000000  0.43807604  0.53099819  1
  Si  Si14  1  0.50000000  0.53099819  0.56192396  1
  Si  Si15  1  0.50000000  0.46900181  0.43807604  1
  Si  Si16  1  0.00000000  0.13002138  0.24778064  1
  Si  Si17  1  0.50000000  0.75221936  0.13002138  1
  Si  Si18  1  0.50000000  0.24778064  0.86997862  1
  Si  Si19  1  0.00000000  0.86997862  0.75221936  1
  Si  Si20  1  0.00000000  0.63002138  0.25221936  1
  Si  Si21  1  0.00000000  0.36997862  0.74778064  1
  Si  Si22  1  0.50000000  0.74778064  0.63002138  1
  Si  Si23  1  0.50000000  0.25221936  0.36997862  1
  Si  Si24  1  0.00000000  0.22481931  0.45209489  1
  Si  Si25  1  0.50000000  0.54790511  0.22481931  1
  Si  Si26  1  0.50000000  0.45209489  0.77518069  1
  Si  Si27  1  0.00000000  0.77518069  0.54790511  1
  Si  Si28  1  0.00000000  0.72481931  0.04790511  1
  Si  Si29  1  0.00000000  0.27518069  0.95209489  1
  Si  Si30  1  0.50000000  0.95209489  0.72481931  1
  Si  Si31  1  0.50000000  0.04790511  0.27518069  1
  Si  Si32  1  0.00000000  0.43210725  0.36382383  1
  Si  Si33  1  0.50000000  0.63617617  0.43210725  1
  Si  Si34  1  0.50000000  0.36382383  0.56789275  1
  Si  Si35  1  0.00000000  0.56789275  0.63617617  1
  Si  Si36  1  0.00000000  0.93210725  0.13617617  1
  Si  Si37  1  0.00000000  0.06789275  0.86382383  1
  Si  Si38  1  0.50000000  0.86382383  0.93210725  1
  Si  Si39  1  0.50000000  0.13617617  0.06789275  1
  Si  Si40  1  0.25000000  0.16166616  0.66166616  1
  Si  Si41  1  0.75000000  0.33833384  0.16166616  1
  Si  Si42  1  0.75000000  0.66166616  0.83833384  1
  Si  Si43  1  0.25000000  0.83833384  0.33833384  1
  Si  Si44  1  0.75000000  0.83833384  0.33833384  1
  Si  Si45  1  0.25000000  0.66166616  0.83833384  1
  Si  Si46  1  0.25000000  0.33833384  0.16166616  1
  Si  Si47  1  0.75000000  0.16166616  0.66166616  1
  Mn  Mn48  1  0.25112773  0.05193069  0.15403060  1
  Mn  Mn49  1  0.75112773  0.84596940  0.05193069  1
  Mn  Mn50  1  0.75112773  0.15403060  0.94806931  1
  Mn  Mn51  1  0.25112773  0.94806931  0.84596940  1
  Mn  Mn52  1  0.74887227  0.55193069  0.34596940  1
  Mn  Mn53  1  0.74887227  0.44806931  0.65403060  1
  Mn  Mn54  1  0.24887227  0.65403060  0.55193069  1
  Mn  Mn55  1  0.24887227  0.34596940  0.44806931  1
  Mn  Mn56  1  0.74887227  0.94806931  0.84596940  1
  Mn  Mn57  1  0.24887227  0.15403060  0.94806931  1
  Mn  Mn58  1  0.24887227  0.84596940  0.05193069  1
  Mn  Mn59  1  0.74887227  0.05193069  0.15403060  1
  Mn  Mn60  1  0.25112773  0.44806931  0.65403060  1
  Mn  Mn61  1  0.25112773  0.55193069  0.34596940  1
  Mn  Mn62  1  0.75112773  0.34596940  0.44806931  1
  Mn  Mn63  1  0.75112773  0.65403060  0.55193069  1
  Mn  Mn64  1  0.00000000  0.38502684  0.04408319  1
  Mn  Mn65  1  0.50000000  0.95591681  0.38502684  1
  Mn  Mn66  1  0.50000000  0.04408319  0.61497316  1
  Mn  Mn67  1  0.00000000  0.61497316  0.95591681  1
  Mn  Mn68  1  0.00000000  0.88502684  0.45591681  1
  Mn  Mn69  1  0.00000000  0.11497316  0.54408319  1
  Mn  Mn70  1  0.50000000  0.54408319  0.88502684  1
  Mn  Mn71  1  0.50000000  0.45591681  0.11497316  1
  Mn  Mn72  1  0.25000000  0.62622469  0.12622469  1
  Mn  Mn73  1  0.75000000  0.87377531  0.62622469  1
  Mn  Mn74  1  0.75000000  0.12622469  0.37377531  1
  Mn  Mn75  1  0.25000000  0.37377531  0.87377531  1
  Mn  Mn76  1  0.75000000  0.37377531  0.87377531  1
  Mn  Mn77  1  0.25000000  0.12622469  0.37377531  1
  Mn  Mn78  1  0.25000000  0.87377531  0.62622469  1
  Mn  Mn79  1  0.75000000  0.62622469  0.12622469  1
  Zr  Zr80  1  0.00000000  0.20416832  0.10187696  1
  Zr  Zr81  1  0.50000000  0.89812304  0.20416832  1
  Zr  Zr82  1  0.50000000  0.10187696  0.79583168  1
  Zr  Zr83  1  0.00000000  0.79583168  0.89812304  1
  Zr  Zr84  1  0.00000000  0.70416832  0.39812304  1
  Zr  Zr85  1  0.00000000  0.29583168  0.60187696  1
  Zr  Zr86  1  0.50000000  0.60187696  0.70416832  1
  Zr  Zr87  1  0.50000000  0.39812304  0.29583168  1
  Zr  Zr88  1  0.00000000  0.28245488  0.29886753  1
  Zr  Zr89  1  0.50000000  0.70113247  0.28245488  1
  Zr  Zr90  1  0.50000000  0.29886753  0.71754512  1
  Zr  Zr91  1  0.00000000  0.71754512  0.70113247  1
  Zr  Zr92  1  0.00000000  0.78245488  0.20113247  1
  Zr  Zr93  1  0.00000000  0.21754512  0.79886753  1
  Zr  Zr94  1  0.50000000  0.79886753  0.78245488  1
  Zr  Zr95  1  0.50000000  0.20113247  0.21754512  1
  Zr  Zr96  1  0.00000000  0.47398821  0.20981804  1
  Zr  Zr97  1  0.50000000  0.79018196  0.47398821  1
  Zr  Zr98  1  0.50000000  0.20981804  0.52601179  1
  Zr  Zr99  1  0.00000000  0.52601179  0.79018196  1
  Zr  Zr100  1  0.00000000  0.97398821  0.29018196  1
  Zr  Zr101  1  0.00000000  0.02601179  0.70981804  1
  Zr  Zr102  1  0.50000000  0.70981804  0.97398821  1
  Zr  Zr103  1  0.50000000  0.29018196  0.02601179  1
