# generated using pymatgen
data_AlAu2
_symmetry_space_group_name_H-M   'P 1'
_cell_length_a   3.31085602
_cell_length_b   9.01381516
_cell_length_c   17.08346475
_cell_angle_alpha   90.00000000
_cell_angle_beta   90.00000000
_cell_angle_gamma   90.00000000
_symmetry_Int_Tables_number   1
_chemical_formula_structural   AlAu2
_chemical_formula_sum   'Al10 Au20'
_cell_volume   509.82942676
_cell_formula_units_Z   10
loop_
 _symmetry_equiv_pos_site_id
 _symmetry_equiv_pos_as_xyz
  1  'x, y, z'
loop_
 _atom_site_type_symbol
 _atom_site_label
 _atom_site_symmetry_multiplicity
 _atom_site_fract_x
 _atom_site_fract_y
 _atom_site_fract_z
 _atom_site_occupancy
  Al  Al0  1  0.00000000  0.00000000  0.00000000  1
  Al  Al1  1  0.50000000  0.50000000  0.50000000  1
  Al  Al2  1  0.00000000  0.97641495  0.20146609  1
  Al  Al3  1  0.00000000  0.02358505  0.79853391  1
  Al  Al4  1  0.50000000  0.47641495  0.29853391  1
  Al  Al5  1  0.50000000  0.52358505  0.70146609  1
  Al  Al6  1  0.00000000  0.02638108  0.40114692  1
  Al  Al7  1  0.00000000  0.97361892  0.59885308  1
  Al  Al8  1  0.50000000  0.52638108  0.09885308  1
  Al  Al9  1  0.50000000  0.47361892  0.90114692  1
  Au  Au10  1  0.00000000  0.34466999  0.01339679  1
  Au  Au11  1  0.00000000  0.65533001  0.98660321  1
  Au  Au12  1  0.50000000  0.84466999  0.48660321  1
  Au  Au13  1  0.50000000  0.15533001  0.51339679  1
  Au  Au14  1  0.00000000  0.35814791  0.18689167  1
  Au  Au15  1  0.00000000  0.64185209  0.81310833  1
  Au  Au16  1  0.50000000  0.85814791  0.31310833  1
  Au  Au17  1  0.50000000  0.14185209  0.68689167  1
  Au  Au18  1  0.00000000  0.32431599  0.40364740  1
  Au  Au19  1  0.00000000  0.67568401  0.59635260  1
  Au  Au20  1  0.50000000  0.82431599  0.09635260  1
  Au  Au21  1  0.50000000  0.17568401  0.90364740  1
  Au  Au22  1  0.00000000  0.36623835  0.60527866  1
  Au  Au23  1  0.00000000  0.63376165  0.39472134  1
  Au  Au24  1  0.50000000  0.86623835  0.89472134  1
  Au  Au25  1  0.50000000  0.13376165  0.10527866  1
  Au  Au26  1  0.00000000  0.33442064  0.78652074  1
  Au  Au27  1  0.00000000  0.66557936  0.21347926  1
  Au  Au28  1  0.50000000  0.83442064  0.71347926  1
  Au  Au29  1  0.50000000  0.16557936  0.28652074  1
