# generated using pymatgen
data_TmH9C5(NO4)2
_symmetry_space_group_name_H-M   'P 1'
_cell_length_a   6.62915645
_cell_length_b   6.67449920
_cell_length_c   6.67449920
_cell_angle_alpha   66.11524830
_cell_angle_beta   75.32164852
_cell_angle_gamma   75.32164852
_symmetry_Int_Tables_number   1
_chemical_formula_structural   TmH9C5(NO4)2
_chemical_formula_sum   'Tm1 H9 C5 N2 O8'
_cell_volume   257.39418448
_cell_formula_units_Z   1
loop_
 _symmetry_equiv_pos_site_id
 _symmetry_equiv_pos_as_xyz
  1  'x, y, z'
loop_
 _atom_site_type_symbol
 _atom_site_label
 _atom_site_symmetry_multiplicity
 _atom_site_fract_x
 _atom_site_fract_y
 _atom_site_fract_z
 _atom_site_occupancy
  Tm  Tm0  1  0.00000000  0.45086349  0.54913651  1
  H  H1  1  0.57655748  0.81151067  0.73924264  1
  H  H2  1  0.42344252  0.26075736  0.18848933  1
  H  H3  1  0.46397430  0.71956813  0.02413179  1
  H  H4  1  0.53602570  0.97586821  0.28043187  1
  H  H5  1  0.18364934  0.99764451  0.98865925  1
  H  H6  1  0.81635066  0.01134075  0.00235549  1
  H  H7  1  0.12820662  0.98368582  0.39164204  1
  H  H8  1  0.87179338  0.60835796  0.01631418  1
  H  H9  1  0.50000000  0.36635508  0.63364492  1
  C  C10  1  0.29254115  0.99354966  0.83469784  1
  C  C11  1  0.70745885  0.16530216  0.00645034  1
  C  C12  1  0.96760308  0.97778987  0.49319590  1
  C  C13  1  0.03239692  0.50680410  0.02221013  1
  C  C14  1  0.50000000  0.51757369  0.48242631  1
  N  N15  1  0.45572057  0.82873424  0.86511350  1
  N  N16  1  0.54427943  0.13488650  0.17126576  1
  O  O17  1  0.66818772  0.60249916  0.40427589  1
  O  O18  1  0.33181228  0.59572411  0.39750084  1
  O  O19  1  0.88645458  0.80701407  0.53731893  1
  O  O20  1  0.11354542  0.46268107  0.19298593  1
  O  O21  1  0.25755770  0.13775400  0.64883786  1
  O  O22  1  0.74244230  0.35116214  0.86224600  1
  O  O23  1  0.12277373  0.44291914  0.86302589  1
  O  O24  1  0.87722627  0.13697411  0.55708086  1
