# generated using pymatgen
data_LiMo(PO3)4
_symmetry_space_group_name_H-M   'P 1'
_cell_length_a   13.04951961
_cell_length_b   8.35334111
_cell_length_c   9.69043561
_cell_angle_alpha   90.00000000
_cell_angle_beta   90.00000000
_cell_angle_gamma   90.00000000
_symmetry_Int_Tables_number   1
_chemical_formula_structural   LiMo(PO3)4
_chemical_formula_sum   'Li4 Mo4 P16 O48'
_cell_volume   1056.32617334
_cell_formula_units_Z   4
loop_
 _symmetry_equiv_pos_site_id
 _symmetry_equiv_pos_as_xyz
  1  'x, y, z'
loop_
 _atom_site_type_symbol
 _atom_site_label
 _atom_site_symmetry_multiplicity
 _atom_site_fract_x
 _atom_site_fract_y
 _atom_site_fract_z
 _atom_site_occupancy
  Li  Li0  1  0.00000000  0.00683915  0.25000015  1
  Li  Li1  1  0.00000000  0.99316099  0.75000045  1
  Li  Li2  1  0.49999979  0.49316092  0.75000045  1
  Li  Li3  1  0.49999979  0.50683923  0.25000015  1
  O  O4  1  0.36732535  0.87146830  0.87968940  1
  O  O5  1  0.89830509  0.90735387  0.62303489  1
  O  O6  1  0.92419230  0.54349684  0.87782404  1
  O  O7  1  0.92419230  0.45650331  0.37782478  1
  O  O8  1  0.06484413  0.18187904  0.62790318  1
  O  O9  1  0.06484413  0.81811990  0.12790288  1
  O  O10  1  0.07580805  0.45650331  0.12217552  1
  O  O11  1  0.07580805  0.54349684  0.62217583  1
  O  O12  1  0.10169525  0.09264627  0.37696467  1
  O  O13  1  0.10169525  0.90735387  0.87696497  1
  O  O14  1  0.13267444  0.37146822  0.87968940  1
  O  O15  1  0.13267444  0.62853192  0.37968910  1
  O  O16  1  0.17735669  0.35151140  0.46778243  1
  O  O17  1  0.17735669  0.64848875  0.96778274  1
  O  O18  1  0.23847355  0.09287337  0.56956893  1
  O  O19  1  0.23847355  0.90712678  0.06956863  1
  O  O20  1  0.26152624  0.40712671  0.06956863  1
  O  O21  1  0.26152624  0.59287344  0.56956893  1
  O  O22  1  0.32264310  0.14848867  0.96778274  1
  O  O23  1  0.32264310  0.85151147  0.46778243  1
  O  O24  1  0.36732535  0.12853185  0.37968910  1
  O  O25  1  0.93515622  0.81811990  0.37209742  1
  O  O26  1  0.39830454  0.40735380  0.87696497  1
  O  O27  1  0.39830454  0.59264634  0.37696467  1
  O  O28  1  0.42419251  0.04349676  0.62217583  1
  O  O29  1  0.42419251  0.95650338  0.12217552  1
  O  O30  1  0.43515643  0.31811983  0.12790288  1
  O  O31  1  0.43515643  0.68187912  0.62790318  1
  O  O32  1  0.56484392  0.31811983  0.37209742  1
  O  O33  1  0.56484392  0.68187912  0.87209773  1
  O  O34  1  0.57580784  0.04349676  0.87782404  1
  O  O35  1  0.57580784  0.95650338  0.37782478  1
  O  O36  1  0.60169504  0.40735380  0.62303489  1
  O  O37  1  0.60169504  0.59264634  0.12303459  1
  O  O38  1  0.63267500  0.12853185  0.12031016  1
  O  O39  1  0.63267500  0.87146830  0.62031046  1
  O  O40  1  0.67735648  0.14848867  0.53221713  1
  O  O41  1  0.67735648  0.85151147  0.03221683  1
  O  O42  1  0.73847334  0.40712671  0.43043167  1
  O  O43  1  0.73847334  0.59287344  0.93043093  1
  O  O44  1  0.76152603  0.09287337  0.93043093  1
  O  O45  1  0.76152603  0.90712678  0.43043167  1
  O  O46  1  0.82264289  0.35151140  0.03221683  1
  O  O47  1  0.82264289  0.64848875  0.53221713  1
  O  O48  1  0.86732514  0.37146822  0.62031046  1
  O  O49  1  0.86732514  0.62853192  0.12031016  1
  O  O50  1  0.89830509  0.09264627  0.12303459  1
  O  O51  1  0.93515622  0.18187904  0.87209773  1
  P  P52  1  0.86348062  0.82614282  0.49596788  1
  P  P53  1  0.86348062  0.17385733  0.99596715  1
  P  P54  1  0.84551624  0.53407189  0.99152175  1
  P  P55  1  0.84551624  0.46592826  0.49152145  1
  P  P56  1  0.13651896  0.17385733  0.50403272  1
  P  P57  1  0.13651896  0.82614282  0.00403242  1
  P  P58  1  0.15448410  0.46592826  0.00847885  1
  P  P59  1  0.15448410  0.53407189  0.50847915  1
  P  P60  1  0.34551569  0.03407181  0.50847915  1
  P  P61  1  0.34551569  0.96592833  0.00847885  1
  P  P62  1  0.65448389  0.96592833  0.49152145  1
  P  P63  1  0.36348083  0.67385740  0.50403272  1
  P  P64  1  0.63651952  0.32614275  0.49596788  1
  P  P65  1  0.63651952  0.67385740  0.99596715  1
  P  P66  1  0.65448389  0.03407181  0.99152175  1
  P  P67  1  0.36348083  0.32614275  0.00403242  1
  Mo  Mo68  1  0.00000000  0.37139739  0.75000045  1
  Mo  Mo69  1  0.00000000  0.62860276  0.25000015  1
  Mo  Mo70  1  0.49999979  0.12860269  0.25000015  1
  Mo  Mo71  1  0.49999979  0.87139746  0.75000045  1
