# generated using pymatgen
data_Hf11Ga10
_symmetry_space_group_name_H-M   'P 1'
_cell_length_a   10.36407374
_cell_length_b   10.36407374
_cell_length_c   10.40232238
_cell_angle_alpha   119.87844239
_cell_angle_beta   119.87844239
_cell_angle_gamma   90.00000003
_symmetry_Int_Tables_number   1
_chemical_formula_structural   Hf11Ga10
_chemical_formula_sum   'Hf22 Ga20'
_cell_volume   792.98398098
_cell_formula_units_Z   2
loop_
 _symmetry_equiv_pos_site_id
 _symmetry_equiv_pos_as_xyz
  1  'x, y, z'
loop_
 _atom_site_type_symbol
 _atom_site_label
 _atom_site_symmetry_multiplicity
 _atom_site_fract_x
 _atom_site_fract_y
 _atom_site_fract_z
 _atom_site_occupancy
  Ga  Ga0  1  0.25000000  0.75000000  0.50000000  1
  Ga  Ga1  1  0.75000000  0.25000000  0.50000000  1
  Ga  Ga2  1  0.10756620  0.10756620  0.21513241  1
  Ga  Ga3  1  0.89243380  0.89243380  0.78486759  1
  Ga  Ga4  1  0.37256280  0.37256280  0.00000000  1
  Ga  Ga5  1  0.62743720  0.37256280  0.00000000  1
  Ga  Ga6  1  0.37256280  0.62743720  0.00000000  1
  Ga  Ga7  1  0.62743720  0.62743720  0.00000000  1
  Ga  Ga8  1  0.35683634  0.00000000  0.00000000  1
  Ga  Ga9  1  0.00000000  0.35683634  0.00000000  1
  Ga  Ga10  1  0.00000000  0.64316366  0.00000000  1
  Ga  Ga11  1  0.64316366  0.00000000  0.00000000  1
  Ga  Ga12  1  0.53314678  0.53314678  0.65350760  1
  Ga  Ga13  1  0.12036082  0.53314678  0.65350760  1
  Ga  Ga14  1  0.53314678  0.12036082  0.65350760  1
  Ga  Ga15  1  0.87963918  0.46685322  0.34649240  1
  Ga  Ga16  1  0.46685322  0.87963918  0.34649240  1
  Ga  Ga17  1  0.87963918  0.87963918  0.34649240  1
  Ga  Ga18  1  0.46685322  0.46685322  0.34649240  1
  Ga  Ga19  1  0.12036082  0.12036082  0.65350760  1
  Hf  Hf20  1  0.32136747  0.32136747  0.64273494  1
  Hf  Hf21  1  0.67863253  0.67863253  0.35726506  1
  Hf  Hf22  1  0.17481793  0.17481793  0.00000000  1
  Hf  Hf23  1  0.82518207  0.17481793  0.00000000  1
  Hf  Hf24  1  0.17481793  0.82518207  0.00000000  1
  Hf  Hf25  1  0.82518207  0.82518207  0.00000000  1
  Hf  Hf26  1  0.18808594  0.43884425  0.37617187  1
  Hf  Hf27  1  0.93732762  0.18808594  0.37617187  1
  Hf  Hf28  1  0.43884425  0.18808594  0.37617187  1
  Hf  Hf29  1  0.81191406  0.56115575  0.62382813  1
  Hf  Hf30  1  0.81191406  0.06267238  0.62382813  1
  Hf  Hf31  1  0.06267238  0.81191406  0.62382813  1
  Hf  Hf32  1  0.56115575  0.81191406  0.62382813  1
  Hf  Hf33  1  0.18808594  0.93732762  0.37617187  1
  Hf  Hf34  1  0.39637099  0.72992218  0.79274198  1
  Hf  Hf35  1  0.06281980  0.39637099  0.79274198  1
  Hf  Hf36  1  0.72992218  0.39637099  0.79274198  1
  Hf  Hf37  1  0.60362901  0.27007782  0.20725802  1
  Hf  Hf38  1  0.60362901  0.93718020  0.20725802  1
  Hf  Hf39  1  0.93718020  0.60362901  0.20725802  1
  Hf  Hf40  1  0.27007782  0.60362901  0.20725802  1
  Hf  Hf41  1  0.39637099  0.06281980  0.79274198  1
