# generated using pymatgen
data_Tb3(CuSi)4
_symmetry_space_group_name_H-M   'P 1'
_cell_length_a   4.15047756
_cell_length_b   6.56025680
_cell_length_c   7.89103493
_cell_angle_alpha   114.56492968
_cell_angle_beta   105.25283419
_cell_angle_gamma   89.99622712
_symmetry_Int_Tables_number   1
_chemical_formula_structural   Tb3(CuSi)4
_chemical_formula_sum   'Tb3 Si4 Cu4'
_cell_volume   187.06001730
_cell_formula_units_Z   1
loop_
 _symmetry_equiv_pos_site_id
 _symmetry_equiv_pos_as_xyz
  1  'x, y, z'
loop_
 _atom_site_type_symbol
 _atom_site_label
 _atom_site_symmetry_multiplicity
 _atom_site_fract_x
 _atom_site_fract_y
 _atom_site_fract_z
 _atom_site_occupancy
  Si  Si0  1  0.50001374  0.81586140  0.00001323  1
  Si  Si1  1  0.49998626  0.18413860  0.99998677  1
  Si  Si2  1  0.78393349  0.28401708  0.56794299  1
  Si  Si3  1  0.21606651  0.71598292  0.43205701  1
  Cu  Cu4  1  0.33174945  0.52207741  0.66373877  1
  Cu  Cu5  1  0.66826692  0.85823004  0.33628312  1
  Cu  Cu6  1  0.33173308  0.14176996  0.66371688  1
  Cu  Cu7  1  0.66825055  0.47792259  0.33626123  1
  Tb  Tb8  1  0.86968170  0.86971523  0.73941453  1
  Tb  Tb9  1  0.13031830  0.13028477  0.26058547  1
  Tb  Tb10  1  0.00000000  0.50000000  0.00000000  1
