# generated using pymatgen
data_Ba3P3I2
_symmetry_space_group_name_H-M   'P 1'
_cell_length_a   4.59361302
_cell_length_b   14.35229557
_cell_length_c   17.55787355
_cell_angle_alpha   90.00000000
_cell_angle_beta   90.00000000
_cell_angle_gamma   90.00000000
_symmetry_Int_Tables_number   1
_chemical_formula_structural   Ba3P3I2
_chemical_formula_sum   'Ba12 P12 I8'
_cell_volume   1157.57114547
_cell_formula_units_Z   4
loop_
 _symmetry_equiv_pos_site_id
 _symmetry_equiv_pos_as_xyz
  1  'x, y, z'
loop_
 _atom_site_type_symbol
 _atom_site_label
 _atom_site_symmetry_multiplicity
 _atom_site_fract_x
 _atom_site_fract_y
 _atom_site_fract_z
 _atom_site_occupancy
  P  P0  1  0.25000000  0.37336170  0.28564669  1
  P  P1  1  0.75000000  0.62663830  0.71435331  1
  P  P2  1  0.75000000  0.87336170  0.21435331  1
  P  P3  1  0.25000000  0.12663830  0.78564669  1
  P  P4  1  0.25000000  0.25305780  0.21110573  1
  P  P5  1  0.75000000  0.74694220  0.78889427  1
  P  P6  1  0.75000000  0.75305780  0.28889427  1
  P  P7  1  0.25000000  0.24694220  0.71110573  1
  P  P8  1  0.25000000  0.50396902  0.22517563  1
  P  P9  1  0.75000000  0.49603098  0.77482437  1
  P  P10  1  0.75000000  0.00396902  0.27482437  1
  P  P11  1  0.25000000  0.99603098  0.72517563  1
  I  I12  1  0.25000000  0.11302550  0.47008331  1
  I  I13  1  0.75000000  0.88697450  0.52991669  1
  I  I14  1  0.75000000  0.61302550  0.02991669  1
  I  I15  1  0.25000000  0.38697450  0.97008331  1
  I  I16  1  0.25000000  0.63452988  0.49142655  1
  I  I17  1  0.75000000  0.36547012  0.50857345  1
  I  I18  1  0.75000000  0.13452988  0.00857345  1
  I  I19  1  0.25000000  0.86547012  0.99142655  1
  Ba  Ba20  1  0.25000000  0.45822925  0.64419454  1
  Ba  Ba21  1  0.75000000  0.54177075  0.35580546  1
  Ba  Ba22  1  0.75000000  0.95822925  0.85580546  1
  Ba  Ba23  1  0.25000000  0.04177075  0.14419454  1
  Ba  Ba24  1  0.25000000  0.71100304  0.15956435  1
  Ba  Ba25  1  0.75000000  0.28899696  0.84043565  1
  Ba  Ba26  1  0.75000000  0.21100304  0.34043565  1
  Ba  Ba27  1  0.25000000  0.78899696  0.65956435  1
  Ba  Ba28  1  0.25000000  0.61597848  0.87012926  1
  Ba  Ba29  1  0.75000000  0.38402152  0.12987074  1
  Ba  Ba30  1  0.75000000  0.11597848  0.62987074  1
  Ba  Ba31  1  0.25000000  0.88402152  0.37012926  1
