# generated using pymatgen
data_Ce7Ru3
_symmetry_space_group_name_H-M   'P 1'
_cell_length_a   9.62669613
_cell_length_b   9.62669612
_cell_length_c   6.17445556
_cell_angle_alpha   90.00000000
_cell_angle_beta   90.00000000
_cell_angle_gamma   119.99999998
_symmetry_Int_Tables_number   1
_chemical_formula_structural   Ce7Ru3
_chemical_formula_sum   'Ce14 Ru6'
_cell_volume   495.54583177
_cell_formula_units_Z   2
loop_
 _symmetry_equiv_pos_site_id
 _symmetry_equiv_pos_as_xyz
  1  'x, y, z'
loop_
 _atom_site_type_symbol
 _atom_site_label
 _atom_site_symmetry_multiplicity
 _atom_site_fract_x
 _atom_site_fract_y
 _atom_site_fract_z
 _atom_site_occupancy
  Ru  Ru0  1  0.18179553  0.81820447  0.78716312  1
  Ru  Ru1  1  0.36359106  0.18179553  0.28716312  1
  Ru  Ru2  1  0.81820447  0.63640894  0.28716312  1
  Ru  Ru3  1  0.18179553  0.36359106  0.78716312  1
  Ru  Ru4  1  0.63640894  0.81820447  0.78716312  1
  Ru  Ru5  1  0.81820447  0.18179553  0.28716312  1
  Ce  Ce6  1  0.92579562  0.46289781  0.03588455  1
  Ce  Ce7  1  0.46289781  0.53710219  0.53588455  1
  Ce  Ce8  1  0.12586441  0.87413559  0.25714151  1
  Ce  Ce9  1  0.25172882  0.12586441  0.75714151  1
  Ce  Ce10  1  0.87413559  0.74827118  0.75714151  1
  Ce  Ce11  1  0.12586441  0.25172882  0.25714151  1
  Ce  Ce12  1  0.74827118  0.87413559  0.25714151  1
  Ce  Ce13  1  0.87413559  0.12586441  0.75714151  1
  Ce  Ce14  1  0.53710219  0.07420438  0.03588455  1
  Ce  Ce15  1  0.46289781  0.92579562  0.53588455  1
  Ce  Ce16  1  0.07420438  0.53710219  0.53588455  1
  Ce  Ce17  1  0.53710219  0.46289781  0.03588455  1
  Ce  Ce18  1  0.66666667  0.33333333  0.53843246  1
  Ce  Ce19  1  0.33333333  0.66666667  0.03843246  1
