# generated using pymatgen
data_Ba6Mg11F34
_symmetry_space_group_name_H-M   'P 1'
_cell_length_a   7.63137622
_cell_length_b   10.05841577
_cell_length_c   10.19167871
_cell_angle_alpha   81.70740427
_cell_angle_beta   72.48428756
_cell_angle_gamma   71.87365957
_symmetry_Int_Tables_number   1
_chemical_formula_structural   Ba6Mg11F34
_chemical_formula_sum   'Ba6 Mg11 F34'
_cell_volume   707.90724607
_cell_formula_units_Z   1
loop_
 _symmetry_equiv_pos_site_id
 _symmetry_equiv_pos_as_xyz
  1  'x, y, z'
loop_
 _atom_site_type_symbol
 _atom_site_label
 _atom_site_symmetry_multiplicity
 _atom_site_fract_x
 _atom_site_fract_y
 _atom_site_fract_z
 _atom_site_occupancy
  F  F0  1  0.30203706  0.61989755  0.57652191  1
  F  F1  1  0.69796294  0.38010245  0.42347809  1
  F  F2  1  0.47959748  0.86114256  0.57326670  1
  F  F3  1  0.52040252  0.13885744  0.42673330  1
  F  F4  1  0.76146148  0.10189783  0.63388948  1
  F  F5  1  0.23853852  0.89810217  0.36611052  1
  F  F6  1  0.68056620  0.86396249  0.76529192  1
  F  F7  1  0.31943380  0.13603751  0.23470808  1
  F  F8  1  0.94270747  0.13660462  0.83116772  1
  F  F9  1  0.05729253  0.86339538  0.16883228  1
  F  F10  1  0.94706301  0.63007796  0.13823687  1
  F  F11  1  0.05293699  0.36992204  0.86176313  1
  F  F12  1  0.55796805  0.63160547  0.72797422  1
  F  F13  1  0.44203195  0.36839453  0.27202578  1
  F  F14  1  0.88613979  0.85361911  0.47614551  1
  F  F15  1  0.11386021  0.14638089  0.52385449  1
  F  F16  1  0.84218794  0.37330386  0.15203572  1
  F  F17  1  0.58195712  0.64034010  0.25424382  1
  F  F18  1  0.41804288  0.35965990  0.74575618  1
  F  F19  1  0.44326876  0.88352900  0.09873055  1
  F  F20  1  0.55673124  0.11647100  0.90126945  1
  F  F21  1  0.07588447  0.40399077  0.31434891  1
  F  F22  1  0.92411553  0.59600923  0.68565109  1
  F  F23  1  0.06242655  0.89417151  0.67358800  1
  F  F24  1  0.93757345  0.10582849  0.32641200  1
  F  F25  1  0.85831336  0.86282846  0.97279378  1
  F  F26  1  0.14168664  0.13717154  0.02720622  1
  F  F27  1  0.32672524  0.61210110  0.06641241  1
  F  F28  1  0.67327476  0.38789890  0.93358759  1
  F  F29  1  0.19777357  0.37112944  0.55835313  1
  F  F30  1  0.80222643  0.62887056  0.44164687  1
  F  F31  1  0.73478086  0.14797686  0.13525647  1
  F  F32  1  0.26521914  0.85202314  0.86474353  1
  F  F33  1  0.15781206  0.62669614  0.84796428  1
  Mg  Mg34  1  0.18881062  0.00485404  0.18513474  1
  Mg  Mg35  1  0.81118938  0.99514596  0.81486526  1
  Mg  Mg36  1  0.10634525  0.74944442  0.00967001  1
  Mg  Mg37  1  0.89365475  0.25055558  0.99032999  1
  Mg  Mg38  1  0.30395827  0.75180017  0.69910326  1
  Mg  Mg39  1  0.69604173  0.24819983  0.30089674  1
  Mg  Mg40  1  0.73242585  0.74374039  0.60766482  1
  Mg  Mg41  1  0.26757415  0.25625961  0.39233518  1
  Mg  Mg42  1  0.81869967  0.51310286  0.29118165  1
  Mg  Mg43  1  0.18130033  0.48689714  0.70881835  1
  Mg  Mg44  1  0.00000000  0.00000000  0.50000000  1
  Ba  Ba45  1  0.66818001  0.65755638  0.96861670  1
  Ba  Ba46  1  0.33181999  0.34244362  0.03138330  1
  Ba  Ba47  1  0.63711241  0.90646835  0.26854159  1
  Ba  Ba48  1  0.36288759  0.09353165  0.73145841  1
  Ba  Ba49  1  0.21597661  0.63699149  0.34291871  1
  Ba  Ba50  1  0.78402339  0.36300851  0.65708129  1
