# generated using pymatgen
data_ZnFe5O8
_symmetry_space_group_name_H-M   'P 1'
_cell_length_a   6.06429501
_cell_length_b   6.07988778
_cell_length_c   6.06652331
_cell_angle_alpha   59.95445838
_cell_angle_beta   60.18348718
_cell_angle_gamma   59.87254523
_symmetry_Int_Tables_number   1
_chemical_formula_structural   ZnFe5O8
_chemical_formula_sum   'Zn1 Fe5 O8'
_cell_volume   158.17152667
_cell_formula_units_Z   1
loop_
 _symmetry_equiv_pos_site_id
 _symmetry_equiv_pos_as_xyz
  1  'x, y, z'
loop_
 _atom_site_type_symbol
 _atom_site_label
 _atom_site_symmetry_multiplicity
 _atom_site_fract_x
 _atom_site_fract_y
 _atom_site_fract_z
 _atom_site_occupancy
  Zn  Zn0  1  0.00032833  0.00005054  0.99937529  1
  Fe  Fe1  1  0.24988636  0.24966728  0.25027578  1
  Fe  Fe2  1  0.12498734  0.62482774  0.62530841  1
  Fe  Fe3  1  0.62514259  0.62485143  0.12505392  1
  Fe  Fe4  1  0.62475430  0.12504118  0.62500182  1
  Fe  Fe5  1  0.62485700  0.62516831  0.62496875  1
  O  O6  1  0.38708035  0.38875308  0.38686628  1
  O  O7  1  0.38868348  0.38688973  0.83763378  1
  O  O8  1  0.38672488  0.83801811  0.38673483  1
  O  O9  1  0.83780889  0.38666610  0.38850354  1
  O  O10  1  0.40615694  0.86415565  0.86554628  1
  O  O11  1  0.86406449  0.40597462  0.86465041  1
  O  O12  1  0.86539449  0.86459556  0.40571397  1
  O  O13  1  0.86413056  0.86534066  0.86436697  1
