# generated using pymatgen
data_TbAl3
_symmetry_space_group_name_H-M   'P 1'
_cell_length_a   7.92720314
_cell_length_b   7.92720314
_cell_length_c   7.92720314
_cell_angle_alpha   46.10973735
_cell_angle_beta   46.10973741
_cell_angle_gamma   46.10973737
_symmetry_Int_Tables_number   1
_chemical_formula_structural   TbAl3
_chemical_formula_sum   'Tb3 Al9'
_cell_volume   236.04185843
_cell_formula_units_Z   3
loop_
 _symmetry_equiv_pos_site_id
 _symmetry_equiv_pos_as_xyz
  1  'x, y, z'
loop_
 _atom_site_type_symbol
 _atom_site_label
 _atom_site_symmetry_multiplicity
 _atom_site_fract_x
 _atom_site_fract_y
 _atom_site_fract_z
 _atom_site_occupancy
  Al  Al0  1  0.70280741  0.70280741  0.26346082  1
  Al  Al1  1  0.70280741  0.26346082  0.70280741  1
  Al  Al2  1  0.26346082  0.70280741  0.70280741  1
  Al  Al3  1  0.50000000  0.50000000  0.00000000  1
  Al  Al4  1  0.00000000  0.50000000  0.50000000  1
  Al  Al5  1  0.50000000  0.00000000  0.50000000  1
  Al  Al6  1  0.29719259  0.73653918  0.29719259  1
  Al  Al7  1  0.29719259  0.29719259  0.73653918  1
  Al  Al8  1  0.73653918  0.29719259  0.29719259  1
  Tb  Tb9  1  0.78195879  0.78195879  0.78195879  1
  Tb  Tb10  1  0.21804121  0.21804121  0.21804121  1
  Tb  Tb11  1  0.00000000  0.00000000  0.00000000  1
