# generated using pymatgen
data_H4IN
_symmetry_space_group_name_H-M   'P 1'
_cell_length_a   5.04781643
_cell_length_b   5.16875902
_cell_length_c   5.16875952
_cell_angle_alpha   61.54132395
_cell_angle_beta   60.77105598
_cell_angle_gamma   60.77105286
_symmetry_Int_Tables_number   1
_chemical_formula_structural   H4IN
_chemical_formula_sum   'H4 I1 N1'
_cell_volume   97.55469511
_cell_formula_units_Z   1
loop_
 _symmetry_equiv_pos_site_id
 _symmetry_equiv_pos_as_xyz
  1  'x, y, z'
loop_
 _atom_site_type_symbol
 _atom_site_label
 _atom_site_symmetry_multiplicity
 _atom_site_fract_x
 _atom_site_fract_y
 _atom_site_fract_z
 _atom_site_occupancy
  H  H0  1  0.13010089  0.83976823  0.16023177  1
  H  H1  1  0.13010089  0.16023177  0.83976823  1
  H  H2  1  0.77734048  0.11671711  0.11671711  1
  H  H3  1  0.01077471  0.88328289  0.88328289  1
  I  I4  1  0.49158531  0.50000000  0.50000000  1
  N  N5  1  0.00909771  0.00000000  0.00000000  1
