# generated using pymatgen
data_Li2TbF6
_symmetry_space_group_name_H-M   'P 1'
_cell_length_a   4.34319658
_cell_length_b   7.93302794
_cell_length_c   12.30473546
_cell_angle_alpha   104.50675483
_cell_angle_beta   90.00000000
_cell_angle_gamma   90.00000000
_symmetry_Int_Tables_number   1
_chemical_formula_structural   Li2TbF6
_chemical_formula_sum   'Li8 Tb4 F24'
_cell_volume   410.43945126
_cell_formula_units_Z   4
loop_
 _symmetry_equiv_pos_site_id
 _symmetry_equiv_pos_as_xyz
  1  'x, y, z'
loop_
 _atom_site_type_symbol
 _atom_site_label
 _atom_site_symmetry_multiplicity
 _atom_site_fract_x
 _atom_site_fract_y
 _atom_site_fract_z
 _atom_site_occupancy
  Li  Li0  1  0.55964667  0.62398578  0.69551979  1
  Li  Li1  1  0.05964567  0.37601422  0.80448021  1
  Li  Li2  1  0.44035433  0.37601422  0.30448021  1
  Li  Li3  1  0.94035333  0.62398578  0.19551979  1
  Li  Li4  1  0.02766774  0.94786899  0.82278754  1
  Li  Li5  1  0.52766774  0.05213101  0.67721246  1
  Li  Li6  1  0.97233226  0.05213101  0.17721246  1
  Li  Li7  1  0.47233226  0.94786899  0.32278754  1
  Tb  Tb8  1  0.53265296  0.75135736  0.00253825  1
  Tb  Tb9  1  0.96734704  0.75135736  0.50253825  1
  Tb  Tb10  1  0.46734704  0.24864264  0.99746175  1
  Tb  Tb11  1  0.03265296  0.24864264  0.49746175  1
  F  F12  1  0.57015423  0.53284433  0.10356483  1
  F  F13  1  0.28003438  0.75526709  0.83073003  1
  F  F14  1  0.78003438  0.24473291  0.66926997  1
  F  F15  1  0.71996562  0.24473291  0.16926997  1
  F  F16  1  0.92984577  0.53284433  0.60356483  1
  F  F17  1  0.42984577  0.46715567  0.89643517  1
  F  F18  1  0.07015423  0.46715567  0.39643517  1
  F  F19  1  0.34397827  0.11392492  0.81774744  1
  F  F20  1  0.65602173  0.88607508  0.18225256  1
  F  F21  1  0.15602173  0.11392492  0.31774744  1
  F  F22  1  0.23976951  0.02651191  0.55831226  1
  F  F23  1  0.84397827  0.88607508  0.68225256  1
  F  F24  1  0.76023049  0.97348809  0.44168774  1
  F  F25  1  0.26023149  0.02651191  0.05831226  1
  F  F26  1  0.04832979  0.70407568  0.05345353  1
  F  F27  1  0.73976951  0.97348809  0.94168774  1
  F  F28  1  0.66236338  0.60857335  0.33677951  1
  F  F29  1  0.16236338  0.39142665  0.16322049  1
  F  F30  1  0.33763662  0.39142665  0.66322049  1
  F  F31  1  0.83763662  0.60857335  0.83677951  1
  F  F32  1  0.45167021  0.70407568  0.55345353  1
  F  F33  1  0.95167021  0.29592432  0.94654647  1
  F  F34  1  0.54832979  0.29592432  0.44654647  1
  F  F35  1  0.21996562  0.75526709  0.33073003  1
