# generated using pymatgen
data_CeP5O14
_symmetry_space_group_name_H-M   'P 1'
_cell_length_a   7.32101765
_cell_length_b   9.02073781
_cell_length_c   9.35473950
_cell_angle_alpha   82.21147214
_cell_angle_beta   77.27610572
_cell_angle_gamma   69.88418495
_symmetry_Int_Tables_number   1
_chemical_formula_structural   CeP5O14
_chemical_formula_sum   'Ce2 P10 O28'
_cell_volume   564.65830687
_cell_formula_units_Z   2
loop_
 _symmetry_equiv_pos_site_id
 _symmetry_equiv_pos_as_xyz
  1  'x, y, z'
loop_
 _atom_site_type_symbol
 _atom_site_label
 _atom_site_symmetry_multiplicity
 _atom_site_fract_x
 _atom_site_fract_y
 _atom_site_fract_z
 _atom_site_occupancy
  Ce  Ce0  1  0.99677583  0.99925562  0.00012492  1
  Ce  Ce1  1  0.46438342  0.50598362  0.46570678  1
  P  P2  1  0.43170816  0.05261809  0.12727062  1
  P  P3  1  0.25994233  0.40055145  0.15570564  1
  P  P4  1  0.84769281  0.62085345  0.14871770  1
  P  P5  1  0.37137867  0.58846904  0.87581408  1
  P  P6  1  0.79822285  0.46617932  0.90809673  1
  P  P7  1  0.88272004  0.60495404  0.60027731  1
  P  P8  1  0.78818322  0.94075792  0.67813113  1
  P  P9  1  0.89428700  0.11806258  0.40171004  1
  P  P10  1  0.36176117  0.12039427  0.67328612  1
  P  P11  1  0.31448120  0.95626959  0.43491868  1
  O  O12  1  0.26074893  0.22740510  0.14770685  1
  O  O13  1  0.32780277  0.95452179  0.08405848  1
  O  O14  1  0.62190167  0.06995648  0.04472083  1
  O  O15  1  0.03347270  0.48632214  0.21071368  1
  O  O16  1  0.31202283  0.45081408  0.98760388  1
  O  O17  1  0.38677101  0.41882047  0.25041246  1
  O  O18  1  0.89046136  0.56688676  0.97931160  1
  O  O19  1  0.88145460  0.77607989  0.13478004  1
  O  O20  1  0.66434385  0.59201841  0.23274147  1
  O  O21  1  0.57556880  0.57886387  0.92269592  1
  O  O22  1  0.22928935  0.74715340  0.91240421  1
  O  O23  1  0.41053522  0.53031381  0.72686893  1
  O  O24  1  0.89532291  0.47344521  0.74078956  1
  O  O25  1  0.82852053  0.30247435  0.97100086  1
  O  O26  1  0.78751646  0.76568403  0.69498769  1
  O  O27  1  0.08871344  0.58832494  0.52459151  1
  O  O28  1  0.72820131  0.60181721  0.52212807  1
  O  O29  1  0.56849495  0.04348399  0.73594400  1
  O  O30  1  0.83258222  0.97512861  0.50524084  1
  O  O31  1  0.92384759  0.96988155  0.75843816  1
  O  O32  1  0.10799227  0.09460177  0.44366336  1
  O  O33  1  0.91983616  0.07818942  0.24817133  1
  O  O34  1  0.76203719  0.27446138  0.45471698  1
  O  O35  1  0.39282582  0.97337462  0.57287805  1
  O  O36  1  0.20070870  0.12190373  0.80192405  1
  O  O37  1  0.36660643  0.26346901  0.57503005  1
  O  O38  1  0.45811349  0.00759442  0.30056506  1
  O  O39  1  0.30527073  0.79576055  0.43294235  1
