# generated using pymatgen
data_Sr2SnO4
_symmetry_space_group_name_H-M   'P 1'
_cell_length_a   5.79993359
_cell_length_b   5.91903626
_cell_length_c   6.92674962
_cell_angle_alpha   90.00000000
_cell_angle_beta   114.75014222
_cell_angle_gamma   90.00000000
_symmetry_Int_Tables_number   1
_chemical_formula_structural   Sr2SnO4
_chemical_formula_sum   'Sr4 Sn2 O8'
_cell_volume   215.95205270
_cell_formula_units_Z   2
loop_
 _symmetry_equiv_pos_site_id
 _symmetry_equiv_pos_as_xyz
  1  'x, y, z'
loop_
 _atom_site_type_symbol
 _atom_site_label
 _atom_site_symmetry_multiplicity
 _atom_site_fract_x
 _atom_site_fract_y
 _atom_site_fract_z
 _atom_site_occupancy
  O  O0  1  0.33682120  0.55719694  0.67364240  1
  O  O1  1  0.66317880  0.44280306  0.32635760  1
  O  O2  1  0.16317880  0.05719694  0.32635760  1
  O  O3  1  0.83682120  0.94280306  0.67364240  1
  O  O4  1  0.22835201  0.25000000  0.95670403  1
  O  O5  1  0.27164799  0.75000000  0.04329597  1
  O  O6  1  0.72835201  0.25000000  0.95670403  1
  O  O7  1  0.77164799  0.75000000  0.04329597  1
  Sr  Sr8  1  0.14721603  0.48540408  0.29443207  1
  Sr  Sr9  1  0.85278397  0.51459592  0.70556793  1
  Sr  Sr10  1  0.35278397  0.98540408  0.70556793  1
  Sr  Sr11  1  0.64721603  0.01459592  0.29443207  1
  Sn  Sn12  1  0.50000000  0.50000000  0.00000000  1
  Sn  Sn13  1  0.00000000  0.00000000  0.00000000  1
