# generated using pymatgen
data_Ca2Si3PbO9
_symmetry_space_group_name_H-M   'P 1'
_cell_length_a   6.77887748
_cell_length_b   6.82710040
_cell_length_c   9.65053381
_cell_angle_alpha   82.90150015
_cell_angle_beta   69.67567795
_cell_angle_gamma   76.78125329
_symmetry_Int_Tables_number   1
_chemical_formula_structural   Ca2Si3PbO9
_chemical_formula_sum   'Ca4 Si6 Pb2 O18'
_cell_volume   407.24698046
_cell_formula_units_Z   2
loop_
 _symmetry_equiv_pos_site_id
 _symmetry_equiv_pos_as_xyz
  1  'x, y, z'
loop_
 _atom_site_type_symbol
 _atom_site_label
 _atom_site_symmetry_multiplicity
 _atom_site_fract_x
 _atom_site_fract_y
 _atom_site_fract_z
 _atom_site_occupancy
  Pb  Pb0  1  0.28130741  0.90755361  0.84226021  1
  Pb  Pb1  1  0.71869259  0.09244639  0.15773979  1
  Ca  Ca2  1  0.76400622  0.72773874  0.50513757  1
  Ca  Ca3  1  0.23599378  0.27226126  0.49486243  1
  Ca  Ca4  1  0.93030965  0.55792008  0.83175775  1
  Ca  Ca5  1  0.06969035  0.44207992  0.16824225  1
  Si  Si6  1  0.15822951  0.90391788  0.21894368  1
  Si  Si7  1  0.84177049  0.09608212  0.78105632  1
  Si  Si8  1  0.28064073  0.76703779  0.48348948  1
  Si  Si9  1  0.71935927  0.23296221  0.51651052  1
  Si  Si10  1  0.51502402  0.56197609  0.20166333  1
  Si  Si11  1  0.48497598  0.43802391  0.79833667  1
  O  O12  1  0.97472230  0.76962078  0.25634664  1
  O  O13  1  0.02527770  0.23037922  0.74365336  1
  O  O14  1  0.90594629  0.89222883  0.87432049  1
  O  O15  1  0.09405371  0.10777117  0.12567951  1
  O  O16  1  0.39652915  0.76698284  0.12373571  1
  O  O17  1  0.60347085  0.23301716  0.87626429  1
  O  O18  1  0.19406810  0.95457264  0.37332330  1
  O  O19  1  0.80593190  0.04542736  0.62667670  1
  O  O20  1  0.10551014  0.62621513  0.55957245  1
  O  O21  1  0.89448986  0.37378487  0.44042755  1
  O  O22  1  0.36084202  0.87275675  0.58954225  1
  O  O23  1  0.63915798  0.12724325  0.41045775  1
  O  O24  1  0.50702464  0.64144168  0.36240524  1
  O  O25  1  0.49297536  0.35855832  0.63759476  1
  O  O26  1  0.24029566  0.52194614  0.90186997  1
  O  O27  1  0.75970434  0.47805386  0.09813003  1
  O  O28  1  0.62734965  0.61257679  0.75920308  1
  O  O29  1  0.37265035  0.38742321  0.24079692  1
