# generated using pymatgen
data_NaB5H10O13
_symmetry_space_group_name_H-M   'P 1'
_cell_length_a   9.91926659
_cell_length_b   9.91926694
_cell_length_c   13.56403935
_cell_angle_alpha   102.17720962
_cell_angle_beta   102.17721007
_cell_angle_gamma   111.74876743
_symmetry_Int_Tables_number   1
_chemical_formula_structural   NaB5H10O13
_chemical_formula_sum   'Na4 B20 H40 O52'
_cell_volume   1148.63292477
_cell_formula_units_Z   4
loop_
 _symmetry_equiv_pos_site_id
 _symmetry_equiv_pos_as_xyz
  1  'x, y, z'
loop_
 _atom_site_type_symbol
 _atom_site_label
 _atom_site_symmetry_multiplicity
 _atom_site_fract_x
 _atom_site_fract_y
 _atom_site_fract_z
 _atom_site_occupancy
  Na  Na0  1  0.84456744  0.15543256  0.75000000  1
  Na  Na1  1  0.15543256  0.84456744  0.25000000  1
  Na  Na2  1  0.37606189  0.62393811  0.75000000  1
  Na  Na3  1  0.62393811  0.37606189  0.25000000  1
  O  O4  1  0.29854691  0.88420833  0.97220638  1
  O  O5  1  0.11579167  0.70145309  0.52779362  1
  O  O6  1  0.70145309  0.11579167  0.02779362  1
  O  O7  1  0.88420833  0.29854691  0.47220638  1
  O  O8  1  0.38984142  0.15320573  0.03687878  1
  O  O9  1  0.84679427  0.61015858  0.46312122  1
  O  O10  1  0.61015858  0.84679427  0.96312122  1
  O  O11  1  0.15320573  0.38984142  0.53687878  1
  O  O12  1  0.49652765  0.41992579  0.10818589  1
  O  O13  1  0.58007421  0.50347235  0.39181411  1
  O  O14  1  0.50347235  0.58007421  0.89181411  1
  O  O15  1  0.41992579  0.49652765  0.60818589  1
  O  O16  1  0.31775119  0.02752793  0.84915731  1
  O  O17  1  0.97247207  0.68224881  0.65084269  1
  O  O18  1  0.68224881  0.97247207  0.15084269  1
  O  O19  1  0.02752793  0.31775119  0.34915731  1
  O  O20  1  0.41760521  0.30553903  0.91875112  1
  O  O21  1  0.69446097  0.58239479  0.58124888  1
  O  O22  1  0.58239479  0.69446097  0.08124888  1
  O  O23  1  0.30553903  0.41760521  0.41875112  1
  O  O24  1  0.42940354  0.18376994  0.74836564  1
  O  O25  1  0.81623006  0.57059646  0.75163436  1
  O  O26  1  0.57059646  0.81623006  0.25163436  1
  O  O27  1  0.18376994  0.42940354  0.24836564  1
  O  O28  1  0.18773173  0.16454765  0.77127086  1
  O  O29  1  0.83545235  0.81226827  0.72872914  1
  O  O30  1  0.81226827  0.83545235  0.22872914  1
  O  O31  1  0.16454765  0.18773173  0.27127086  1
  O  O32  1  0.44327853  0.13462446  0.57031639  1
  O  O33  1  0.86537554  0.55672147  0.92968361  1
  O  O34  1  0.55672147  0.86537554  0.42968361  1
  O  O35  1  0.13462446  0.44327853  0.07031639  1
  O  O36  1  0.20271233  0.08082946  0.59584887  1
  O  O37  1  0.91917054  0.79728767  0.90415113  1
  O  O38  1  0.79728767  0.91917054  0.40415113  1
  O  O39  1  0.08082946  0.20271233  0.09584887  1
  O  O40  1  0.97154120  0.08569899  0.62410544  1
  O  O41  1  0.91430101  0.02845880  0.87589456  1
  O  O42  1  0.02845880  0.91430101  0.37589456  1
  O  O43  1  0.08569899  0.97154120  0.12410544  1
  O  O44  1  0.72243641  0.24972301  0.86372228  1
  O  O45  1  0.75027699  0.27756359  0.63627772  1
  O  O46  1  0.27756359  0.75027699  0.13627772  1
  O  O47  1  0.24972301  0.72243641  0.36372228  1
  O  O48  1  0.62763732  0.91536218  0.64257200  1
  O  O49  1  0.08463782  0.37236268  0.85742800  1
  O  O50  1  0.37236268  0.08463782  0.35742800  1
  O  O51  1  0.91536218  0.62763732  0.14257200  1
  O  O52  1  0.36997000  0.82842866  0.69466178  1
  O  O53  1  0.17157134  0.63003000  0.80533822  1
  O  O54  1  0.63003000  0.17157134  0.30533822  1
  O  O55  1  0.82842866  0.36997000  0.19466178  1
  B  B56  1  0.33714416  0.16937398  0.82202204  1
  B  B57  1  0.83062602  0.66285584  0.67797796  1
  B  B58  1  0.66285584  0.83062602  0.17797796  1
  B  B59  1  0.16937398  0.33714416  0.32202204  1
  B  B60  1  0.33479005  0.02027262  0.95081069  1
  B  B61  1  0.97972738  0.66520995  0.54918931  1
  B  B62  1  0.66520995  0.97972738  0.04918931  1
  B  B63  1  0.02027262  0.33479005  0.45081069  1
  B  B64  1  0.43378231  0.29388593  0.01918307  1
  B  B65  1  0.70611407  0.56621769  0.48081693  1
  B  B66  1  0.56621769  0.70611407  0.98081693  1
  B  B67  1  0.29388593  0.43378231  0.51918307  1
  B  B68  1  0.36225096  0.13454612  0.64027306  1
  B  B69  1  0.86545388  0.63774904  0.85972694  1
  B  B70  1  0.63774904  0.86545388  0.35972694  1
  B  B71  1  0.13454612  0.36225096  0.14027306  1
  B  B72  1  0.12010128  0.10898156  0.66346359  1
  B  B73  1  0.89101844  0.87989872  0.83653641  1
  B  B74  1  0.87989872  0.89101844  0.33653641  1
  B  B75  1  0.10898156  0.12010128  0.16346359  1
  H  H76  1  0.25066663  0.79095212  0.90705796  1
  H  H77  1  0.20904788  0.74933337  0.59294204  1
  H  H78  1  0.74933337  0.20904788  0.09294204  1
  H  H79  1  0.79095212  0.25066663  0.40705796  1
  H  H80  1  0.52576374  0.52175519  0.09608388  1
  H  H81  1  0.47824481  0.47423626  0.40391612  1
  H  H82  1  0.47423626  0.47824481  0.90391612  1
  H  H83  1  0.52175519  0.52576374  0.59608388  1
  H  H84  1  0.55848227  0.18434237  0.59975797  1
  H  H85  1  0.81565763  0.44151773  0.90024203  1
  H  H86  1  0.44151773  0.81565763  0.40024203  1
  H  H87  1  0.18434237  0.55848227  0.09975797  1
  H  H88  1  0.92063162  0.04121413  0.54666611  1
  H  H89  1  0.95878587  0.07936838  0.95333389  1
  H  H90  1  0.07936838  0.95878587  0.45333389  1
  H  H91  1  0.04121413  0.92063162  0.04666611  1
  H  H92  1  0.61576691  0.22375944  0.82226479  1
  H  H93  1  0.77624056  0.38423309  0.67773521  1
  H  H94  1  0.38423309  0.77624056  0.17773521  1
  H  H95  1  0.22375944  0.61576691  0.32226479  1
  H  H96  1  0.71447608  0.19892630  0.91921212  1
  H  H97  1  0.80107370  0.28552392  0.58078788  1
  H  H98  1  0.28552392  0.80107370  0.08078788  1
  H  H99  1  0.19892630  0.71447608  0.41921212  1
  H  H100  1  0.60626590  0.89876986  0.56480642  1
  H  H101  1  0.10123014  0.39373410  0.93519358  1
  H  H102  1  0.39373410  0.10123014  0.43519358  1
  H  H103  1  0.89876986  0.60626590  0.06480642  1
  H  H104  1  0.69001898  0.86073393  0.66125502  1
  H  H105  1  0.13926607  0.30998102  0.83874498  1
  H  H106  1  0.30998102  0.13926607  0.33874498  1
  H  H107  1  0.86073393  0.69001898  0.16125502  1
  H  H108  1  0.36488913  0.90685517  0.75058109  1
  H  H109  1  0.09314483  0.63511087  0.74941891  1
  H  H110  1  0.63511087  0.09314483  0.24941891  1
  H  H111  1  0.90685517  0.36488913  0.25058109  1
  H  H112  1  0.46784720  0.87341865  0.67773490  1
  H  H113  1  0.12658135  0.53215280  0.82226510  1
  H  H114  1  0.53215280  0.12658135  0.32226510  1
  H  H115  1  0.87341865  0.46784720  0.17773490  1
