# generated using pymatgen
data_BaFe(Si2O5)2
_symmetry_space_group_name_H-M   'P 1'
_cell_length_a   7.54425469
_cell_length_b   7.64575017
_cell_length_c   8.21499867
_cell_angle_alpha   90.00000000
_cell_angle_beta   90.00000000
_cell_angle_gamma   90.00000000
_symmetry_Int_Tables_number   1
_chemical_formula_structural   BaFe(Si2O5)2
_chemical_formula_sum   'Ba2 Fe2 Si8 O20'
_cell_volume   473.85333553
_cell_formula_units_Z   2
loop_
 _symmetry_equiv_pos_site_id
 _symmetry_equiv_pos_as_xyz
  1  'x, y, z'
loop_
 _atom_site_type_symbol
 _atom_site_label
 _atom_site_symmetry_multiplicity
 _atom_site_fract_x
 _atom_site_fract_y
 _atom_site_fract_z
 _atom_site_occupancy
  O  O0  1  0.14707148  0.27474098  0.84493609  1
  O  O1  1  0.64707148  0.22525902  0.15506391  1
  O  O2  1  0.35292852  0.77474098  0.15506391  1
  O  O3  1  0.85292852  0.72525902  0.84493609  1
  O  O4  1  0.22644243  0.62861730  0.78359486  1
  O  O5  1  0.72644243  0.87138270  0.21640514  1
  O  O6  1  0.27355757  0.12861730  0.21640514  1
  O  O7  1  0.77355757  0.37138270  0.78359486  1
  O  O8  1  0.23355872  0.97044158  0.71992511  1
  O  O9  1  0.73355872  0.52955842  0.28007489  1
  O  O10  1  0.26644128  0.47044158  0.28007489  1
  O  O11  1  0.76644128  0.02955842  0.71992511  1
  O  O12  1  0.80358472  0.75109176  0.52155987  1
  O  O13  1  0.30358472  0.74890824  0.47844013  1
  O  O14  1  0.69641528  0.25109176  0.47844013  1
  O  O15  1  0.19641528  0.24890824  0.52155987  1
  O  O16  1  0.52844155  0.77293380  0.72578231  1
  O  O17  1  0.02844155  0.72706620  0.27421769  1
  O  O18  1  0.97155845  0.27293380  0.27421769  1
  O  O19  1  0.47155845  0.22706620  0.72578231  1
  Si  Si20  1  0.25954393  0.18434740  0.70147892  1
  Si  Si21  1  0.75954393  0.31565260  0.29852108  1
  Si  Si22  1  0.24045607  0.68434740  0.29852108  1
  Si  Si23  1  0.74045607  0.81565260  0.70147892  1
  Si  Si24  1  0.68312916  0.22323744  0.67460987  1
  Si  Si25  1  0.18312916  0.27676256  0.32539013  1
  Si  Si26  1  0.81687084  0.72323744  0.32539013  1
  Si  Si27  1  0.31687084  0.77676256  0.67460987  1
  Fe  Fe28  1  0.50000000  0.00000000  0.19268053  1
  Fe  Fe29  1  0.00000000  0.50000000  0.80731947  1
  Ba  Ba30  1  0.50000000  0.50000000  0.98076593  1
  Ba  Ba31  1  0.00000000  0.00000000  0.01923407  1
