# generated using pymatgen
data_Ag7(PbO3)3
_symmetry_space_group_name_H-M   'P 1'
_cell_length_a   12.06683563
_cell_length_b   18.04038589
_cell_length_c   8.86584799
_cell_angle_alpha   109.64528330
_cell_angle_beta   47.23285648
_cell_angle_gamma   119.87952395
_symmetry_Int_Tables_number   1
_chemical_formula_structural   Ag7(PbO3)3
_chemical_formula_sum   'Ag28 Pb12 O36'
_cell_volume   1228.51498496
_cell_formula_units_Z   4
loop_
 _symmetry_equiv_pos_site_id
 _symmetry_equiv_pos_as_xyz
  1  'x, y, z'
loop_
 _atom_site_type_symbol
 _atom_site_label
 _atom_site_symmetry_multiplicity
 _atom_site_fract_x
 _atom_site_fract_y
 _atom_site_fract_z
 _atom_site_occupancy
  Ag  Ag0  1  0.00079431  0.83536387  0.00118148  1
  Ag  Ag1  1  0.00077978  0.49854782  0.00033377  1
  Ag  Ag2  1  0.25204829  0.83529699  0.99875369  1
  Ag  Ag3  1  0.25097232  0.66520054  0.00145259  1
  Ag  Ag4  1  0.49978545  0.83311866  0.00154757  1
  Ag  Ag5  1  1.00021455  0.16688134  0.99845243  1
  Ag  Ag6  1  0.11510273  0.66609505  0.76704530  1
  Ag  Ag7  1  0.37924292  0.66385394  0.23323496  1
  Ag  Ag8  1  0.24902768  0.33479946  0.99854741  1
  Ag  Ag9  1  0.49922022  0.50145218  0.99966623  1
  Ag  Ag10  1  0.75000196  0.83341871  0.99901385  1
  Ag  Ag11  1  0.24795171  0.16470301  0.00124631  1
  Ag  Ag12  1  0.38489727  0.33390495  0.23295470  1
  Ag  Ag13  1  0.74764489  0.66634559  0.00229637  1
  Ag  Ag14  1  0.12075708  0.33614606  0.76676504  1
  Ag  Ag15  1  0.75000000  0.50000000  0.00000000  1
  Ag  Ag16  1  0.49920569  0.16463613  0.99881852  1
  Ag  Ag17  1  0.75235511  0.33365441  0.99770363  1
  Ag  Ag18  1  0.62055430  0.66814694  0.76570919  1
  Ag  Ag19  1  0.38426470  0.99973027  0.23302020  1
  Ag  Ag20  1  0.11573530  0.00026973  0.76697980  1
  Ag  Ag21  1  0.88624056  0.66710351  0.23028808  1
  Ag  Ag22  1  0.74999804  0.16658129  0.00098615  1
  Ag  Ag23  1  0.87944570  0.33185306  0.23429081  1
  Ag  Ag24  1  0.75000000  0.00000000  0.00000000  1
  Ag  Ag25  1  0.61375944  0.33289649  0.76971192  1
  Ag  Ag26  1  0.88692254  0.99994804  0.23397203  1
  Ag  Ag27  1  0.61307746  0.00005196  0.76602797  1
  O  O28  1  0.15868989  0.87557813  0.30675733  1
  O  O29  1  0.03529528  0.66715209  0.30809513  1
  O  O30  1  0.15506207  0.87554230  0.69247533  1
  O  O31  1  0.34675325  0.79363001  0.31271657  1
  O  O32  1  0.15571784  0.54319539  0.31556243  1
  O  O33  1  0.03366437  0.33429028  0.30655462  1
  O  O34  1  0.47082176  0.99943248  0.68580672  1
  O  O35  1  0.34191295  0.79167388  0.69250978  1
  O  O36  1  0.15403189  0.54046467  0.69247043  1
  O  O37  1  0.65693729  0.87389502  0.30831865  1
  O  O38  1  0.34596811  0.45953533  0.30752957  1
  O  O39  1  0.15808705  0.20832612  0.30749022  1
  O  O40  1  0.53111025  0.66531656  0.31313568  1
  O  O41  1  0.02917824  0.00056752  0.31419328  1
  O  O42  1  0.46633563  0.66570972  0.69344538  1
  O  O43  1  0.65394295  0.87376169  0.69147712  1
  O  O44  1  0.34428216  0.45680461  0.68443757  1
  O  O45  1  0.15324675  0.20636999  0.68728343  1
  O  O46  1  0.84543903  0.79228913  0.30845846  1
  O  O47  1  0.66003622  0.54265622  0.30659555  1
  O  O48  1  0.34493793  0.12445770  0.30752467  1
  O  O49  1  0.53609857  0.33341401  0.30730595  1
  O  O50  1  0.96541940  0.99978256  0.69347775  1
  O  O51  1  0.46470472  0.33284791  0.69190487  1
  O  O52  1  0.84565741  0.79442537  0.68777463  1
  O  O53  1  0.34131011  0.12442187  0.69324267  1
  O  O54  1  0.65708943  0.54192916  0.68938549  1
  O  O55  1  0.84291057  0.45807084  0.31061451  1
  O  O56  1  0.65434259  0.20557463  0.31222537  1
  O  O57  1  0.53458060  0.00021744  0.30652225  1
  O  O58  1  0.96390143  0.66658599  0.69269405  1
  O  O59  1  0.83996378  0.45734378  0.69340445  1
  O  O60  1  0.65456097  0.20771087  0.69154154  1
  O  O61  1  0.84605705  0.12623831  0.30852288  1
  O  O62  1  0.96888975  0.33468344  0.68686432  1
  O  O63  1  0.84306271  0.12610498  0.69168135  1
  Pb  Pb64  1  0.08473528  0.77873477  0.49992188  1
  Pb  Pb65  1  0.41729007  0.89103635  0.50521608  1
  Pb  Pb66  1  0.08613466  0.44675297  0.49388916  1
  Pb  Pb67  1  0.58231225  0.77695725  0.50120652  1
  Pb  Pb68  1  0.41386534  0.55324703  0.50611084  1
  Pb  Pb69  1  0.08270993  0.10896365  0.49478392  1
  Pb  Pb70  1  0.91973632  0.89139418  0.49404480  1
  Pb  Pb71  1  0.57949706  0.44525260  0.50455925  1
  Pb  Pb72  1  0.41526472  0.22126523  0.50007812  1
  Pb  Pb73  1  0.92050294  0.55474740  0.49544075  1
  Pb  Pb74  1  0.58026368  0.10860582  0.50595520  1
  Pb  Pb75  1  0.91768775  0.22304275  0.49879348  1
