# generated using pymatgen
data_Cr7(PO4)6
_symmetry_space_group_name_H-M   'P 1'
_cell_length_a   6.36349343
_cell_length_b   8.16204182
_cell_length_c   9.46135589
_cell_angle_alpha   106.87215238
_cell_angle_beta   108.52589861
_cell_angle_gamma   100.59752443
_symmetry_Int_Tables_number   1
_chemical_formula_structural   Cr7(PO4)6
_chemical_formula_sum   'Cr7 P6 O24'
_cell_volume   424.74405179
_cell_formula_units_Z   1
loop_
 _symmetry_equiv_pos_site_id
 _symmetry_equiv_pos_as_xyz
  1  'x, y, z'
loop_
 _atom_site_type_symbol
 _atom_site_label
 _atom_site_symmetry_multiplicity
 _atom_site_fract_x
 _atom_site_fract_y
 _atom_site_fract_z
 _atom_site_occupancy
  O  O0  1  0.27177477  0.54597871  0.73483862  1
  O  O1  1  0.72822523  0.45402129  0.26516138  1
  O  O2  1  0.74696367  0.20832113  0.03583578  1
  O  O3  1  0.25303633  0.79167887  0.96416322  1
  O  O4  1  0.55620826  0.13051690  0.21926304  1
  O  O5  1  0.44379174  0.86948310  0.78073696  1
  O  O6  1  0.77280708  0.29004643  0.56360485  1
  O  O7  1  0.22719292  0.70995357  0.43639415  1
  O  O8  1  0.12464906  0.29127397  0.41829842  1
  O  O9  1  0.87535194  0.70872703  0.58170158  1
  O  O10  1  0.07209749  0.04833670  0.15526411  1
  O  O11  1  0.92790251  0.95166330  0.84473489  1
  O  O12  1  0.20483103  0.44909946  0.20529533  1
  O  O13  1  0.68526374  0.95786061  0.58137637  1
  O  O14  1  0.31473526  0.04213839  0.41862263  1
  O  O15  1  0.45473090  0.75863871  0.26342437  1
  O  O16  1  0.54526910  0.24136129  0.73657563  1
  O  O17  1  0.88283254  0.97193859  0.33926564  1
  O  O18  1  0.79516897  0.55089954  0.79470367  1
  O  O19  1  0.63523232  0.75070420  0.98861720  1
  O  O20  1  0.36476768  0.24929680  0.01138480  1
  O  O21  1  0.01107378  0.68263975  0.15072834  1
  O  O22  1  0.98892622  0.31736125  0.84927166  1
  O  O23  1  0.11716746  0.02806141  0.66073536  1
  P  P24  1  0.09562407  0.09714916  0.33431999  1
  P  P25  1  0.90437593  0.90284984  0.66568101  1
  P  P26  1  0.77351015  0.35287731  0.73627152  1
  P  P27  1  0.22648985  0.64712269  0.26372748  1
  P  P28  1  0.60438995  0.25827770  0.13541560  1
  P  P29  1  0.39561005  0.74172330  0.86458640  1
  Cr  Cr30  1  0.28322328  0.32235231  0.79592829  1
  Cr  Cr31  1  0.71677672  0.67764769  0.20407071  1
  Cr  Cr32  1  0.61904047  0.03971154  0.39032100  1
  Cr  Cr33  1  0.38095853  0.96028846  0.60968000  1
  Cr  Cr34  1  0.99999900  0.50000000  0.50000000  1
  Cr  Cr35  1  0.04801921  0.21390055  0.02615833  1
  Cr  Cr36  1  0.95198079  0.78609945  0.97384167  1
