# generated using pymatgen
data_LiCoPO4
_symmetry_space_group_name_H-M   'P 1'
_cell_length_a   10.19125218
_cell_length_b   6.80075916
_cell_length_c   5.03474156
_cell_angle_alpha   90.00000000
_cell_angle_beta   90.00000000
_cell_angle_gamma   90.00000000
_symmetry_Int_Tables_number   1
_chemical_formula_structural   LiCoPO4
_chemical_formula_sum   'Li4 Co4 P4 O16'
_cell_volume   348.94913486
_cell_formula_units_Z   4
loop_
 _symmetry_equiv_pos_site_id
 _symmetry_equiv_pos_as_xyz
  1  'x, y, z'
loop_
 _atom_site_type_symbol
 _atom_site_label
 _atom_site_symmetry_multiplicity
 _atom_site_fract_x
 _atom_site_fract_y
 _atom_site_fract_z
 _atom_site_occupancy
  Li  Li0  1  0.15433645  0.71296599  0.68698199  1
  Li  Li1  1  0.34566355  0.21296599  0.18698199  1
  Li  Li2  1  0.84566355  0.21296599  0.31301801  1
  Li  Li3  1  0.65433645  0.71296599  0.81301801  1
  Co  Co4  1  0.65457854  0.21565971  0.81338138  1
  Co  Co5  1  0.34542146  0.71565971  0.18661862  1
  Co  Co6  1  0.84542146  0.71565971  0.31338138  1
  Co  Co7  1  0.15457854  0.21565971  0.68661862  1
  P  P8  1  0.09521756  0.96249146  0.18429421  1
  P  P9  1  0.40478244  0.46249146  0.68429421  1
  P  P10  1  0.59521756  0.96249146  0.31570579  1
  P  P11  1  0.90478244  0.46249146  0.81570579  1
  O  O12  1  0.66098576  0.77431058  0.19998528  1
  O  O13  1  0.94691711  0.96068283  0.25579787  1
  O  O14  1  0.83958441  0.65042882  0.69830410  1
  O  O15  1  0.44691711  0.96068283  0.24420213  1
  O  O16  1  0.66041559  0.15042882  0.19830410  1
  O  O17  1  0.88328235  0.46528560  0.12172712  1
  O  O18  1  0.16098576  0.77431058  0.30001472  1
  O  O19  1  0.33901424  0.27431058  0.80001472  1
  O  O20  1  0.33958441  0.65042882  0.80169590  1
  O  O21  1  0.55308289  0.46068283  0.75579787  1
  O  O22  1  0.05308289  0.46068283  0.74420213  1
  O  O23  1  0.38328235  0.46528560  0.37827288  1
  O  O24  1  0.61671765  0.96528560  0.62172712  1
  O  O25  1  0.16041559  0.15042882  0.30169590  1
  O  O26  1  0.83901424  0.27431058  0.69998528  1
  O  O27  1  0.11671765  0.96528560  0.87827288  1
