# generated using pymatgen
data_Fe2Te4O11
_symmetry_space_group_name_H-M   'P 1'
_cell_length_a   7.05522957
_cell_length_b   11.96159961
_cell_length_c   12.76904440
_cell_angle_alpha   109.01068800
_cell_angle_beta   89.99976199
_cell_angle_gamma   90.00026856
_symmetry_Int_Tables_number   1
_chemical_formula_structural   Fe2Te4O11
_chemical_formula_sum   'Fe8 Te16 O44'
_cell_volume   1018.82822917
_cell_formula_units_Z   4
loop_
 _symmetry_equiv_pos_site_id
 _symmetry_equiv_pos_as_xyz
  1  'x, y, z'
loop_
 _atom_site_type_symbol
 _atom_site_label
 _atom_site_symmetry_multiplicity
 _atom_site_fract_x
 _atom_site_fract_y
 _atom_site_fract_z
 _atom_site_occupancy
  O  O0  1  0.04340303  0.42256374  0.89126893  1
  O  O1  1  0.54340060  0.07743327  0.60872840  1
  O  O2  1  0.95659743  0.57743722  0.10872946  1
  O  O3  1  0.45659803  0.92256325  0.39127083  1
  O  O4  1  0.28725537  0.70618287  0.98523219  1
  O  O5  1  0.78725859  0.79381780  0.51476928  1
  O  O6  1  0.71274330  0.29382081  0.01477147  1
  O  O7  1  0.21274251  0.20617953  0.48522685  1
  O  O8  1  0.22360959  0.44843934  0.61572991  1
  O  O9  1  0.72360792  0.05156347  0.88426881  1
  O  O10  1  0.77638424  0.55156387  0.38427129  1
  O  O11  1  0.27638972  0.94843698  0.11573243  1
  O  O12  1  0.17923666  0.25027816  0.70727974  1
  O  O13  1  0.67924363  0.24971873  0.79272431  1
  O  O14  1  0.82076556  0.74972034  0.29272024  1
  O  O15  1  0.32076397  0.75027822  0.20727785  1
  O  O16  1  0.25743499  0.73056921  0.77344718  1
  O  O17  1  0.82034138  0.41233892  0.70327920  1
  O  O18  1  0.67965804  0.91233651  0.20327845  1
  O  O19  1  0.17965527  0.58766054  0.29672125  1
  O  O20  1  0.32985272  0.30511378  0.93707367  1
  O  O21  1  0.82984878  0.19488789  0.56292555  1
  O  O22  1  0.67015344  0.69489035  0.06292364  1
  O  O23  1  0.17015154  0.80511023  0.43707363  1
  O  O24  1  0.42522965  0.12066756  0.02776069  1
  O  O25  1  0.92522837  0.37933685  0.47224027  1
  O  O26  1  0.57476952  0.87933312  0.97223969  1
  O  O27  1  0.07477207  0.62066736  0.52776065  1
  O  O28  1  0.06684704  0.11049977  0.04135527  1
  O  O29  1  0.56684435  0.38949951  0.45864805  1
  O  O30  1  0.93315319  0.88950092  0.95864164  1
  O  O31  1  0.43315453  0.61049796  0.54135506  1
  O  O32  1  0.06479922  0.37127275  0.13126153  1
  O  O33  1  0.56479981  0.12872644  0.36873454  1
  O  O34  1  0.93519844  0.62872698  0.86873336  1
  O  O35  1  0.43519749  0.87127318  0.63126604  1
  O  O36  1  0.42526256  0.38456687  0.17562062  1
  O  O37  1  0.92526263  0.11543350  0.32437829  1
  O  O38  1  0.57473696  0.61543552  0.82437988  1
  O  O39  1  0.07473967  0.88456485  0.67562121  1
  O  O40  1  0.24256335  0.23056567  0.27344979  1
  O  O41  1  0.74256280  0.26943369  0.22655348  1
  O  O42  1  0.75743259  0.76943252  0.72655140  1
  O  O43  1  0.32034215  0.08766269  0.79672144  1
  Fe  Fe44  1  0.24778541  0.24358369  0.12925241  1
  Fe  Fe45  1  0.74778382  0.25641959  0.37074877  1
  Fe  Fe46  1  0.75221295  0.75641625  0.87074690  1
  Fe  Fe47  1  0.25221814  0.74358189  0.62925423  1
  Fe  Fe48  1  0.54582884  0.18850940  0.90248760  1
  Fe  Fe49  1  0.04584258  0.31148530  0.59751562  1
  Fe  Fe50  1  0.45417063  0.81149079  0.09751270  1
  Fe  Fe51  1  0.95416589  0.68850943  0.40248566  1
  Te  Te52  1  0.20328481  0.51163762  0.13805683  1
  Te  Te53  1  0.79625232  0.89080958  0.66424419  1
  Te  Te54  1  0.70374756  0.39080999  0.16424328  1
  Te  Te55  1  0.20374783  0.10919424  0.33575674  1
  Te  Te56  1  0.29625103  0.60918749  0.83575549  1
  Te  Te57  1  0.70328512  0.98836357  0.36194300  1
  Te  Te58  1  0.79671757  0.48836058  0.86193973  1
  Te  Te59  1  0.29671716  0.01163777  0.63805810  1
  Te  Te60  1  0.10590653  0.25283810  0.85251055  1
  Te  Te61  1  0.60590645  0.24716289  0.64748583  1
  Te  Te62  1  0.89409516  0.74716258  0.14748923  1
  Te  Te63  1  0.39409710  0.75283728  0.35251169  1
  Te  Te64  1  0.25595964  0.47935762  0.47960939  1
  Te  Te65  1  0.75596378  0.02064123  0.02039262  1
  Te  Te66  1  0.74402794  0.52064166  0.52039468  1
  Te  Te67  1  0.24403602  0.97936069  0.97960731  1
