# generated using pymatgen
data_Pr2Fe17H3
_symmetry_space_group_name_H-M   'P 1'
_cell_length_a   6.49190369
_cell_length_b   6.49190369
_cell_length_c   6.49190364
_cell_angle_alpha   84.61520486
_cell_angle_beta   84.61520486
_cell_angle_gamma   84.61520564
_symmetry_Int_Tables_number   1
_chemical_formula_structural   Pr2Fe17H3
_chemical_formula_sum   'Pr2 Fe17 H3'
_cell_volume   270.19066770
_cell_formula_units_Z   1
loop_
 _symmetry_equiv_pos_site_id
 _symmetry_equiv_pos_as_xyz
  1  'x, y, z'
loop_
 _atom_site_type_symbol
 _atom_site_label
 _atom_site_symmetry_multiplicity
 _atom_site_fract_x
 _atom_site_fract_y
 _atom_site_fract_z
 _atom_site_occupancy
  Pr  Pr0  1  0.65556461  0.65556461  0.65556461  1
  Pr  Pr1  1  0.34443539  0.34443539  0.34443539  1
  Fe  Fe2  1  -0.00000000  -0.00000000  0.50000000  1
  Fe  Fe3  1  -0.00000000  0.50000000  -0.00000000  1
  Fe  Fe4  1  0.50000000  -0.00000000  -0.00000000  1
  Fe  Fe5  1  0.28210634  0.71789366  -0.00000000  1
  Fe  Fe6  1  0.71789366  1.00000000  0.28210634  1
  Fe  Fe7  1  0.00000000  0.28210634  0.71789366  1
  Fe  Fe8  1  0.28210634  0.00000000  0.71789366  1
  Fe  Fe9  1  1.00000000  0.71789366  0.28210634  1
  Fe  Fe10  1  0.71789366  0.28210634  0.00000000  1
  Fe  Fe11  1  0.34016225  0.34016225  0.84906342  1
  Fe  Fe12  1  0.34016225  0.84906342  0.34016225  1
  Fe  Fe13  1  0.84906342  0.34016225  0.34016225  1
  Fe  Fe14  1  0.65983775  0.65983775  0.15093658  1
  Fe  Fe15  1  0.65983775  0.15093658  0.65983775  1
  Fe  Fe16  1  0.15093658  0.65983775  0.65983775  1
  Fe  Fe17  1  0.90259190  0.90259190  0.90259190  1
  Fe  Fe18  1  0.09740810  0.09740810  0.09740810  1
  H  H19  1  0.50000000  0.50000000  -0.00000000  1
  H  H20  1  0.50000000  -0.00000000  0.50000000  1
  H  H21  1  -0.00000000  0.50000000  0.50000000  1
