# generated using pymatgen
data_SrCd(PO3)4
_symmetry_space_group_name_H-M   'P 1'
_cell_length_a   7.19902191
_cell_length_b   9.20569128
_cell_length_c   15.03766811
_cell_angle_alpha   90.00000000
_cell_angle_beta   91.08107271
_cell_angle_gamma   90.00000000
_symmetry_Int_Tables_number   1
_chemical_formula_structural   SrCd(PO3)4
_chemical_formula_sum   'Sr4 Cd4 P16 O48'
_cell_volume   996.39854658
_cell_formula_units_Z   4
loop_
 _symmetry_equiv_pos_site_id
 _symmetry_equiv_pos_as_xyz
  1  'x, y, z'
loop_
 _atom_site_type_symbol
 _atom_site_label
 _atom_site_symmetry_multiplicity
 _atom_site_fract_x
 _atom_site_fract_y
 _atom_site_fract_z
 _atom_site_occupancy
  Cd  Cd0  1  0.50092730  0.25879231  0.34614715  1
  Cd  Cd1  1  0.99907270  0.75879231  0.15385285  1
  Cd  Cd2  1  0.49907270  0.74120769  0.65385285  1
  Cd  Cd3  1  0.00092730  0.24120769  0.84614715  1
  Sr  Sr4  1  0.98393721  0.89480349  0.63604580  1
  Sr  Sr5  1  0.51606279  0.39480349  0.86395420  1
  Sr  Sr6  1  0.01606279  0.10519651  0.36395420  1
  Sr  Sr7  1  0.48393721  0.60519651  0.13604580  1
  P  P8  1  0.13519953  0.51188040  0.32479111  1
  P  P9  1  0.36480047  0.01188040  0.17520889  1
  P  P10  1  0.86480047  0.48811960  0.67520889  1
  P  P11  1  0.63519953  0.98811960  0.82479111  1
  P  P12  1  0.23144483  0.75691780  0.45396059  1
  P  P13  1  0.26855517  0.25691780  0.04603941  1
  P  P14  1  0.76855517  0.24308220  0.54603941  1
  P  P15  1  0.73144483  0.74308220  0.95396059  1
  P  P16  1  0.63515909  0.83936464  0.43901626  1
  P  P17  1  0.86484091  0.33936464  0.06098374  1
  P  P18  1  0.36484091  0.16063536  0.56098374  1
  P  P19  1  0.13515909  0.66063536  0.93901626  1
  P  P20  1  0.73278174  0.59808495  0.32005290  1
  P  P21  1  0.76721826  0.09808495  0.17994710  1
  P  P22  1  0.26721826  0.40191505  0.67994710  1
  P  P23  1  0.23278174  0.90191505  0.82005290  1
  O  O24  1  0.17761058  0.59427585  0.24107267  1
  O  O25  1  0.32238942  0.09427585  0.25892733  1
  O  O26  1  0.82238942  0.40572415  0.75892733  1
  O  O27  1  0.67761058  0.90572415  0.74107267  1
  O  O28  1  0.19741104  0.35664163  0.33418908  1
  O  O29  1  0.30258896  0.85664163  0.16581092  1
  O  O30  1  0.80258896  0.64335837  0.66581092  1
  O  O31  1  0.69741104  0.14335837  0.83418908  1
  O  O32  1  0.21136647  0.59603149  0.41202414  1
  O  O33  1  0.28863353  0.09603149  0.08797586  1
  O  O34  1  0.78863353  0.40396851  0.58797586  1
  O  O35  1  0.71136647  0.90396851  0.91202414  1
  O  O36  1  0.07678432  0.85498831  0.42398765  1
  O  O37  1  0.42321568  0.35498831  0.07601235  1
  O  O38  1  0.92321568  0.14501169  0.57601235  1
  O  O39  1  0.57678432  0.64501169  0.92398765  1
  O  O40  1  0.25200640  0.73473624  0.55310354  1
  O  O41  1  0.24799360  0.23473624  0.94689646  1
  O  O42  1  0.74799360  0.26526376  0.44689646  1
  O  O43  1  0.75200640  0.76526376  0.05310354  1
  O  O44  1  0.41921097  0.81559083  0.41092924  1
  O  O45  1  0.08078903  0.31559083  0.08907076  1
  O  O46  1  0.58078903  0.18440917  0.58907076  1
  O  O47  1  0.91921097  0.68440917  0.91092924  1
  O  O48  1  0.71921395  0.68127885  0.41349357  1
  O  O49  1  0.78078605  0.18127885  0.08650643  1
  O  O50  1  0.28078605  0.31872115  0.58650643  1
  O  O51  1  0.21921395  0.81872115  0.91349357  1
  O  O52  1  0.66080250  0.84975042  0.53894360  1
  O  O53  1  0.83919750  0.34975042  0.96105640  1
  O  O54  1  0.33919750  0.15024958  0.46105640  1
  O  O55  1  0.16080250  0.65024958  0.03894360  1
  O  O56  1  0.70697598  0.95948420  0.38326029  1
  O  O57  1  0.79302402  0.45948420  0.11673971  1
  O  O58  1  0.29302402  0.04051580  0.61673971  1
  O  O59  1  0.20697598  0.54051580  0.88326029  1
  O  O60  1  0.56950866  0.49738123  0.30647876  1
  O  O61  1  0.93049134  0.99738123  0.19352124  1
  O  O62  1  0.43049134  0.50261877  0.69352124  1
  O  O63  1  0.06950866  0.00261877  0.80647876  1
  O  O64  1  0.91478135  0.50393208  0.33962341  1
  O  O65  1  0.58521865  0.00393208  0.16037659  1
  O  O66  1  0.08521865  0.49606792  0.66037659  1
  O  O67  1  0.41478135  0.99606792  0.83962341  1
  O  O68  1  0.75545584  0.70394523  0.24442602  1
  O  O69  1  0.74454416  0.20394523  0.25557398  1
  O  O70  1  0.24454416  0.29605477  0.75557398  1
  O  O71  1  0.25545584  0.79605477  0.74442602  1
