# generated using pymatgen
data_Rb3(FeS2)2
_symmetry_space_group_name_H-M   'P 1'
_cell_length_a   7.49356483
_cell_length_b   10.94619337
_cell_length_c   12.18558646
_cell_angle_alpha   90.00000000
_cell_angle_beta   90.00000000
_cell_angle_gamma   90.00000000
_symmetry_Int_Tables_number   1
_chemical_formula_structural   Rb3(FeS2)2
_chemical_formula_sum   'Rb12 Fe8 S16'
_cell_volume   999.53503268
_cell_formula_units_Z   4
loop_
 _symmetry_equiv_pos_site_id
 _symmetry_equiv_pos_as_xyz
  1  'x, y, z'
loop_
 _atom_site_type_symbol
 _atom_site_label
 _atom_site_symmetry_multiplicity
 _atom_site_fract_x
 _atom_site_fract_y
 _atom_site_fract_z
 _atom_site_occupancy
  Rb  Rb0  1  0.06666699  0.42661706  0.13918639  1
  Rb  Rb1  1  0.56666699  0.07338294  0.36081361  1
  Rb  Rb2  1  0.93333301  0.92661706  0.86081361  1
  Rb  Rb3  1  0.43333301  0.57338294  0.63918639  1
  Rb  Rb4  1  0.93333301  0.57338294  0.86081361  1
  Rb  Rb5  1  0.43333301  0.92661706  0.63918639  1
  Rb  Rb6  1  0.06666699  0.07338294  0.13918639  1
  Rb  Rb7  1  0.56666699  0.42661706  0.36081361  1
  Rb  Rb8  1  0.09051423  0.25000000  0.77117834  1
  Rb  Rb9  1  0.59051423  0.25000000  0.72882166  1
  Rb  Rb10  1  0.90948577  0.75000000  0.22882166  1
  Rb  Rb11  1  0.40948577  0.75000000  0.27117834  1
  Fe  Fe12  1  0.04937101  0.36985850  0.47269174  1
  Fe  Fe13  1  0.54937101  0.13014150  0.02730826  1
  Fe  Fe14  1  0.95062899  0.86985850  0.52730826  1
  Fe  Fe15  1  0.45062899  0.63014150  0.97269174  1
  Fe  Fe16  1  0.95062899  0.63014150  0.52730826  1
  Fe  Fe17  1  0.45062899  0.86985850  0.97269174  1
  Fe  Fe18  1  0.04937101  0.13014150  0.47269174  1
  Fe  Fe19  1  0.54937101  0.36985850  0.02730826  1
  S  S20  1  0.14056459  0.54958147  0.39568529  1
  S  S21  1  0.64056459  0.95041853  0.10431471  1
  S  S22  1  0.85943541  0.04958147  0.60431471  1
  S  S23  1  0.35943541  0.45041853  0.89568529  1
  S  S24  1  0.85943541  0.45041853  0.60431471  1
  S  S25  1  0.35943541  0.04958147  0.89568529  1
  S  S26  1  0.14056459  0.95041853  0.39568529  1
  S  S27  1  0.64056459  0.54958147  0.10431471  1
  S  S28  1  0.28348652  0.25000000  0.53213927  1
  S  S29  1  0.78348652  0.25000000  0.96786073  1
  S  S30  1  0.71651348  0.75000000  0.46786073  1
  S  S31  1  0.21651348  0.75000000  0.03213927  1
  S  S32  1  0.41698934  0.25000000  0.15488526  1
  S  S33  1  0.91698934  0.25000000  0.34511474  1
  S  S34  1  0.58301066  0.75000000  0.84511474  1
  S  S35  1  0.08301066  0.75000000  0.65488526  1
