# generated using pymatgen
data_KSbF6
_symmetry_space_group_name_H-M   'P 1'
_cell_length_a   9.00560043
_cell_length_b   9.00560061
_cell_length_c   9.00560131
_cell_angle_alpha   109.47122218
_cell_angle_beta   109.47122259
_cell_angle_gamma   109.47122173
_symmetry_Int_Tables_number   1
_chemical_formula_structural   KSbF6
_chemical_formula_sum   'K4 Sb4 F24'
_cell_volume   562.23277297
_cell_formula_units_Z   4
loop_
 _symmetry_equiv_pos_site_id
 _symmetry_equiv_pos_as_xyz
  1  'x, y, z'
loop_
 _atom_site_type_symbol
 _atom_site_label
 _atom_site_symmetry_multiplicity
 _atom_site_fract_x
 _atom_site_fract_y
 _atom_site_fract_z
 _atom_site_occupancy
  K  K0  1  0.50000000  0.50000000  0.50000000  1
  K  K1  1  0.00000000  0.00000000  0.50000000  1
  K  K2  1  0.50000000  0.00000000  0.00000000  1
  K  K3  1  0.00000000  0.50000000  0.00000000  1
  Sb  Sb4  1  0.00000000  0.00000000  0.00000000  1
  Sb  Sb5  1  0.00000000  0.50000000  0.50000000  1
  Sb  Sb6  1  0.50000000  0.00000000  0.50000000  1
  Sb  Sb7  1  0.50000000  0.50000000  0.00000000  1
  F  F8  1  0.08115806  0.04749830  0.24553308  1
  F  F9  1  0.83562498  0.25446692  0.30196522  1
  F  F10  1  0.53365976  0.19803478  0.45250170  1
  F  F11  1  0.66437502  0.96634024  0.41884194  1
  F  F12  1  0.25446692  0.30196522  0.83562498  1
  F  F13  1  0.45250170  0.53365976  0.19803478  1
  F  F14  1  0.96634024  0.41884194  0.66437502  1
  F  F15  1  0.24553308  0.08115806  0.04749830  1
  F  F16  1  0.04749830  0.24553308  0.08115806  1
  F  F17  1  0.30196522  0.83562498  0.25446692  1
  F  F18  1  0.19803478  0.45250170  0.53365976  1
  F  F19  1  0.41884194  0.66437502  0.96634024  1
  F  F20  1  0.91884194  0.95250170  0.75446692  1
  F  F21  1  0.16437502  0.74553308  0.69803478  1
  F  F22  1  0.46634024  0.80196522  0.54749830  1
  F  F23  1  0.33562498  0.03365976  0.58115806  1
  F  F24  1  0.74553308  0.69803478  0.16437502  1
  F  F25  1  0.54749830  0.46634024  0.80196522  1
  F  F26  1  0.03365976  0.58115806  0.33562498  1
  F  F27  1  0.75446692  0.91884194  0.95250170  1
  F  F28  1  0.95250170  0.75446692  0.91884194  1
  F  F29  1  0.69803478  0.16437502  0.74553308  1
  F  F30  1  0.80196522  0.54749830  0.46634024  1
  F  F31  1  0.58115806  0.33562498  0.03365976  1
