# generated using pymatgen
data_Rb2SbBr6
_symmetry_space_group_name_H-M   'P 1'
_cell_length_a   11.01831322
_cell_length_b   11.01831275
_cell_length_c   13.54166472
_cell_angle_alpha   114.00586011
_cell_angle_beta   114.00585902
_cell_angle_gamma   90.00000093
_symmetry_Int_Tables_number   1
_chemical_formula_structural   Rb2SbBr6
_chemical_formula_sum   'Rb8 Sb4 Br24'
_cell_volume   1344.64727104
_cell_formula_units_Z   4
loop_
 _symmetry_equiv_pos_site_id
 _symmetry_equiv_pos_as_xyz
  1  'x, y, z'
loop_
 _atom_site_type_symbol
 _atom_site_label
 _atom_site_symmetry_multiplicity
 _atom_site_fract_x
 _atom_site_fract_y
 _atom_site_fract_z
 _atom_site_occupancy
  Rb  Rb0  1  0.50000000  0.22396567  0.50000000  1
  Rb  Rb1  1  0.77603433  0.50000000  -0.00000000  1
  Rb  Rb2  1  0.50000000  0.77603433  0.50000000  1
  Rb  Rb3  1  0.22396567  0.50000000  0.00000000  1
  Rb  Rb4  1  0.22396567  0.00000000  0.00000000  1
  Rb  Rb5  1  0.77603433  1.00000000  -0.00000000  1
  Rb  Rb6  1  0.00000000  0.22396567  0.50000000  1
  Rb  Rb7  1  1.00000000  0.77603433  0.50000000  1
  Sb  Sb8  1  0.12500000  0.87500000  0.25000000  1
  Sb  Sb9  1  0.37500000  0.62500000  0.75000000  1
  Sb  Sb10  1  0.62500000  0.37500000  0.25000000  1
  Sb  Sb11  1  0.87500000  0.12500000  0.75000000  1
  Br  Br12  1  0.87249284  0.37304414  0.74498569  1
  Br  Br13  1  0.62695586  0.12750716  0.75501431  1
  Br  Br14  1  0.86509592  0.37347615  0.24695231  1
  Br  Br15  1  0.37304414  0.87249284  0.24498569  1
  Br  Br16  1  0.62652385  0.61814361  0.25304769  1
  Br  Br17  1  -0.00002405  0.24997595  -0.00004810  1
  Br  Br18  1  0.61814361  0.62652385  0.75304769  1
  Br  Br19  1  0.24997595  -0.00002405  0.49995190  1
  Br  Br20  1  0.12805845  0.12750716  0.75501431  1
  Br  Br21  1  0.25570188  0.50570188  0.51140375  1
  Br  Br22  1  0.49429812  0.74429812  0.98859625  1
  Br  Br23  1  0.13490408  0.62652385  0.75304769  1
  Br  Br24  1  0.37347615  0.38185639  0.74695231  1
  Br  Br25  1  0.12750716  0.62695586  0.25501431  1
  Br  Br26  1  0.74429812  0.49429812  0.48859625  1
  Br  Br27  1  0.00002405  0.75002405  0.00004810  1
  Br  Br28  1  0.38185639  0.37347615  0.24695231  1
  Br  Br29  1  0.50570188  0.25570188  0.01140375  1
  Br  Br30  1  0.62652385  0.13490408  0.25304769  1
  Br  Br31  1  0.12750716  0.12805845  0.25501431  1
  Br  Br32  1  0.87249284  0.87194155  0.74498569  1
  Br  Br33  1  0.37347615  0.86509592  0.74695231  1
  Br  Br34  1  0.87194155  0.87249284  0.24498569  1
  Br  Br35  1  0.75002405  0.00002405  0.50004810  1
