# generated using pymatgen
data_TiAs2H4O9
_symmetry_space_group_name_H-M   'P 1'
_cell_length_a   5.17893436
_cell_length_b   8.99587239
_cell_length_c   16.39501639
_cell_angle_alpha   102.01662447
_cell_angle_beta   90.00000000
_cell_angle_gamma   90.00000000
_symmetry_Int_Tables_number   1
_chemical_formula_structural   TiAs2H4O9
_chemical_formula_sum   'Ti4 As8 H16 O36'
_cell_volume   747.09036981
_cell_formula_units_Z   4
loop_
 _symmetry_equiv_pos_site_id
 _symmetry_equiv_pos_as_xyz
  1  'x, y, z'
loop_
 _atom_site_type_symbol
 _atom_site_label
 _atom_site_symmetry_multiplicity
 _atom_site_fract_x
 _atom_site_fract_y
 _atom_site_fract_z
 _atom_site_occupancy
  Ti  Ti0  1  0.74325883  0.75366090  0.51276041  1
  Ti  Ti1  1  0.24325883  0.74633910  0.98723959  1
  Ti  Ti2  1  0.25674117  0.24633910  0.48723959  1
  Ti  Ti3  1  0.75674117  0.25366090  0.01276041  1
  As  As4  1  0.24128573  0.60950934  0.60533409  1
  As  As5  1  0.74128573  0.89049066  0.89466591  1
  As  As6  1  0.75871427  0.39049066  0.39466591  1
  As  As7  1  0.25871427  0.10950934  0.10533409  1
  As  As8  1  0.76157655  0.13304525  0.59617940  1
  As  As9  1  0.26157655  0.36695475  0.90382060  1
  As  As10  1  0.23842345  0.86695475  0.40382060  1
  As  As11  1  0.73842345  0.63304525  0.09617940  1
  O  O12  1  0.13382474  0.43271907  0.55923231  1
  O  O13  1  0.63382474  0.06728093  0.94076769  1
  O  O14  1  0.86617526  0.56728093  0.44076769  1
  O  O15  1  0.36617526  0.93271907  0.05923231  1
  O  O16  1  0.55675805  0.64375524  0.58637580  1
  O  O17  1  0.05675805  0.85624476  0.91362420  1
  O  O18  1  0.44324195  0.35624476  0.41362420  1
  O  O19  1  0.94324195  0.14375524  0.08637580  1
  O  O20  1  0.04504931  0.75164576  0.58637256  1
  O  O21  1  0.54504931  0.74835424  0.91362744  1
  O  O22  1  0.95495069  0.24835424  0.41362744  1
  O  O23  1  0.45495069  0.25164576  0.08637256  1
  O  O24  1  0.24549554  0.61669168  0.71315432  1
  O  O25  1  0.74549554  0.88330832  0.78684568  1
  O  O26  1  0.75450446  0.38330832  0.28684568  1
  O  O27  1  0.25450446  0.11669168  0.21315432  1
  O  O28  1  0.56719833  0.25145694  0.55446075  1
  O  O29  1  0.06719833  0.24854306  0.94553925  1
  O  O30  1  0.43280167  0.74854306  0.44553925  1
  O  O31  1  0.93280167  0.75145694  0.05446075  1
  O  O32  1  0.07219644  0.13311164  0.56050309  1
  O  O33  1  0.57219644  0.36688836  0.93949691  1
  O  O34  1  0.92780356  0.86688836  0.43949691  1
  O  O35  1  0.42780356  0.63311164  0.06050309  1
  O  O36  1  0.64000878  0.95282795  0.58394308  1
  O  O37  1  0.14000878  0.54717205  0.91605692  1
  O  O38  1  0.35999122  0.04717205  0.41605692  1
  O  O39  1  0.85999122  0.45282795  0.08394308  1
  O  O40  1  0.76113459  0.19450640  0.70410861  1
  O  O41  1  0.26113459  0.30549360  0.79589139  1
  O  O42  1  0.23886541  0.80549360  0.29589139  1
  O  O43  1  0.73886541  0.69450640  0.20410861  1
  O  O44  1  0.28725817  0.99634992  0.73730608  1
  O  O45  1  0.78725817  0.50365008  0.76269392  1
  O  O46  1  0.71274183  0.00365008  0.26269392  1
  O  O47  1  0.21274183  0.49634992  0.23730608  1
  H  H48  1  0.72688324  0.80832561  0.22228774  1
  H  H49  1  0.22688324  0.69167439  0.27771226  1
  H  H50  1  0.27311676  0.19167439  0.77771226  1
  H  H51  1  0.77311676  0.30832561  0.72228774  1
  H  H52  1  0.42298863  0.07740252  0.23090648  1
  H  H53  1  0.92298863  0.42259748  0.26909352  1
  H  H54  1  0.57701137  0.92259748  0.76909352  1
  H  H55  1  0.07701137  0.57740252  0.73090648  1
  H  H56  1  0.87744219  0.05188454  0.25318773  1
  H  H57  1  0.37744219  0.44811546  0.24681227  1
  H  H58  1  0.12255781  0.94811546  0.74681227  1
  H  H59  1  0.62255781  0.55188454  0.75318773  1
  H  H60  1  0.19055669  0.47780540  0.17654326  1
  H  H61  1  0.69055669  0.02219460  0.32345674  1
  H  H62  1  0.80944331  0.52219460  0.82345674  1
  H  H63  1  0.30944331  0.97780540  0.67654326  1
