# generated using pymatgen
data_K4Nb2Si8O23
_symmetry_space_group_name_H-M   'P 1'
_cell_length_a   6.88604620
_cell_length_b   7.96641994
_cell_length_c   11.16873960
_cell_angle_alpha   75.91406013
_cell_angle_beta   89.20492664
_cell_angle_gamma   72.08246954
_symmetry_Int_Tables_number   1
_chemical_formula_structural   K4Nb2Si8O23
_chemical_formula_sum   'K4 Nb2 Si8 O23'
_cell_volume   564.20473604
_cell_formula_units_Z   1
loop_
 _symmetry_equiv_pos_site_id
 _symmetry_equiv_pos_as_xyz
  1  'x, y, z'
loop_
 _atom_site_type_symbol
 _atom_site_label
 _atom_site_symmetry_multiplicity
 _atom_site_fract_x
 _atom_site_fract_y
 _atom_site_fract_z
 _atom_site_occupancy
  Si  Si0  1  0.03023616  0.89440688  0.78784488  1
  Si  Si1  1  0.96976384  0.10559312  0.21215512  1
  Si  Si2  1  0.82688418  0.69621975  0.62404605  1
  Si  Si3  1  0.17311582  0.30378025  0.37595395  1
  Si  Si4  1  0.48614900  0.81810604  0.78516949  1
  Si  Si5  1  0.51385100  0.18189396  0.21483051  1
  Si  Si6  1  0.83089394  0.69593290  0.99529208  1
  Si  Si7  1  0.16910606  0.30406710  0.00470792  1
  Nb  Nb8  1  0.21543135  0.27298075  0.68988986  1
  Nb  Nb9  1  0.78456865  0.72701925  0.31011014  1
  K  K10  1  0.72243942  0.24354310  0.51900283  1
  K  K11  1  0.27756058  0.75645690  0.48099717  1
  K  K12  1  0.66744453  0.29867786  0.85220585  1
  K  K13  1  0.33255547  0.70132214  0.14779415  1
  O  O14  1  0.62521855  0.70860860  0.91576911  1
  O  O15  1  0.37478145  0.29139140  0.08423089  1
  O  O16  1  0.59422185  0.72236868  0.67514994  1
  O  O17  1  0.40577815  0.27763132  0.32485006  1
  O  O18  1  0.27315438  0.76857174  0.81035213  1
  O  O19  1  0.72684562  0.23142826  0.18964787  1
  O  O20  1  0.45233115  0.03367385  0.74599504  1
  O  O21  1  0.54766885  0.96632615  0.25400496  1
  O  O22  1  0.94921646  0.47948185  0.66151662  1
  O  O23  1  0.05078354  0.52051815  0.33848338  1
  O  O24  1  -0.00227257  0.10754143  0.73945257  1
  O  O25  1  1.00227257  0.89245857  0.26054743  1
  O  O26  1  0.38563755  0.40351064  0.63661394  1
  O  O27  1  0.61436245  0.59648936  0.36338606  1
  O  O28  1  0.92567021  0.85544227  0.92210068  1
  O  O29  1  0.07432979  0.14455773  0.07789932  1
  O  O30  1  0.23017354  0.28313173  0.86940062  1
  O  O31  1  0.76982646  0.71686827  0.13059938  1
  O  O32  1  0.00000000  0.50000000  0.00000000  1
  O  O33  1  0.93119578  0.81498323  0.68920572  1
  O  O34  1  0.06880422  0.18501677  0.31079428  1
  O  O35  1  0.18173248  0.21789726  0.52345443  1
  O  O36  1  0.81826752  0.78210274  0.47654557  1
