# generated using pymatgen
data_CsEr2Cu3Se5
_symmetry_space_group_name_H-M   'P 1'
_cell_length_a   4.11833011
_cell_length_b   7.63361192
_cell_length_c   17.27301344
_cell_angle_alpha   90.00000000
_cell_angle_beta   90.00000000
_cell_angle_gamma   105.64937726
_symmetry_Int_Tables_number   1
_chemical_formula_structural   CsEr2Cu3Se5
_chemical_formula_sum   'Cs2 Er4 Cu6 Se10'
_cell_volume   522.89473142
_cell_formula_units_Z   2
loop_
 _symmetry_equiv_pos_site_id
 _symmetry_equiv_pos_as_xyz
  1  'x, y, z'
loop_
 _atom_site_type_symbol
 _atom_site_label
 _atom_site_symmetry_multiplicity
 _atom_site_fract_x
 _atom_site_fract_y
 _atom_site_fract_z
 _atom_site_occupancy
  Cs  Cs0  1  0.93883462  0.87766924  0.75000000  1
  Cs  Cs1  1  0.06116538  0.12233076  0.25000000  1
  Cu  Cu2  1  0.65556797  0.31113595  0.75000000  1
  Cu  Cu3  1  0.34443203  0.68886405  0.25000000  1
  Cu  Cu4  1  0.41675489  0.83350977  0.96678282  1
  Cu  Cu5  1  0.58324511  0.16649023  0.03321718  1
  Cu  Cu6  1  0.58324511  0.16649023  0.46678282  1
  Cu  Cu7  1  0.41675489  0.83350977  0.53321718  1
  Er  Er8  1  0.19204577  0.38409154  0.59148771  1
  Er  Er9  1  0.80795423  0.61590846  0.40851229  1
  Er  Er10  1  0.80795423  0.61590846  0.09148771  1
  Er  Er11  1  0.19204577  0.38409154  0.90851229  1
  Se  Se12  1  0.23809583  0.47619167  0.75000000  1
  Se  Se13  1  0.76190417  0.52380833  0.25000000  1
  Se  Se14  1  0.43799245  0.87598490  0.38786387  1
  Se  Se15  1  0.56200755  0.12401510  0.61213613  1
  Se  Se16  1  0.56200755  0.12401510  0.88786387  1
  Se  Se17  1  0.43799245  0.87598490  0.11213613  1
  Se  Se18  1  0.16934905  0.33869811  0.42977649  1
  Se  Se19  1  0.83065095  0.66130189  0.57022351  1
  Se  Se20  1  0.83065095  0.66130189  0.92977649  1
  Se  Se21  1  0.16934905  0.33869811  0.07022351  1
