# generated using pymatgen
data_NbTl(PO4)2
_symmetry_space_group_name_H-M   'P 1'
_cell_length_a   5.13788562
_cell_length_b   11.41799950
_cell_length_c   13.06216830
_cell_angle_alpha   90.00000000
_cell_angle_beta   90.00000000
_cell_angle_gamma   93.77712569
_symmetry_Int_Tables_number   1
_chemical_formula_structural   NbTl(PO4)2
_chemical_formula_sum   'Nb4 Tl4 P8 O32'
_cell_volume   764.61945944
_cell_formula_units_Z   4
loop_
 _symmetry_equiv_pos_site_id
 _symmetry_equiv_pos_as_xyz
  1  'x, y, z'
loop_
 _atom_site_type_symbol
 _atom_site_label
 _atom_site_symmetry_multiplicity
 _atom_site_fract_x
 _atom_site_fract_y
 _atom_site_fract_z
 _atom_site_occupancy
  Tl  Tl0  1  0.71896328  0.97669794  0.61802970  1
  Tl  Tl1  1  0.78103672  0.52330206  0.11802970  1
  Tl  Tl2  1  0.28103672  0.02330206  0.38197030  1
  Tl  Tl3  1  0.21896328  0.47669794  0.88197030  1
  Nb  Nb4  1  0.70237232  0.79723644  0.92768730  1
  Nb  Nb5  1  0.79762768  0.70276356  0.42768730  1
  Nb  Nb6  1  0.29762768  0.20276356  0.07231270  1
  Nb  Nb7  1  0.20237232  0.29723644  0.57231270  1
  P  P8  1  0.70879799  0.29076605  0.74977349  1
  P  P9  1  0.79120201  0.20923395  0.24977349  1
  P  P10  1  0.29120201  0.70923395  0.25022651  1
  P  P11  1  0.20879799  0.79076605  0.75022651  1
  P  P12  1  0.80264128  0.11359872  0.91264110  1
  P  P13  1  0.69735872  0.38640128  0.41264110  1
  P  P14  1  0.19735872  0.88640128  0.08735890  1
  P  P15  1  0.30264128  0.61359872  0.58735890  1
  O  O16  1  0.84870060  0.98596035  0.89780006  1
  O  O17  1  0.65129940  0.51403965  0.39780006  1
  O  O18  1  0.15129940  0.01403965  0.10219994  1
  O  O19  1  0.34870060  0.48596035  0.60219994  1
  O  O20  1  0.45773147  0.30934117  0.45047522  1
  O  O21  1  0.04226853  0.19065883  0.95047522  1
  O  O22  1  0.54226853  0.69065883  0.54952478  1
  O  O23  1  0.95773147  0.80934117  0.04952478  1
  O  O24  1  0.50395936  0.26139564  0.66562683  1
  O  O25  1  0.99604064  0.23860436  0.16562683  1
  O  O26  1  0.49604064  0.73860436  0.33437317  1
  O  O27  1  0.00395936  0.76139564  0.83437317  1
  O  O28  1  0.23891150  0.66087645  0.70051785  1
  O  O29  1  0.26108850  0.83912355  0.20051785  1
  O  O30  1  0.76108850  0.33912355  0.29948215  1
  O  O31  1  0.73891150  0.16087645  0.79948215  1
  O  O32  1  0.43294400  0.86611300  0.01864295  1
  O  O33  1  0.06705600  0.63388700  0.51864295  1
  O  O34  1  0.56705600  0.13388700  0.98135705  1
  O  O35  1  0.93294400  0.36611300  0.48135705  1
  O  O36  1  0.63965923  0.37674672  0.82977315  1
  O  O37  1  0.86034077  0.12325328  0.32977315  1
  O  O38  1  0.36034077  0.62325328  0.17022685  1
  O  O39  1  0.13965923  0.87674672  0.67022685  1
  O  O40  1  0.60040807  0.64804966  0.94827911  1
  O  O41  1  0.89959193  0.85195034  0.44827911  1
  O  O42  1  0.39959193  0.35195034  0.05172089  1
  O  O43  1  0.10040807  0.14804966  0.55172089  1
  O  O44  1  0.47659334  0.82305289  0.80146025  1
  O  O45  1  0.02340666  0.67694711  0.30146025  1
  O  O46  1  0.52340666  0.17694711  0.19853975  1
  O  O47  1  0.97659334  0.32305289  0.69853975  1
