# generated using pymatgen
data_Cu3(AsO4)2
_symmetry_space_group_name_H-M   'P 1'
_cell_length_a   6.37168534
_cell_length_b   8.82922538
_cell_length_c   11.53406712
_cell_angle_alpha   90.00000000
_cell_angle_beta   92.34943101
_cell_angle_gamma   90.00000000
_symmetry_Int_Tables_number   1
_chemical_formula_structural   Cu3(AsO4)2
_chemical_formula_sum   'Cu12 As8 O32'
_cell_volume   648.32710217
_cell_formula_units_Z   4
loop_
 _symmetry_equiv_pos_site_id
 _symmetry_equiv_pos_as_xyz
  1  'x, y, z'
loop_
 _atom_site_type_symbol
 _atom_site_label
 _atom_site_symmetry_multiplicity
 _atom_site_fract_x
 _atom_site_fract_y
 _atom_site_fract_z
 _atom_site_occupancy
  Cu  Cu0  1  0.24381005  0.16299186  0.63335391  1
  Cu  Cu1  1  0.75618995  0.66299186  0.86664609  1
  Cu  Cu2  1  0.75618995  0.83700814  0.36664609  1
  Cu  Cu3  1  0.24381005  0.33700814  0.13335391  1
  Cu  Cu4  1  0.61602132  0.03020024  0.87561369  1
  Cu  Cu5  1  0.38397868  0.53020024  0.62438631  1
  Cu  Cu6  1  0.38397868  0.96979976  0.12438631  1
  Cu  Cu7  1  0.61602132  0.46979976  0.37561369  1
  Cu  Cu8  1  0.90843630  0.18984120  0.43111293  1
  Cu  Cu9  1  0.09156370  0.68984120  0.06888707  1
  Cu  Cu10  1  0.09156370  0.81015880  0.56888707  1
  Cu  Cu11  1  0.90843630  0.31015880  0.93111293  1
  As  As12  1  0.41627831  0.11458362  0.36803130  1
  As  As13  1  0.58372169  0.61458362  0.13196870  1
  As  As14  1  0.58372169  0.88541638  0.63196870  1
  As  As15  1  0.41627831  0.38541638  0.86803130  1
  As  As16  1  0.89783607  0.06237804  0.15171133  1
  As  As17  1  0.10216393  0.56237804  0.34828867  1
  As  As18  1  0.10216393  0.93762196  0.84828867  1
  As  As19  1  0.89783607  0.43762196  0.65171133  1
  O  O20  1  0.60617203  0.24279014  0.41881203  1
  O  O21  1  0.39382797  0.74279014  0.08118797  1
  O  O22  1  0.39382797  0.75720986  0.58118797  1
  O  O23  1  0.60617203  0.25720986  0.91881203  1
  O  O24  1  0.96255504  0.24404965  0.10272059  1
  O  O25  1  0.03744496  0.74404965  0.39727941  1
  O  O26  1  0.03744496  0.75595035  0.89727941  1
  O  O27  1  0.96255504  0.25595035  0.60272059  1
  O  O28  1  0.20237712  0.13058293  0.45712898  1
  O  O29  1  0.79762288  0.63058293  0.04287102  1
  O  O30  1  0.79762288  0.86941707  0.54287102  1
  O  O31  1  0.20237712  0.36941707  0.95712898  1
  O  O32  1  0.08735538  0.92986547  0.12043636  1
  O  O33  1  0.91264462  0.42986547  0.37956364  1
  O  O34  1  0.91264462  0.07013453  0.87956364  1
  O  O35  1  0.08735538  0.57013453  0.62043636  1
  O  O36  1  0.34089116  0.15446632  0.22319568  1
  O  O37  1  0.65910884  0.65446632  0.27680432  1
  O  O38  1  0.65910884  0.84553368  0.77680432  1
  O  O39  1  0.34089116  0.34553368  0.72319568  1
  O  O40  1  0.67089466  0.99713401  0.08328825  1
  O  O41  1  0.32910534  0.49713401  0.41671175  1
  O  O42  1  0.32910534  0.00286599  0.91671175  1
  O  O43  1  0.67089466  0.50286599  0.58328825  1
  O  O44  1  0.48209546  0.92670752  0.36616953  1
  O  O45  1  0.51790454  0.42670752  0.13383047  1
  O  O46  1  0.51790454  0.07329248  0.63383047  1
  O  O47  1  0.48209546  0.57329248  0.86616953  1
  O  O48  1  0.86801085  0.05254925  0.30044105  1
  O  O49  1  0.13198915  0.55254925  0.19955895  1
  O  O50  1  0.13198915  0.94745075  0.69955895  1
  O  O51  1  0.86801085  0.44745075  0.80044105  1
