# generated using pymatgen
data_Te2MoCl12
_symmetry_space_group_name_H-M   'P 1'
_cell_length_a   14.13781952
_cell_length_b   14.13781917
_cell_length_c   14.13781936
_cell_angle_alpha   48.06195216
_cell_angle_beta   48.06195342
_cell_angle_gamma   48.06195144
_symmetry_Int_Tables_number   1
_chemical_formula_structural   Te2MoCl12
_chemical_formula_sum   'Te6 Mo3 Cl36'
_cell_volume   1432.69905528
_cell_formula_units_Z   3
loop_
 _symmetry_equiv_pos_site_id
 _symmetry_equiv_pos_as_xyz
  1  'x, y, z'
loop_
 _atom_site_type_symbol
 _atom_site_label
 _atom_site_symmetry_multiplicity
 _atom_site_fract_x
 _atom_site_fract_y
 _atom_site_fract_z
 _atom_site_occupancy
  Mo  Mo0  1  0.74737294  0.74737294  0.74737294  1
  Mo  Mo1  1  0.25262706  0.25262706  0.25262706  1
  Mo  Mo2  1  0.50000000  0.50000000  0.50000000  1
  Te  Te3  1  0.10328392  0.75168653  0.39086797  1
  Te  Te4  1  0.39086797  0.10328392  0.75168653  1
  Te  Te5  1  0.75168653  0.39086797  0.10328392  1
  Te  Te6  1  0.89671608  0.24831347  0.60913203  1
  Te  Te7  1  0.60913203  0.89671608  0.24831347  1
  Te  Te8  1  0.24831347  0.60913203  0.89671608  1
  Cl  Cl9  1  0.25954002  0.61065774  0.26520516  1
  Cl  Cl10  1  0.26520516  0.25954002  0.61065774  1
  Cl  Cl11  1  0.61065774  0.26520516  0.25954002  1
  Cl  Cl12  1  0.74045998  0.38934226  0.73479484  1
  Cl  Cl13  1  0.73479484  0.74045998  0.38934226  1
  Cl  Cl14  1  0.38934226  0.73479484  0.74045998  1
  Cl  Cl15  1  0.21932397  0.89679590  0.25192403  1
  Cl  Cl16  1  0.25192403  0.21932397  0.89679590  1
  Cl  Cl17  1  0.89679590  0.25192403  0.21932397  1
  Cl  Cl18  1  0.78067603  0.10320410  0.74807597  1
  Cl  Cl19  1  0.74807597  0.78067603  0.10320410  1
  Cl  Cl20  1  0.10320410  0.74807597  0.78067603  1
  Cl  Cl21  1  0.96033517  0.90437475  0.26923175  1
  Cl  Cl22  1  0.26923175  0.96033517  0.90437475  1
  Cl  Cl23  1  0.90437475  0.26923175  0.96033517  1
  Cl  Cl24  1  0.03966483  0.09562525  0.73076825  1
  Cl  Cl25  1  0.73076825  0.03966483  0.09562525  1
  Cl  Cl26  1  0.09562525  0.73076825  0.03966483  1
  Cl  Cl27  1  0.88587183  0.88072831  0.58730056  1
  Cl  Cl28  1  0.58730056  0.88587183  0.88072831  1
  Cl  Cl29  1  0.88072831  0.58730056  0.88587183  1
  Cl  Cl30  1  0.11412817  0.11927169  0.41269944  1
  Cl  Cl31  1  0.41269944  0.11412817  0.11927169  1
  Cl  Cl32  1  0.11927169  0.41269944  0.11412817  1
  Cl  Cl33  1  0.90834248  0.61648607  0.60735437  1
  Cl  Cl34  1  0.60735437  0.90834248  0.61648607  1
  Cl  Cl35  1  0.61648607  0.60735437  0.90834248  1
  Cl  Cl36  1  0.09165752  0.38351393  0.39264563  1
  Cl  Cl37  1  0.39264563  0.09165752  0.38351393  1
  Cl  Cl38  1  0.38351393  0.39264563  0.09165752  1
  Cl  Cl39  1  0.26698277  0.55914412  0.56366403  1
  Cl  Cl40  1  0.56366403  0.26698277  0.55914412  1
  Cl  Cl41  1  0.55914412  0.56366403  0.26698277  1
  Cl  Cl42  1  0.73301723  0.44085588  0.43633597  1
  Cl  Cl43  1  0.43633597  0.73301723  0.44085588  1
  Cl  Cl44  1  0.44085588  0.43633597  0.73301723  1
