# generated using pymatgen
data_Ti(GaO2)4
_symmetry_space_group_name_H-M   'P 1'
_cell_length_a   3.05681932
_cell_length_b   6.40531574
_cell_length_c   8.10942982
_cell_angle_alpha   81.97781893
_cell_angle_beta   79.13506248
_cell_angle_gamma   76.19568280
_symmetry_Int_Tables_number   1
_chemical_formula_structural   Ti(GaO2)4
_chemical_formula_sum   'Ti1 Ga4 O8'
_cell_volume   150.68499218
_cell_formula_units_Z   1
loop_
 _symmetry_equiv_pos_site_id
 _symmetry_equiv_pos_as_xyz
  1  'x, y, z'
loop_
 _atom_site_type_symbol
 _atom_site_label
 _atom_site_symmetry_multiplicity
 _atom_site_fract_x
 _atom_site_fract_y
 _atom_site_fract_z
 _atom_site_occupancy
  Ti  Ti0  1  0.00000000  0.00000000  0.00000000  1
  Ga  Ga1  1  0.53569742  0.64059096  0.28797974  1
  Ga  Ga2  1  0.75934575  0.84388017  0.63741755  1
  Ga  Ga3  1  0.24065425  0.15611983  0.36258245  1
  Ga  Ga4  1  0.46430258  0.35940904  0.71202026  1
  O  O5  1  0.89228282  0.52519039  0.69027740  1
  O  O6  1  0.55465996  0.80938621  0.08114065  1
  O  O7  1  0.44534004  0.19061379  0.91885935  1
  O  O8  1  0.83330400  0.11513979  0.21825673  1
  O  O9  1  0.10771718  0.47480961  0.30972260  1
  O  O10  1  0.64552773  0.16821698  0.54074812  1
  O  O11  1  0.35447227  0.83178302  0.45925188  1
  O  O12  1  0.16669600  0.88486021  0.78174327  1
