# generated using pymatgen
data_RuO4
_symmetry_space_group_name_H-M   'P 1'
_cell_length_a   4.67814618
_cell_length_b   5.42942763
_cell_length_c   8.39142038
_cell_angle_alpha   77.66772778
_cell_angle_beta   73.80032033
_cell_angle_gamma   64.55512070
_symmetry_Int_Tables_number   1
_chemical_formula_structural   RuO4
_chemical_formula_sum   'Ru2 O8'
_cell_volume   183.74018119
_cell_formula_units_Z   2
loop_
 _symmetry_equiv_pos_site_id
 _symmetry_equiv_pos_as_xyz
  1  'x, y, z'
loop_
 _atom_site_type_symbol
 _atom_site_label
 _atom_site_symmetry_multiplicity
 _atom_site_fract_x
 _atom_site_fract_y
 _atom_site_fract_z
 _atom_site_occupancy
  O  O0  1  0.91757177  0.80810297  0.41616679  1
  Ru  Ru1  1  0.24169829  0.74998203  0.25000785  1
  O  O2  1  0.43329985  0.53093567  0.69606941  1
  O  O3  1  0.14220887  0.69147271  0.08384699  1
  O  O4  1  0.56668870  0.46906825  0.30393138  1
  Ru  Ru5  1  0.75833225  0.25000976  0.74998201  1
  O  O6  1  0.65992368  0.96915438  0.80391409  1
  O  O7  1  0.85778645  0.30852766  0.91615636  1
  O  O8  1  0.34007238  0.03084700  0.19608774  1
  O  O9  1  0.08241776  0.19189959  0.58383738  1
