# generated using pymatgen
data_K2CO3
_symmetry_space_group_name_H-M   'P 1'
_cell_length_a   5.72226113
_cell_length_b   5.78953467
_cell_length_c   7.03845317
_cell_angle_alpha   86.11547454
_cell_angle_beta   82.12081215
_cell_angle_gamma   60.38363787
_symmetry_Int_Tables_number   1
_chemical_formula_structural   K2CO3
_chemical_formula_sum   'K4 C2 O6'
_cell_volume   200.80088488
_cell_formula_units_Z   2
loop_
 _symmetry_equiv_pos_site_id
 _symmetry_equiv_pos_as_xyz
  1  'x, y, z'
loop_
 _atom_site_type_symbol
 _atom_site_label
 _atom_site_symmetry_multiplicity
 _atom_site_fract_x
 _atom_site_fract_y
 _atom_site_fract_z
 _atom_site_occupancy
  K  K0  1  0.66645935  0.66708129  0.75000000  1
  K  K1  1  0.33354065  0.33291871  0.25000000  1
  K  K2  1  0.00000000  0.00000000  0.50000000  1
  K  K3  1  0.00000000  0.00000000  0.00000000  1
  C  C4  1  0.66822118  0.66355765  0.25000000  1
  C  C5  1  0.33177882  0.33644235  0.75000000  1
  O  O6  1  0.21411907  0.20711686  0.70484435  1
  O  O7  1  0.20213162  0.59573675  0.75000000  1
  O  O8  1  0.79786838  0.40426325  0.25000000  1
  O  O9  1  0.78588093  0.79288314  0.29515565  1
  O  O10  1  0.57876406  0.20711686  0.79515565  1
  O  O11  1  0.42123594  0.79288314  0.20484435  1
