# generated using pymatgen
data_NbS2
_symmetry_space_group_name_H-M   'P 1'
_cell_length_a   3.36117833
_cell_length_b   3.36034908
_cell_length_c   39.32896871
_cell_angle_alpha   90.00000000
_cell_angle_beta   90.00000000
_cell_angle_gamma   120.00816347
_symmetry_Int_Tables_number   1
_chemical_formula_structural   NbS2
_chemical_formula_sum   'Nb4 S8'
_cell_volume   384.66565256
_cell_formula_units_Z   4
loop_
 _symmetry_equiv_pos_site_id
 _symmetry_equiv_pos_as_xyz
  1  'x, y, z'
loop_
 _atom_site_type_symbol
 _atom_site_label
 _atom_site_symmetry_multiplicity
 _atom_site_fract_x
 _atom_site_fract_y
 _atom_site_fract_z
 _atom_site_occupancy
  Nb  Nb0  1  0.75825604  0.51651208  0.50193272  1
  Nb  Nb1  1  0.24174396  0.48348792  0.00193272  1
  Nb  Nb2  1  0.09279412  0.18558825  0.33155831  1
  Nb  Nb3  1  0.90720588  0.81441175  0.83155831  1
  S  S4  1  0.42659087  0.85318174  0.37135430  1
  S  S5  1  0.57340913  0.14681826  0.87135430  1
  S  S6  1  0.42585084  0.85170168  0.29171746  1
  S  S7  1  0.09154221  0.18308441  0.46214428  1
  S  S8  1  0.09172926  0.18345852  0.54179293  1
  S  S9  1  0.57414916  0.14829832  0.79171746  1
  S  S10  1  0.90845779  0.81691559  0.96214428  1
  S  S11  1  0.90827074  0.81654148  0.04179293  1
