# generated using pymatgen
data_LiAlSi2HO7
_symmetry_space_group_name_H-M   'P 1'
_cell_length_a   5.01077896
_cell_length_b   7.68636414
_cell_length_c   8.73578743
_cell_angle_alpha   65.00001082
_cell_angle_beta   90.12000406
_cell_angle_gamma   90.35219757
_symmetry_Int_Tables_number   1
_chemical_formula_structural   LiAlSi2HO7
_chemical_formula_sum   'Li2 Al2 Si4 H2 O14'
_cell_volume   304.92689804
_cell_formula_units_Z   2
loop_
 _symmetry_equiv_pos_site_id
 _symmetry_equiv_pos_as_xyz
  1  'x, y, z'
loop_
 _atom_site_type_symbol
 _atom_site_label
 _atom_site_symmetry_multiplicity
 _atom_site_fract_x
 _atom_site_fract_y
 _atom_site_fract_z
 _atom_site_occupancy
  Li  Li0  1  0.86621588  0.82865064  0.40073323  1
  Li  Li1  1  0.37572431  0.11595981  0.78147055  1
  Al  Al2  1  0.37308665  0.86434794  0.19901153  1
  Al  Al3  1  0.85359628  0.89372872  0.71671545  1
  Si  Si4  1  0.35464993  0.02267143  0.47611127  1
  Si  Si5  1  0.87440616  0.05095705  0.99174405  1
  Si  Si6  1  0.41168148  0.44716126  0.20120255  1
  Si  Si7  1  0.91015092  0.46149478  0.98777422  1
  H  H8  1  0.85461556  0.44875330  0.46519033  1
  H  H9  1  0.56811591  0.50485619  0.70925509  1
  O  O10  1  0.02901591  0.92247434  0.16937797  1
  O  O11  1  0.49007645  0.91514732  0.36848919  1
  O  O12  1  0.42185254  0.62255493  0.25562933  1
  O  O13  1  0.55308870  0.00567410  0.01121578  1
  O  O14  1  0.54163459  0.00296715  0.63670372  1
  O  O15  1  0.92847932  0.27859746  0.93924320  1
  O  O16  1  0.30864748  0.25229331  0.35917804  1
  O  O17  1  0.06015269  0.92907599  0.54256547  1
  O  O18  1  0.21094483  0.49842233  0.04013904  1
  O  O19  1  0.99604980  0.01010322  0.83542734  1
  O  O20  1  0.80108567  0.64603875  0.82711576  1
  O  O21  1  0.71108834  0.40515154  0.15036984  1
  O  O22  1  0.85499815  0.53652758  0.52044232  1
  O  O23  1  0.54443244  0.40999087  0.66015474  1
