# generated using pymatgen
data_CsScAs2(HO4)2
_symmetry_space_group_name_H-M   'P 1'
_cell_length_a   5.63040804
_cell_length_b   9.57495799
_cell_length_c   15.29459241
_cell_angle_alpha   90.00000000
_cell_angle_beta   95.86030706
_cell_angle_gamma   90.00000000
_symmetry_Int_Tables_number   1
_chemical_formula_structural   CsScAs2(HO4)2
_chemical_formula_sum   'Cs4 Sc4 As8 H8 O32'
_cell_volume   820.23630636
_cell_formula_units_Z   4
loop_
 _symmetry_equiv_pos_site_id
 _symmetry_equiv_pos_as_xyz
  1  'x, y, z'
loop_
 _atom_site_type_symbol
 _atom_site_label
 _atom_site_symmetry_multiplicity
 _atom_site_fract_x
 _atom_site_fract_y
 _atom_site_fract_z
 _atom_site_occupancy
  Cs  Cs0  1  0.22915192  0.00583962  0.39157024  1
  Cs  Cs1  1  0.77084808  0.50583962  0.10842976  1
  Cs  Cs2  1  0.77084808  0.99416038  0.60842976  1
  Cs  Cs3  1  0.22915192  0.49416038  0.89157024  1
  Sc  Sc4  1  0.75629462  0.96535619  0.15297006  1
  Sc  Sc5  1  0.24370538  0.46535619  0.34702994  1
  Sc  Sc6  1  0.24370538  0.03464381  0.84702994  1
  Sc  Sc7  1  0.75629462  0.53464381  0.65297006  1
  As  As8  1  0.21530408  0.14902690  0.05960538  1
  As  As9  1  0.78469592  0.64902690  0.44039462  1
  As  As10  1  0.78469592  0.85097310  0.94039462  1
  As  As11  1  0.21530408  0.35097310  0.55960538  1
  As  As12  1  0.71912992  0.25102651  0.30868715  1
  As  As13  1  0.28087008  0.75102651  0.19131285  1
  As  As14  1  0.28087008  0.74897349  0.69131285  1
  As  As15  1  0.71912992  0.24897349  0.80868715  1
  O  O16  1  0.92522097  0.11365485  0.07680129  1
  O  O17  1  0.07477903  0.61365485  0.42319871  1
  O  O18  1  0.07477903  0.88634515  0.92319871  1
  O  O19  1  0.92522097  0.38634515  0.57680129  1
  O  O20  1  0.41349832  0.03071300  0.10643016  1
  O  O21  1  0.58650168  0.53071300  0.39356984  1
  O  O22  1  0.58650168  0.96928700  0.89356984  1
  O  O23  1  0.41349832  0.46928700  0.60643016  1
  O  O24  1  0.24241162  0.17808977  0.95147080  1
  O  O25  1  0.75758838  0.67808977  0.54852920  1
  O  O26  1  0.75758838  0.82191023  0.04852920  1
  O  O27  1  0.24241162  0.32191023  0.45147080  1
  O  O28  1  0.28400587  0.31660218  0.10567088  1
  O  O29  1  0.71599413  0.81660218  0.39432912  1
  O  O30  1  0.71599413  0.68339782  0.89432912  1
  O  O31  1  0.28400587  0.18339782  0.60567088  1
  O  O32  1  0.92866036  0.37051176  0.28722100  1
  O  O33  1  0.07133964  0.87051176  0.21277900  1
  O  O34  1  0.07133964  0.62948824  0.71277900  1
  O  O35  1  0.92866036  0.12948824  0.78722100  1
  O  O36  1  0.43324084  0.30634723  0.27701332  1
  O  O37  1  0.56675916  0.80634723  0.22298668  1
  O  O38  1  0.56675916  0.69365277  0.72298668  1
  O  O39  1  0.43324084  0.19365277  0.77701332  1
  O  O40  1  0.77163374  0.09238864  0.26530583  1
  O  O41  1  0.22836626  0.59238864  0.23469417  1
  O  O42  1  0.22836626  0.90761136  0.73469417  1
  O  O43  1  0.77163374  0.40761136  0.76530583  1
  O  O44  1  0.73713868  0.20566742  0.42258568  1
  O  O45  1  0.26286132  0.70566742  0.07741432  1
  O  O46  1  0.26286132  0.79433258  0.57741432  1
  O  O47  1  0.73713868  0.29433258  0.92258568  1
  H  H48  1  0.33059709  0.30773901  0.17130747  1
  H  H49  1  0.66940291  0.80773901  0.32869253  1
  H  H50  1  0.66940291  0.69226099  0.82869253  1
  H  H51  1  0.33059709  0.19226099  0.67130747  1
  H  H52  1  0.74240883  0.29108614  0.45904412  1
  H  H53  1  0.25759117  0.79108614  0.04095588  1
  H  H54  1  0.25759117  0.70891386  0.54095588  1
  H  H55  1  0.74240883  0.20891386  0.95904412  1
