# generated using pymatgen
data_Sr4Al14O25
_symmetry_space_group_name_H-M   'P 1'
_cell_length_a   4.93598712
_cell_length_b   8.57499168
_cell_length_c   25.02219292
_cell_angle_alpha   90.00000000
_cell_angle_beta   90.00000000
_cell_angle_gamma   90.00000000
_symmetry_Int_Tables_number   1
_chemical_formula_structural   Sr4Al14O25
_chemical_formula_sum   'Sr8 Al28 O50'
_cell_volume   1059.09055077
_cell_formula_units_Z   2
loop_
 _symmetry_equiv_pos_site_id
 _symmetry_equiv_pos_as_xyz
  1  'x, y, z'
loop_
 _atom_site_type_symbol
 _atom_site_label
 _atom_site_symmetry_multiplicity
 _atom_site_fract_x
 _atom_site_fract_y
 _atom_site_fract_z
 _atom_site_occupancy
  O  O0  1  0.11064132  0.50000000  0.25000000  1
  O  O1  1  0.88935868  0.50000000  0.75000000  1
  O  O2  1  0.15276402  0.66272133  0.54264584  1
  O  O3  1  0.15276402  0.33727867  0.95735416  1
  O  O4  1  0.84723598  0.66272133  0.45735416  1
  O  O5  1  0.84723598  0.33727867  0.04264584  1
  O  O6  1  0.84723598  0.33727867  0.45735416  1
  O  O7  1  0.84723598  0.66272133  0.04264584  1
  O  O8  1  0.15276402  0.33727867  0.54264584  1
  O  O9  1  0.15276402  0.66272133  0.95735416  1
  O  O10  1  0.57692093  0.00000000  0.33371777  1
  O  O11  1  0.57692093  0.00000000  0.16628223  1
  O  O12  1  0.42307907  0.00000000  0.66628223  1
  O  O13  1  0.42307907  0.00000000  0.83371777  1
  O  O14  1  0.32481331  0.50000000  0.44963396  1
  O  O15  1  0.32481331  0.50000000  0.05036604  1
  O  O16  1  0.67518669  0.50000000  0.55036604  1
  O  O17  1  0.67518669  0.50000000  0.94963396  1
  O  O18  1  0.82876048  0.00000000  0.46117365  1
  O  O19  1  0.82876048  0.00000000  0.03882635  1
  O  O20  1  0.17123952  0.00000000  0.53882635  1
  O  O21  1  0.17123952  0.00000000  0.96117365  1
  O  O22  1  0.47478632  0.23241296  0.25000000  1
  O  O23  1  0.47478632  0.76758704  0.25000000  1
  O  O24  1  0.52521368  0.23241296  0.75000000  1
  O  O25  1  0.52521368  0.76758704  0.75000000  1
  O  O26  1  0.02176357  0.77136494  0.69041143  1
  O  O27  1  0.02176357  0.22863506  0.80958857  1
  O  O28  1  0.97823643  0.77136494  0.30958857  1
  O  O29  1  0.97823643  0.22863506  0.19041143  1
  O  O30  1  0.97823643  0.22863506  0.30958857  1
  O  O31  1  0.97823643  0.77136494  0.19041143  1
  O  O32  1  0.02176357  0.22863506  0.69041143  1
  O  O33  1  0.02176357  0.77136494  0.80958857  1
  O  O34  1  0.49947997  0.67800865  0.63679076  1
  O  O35  1  0.49947997  0.32199135  0.86320924  1
  O  O36  1  0.67707155  0.84077579  0.95696752  1
  O  O37  1  0.67707155  0.15922421  0.54303248  1
  O  O38  1  0.32292845  0.84077579  0.04303248  1
  O  O39  1  0.32292845  0.15922421  0.45696752  1
  O  O40  1  0.32292845  0.15922421  0.04303248  1
  O  O41  1  0.32292845  0.84077579  0.45696752  1
  O  O42  1  0.67707155  0.15922421  0.95696752  1
  O  O43  1  0.67707155  0.84077579  0.54303248  1
  O  O44  1  0.49947997  0.67800865  0.86320924  1
  O  O45  1  0.49947997  0.32199135  0.63679076  1
  O  O46  1  0.50052003  0.67800865  0.13679076  1
  O  O47  1  0.50052003  0.32199135  0.36320924  1
  O  O48  1  0.50052003  0.32199135  0.13679076  1
  O  O49  1  0.50052003  0.67800865  0.36320924  1
  Al  Al50  1  0.00000000  0.50000000  0.50000000  1
  Al  Al51  1  0.00000000  0.50000000  0.00000000  1
  Al  Al52  1  0.50000000  0.00000000  0.50000000  1
  Al  Al53  1  0.50000000  0.00000000  0.00000000  1
  Al  Al54  1  0.00000000  0.83238036  0.50000000  1
  Al  Al55  1  0.00000000  0.16761964  0.00000000  1
  Al  Al56  1  0.00000000  0.16761964  0.50000000  1
  Al  Al57  1  0.00000000  0.83238036  0.00000000  1
  Al  Al58  1  0.12859111  0.29673328  0.25000000  1
  Al  Al59  1  0.12859111  0.70326672  0.25000000  1
  Al  Al60  1  0.87140889  0.29673328  0.75000000  1
  Al  Al61  1  0.87140889  0.70326672  0.75000000  1
  Al  Al62  1  0.49297905  0.67807834  0.56613526  1
  Al  Al63  1  0.49297905  0.32192166  0.93386474  1
  Al  Al64  1  0.50702095  0.67807834  0.43386474  1
  Al  Al65  1  0.50702095  0.32192166  0.06613526  1
  Al  Al66  1  0.50702095  0.32192166  0.43386474  1
  Al  Al67  1  0.50702095  0.67807834  0.06613526  1
  Al  Al68  1  0.49297905  0.32192166  0.56613526  1
  Al  Al69  1  0.49297905  0.67807834  0.93386474  1
  Al  Al70  1  0.37441186  0.80530273  0.68559718  1
  Al  Al71  1  0.37441186  0.19469727  0.81440282  1
  Al  Al72  1  0.62558814  0.80530273  0.31440282  1
  Al  Al73  1  0.62558814  0.19469727  0.18559718  1
  Al  Al74  1  0.62558814  0.19469727  0.31440282  1
  Al  Al75  1  0.62558814  0.80530273  0.18559718  1
  Al  Al76  1  0.37441186  0.19469727  0.68559718  1
  Al  Al77  1  0.37441186  0.80530273  0.81440282  1
  Sr  Sr78  1  0.11299138  0.00000000  0.37958686  1
  Sr  Sr79  1  0.11299138  0.00000000  0.12041314  1
  Sr  Sr80  1  0.88700862  0.00000000  0.62041314  1
  Sr  Sr81  1  0.88700862  0.00000000  0.87958686  1
  Sr  Sr82  1  0.04027346  0.50000000  0.36160642  1
  Sr  Sr83  1  0.04027346  0.50000000  0.13839358  1
  Sr  Sr84  1  0.95972654  0.50000000  0.63839358  1
  Sr  Sr85  1  0.95972654  0.50000000  0.86160642  1
