# generated using pymatgen
data_KSbSe2
_symmetry_space_group_name_H-M   'P 1'
_cell_length_a   6.61188215
_cell_length_b   6.67040336
_cell_length_c   12.50942075
_cell_angle_alpha   99.04301606
_cell_angle_beta   98.22702150
_cell_angle_gamma   102.95649679
_symmetry_Int_Tables_number   1
_chemical_formula_structural   KSbSe2
_chemical_formula_sum   'K4 Sb4 Se8'
_cell_volume   521.78984474
_cell_formula_units_Z   4
loop_
 _symmetry_equiv_pos_site_id
 _symmetry_equiv_pos_as_xyz
  1  'x, y, z'
loop_
 _atom_site_type_symbol
 _atom_site_label
 _atom_site_symmetry_multiplicity
 _atom_site_fract_x
 _atom_site_fract_y
 _atom_site_fract_z
 _atom_site_occupancy
  K  K0  1  0.82691286  0.87532834  0.72511715  1
  K  K1  1  0.68120962  0.35285506  0.90683682  1
  K  K2  1  0.18863514  0.30019431  0.16335713  1
  K  K3  1  0.31370023  0.92233624  0.46831121  1
  Sb  Sb4  1  0.17541881  0.42715074  0.66996041  1
  Sb  Sb5  1  0.75478856  0.83156110  0.22793610  1
  Sb  Sb6  1  0.75005198  0.39698740  0.40616379  1
  Sb  Sb7  1  0.33988474  0.80987389  0.96495513  1
  Se  Se8  1  0.19812693  0.40511254  0.90855074  1
  Se  Se9  1  0.76649269  0.36465526  0.64451676  1
  Se  Se10  1  0.72366590  0.43127381  0.18039622  1
  Se  Se11  1  0.14860583  0.39957478  0.43574382  1
  Se  Se12  1  0.31562398  0.83325678  0.72357614  1
  Se  Se13  1  0.35520650  0.82685700  0.19627177  1
  Se  Se14  1  0.78057998  0.79766436  0.45369215  1
  Se  Se15  1  0.74809625  0.86531838  0.98961467  1
