# generated using pymatgen
data_SnO2
_symmetry_space_group_name_H-M   'P 1'
_cell_length_a   3.24089842
_cell_length_b   4.78800411
_cell_length_c   4.86658198
_cell_angle_alpha   90.00000000
_cell_angle_beta   90.00000000
_cell_angle_gamma   90.00000000
_symmetry_Int_Tables_number   1
_chemical_formula_structural   SnO2
_chemical_formula_sum   'Sn2 O4'
_cell_volume   75.51686933
_cell_formula_units_Z   2
loop_
 _symmetry_equiv_pos_site_id
 _symmetry_equiv_pos_as_xyz
  1  'x, y, z'
loop_
 _atom_site_type_symbol
 _atom_site_label
 _atom_site_symmetry_multiplicity
 _atom_site_fract_x
 _atom_site_fract_y
 _atom_site_fract_z
 _atom_site_occupancy
  O  O0  1  0.00000000  0.29185493  0.32104154  1
  O  O1  1  0.50000000  0.79185493  0.17895846  1
  O  O2  1  0.50000000  0.20814507  0.82104154  1
  O  O3  1  0.00000000  0.70814507  0.67895846  1
  Sn  Sn4  1  0.50000000  0.50000000  0.50000000  1
  Sn  Sn5  1  0.00000000  0.00000000  0.00000000  1
