# generated using pymatgen
data_Ba2Ni3F10
_symmetry_space_group_name_H-M   'P 1'
_cell_length_a   6.02853727
_cell_length_b   7.94789777
_cell_length_c   9.85644983
_cell_angle_alpha   110.70033486
_cell_angle_beta   107.80731553
_cell_angle_gamma   90.00000003
_symmetry_Int_Tables_number   1
_chemical_formula_structural   Ba2Ni3F10
_chemical_formula_sum   'Ba4 Ni6 F20'
_cell_volume   417.50043157
_cell_formula_units_Z   2
loop_
 _symmetry_equiv_pos_site_id
 _symmetry_equiv_pos_as_xyz
  1  'x, y, z'
loop_
 _atom_site_type_symbol
 _atom_site_label
 _atom_site_symmetry_multiplicity
 _atom_site_fract_x
 _atom_site_fract_y
 _atom_site_fract_z
 _atom_site_occupancy
  F  F0  1  0.50000000  0.50000000  0.50000000  1
  F  F1  1  0.00000000  0.50000000  0.50000000  1
  F  F2  1  0.72539195  0.00000000  0.00000000  1
  F  F3  1  0.27460805  0.00000000  0.00000000  1
  F  F4  1  0.26328180  0.21953938  0.52656361  1
  F  F5  1  0.73671820  0.78046062  0.47343639  1
  F  F6  1  0.01741867  0.68181947  0.03483734  1
  F  F7  1  0.98258133  0.31818053  0.96516266  1
  F  F8  1  0.36590950  0.75677515  0.73181900  1
  F  F9  1  0.63409050  0.24322485  0.26818100  1
  F  F10  1  0.12940294  0.47329014  0.77657682  1
  F  F11  1  0.35282612  0.52670986  0.22342318  1
  F  F12  1  0.87059706  0.52670986  0.22342318  1
  F  F13  1  0.64717388  0.47329014  0.77657682  1
  F  F14  1  0.88836697  0.97571746  0.29952091  1
  F  F15  1  0.58884605  0.02428254  0.70047909  1
  F  F16  1  0.11163303  0.02428254  0.70047909  1
  F  F17  1  0.41115395  0.97571746  0.29952091  1
  F  F18  1  0.52123379  0.68399229  0.04246759  1
  F  F19  1  0.47876621  0.31600771  0.95753241  1
  Ni  Ni20  1  0.24679791  0.50000000  0.00000000  1
  Ni  Ni21  1  0.75320209  0.50000000  0.00000000  1
  Ni  Ni22  1  0.32263560  0.48312412  0.64527120  1
  Ni  Ni23  1  0.67736440  0.51687588  0.35472880  1
  Ni  Ni24  1  0.42545004  0.04058816  0.85090008  1
  Ni  Ni25  1  0.57454996  0.95941184  0.14909992  1
  Ba  Ba26  1  0.21690947  0.81329006  0.43381893  1
  Ba  Ba27  1  0.78309053  0.18670994  0.56618107  1
  Ba  Ba28  1  0.11462254  0.22093636  0.22924508  1
  Ba  Ba29  1  0.88537746  0.77906364  0.77075492  1
