# generated using pymatgen
data_CuSb2H12(O3F4)2
_symmetry_space_group_name_H-M   'P 1'
_cell_length_a   5.08999643
_cell_length_b   7.15516750
_cell_length_c   18.12664512
_cell_angle_alpha   90.00000000
_cell_angle_beta   90.00000000
_cell_angle_gamma   101.67855600
_symmetry_Int_Tables_number   1
_chemical_formula_structural   CuSb2H12(O3F4)2
_chemical_formula_sum   'Cu2 Sb4 H24 O12 F16'
_cell_volume   646.50198969
_cell_formula_units_Z   2
loop_
 _symmetry_equiv_pos_site_id
 _symmetry_equiv_pos_as_xyz
  1  'x, y, z'
loop_
 _atom_site_type_symbol
 _atom_site_label
 _atom_site_symmetry_multiplicity
 _atom_site_fract_x
 _atom_site_fract_y
 _atom_site_fract_z
 _atom_site_occupancy
  Cu  Cu0  1  0.00000000  0.50000000  0.00000000  1
  Cu  Cu1  1  0.50000000  0.00000000  0.50000000  1
  Sb  Sb2  1  0.11446420  0.99110702  0.78212872  1
  Sb  Sb3  1  0.88553580  0.00889298  0.21787128  1
  Sb  Sb4  1  0.38553580  0.50889298  0.28212872  1
  Sb  Sb5  1  0.61446420  0.49110702  0.71787128  1
  H  H6  1  0.79953905  0.02903559  0.61701717  1
  H  H7  1  0.35145444  0.34307553  0.56008574  1
  H  H8  1  0.93473046  0.17577099  0.55532996  1
  H  H9  1  0.25063939  0.32918348  0.47824755  1
  H  H10  1  0.38053565  0.71586139  0.58868117  1
  H  H11  1  0.68707376  0.35745838  0.88785778  1
  H  H12  1  0.88053565  0.21586139  0.91131883  1
  H  H13  1  0.75063939  0.82918348  0.02175245  1
  H  H14  1  0.74936061  0.67081652  0.52175245  1
  H  H15  1  0.56526954  0.32422901  0.05532996  1
  H  H16  1  0.06526954  0.82422901  0.44467004  1
  H  H17  1  0.85145444  0.84307553  0.93991426  1
  H  H18  1  0.70046095  0.47096441  0.11701717  1
  H  H19  1  0.11946435  0.78413861  0.08868117  1
  H  H20  1  0.43473046  0.67577099  0.94467004  1
  H  H21  1  0.24936061  0.17081652  0.97824755  1
  H  H22  1  0.64854556  0.65692447  0.43991426  1
  H  H23  1  0.81292624  0.14254162  0.38785778  1
  H  H24  1  0.14854556  0.15692447  0.06008574  1
  H  H25  1  0.29953905  0.52903559  0.88298283  1
  H  H26  1  0.20046095  0.97096441  0.38298283  1
  H  H27  1  0.31292624  0.64254162  0.11214222  1
  H  H28  1  0.61946435  0.28413861  0.41131883  1
  H  H29  1  0.18707376  0.85745838  0.61214222  1
  O  O30  1  0.28278334  0.81315630  0.56980622  1
  O  O31  1  0.73816110  0.75707948  0.97513667  1
  O  O32  1  0.71721666  0.18684370  0.43019378  1
  O  O33  1  0.23816110  0.25707948  0.52486333  1
  O  O34  1  0.74416560  0.38587627  0.07771940  1
  O  O35  1  0.26183890  0.24292052  0.02486333  1
  O  O36  1  0.21721666  0.68684370  0.06980622  1
  O  O37  1  0.76183890  0.74292052  0.47513667  1
  O  O38  1  0.24416560  0.88587627  0.42228060  1
  O  O39  1  0.78278334  0.31315630  0.93019378  1
  O  O40  1  0.25583440  0.61412373  0.92228060  1
  O  O41  1  0.75583440  0.11412373  0.57771940  1
  F  F42  1  0.43042838  0.44898890  0.39869463  1
  F  F43  1  0.56957162  0.55101110  0.60130537  1
  F  F44  1  0.83337926  0.76623527  0.81043089  1
  F  F45  1  0.96835468  0.90122558  0.67567620  1
  F  F46  1  0.65542106  0.34922182  0.27550906  1
  F  F47  1  0.15542106  0.84922182  0.22449094  1
  F  F48  1  0.34457894  0.65077818  0.72449094  1
  F  F49  1  0.84457894  0.15077818  0.77550906  1
  F  F50  1  0.66662074  0.73376473  0.31043089  1
  F  F51  1  0.93042838  0.94898890  0.10130537  1
  F  F52  1  0.16662074  0.23376473  0.18956911  1
  F  F53  1  0.03164532  0.09877442  0.32432380  1
  F  F54  1  0.53164532  0.59877442  0.17567620  1
  F  F55  1  0.46835468  0.40122558  0.82432380  1
  F  F56  1  0.33337926  0.26623527  0.68956911  1
  F  F57  1  0.06957162  0.05101110  0.89869463  1
