# generated using pymatgen
data_KUNbO6
_symmetry_space_group_name_H-M   'P 1'
_cell_length_a   7.63426297
_cell_length_b   10.47445333
_cell_length_c   13.63424891
_cell_angle_alpha   90.00000000
_cell_angle_beta   90.00000000
_cell_angle_gamma   90.00000000
_symmetry_Int_Tables_number   1
_chemical_formula_structural   KUNbO6
_chemical_formula_sum   'K8 U8 Nb8 O48'
_cell_volume   1090.25904904
_cell_formula_units_Z   8
loop_
 _symmetry_equiv_pos_site_id
 _symmetry_equiv_pos_as_xyz
  1  'x, y, z'
loop_
 _atom_site_type_symbol
 _atom_site_label
 _atom_site_symmetry_multiplicity
 _atom_site_fract_x
 _atom_site_fract_y
 _atom_site_fract_z
 _atom_site_occupancy
  K  K0  1  0.99223264  0.85607959  0.05895159  1
  K  K1  1  0.50776736  0.35607959  0.44104841  1
  K  K2  1  0.00776736  0.14392041  0.94104841  1
  K  K3  1  0.99223264  0.35607959  0.44104841  1
  K  K4  1  0.49223264  0.14392041  0.94104841  1
  K  K5  1  0.49223264  0.64392041  0.55895159  1
  K  K6  1  0.00776736  0.64392041  0.55895159  1
  K  K7  1  0.50776736  0.85607959  0.05895159  1
  U  U8  1  0.75000000  0.35359172  0.72496506  1
  U  U9  1  0.75000000  0.85359172  0.77503494  1
  U  U10  1  0.75000000  0.68433987  0.29812509  1
  U  U11  1  0.25000000  0.64640828  0.27503494  1
  U  U12  1  0.25000000  0.14640828  0.22496506  1
  U  U13  1  0.75000000  0.18433987  0.20187491  1
  U  U14  1  0.25000000  0.31566013  0.70187491  1
  U  U15  1  0.25000000  0.81566013  0.79812509  1
  Nb  Nb16  1  0.50048804  0.95100879  0.39181723  1
  Nb  Nb17  1  0.99951196  0.45100879  0.10818277  1
  Nb  Nb18  1  0.99951196  0.95100879  0.39181723  1
  Nb  Nb19  1  0.00048804  0.54899121  0.89181723  1
  Nb  Nb20  1  0.00048804  0.04899121  0.60818277  1
  Nb  Nb21  1  0.49951196  0.04899121  0.60818277  1
  Nb  Nb22  1  0.49951196  0.54899121  0.89181723  1
  Nb  Nb23  1  0.50048804  0.45100879  0.10818277  1
  O  O24  1  0.75000000  0.58787092  0.41335448  1
  O  O25  1  0.96627408  0.06036327  0.26910643  1
  O  O26  1  0.53123122  0.23273821  0.65826751  1
  O  O27  1  0.75000000  0.95399854  0.88762848  1
  O  O28  1  0.75000000  0.78319152  0.18654971  1
  O  O29  1  0.75000000  0.89302697  0.38341770  1
  O  O30  1  0.25000000  0.98102051  0.35525649  1
  O  O31  1  0.75000000  0.24702148  0.83227869  1
  O  O32  1  0.05082114  0.89348649  0.52739660  1
  O  O33  1  0.75000000  0.28319152  0.31345029  1
  O  O34  1  0.96876878  0.73273821  0.84173249  1
  O  O35  1  0.25000000  0.04600146  0.11237152  1
  O  O36  1  0.03372592  0.43963673  0.76910643  1
  O  O37  1  0.25000000  0.71680848  0.68654971  1
  O  O38  1  0.25000000  0.25297852  0.33227869  1
  O  O39  1  0.94917886  0.10651351  0.47260340  1
  O  O40  1  0.75000000  0.51897949  0.85525649  1
  O  O41  1  0.53123122  0.73273821  0.84173249  1
  O  O42  1  0.55082114  0.60651351  0.02739660  1
  O  O43  1  0.25000000  0.41212908  0.58664552  1
  O  O44  1  0.75000000  0.74702148  0.66772131  1
  O  O45  1  0.25000000  0.54600146  0.38762848  1
  O  O46  1  0.25000000  0.21680848  0.81345029  1
  O  O47  1  0.46627408  0.43963673  0.76910643  1
  O  O48  1  0.25000000  0.91212908  0.91335448  1
  O  O49  1  0.53372592  0.06036327  0.26910643  1
  O  O50  1  0.55082114  0.10651351  0.47260340  1
  O  O51  1  0.03123122  0.26726179  0.15826751  1
  O  O52  1  0.96627408  0.56036327  0.23089357  1
  O  O53  1  0.03123122  0.76726179  0.34173249  1
  O  O54  1  0.96876878  0.23273821  0.65826751  1
  O  O55  1  0.46876878  0.26726179  0.15826751  1
  O  O56  1  0.03372592  0.93963673  0.73089357  1
  O  O57  1  0.75000000  0.01897949  0.64474351  1
  O  O58  1  0.44917886  0.39348649  0.97260340  1
  O  O59  1  0.25000000  0.75297852  0.16772131  1
  O  O60  1  0.75000000  0.39302697  0.11658230  1
  O  O61  1  0.75000000  0.08787092  0.08664552  1
  O  O62  1  0.25000000  0.60697303  0.88341770  1
  O  O63  1  0.94917886  0.60651351  0.02739660  1
  O  O64  1  0.25000000  0.48102051  0.14474351  1
  O  O65  1  0.44917886  0.89348649  0.52739660  1
  O  O66  1  0.75000000  0.45399854  0.61237152  1
  O  O67  1  0.46627408  0.93963673  0.73089357  1
  O  O68  1  0.25000000  0.10697303  0.61658230  1
  O  O69  1  0.05082114  0.39348649  0.97260340  1
  O  O70  1  0.46876878  0.76726179  0.34173249  1
  O  O71  1  0.53372592  0.56036327  0.23089357  1
