# generated using pymatgen
data_SiP2O7
_symmetry_space_group_name_H-M   'P 1'
_cell_length_a   4.80639601
_cell_length_b   4.80639638
_cell_length_c   12.10629701
_cell_angle_alpha   90.00000000
_cell_angle_beta   90.00000000
_cell_angle_gamma   119.99999751
_symmetry_Int_Tables_number   1
_chemical_formula_structural   SiP2O7
_chemical_formula_sum   'Si2 P4 O14'
_cell_volume   242.20388298
_cell_formula_units_Z   2
loop_
 _symmetry_equiv_pos_site_id
 _symmetry_equiv_pos_as_xyz
  1  'x, y, z'
loop_
 _atom_site_type_symbol
 _atom_site_label
 _atom_site_symmetry_multiplicity
 _atom_site_fract_x
 _atom_site_fract_y
 _atom_site_fract_z
 _atom_site_occupancy
  Si  Si0  1  0.00000000  0.00000000  0.01041002  1
  Si  Si1  1  0.00000000  0.00000000  0.51041002  1
  P  P2  1  0.33333300  0.66666700  0.89046173  1
  P  P3  1  0.66666700  0.33333300  0.13030203  1
  P  P4  1  0.66666700  0.33333300  0.39046173  1
  P  P5  1  0.33333300  0.66666700  0.63030203  1
  O  O6  1  0.92575413  0.25557244  0.09676349  1
  O  O7  1  0.74442756  0.67018168  0.09676349  1
  O  O8  1  0.07424587  0.74442756  0.59676349  1
  O  O9  1  0.25560420  0.32984669  0.92404064  1
  O  O10  1  0.33333300  0.66666700  0.76041385  1
  O  O11  1  0.67018168  0.92575413  0.59676349  1
  O  O12  1  0.74439580  0.67015331  0.42404064  1
  O  O13  1  0.67015331  0.92575751  0.92404064  1
  O  O14  1  0.32981832  0.07424587  0.09676349  1
  O  O15  1  0.25557244  0.32981832  0.59676349  1
  O  O16  1  0.92575751  0.25560420  0.42404064  1
  O  O17  1  0.32984669  0.07424249  0.42404064  1
  O  O18  1  0.07424249  0.74439580  0.92404064  1
  O  O19  1  0.66666700  0.33333300  0.26041385  1
