# generated using pymatgen
data_CaZr4O9
_symmetry_space_group_name_H-M   'P 1'
_cell_length_a   11.63307665
_cell_length_b   11.63307670
_cell_length_c   12.19523889
_cell_angle_alpha   67.83947992
_cell_angle_beta   67.83947980
_cell_angle_gamma   79.06952747
_symmetry_Int_Tables_number   1
_chemical_formula_structural   CaZr4O9
_chemical_formula_sum   'Ca8 Zr32 O72'
_cell_volume   1413.38895294
_cell_formula_units_Z   8
loop_
 _symmetry_equiv_pos_site_id
 _symmetry_equiv_pos_as_xyz
  1  'x, y, z'
loop_
 _atom_site_type_symbol
 _atom_site_label
 _atom_site_symmetry_multiplicity
 _atom_site_fract_x
 _atom_site_fract_y
 _atom_site_fract_z
 _atom_site_occupancy
  Ca  Ca0  1  0.93633010  0.06366990  0.75000000  1
  Ca  Ca1  1  0.56303982  0.43696018  0.25000000  1
  Ca  Ca2  1  0.43696018  0.56303982  0.75000000  1
  Ca  Ca3  1  0.51160100  0.88648244  0.64998398  1
  Ca  Ca4  1  0.06366990  0.93633010  0.25000000  1
  Ca  Ca5  1  0.11351756  0.48839900  0.85001602  1
  Ca  Ca6  1  0.48839900  0.11351756  0.35001602  1
  Ca  Ca7  1  0.88648244  0.51160100  0.14998398  1
  Zr  Zr8  1  0.25541165  0.11598001  0.65107923  1
  Zr  Zr9  1  0.25169565  0.35844015  0.38002092  1
  Zr  Zr10  1  0.62247933  0.00763972  0.82298405  1
  Zr  Zr11  1  0.21093179  0.58114586  0.05089731  1
  Zr  Zr12  1  0.64155985  0.74830435  0.11997908  1
  Zr  Zr13  1  0.81409233  0.18590767  0.25000000  1
  Zr  Zr14  1  0.33386222  0.48584813  0.55012290  1
  Zr  Zr15  1  0.58114586  0.21093179  0.55089731  1
  Zr  Zr16  1  0.48584813  0.33386222  0.05012290  1
  Zr  Zr17  1  0.11598001  0.25541165  0.15107923  1
  Zr  Zr18  1  0.66613778  0.51415187  0.44987710  1
  Zr  Zr19  1  0.31251678  0.68748322  0.25000000  1
  Zr  Zr20  1  0.35844015  0.25169565  0.88002092  1
  Zr  Zr21  1  0.69622709  0.06479234  0.05042073  1
  Zr  Zr22  1  0.00763972  0.62247933  0.32298405  1
  Zr  Zr23  1  0.06479234  0.69622709  0.55042073  1
  Zr  Zr24  1  0.74458835  0.88401999  0.34892077  1
  Zr  Zr25  1  0.74830435  0.64155985  0.61997908  1
  Zr  Zr26  1  0.93539894  0.84838704  0.06558343  1
  Zr  Zr27  1  0.41885414  0.78906821  0.44910269  1
  Zr  Zr28  1  0.06460106  0.15161296  0.93441657  1
  Zr  Zr29  1  0.37752067  0.99236028  0.17701595  1
  Zr  Zr30  1  0.78906821  0.41885414  0.94910269  1
  Zr  Zr31  1  0.18590767  0.81409233  0.75000000  1
  Zr  Zr32  1  0.15161296  0.06460106  0.43441657  1
  Zr  Zr33  1  0.51415187  0.66613778  0.94987710  1
  Zr  Zr34  1  0.84838704  0.93539894  0.56558343  1
  Zr  Zr35  1  0.88401999  0.74458835  0.84892077  1
  Zr  Zr36  1  0.99236028  0.37752067  0.67701595  1
  Zr  Zr37  1  0.30377291  0.93520766  0.94957927  1
  Zr  Zr38  1  0.68748322  0.31251678  0.75000000  1
  Zr  Zr39  1  0.93520766  0.30377291  0.44957927  1
  O  O40  1  0.72710329  0.68208113  0.44145564  1
  O  O41  1  0.13116995  0.26356468  0.32853742  1
  O  O42  1  0.96066359  0.32378598  0.87704874  1
  O  O43  1  0.95465050  0.10526773  0.52265306  1
  O  O44  1  0.19455046  0.54349790  0.24553514  1
  O  O45  1  0.44709080  0.09730889  0.57919337  1
  O  O46  1  0.04534950  0.89473227  0.47734694  1
  O  O47  1  0.50482602  0.11731024  0.14435592  1
  O  O48  1  0.73643532  0.86883005  0.17146258  1
  O  O49  1  0.57732437  0.67317819  0.76232627  1
  O  O50  1  0.27814675  0.87779535  0.15118869  1
  O  O51  1  0.35150904  0.50737277  0.36213400  1
  O  O52  1  0.63811598  0.22105862  0.36757997  1
  O  O53  1  0.28009807  0.92611615  0.78575321  1
  O  O54  1  0.67621402  0.03933641  0.62295126  1
  O  O55  1  0.54349790  0.19455046  0.74553514  1
  O  O56  1  0.18878901  0.07435237  0.24054697  1
  O  O57  1  0.26356468  0.13116995  0.82853742  1
  O  O58  1  0.92564763  0.81121099  0.25945303  1
  O  O59  1  0.31791887  0.27289671  0.05854436  1
  O  O60  1  0.86883005  0.73643532  0.67146258  1
  O  O61  1  0.14752863  0.99394669  0.62848483  1
  O  O62  1  0.27643501  0.16293559  0.45514756  1
  O  O63  1  0.09730889  0.44709080  0.07919337  1
  O  O64  1  0.80544954  0.45650210  0.75446486  1
  O  O65  1  0.99394669  0.14752863  0.12848483  1
  O  O66  1  0.93819057  0.60348260  0.52319910  1
  O  O67  1  0.89473227  0.04534950  0.97734694  1
  O  O68  1  0.49517398  0.88268976  0.85564408  1
  O  O69  1  0.73132185  0.31775263  0.52397325  1
  O  O70  1  0.51584740  0.39435156  0.49026292  1
  O  O71  1  0.32682181  0.42267563  0.73767373  1
  O  O72  1  0.03933641  0.67621402  0.12295126  1
  O  O73  1  0.36188402  0.77894138  0.63242003  1
  O  O74  1  0.31775263  0.73132185  0.02397325  1
  O  O75  1  0.83706441  0.72356499  0.04485244  1
  O  O76  1  0.90269111  0.55290920  0.92080663  1
  O  O77  1  0.71990193  0.07388385  0.21424679  1
  O  O78  1  0.45650210  0.80544954  0.25446486  1
  O  O79  1  0.27289671  0.31791887  0.55854436  1
  O  O80  1  0.48415260  0.60564844  0.50973708  1
  O  O81  1  0.42267563  0.32682181  0.23767373  1
  O  O82  1  0.60564844  0.48415260  0.00973708  1
  O  O83  1  0.72185325  0.12220465  0.84881131  1
  O  O84  1  0.68208113  0.72710329  0.94145564  1
  O  O85  1  0.64849096  0.49262723  0.63786600  1
  O  O86  1  0.85247137  0.00605331  0.37151517  1
  O  O87  1  0.67317819  0.57732437  0.26232627  1
  O  O88  1  0.81121099  0.92564763  0.75945303  1
  O  O89  1  0.16293559  0.27643501  0.95514756  1
  O  O90  1  0.55290920  0.90269111  0.42080663  1
  O  O91  1  0.87779535  0.27814675  0.65118869  1
  O  O92  1  0.72356499  0.83706441  0.54485244  1
  O  O93  1  0.50737277  0.35150904  0.86213400  1
  O  O94  1  0.11731024  0.50482602  0.64435592  1
  O  O95  1  0.39435156  0.51584740  0.99026292  1
  O  O96  1  0.00605331  0.85247137  0.87151517  1
  O  O97  1  0.22105862  0.63811598  0.86757997  1
  O  O98  1  0.77894138  0.36188402  0.13242003  1
  O  O99  1  0.07388385  0.71990193  0.71424679  1
  O  O100  1  0.26867815  0.68224737  0.47602675  1
  O  O101  1  0.06180943  0.39651740  0.47680090  1
  O  O102  1  0.49262723  0.64849096  0.13786600  1
  O  O103  1  0.60348260  0.93819057  0.02319910  1
  O  O104  1  0.32378598  0.96066359  0.37704874  1
  O  O105  1  0.88268976  0.49517398  0.35564408  1
  O  O106  1  0.10526773  0.95465050  0.02265306  1
  O  O107  1  0.92611615  0.28009807  0.28575321  1
  O  O108  1  0.12220465  0.72185325  0.34881131  1
  O  O109  1  0.39651740  0.06180943  0.97680090  1
  O  O110  1  0.68224737  0.26867815  0.97602675  1
  O  O111  1  0.07435237  0.18878901  0.74054697  1
