# generated using pymatgen
data_KTeHOF4
_symmetry_space_group_name_H-M   'P 1'
_cell_length_a   5.04108242
_cell_length_b   6.93790615
_cell_length_c   7.90542208
_cell_angle_alpha   90.00000000
_cell_angle_beta   106.46689853
_cell_angle_gamma   90.00000000
_symmetry_Int_Tables_number   1
_chemical_formula_structural   KTeHOF4
_chemical_formula_sum   'K2 Te2 H2 O2 F8'
_cell_volume   265.14808063
_cell_formula_units_Z   2
loop_
 _symmetry_equiv_pos_site_id
 _symmetry_equiv_pos_as_xyz
  1  'x, y, z'
loop_
 _atom_site_type_symbol
 _atom_site_label
 _atom_site_symmetry_multiplicity
 _atom_site_fract_x
 _atom_site_fract_y
 _atom_site_fract_z
 _atom_site_occupancy
  K  K0  1  0.36950797  0.10412427  0.70778117  1
  K  K1  1  0.63049203  0.60412427  0.29221883  1
  Te  Te2  1  0.05872212  0.12857218  0.18064900  1
  Te  Te3  1  0.94127788  0.62857218  0.81935100  1
  H  H4  1  0.24730083  0.60901088  0.62606455  1
  H  H5  1  0.75269917  0.10901088  0.37393545  1
  O  O6  1  0.05218323  0.65265602  0.60646875  1
  O  O7  1  0.94781677  0.15265602  0.39353125  1
  F  F8  1  0.07035183  0.35005051  0.82554823  1
  F  F9  1  0.33252733  0.71133177  0.94278861  1
  F  F10  1  0.57020360  0.54728877  0.63437683  1
  F  F11  1  0.42979640  0.04728877  0.36562317  1
  F  F12  1  0.15769465  0.41196561  0.22865956  1
  F  F13  1  0.92964817  0.85005051  0.17445177  1
  F  F14  1  0.84230535  0.91196561  0.77134044  1
  F  F15  1  0.66747267  0.21133177  0.05721139  1
