# generated using pymatgen
data_Hg3AsS4Br
_symmetry_space_group_name_H-M   'P 1'
_cell_length_a   7.58720951
_cell_length_b   7.58720975
_cell_length_c   10.06009224
_cell_angle_alpha   90.00000000
_cell_angle_beta   90.00000000
_cell_angle_gamma   119.99999901
_symmetry_Int_Tables_number   1
_chemical_formula_structural   Hg3AsS4Br
_chemical_formula_sum   'Hg6 As2 S8 Br2'
_cell_volume   501.52982599
_cell_formula_units_Z   2
loop_
 _symmetry_equiv_pos_site_id
 _symmetry_equiv_pos_as_xyz
  1  'x, y, z'
loop_
 _atom_site_type_symbol
 _atom_site_label
 _atom_site_symmetry_multiplicity
 _atom_site_fract_x
 _atom_site_fract_y
 _atom_site_fract_z
 _atom_site_occupancy
  Hg  Hg0  1  0.49738888  0.99477775  0.24259065  1
  Hg  Hg1  1  0.99477775  0.49738888  0.74259065  1
  Hg  Hg2  1  0.00522225  0.50261112  0.24259065  1
  Hg  Hg3  1  0.50261112  0.49738888  0.74259065  1
  Hg  Hg4  1  0.50261112  0.00522225  0.74259065  1
  Hg  Hg5  1  0.49738888  0.50261112  0.24259065  1
  As  As6  1  0.00000000  0.00000000  0.73436674  1
  As  As7  1  0.00000000  0.00000000  0.23436674  1
  S  S8  1  0.70149675  0.85074838  0.85476352  1
  S  S9  1  0.66666700  0.33333300  0.61731510  1
  S  S10  1  0.85074838  0.14925162  0.35476352  1
  S  S11  1  0.14925162  0.29850325  0.85476352  1
  S  S12  1  0.29850325  0.14925162  0.35476352  1
  S  S13  1  0.85074838  0.70149675  0.35476352  1
  S  S14  1  0.14925162  0.85074838  0.85476352  1
  S  S15  1  0.33333300  0.66666700  0.11731510  1
  Br  Br16  1  0.66666700  0.33333300  0.03625565  1
  Br  Br17  1  0.33333300  0.66666700  0.53625565  1
