# generated using pymatgen
data_BaNaFe2F9
_symmetry_space_group_name_H-M   'P 1'
_cell_length_a   5.58282237
_cell_length_b   7.44508326
_cell_length_c   17.76703514
_cell_angle_alpha   90.00000000
_cell_angle_beta   90.00000000
_cell_angle_gamma   92.29455421
_symmetry_Int_Tables_number   1
_chemical_formula_structural   BaNaFe2F9
_chemical_formula_sum   'Ba4 Na4 Fe8 F36'
_cell_volume   737.88719785
_cell_formula_units_Z   4
loop_
 _symmetry_equiv_pos_site_id
 _symmetry_equiv_pos_as_xyz
  1  'x, y, z'
loop_
 _atom_site_type_symbol
 _atom_site_label
 _atom_site_symmetry_multiplicity
 _atom_site_fract_x
 _atom_site_fract_y
 _atom_site_fract_z
 _atom_site_occupancy
  F  F0  1  0.07865578  0.90415384  0.06832850  1
  F  F1  1  0.42134422  0.59584616  0.56832850  1
  F  F2  1  0.92134422  0.09584616  0.93167150  1
  F  F3  1  0.57865578  0.40415384  0.43167150  1
  F  F4  1  0.32122094  0.93120986  0.20687107  1
  F  F5  1  0.17877906  0.56879014  0.70687107  1
  F  F6  1  0.67877906  0.06879014  0.79312893  1
  F  F7  1  0.82122094  0.43120986  0.29312893  1
  F  F8  1  0.74399804  0.73984347  0.46888009  1
  F  F9  1  0.75600196  0.76015653  0.96888009  1
  F  F10  1  0.25600196  0.26015653  0.53111991  1
  F  F11  1  0.24399804  0.23984347  0.03111991  1
  F  F12  1  0.50296372  0.69743478  0.33423655  1
  F  F13  1  0.99703628  0.80256522  0.83423655  1
  F  F14  1  0.49703628  0.30256522  0.66576345  1
  F  F15  1  0.00296372  0.19743478  0.16576345  1
  F  F16  1  0.95502835  0.14153539  0.41912990  1
  F  F17  1  0.54497165  0.35846461  0.91912990  1
  F  F18  1  0.04497165  0.85846461  0.58087010  1
  F  F19  1  0.45502835  0.64153539  0.08087010  1
  F  F20  1  0.41262878  0.99738855  0.92364962  1
  F  F21  1  0.08737122  0.50261145  0.42364962  1
  F  F22  1  0.58737122  0.00261145  0.07635038  1
  F  F23  1  0.91262878  0.49738855  0.57635038  1
  F  F24  1  0.29314158  0.28553170  0.31193747  1
  F  F25  1  0.20685842  0.21446830  0.81193747  1
  F  F26  1  0.70685842  0.71446830  0.68806253  1
  F  F27  1  0.79314158  0.78553170  0.18806253  1
  F  F28  1  0.06373951  0.44511899  0.91712074  1
  F  F29  1  0.43626049  0.05488101  0.41712074  1
  F  F30  1  0.93626049  0.55488101  0.08287926  1
  F  F31  1  0.56373951  0.94511899  0.58287926  1
  F  F32  1  0.48629221  0.27646422  0.16451609  1
  F  F33  1  0.01370779  0.22353578  0.66451609  1
  F  F34  1  0.51370779  0.72353578  0.83548391  1
  F  F35  1  0.98629221  0.77646422  0.33548391  1
  Na  Na36  1  0.76322464  0.29700879  0.03718901  1
  Na  Na37  1  0.73677536  0.20299121  0.53718901  1
  Na  Na38  1  0.26322464  0.79700879  0.46281099  1
  Na  Na39  1  0.23677536  0.70299121  0.96281099  1
  Fe  Fe40  1  0.25709303  0.27012395  0.41867534  1
  Fe  Fe41  1  0.72226734  0.91027299  0.87670643  1
  Fe  Fe42  1  0.27773266  0.08972701  0.12329357  1
  Fe  Fe43  1  0.22226734  0.41027299  0.62329357  1
  Fe  Fe44  1  0.75709303  0.77012395  0.08132466  1
  Fe  Fe45  1  0.74290697  0.72987605  0.58132466  1
  Fe  Fe46  1  0.77773266  0.58972701  0.37670643  1
  Fe  Fe47  1  0.24290697  0.22987605  0.91867534  1
  Ba  Ba48  1  0.71682175  0.06394011  0.28620953  1
  Ba  Ba49  1  0.78317825  0.43605989  0.78620953  1
  Ba  Ba50  1  0.28317825  0.93605989  0.71379047  1
  Ba  Ba51  1  0.21682175  0.56394011  0.21379047  1
