# generated using pymatgen
data_ZnS
_symmetry_space_group_name_H-M   'P 1'
_cell_length_a   12.78076153
_cell_length_b   12.78076167
_cell_length_c   12.78076190
_cell_angle_alpha   17.31869226
_cell_angle_beta   17.31869031
_cell_angle_gamma   17.31869318
_symmetry_Int_Tables_number   1
_chemical_formula_structural   ZnS
_chemical_formula_sum   'Zn4 S4'
_cell_volume   161.44041285
_cell_formula_units_Z   4
loop_
 _symmetry_equiv_pos_site_id
 _symmetry_equiv_pos_as_xyz
  1  'x, y, z'
loop_
 _atom_site_type_symbol
 _atom_site_label
 _atom_site_symmetry_multiplicity
 _atom_site_fract_x
 _atom_site_fract_y
 _atom_site_fract_z
 _atom_site_occupancy
  Zn  Zn0  1  0.41665634  0.41665634  0.41665634  1
  Zn  Zn1  1  0.00003279  0.00003279  0.00003279  1
  Zn  Zn2  1  0.58337269  0.58337269  0.58337269  1
  Zn  Zn3  1  0.83332188  0.83332188  0.83332188  1
  S  S4  1  0.64591376  0.64591376  0.64591376  1
  S  S5  1  0.89584225  0.89584225  0.89584225  1
  S  S6  1  0.47912074  0.47912074  0.47912074  1
  S  S7  1  0.06250554  0.06250554  0.06250554  1
