# generated using pymatgen
data_BaNb6O17
_symmetry_space_group_name_H-M   'P 1'
_cell_length_a   3.86284607
_cell_length_b   8.85412170
_cell_length_c   11.70129179
_cell_angle_alpha   112.23086767
_cell_angle_beta   99.50076106
_cell_angle_gamma   90.00000000
_symmetry_Int_Tables_number   1
_chemical_formula_structural   BaNb6O17
_chemical_formula_sum   'Ba1 Nb6 O17'
_cell_volume   364.52286601
_cell_formula_units_Z   1
loop_
 _symmetry_equiv_pos_site_id
 _symmetry_equiv_pos_as_xyz
  1  'x, y, z'
loop_
 _atom_site_type_symbol
 _atom_site_label
 _atom_site_symmetry_multiplicity
 _atom_site_fract_x
 _atom_site_fract_y
 _atom_site_fract_z
 _atom_site_occupancy
  Ba  Ba0  1  0.00000000  -0.00000000  0.00000000  1
  Nb  Nb1  1  0.37266604  0.56576441  0.74533208  1
  Nb  Nb2  1  0.62733396  0.82043233  0.25466792  1
  Nb  Nb3  1  0.37266604  0.17956767  0.74533208  1
  Nb  Nb4  1  0.62733396  0.43423559  0.25466792  1
  Nb  Nb5  1  0.24011943  0.74011943  0.48023886  1
  Nb  Nb6  1  0.75988057  0.25988057  0.51976114  1
  O  O7  1  0.84823423  0.51071049  0.69646846  1
  O  O8  1  0.15176577  0.81424203  0.30353154  1
  O  O9  1  0.84823423  0.18575797  0.69646846  1
  O  O10  1  0.15176577  0.48928951  0.30353154  1
  O  O11  1  0.43301058  0.76717593  0.86602116  1
  O  O12  1  0.56698942  0.90115478  0.13397884  1
  O  O13  1  0.43301058  0.09884522  0.86602116  1
  O  O14  1  0.56698942  0.23282407  0.13397884  1
  O  O15  1  0.29519214  0.63640199  0.59038428  1
  O  O16  1  0.70480786  0.04601771  0.40961572  1
  O  O17  1  0.29519214  0.95398229  0.59038428  1
  O  O18  1  0.70480786  0.36359801  0.40961572  1
  O  O19  1  0.28824831  0.28824831  0.57649662  1
  O  O20  1  0.71175169  0.71175169  0.42350338  1
  O  O21  1  0.41836948  0.41836948  0.83673896  1
  O  O22  1  0.58163052  0.58163052  0.16326104  1
  O  O23  1  0.00000000  0.50000000  0.00000000  1
