# generated using pymatgen
data_Sr2SiCl2O3
_symmetry_space_group_name_H-M   'P 1'
_cell_length_a   9.33677690
_cell_length_b   9.33677704
_cell_length_c   9.33677739
_cell_angle_alpha   105.55989781
_cell_angle_beta   105.55989799
_cell_angle_gamma   117.61375641
_symmetry_Int_Tables_number   1
_chemical_formula_structural   Sr2SiCl2O3
_chemical_formula_sum   'Sr8 Si4 Cl8 O12'
_cell_volume   616.95374349
_cell_formula_units_Z   4
loop_
 _symmetry_equiv_pos_site_id
 _symmetry_equiv_pos_as_xyz
  1  'x, y, z'
loop_
 _atom_site_type_symbol
 _atom_site_label
 _atom_site_symmetry_multiplicity
 _atom_site_fract_x
 _atom_site_fract_y
 _atom_site_fract_z
 _atom_site_occupancy
  Sr  Sr0  1  0.97888997  0.14847814  0.66755670  1
  Sr  Sr1  1  0.85152186  0.51907856  0.83041183  1
  Sr  Sr2  1  0.14847814  0.48092144  0.16958817  1
  Sr  Sr3  1  0.48092144  0.31133327  0.33244330  1
  Sr  Sr4  1  0.31133327  0.97888997  0.83041183  1
  Sr  Sr5  1  0.68866673  0.02111003  0.16958817  1
  Sr  Sr6  1  0.02111003  0.85152186  0.33244330  1
  Sr  Sr7  1  0.51907856  0.68866673  0.66755670  1
  Si  Si8  1  0.31794882  0.59654281  0.91449163  1
  Si  Si9  1  0.40345719  0.31794882  0.72140601  1
  Si  Si10  1  0.59654281  0.68205118  0.27859399  1
  Si  Si11  1  0.68205118  0.40345719  0.08550837  1
  Cl  Cl12  1  0.74489869  0.09639302  0.84129171  1
  Cl  Cl13  1  0.79898060  0.79898060  0.00000000  1
  Cl  Cl14  1  0.90360698  0.74489869  0.64850568  1
  Cl  Cl15  1  0.20101940  0.20101940  1.00000000  1
  Cl  Cl16  1  0.09639302  0.25510131  0.35149432  1
  Cl  Cl17  1  0.75000000  0.25000000  0.50000000  1
  Cl  Cl18  1  0.25510131  0.90360698  0.15870829  1
  Cl  Cl19  1  0.25000000  0.75000000  0.50000000  1
  O  O20  1  0.33589169  0.44968631  0.78557800  1
  O  O21  1  0.59920564  0.22500934  0.11565658  1
  O  O22  1  0.10935276  0.48354907  0.88434342  1
  O  O23  1  0.66410831  0.55031369  0.21442200  1
  O  O24  1  0.51645093  0.40079436  0.62580369  1
  O  O25  1  0.40079436  0.77499066  0.88434342  1
  O  O26  1  0.48354907  0.59920564  0.37419631  1
  O  O27  1  0.77499066  0.89064724  0.37419631  1
  O  O28  1  0.22500934  0.10935276  0.62580369  1
  O  O29  1  0.55031369  0.33589169  0.88620539  1
  O  O30  1  0.44968631  0.66410831  0.11379461  1
  O  O31  1  0.89064724  0.51645093  0.11565658  1
