# generated using pymatgen
data_CaCO3
_symmetry_space_group_name_H-M   'P 1'
_cell_length_a   5.06699609
_cell_length_b   6.44366499
_cell_length_c   8.13136657
_cell_angle_alpha   107.59722546
_cell_angle_beta   90.00000000
_cell_angle_gamma   90.00000000
_symmetry_Int_Tables_number   1
_chemical_formula_structural   CaCO3
_chemical_formula_sum   'Ca4 C4 O12'
_cell_volume   253.06583347
_cell_formula_units_Z   4
loop_
 _symmetry_equiv_pos_site_id
 _symmetry_equiv_pos_as_xyz
  1  'x, y, z'
loop_
 _atom_site_type_symbol
 _atom_site_label
 _atom_site_symmetry_multiplicity
 _atom_site_fract_x
 _atom_site_fract_y
 _atom_site_fract_z
 _atom_site_occupancy
  Ca  Ca0  1  0.75493667  0.24279968  0.73329676  1
  Ca  Ca1  1  0.74506333  0.24279968  0.23329676  1
  Ca  Ca2  1  0.25493667  0.75720032  0.76670324  1
  Ca  Ca3  1  0.24506333  0.75720032  0.26670324  1
  C  C4  1  0.25329035  0.25367783  0.99861222  1
  C  C5  1  0.74670965  0.74632217  0.00138778  1
  C  C6  1  0.24670965  0.25367783  0.49861222  1
  C  C7  1  0.75329035  0.74632217  0.50138778  1
  O  O8  1  0.90042929  0.87182542  0.62205616  1
  O  O9  1  0.09957071  0.12817458  0.37794384  1
  O  O10  1  0.63755386  0.61322255  0.86586628  1
  O  O11  1  0.13755386  0.38677745  0.63413372  1
  O  O12  1  0.50198537  0.24160118  0.48482656  1
  O  O13  1  1.00198537  0.75839882  0.01517344  1
  O  O14  1  0.40042929  0.12817458  0.87794384  1
  O  O15  1  0.49801463  0.75839882  0.51517344  1
  O  O16  1  0.59957071  0.87182542  0.12205616  1
  O  O17  1  0.86244614  0.61322255  0.36586628  1
  O  O18  1  -0.00198537  0.24160118  0.98482656  1
  O  O19  1  0.36244614  0.38677745  0.13413372  1
