# generated using pymatgen
data_ErSeO3F
_symmetry_space_group_name_H-M   'P 1'
_cell_length_a   6.61924424
_cell_length_b   6.94733672
_cell_length_c   7.20726773
_cell_angle_alpha   90.00000000
_cell_angle_beta   98.49997984
_cell_angle_gamma   90.00000000
_symmetry_Int_Tables_number   1
_chemical_formula_structural   ErSeO3F
_chemical_formula_sum   'Er4 Se4 O12 F4'
_cell_volume   327.79376639
_cell_formula_units_Z   4
loop_
 _symmetry_equiv_pos_site_id
 _symmetry_equiv_pos_as_xyz
  1  'x, y, z'
loop_
 _atom_site_type_symbol
 _atom_site_label
 _atom_site_symmetry_multiplicity
 _atom_site_fract_x
 _atom_site_fract_y
 _atom_site_fract_z
 _atom_site_occupancy
  Er  Er0  1  0.13926312  0.35952426  0.32422537  1
  Er  Er1  1  0.13926312  0.14047574  0.82422537  1
  Er  Er2  1  0.86073688  0.85952426  0.17577463  1
  Er  Er3  1  0.86073688  0.64047574  0.67577463  1
  Se  Se4  1  0.35116748  0.88100713  0.28925435  1
  Se  Se5  1  0.35116748  0.61899287  0.78925435  1
  Se  Se6  1  0.64883252  0.38100713  0.21074565  1
  Se  Se7  1  0.64883252  0.11899287  0.71074565  1
  O  O8  1  0.17402275  0.80632112  0.77947920  1
  O  O9  1  0.17293867  0.46861251  0.64753671  1
  O  O10  1  0.51607911  0.68611555  0.63917277  1
  O  O11  1  0.82706133  0.96861251  0.85246329  1
  O  O12  1  0.17402275  0.69367888  0.27947920  1
  O  O13  1  0.48392089  0.18611555  0.86082723  1
  O  O14  1  0.82597725  0.30632112  0.72052080  1
  O  O15  1  0.17293867  0.03138749  0.14753671  1
  O  O16  1  0.82706133  0.53138749  0.35246329  1
  O  O17  1  0.82597725  0.19367888  0.22052080  1
  O  O18  1  0.48392089  0.31388445  0.36082723  1
  O  O19  1  0.51607911  0.81388445  0.13917277  1
  F  F20  1  0.16689739  0.11906996  0.52541374  1
  F  F21  1  0.16689739  0.38093004  0.02541374  1
  F  F22  1  0.83310261  0.88093004  0.47458626  1
  F  F23  1  0.83310261  0.61906996  0.97458626  1
