# generated using pymatgen
data_BaPr2Ti3O10
_symmetry_space_group_name_H-M   'P 1'
_cell_length_a   3.93426516
_cell_length_b   7.70464224
_cell_length_c   14.46537188
_cell_angle_alpha   90.00000000
_cell_angle_beta   97.81581482
_cell_angle_gamma   90.00000000
_symmetry_Int_Tables_number   1
_chemical_formula_structural   BaPr2Ti3O10
_chemical_formula_sum   'Ba2 Pr4 Ti6 O20'
_cell_volume   434.40258825
_cell_formula_units_Z   2
loop_
 _symmetry_equiv_pos_site_id
 _symmetry_equiv_pos_as_xyz
  1  'x, y, z'
loop_
 _atom_site_type_symbol
 _atom_site_label
 _atom_site_symmetry_multiplicity
 _atom_site_fract_x
 _atom_site_fract_y
 _atom_site_fract_z
 _atom_site_occupancy
  Ba  Ba0  1  0.26436371  0.75000000  0.51866999  1
  Ba  Ba1  1  0.74569372  0.25000000  0.48133001  1
  Pr  Pr2  1  0.57763646  0.25000000  0.14516559  1
  Pr  Pr3  1  0.43247087  0.75000000  0.85483441  1
  Pr  Pr4  1  0.42442206  0.25000000  0.84085634  1
  Pr  Pr5  1  0.58356572  0.75000000  0.15914366  1
  Ti  Ti6  1  0.15044468  0.00415065  0.29159453  1
  Ti  Ti7  1  0.85885016  0.99584935  0.70840547  1
  Ti  Ti8  1  0.15044468  0.49584935  0.29159453  1
  Ti  Ti9  1  0.00653210  0.00000000  0.00000000  1
  Ti  Ti10  1  0.85885016  0.50415065  0.70840547  1
  Ti  Ti11  1  0.00653210  0.50000000  0.00000000  1
  O  O12  1  0.79800696  0.95735024  0.58632975  1
  O  O13  1  0.21167721  0.04264976  0.41367025  1
  O  O14  1  0.37289246  0.50714214  0.73807222  1
  O  O15  1  0.98655090  0.75000000  0.96795069  1
  O  O16  1  0.06894156  0.95042872  0.13263968  1
  O  O17  1  0.63482024  0.49285786  0.26192778  1
  O  O18  1  1.01860020  0.25000000  0.03204931  1
  O  O19  1  0.88080461  0.75000000  0.75353199  1
  O  O20  1  0.21167721  0.45735024  0.41367025  1
  O  O21  1  0.50281435  0.00000000  1.00000000  1
  O  O22  1  0.63482024  0.00714214  0.26192778  1
  O  O23  1  0.93630188  0.45042872  0.86736032  1
  O  O24  1  0.37289246  0.99285786  0.73807222  1
  O  O25  1  0.06894156  0.54957128  0.13263968  1
  O  O26  1  0.79800696  0.54264976  0.58632975  1
  O  O27  1  0.93630188  0.04957128  0.86736032  1
  O  O28  1  0.14868097  0.75000000  0.28930601  1
  O  O29  1  0.12727262  0.25000000  0.24646801  1
  O  O30  1  0.50281435  0.50000000  1.00000000  1
  O  O31  1  0.85937497  0.25000000  0.71069399  1
