# generated using pymatgen
data_Na3Nd14(RuO6)6
_symmetry_space_group_name_H-M   'P 1'
_cell_length_a   19.51995374
_cell_length_b   19.51995372
_cell_length_c   19.51995340
_cell_angle_alpha   29.03823569
_cell_angle_beta   29.03823582
_cell_angle_gamma   29.03823710
_symmetry_Int_Tables_number   1
_chemical_formula_structural   Na3Nd14(RuO6)6
_chemical_formula_sum   'Na6 Nd28 Ru12 O72'
_cell_volume   1550.03198699
_cell_formula_units_Z   2
loop_
 _symmetry_equiv_pos_site_id
 _symmetry_equiv_pos_as_xyz
  1  'x, y, z'
loop_
 _atom_site_type_symbol
 _atom_site_label
 _atom_site_symmetry_multiplicity
 _atom_site_fract_x
 _atom_site_fract_y
 _atom_site_fract_z
 _atom_site_occupancy
  Na  Na0  1  0.44679357  0.44679357  0.44679357  1
  Na  Na1  1  0.25000000  0.25000000  0.25000000  1
  Na  Na2  1  0.55320643  0.55320643  0.55320643  1
  Na  Na3  1  0.94679357  0.94679357  0.94679357  1
  Na  Na4  1  0.75000000  0.75000000  0.75000000  1
  Na  Na5  1  0.05320643  0.05320643  0.05320643  1
  Nd  Nd6  1  0.30239500  0.95913142  0.68074998  1
  Nd  Nd7  1  0.39217412  0.39217412  0.39217412  1
  Nd  Nd8  1  0.80239500  0.18074998  0.45913142  1
  Nd  Nd9  1  0.42943450  0.00101303  0.71985996  1
  Nd  Nd10  1  0.78014004  0.49898697  0.07056550  1
  Nd  Nd11  1  0.57056550  0.99898697  0.28014004  1
  Nd  Nd12  1  0.18074998  0.45913142  0.80239500  1
  Nd  Nd13  1  0.28014004  0.57056550  0.99898697  1
  Nd  Nd14  1  0.92943450  0.21985996  0.50101303  1
  Nd  Nd15  1  0.54086858  0.19760500  0.81925002  1
  Nd  Nd16  1  0.31925002  0.69760500  0.04086858  1
  Nd  Nd17  1  0.50101303  0.92943450  0.21985996  1
  Nd  Nd18  1  0.07056550  0.78014004  0.49898697  1
  Nd  Nd19  1  0.71985996  0.42943450  0.00101303  1
  Nd  Nd20  1  0.04086858  0.31925002  0.69760500  1
  Nd  Nd21  1  0.81925002  0.54086858  0.19760500  1
  Nd  Nd22  1  0.89217412  0.89217412  0.89217412  1
  Nd  Nd23  1  0.68074998  0.30239500  0.95913142  1
  Nd  Nd24  1  0.21985996  0.50101303  0.92943450  1
  Nd  Nd25  1  0.10782588  0.10782588  0.10782588  1
  Nd  Nd26  1  0.49898697  0.07056550  0.78014004  1
  Nd  Nd27  1  0.69760500  0.04086858  0.31925002  1
  Nd  Nd28  1  0.95913142  0.68074998  0.30239500  1
  Nd  Nd29  1  0.45913142  0.80239500  0.18074998  1
  Nd  Nd30  1  0.19760500  0.81925002  0.54086858  1
  Nd  Nd31  1  0.00101303  0.71985996  0.42943450  1
  Nd  Nd32  1  0.99898697  0.28014004  0.57056550  1
  Nd  Nd33  1  0.60782588  0.60782588  0.60782588  1
  Ru  Ru34  1  0.25000000  0.91720019  0.58279981  1
  Ru  Ru35  1  0.08279981  0.41720019  0.75000000  1
  Ru  Ru36  1  0.41720019  0.75000000  0.08279981  1
  Ru  Ru37  1  0.33768598  0.33768598  0.33768598  1
  Ru  Ru38  1  0.00000000  0.00000000  0.00000000  1
  Ru  Ru39  1  0.91720019  0.58279981  0.25000000  1
  Ru  Ru40  1  0.83768598  0.83768598  0.83768598  1
  Ru  Ru41  1  0.50000000  0.50000000  0.50000000  1
  Ru  Ru42  1  0.16231402  0.16231402  0.16231402  1
  Ru  Ru43  1  0.66231402  0.66231402  0.66231402  1
  Ru  Ru44  1  0.75000000  0.08279981  0.41720019  1
  Ru  Ru45  1  0.58279981  0.25000000  0.91720019  1
  O  O46  1  0.53250874  0.71864523  0.91953869  1
  O  O47  1  0.01438653  0.05495474  0.68464676  1
  O  O48  1  0.83629959  0.51481543  0.57153443  1
  O  O49  1  0.18464676  0.55495474  0.51438653  1
  O  O50  1  0.70343954  0.20199895  0.76703441  1
  O  O51  1  0.46749126  0.28135477  0.08046131  1
  O  O52  1  0.20199895  0.76703441  0.70343954  1
  O  O53  1  0.42846557  0.16370041  0.48518457  1
  O  O54  1  0.76703441  0.70343954  0.20199895  1
  O  O55  1  0.47985370  0.81039954  0.74783581  1
  O  O56  1  0.75216419  0.68960046  0.02014630  1
  O  O57  1  0.52014630  0.18960046  0.25216419  1
  O  O58  1  0.31139007  0.65031385  0.47609372  1
  O  O59  1  0.97609372  0.15031385  0.81139007  1
  O  O60  1  0.34968615  0.52390628  0.68860993  1
  O  O61  1  0.78135477  0.96749126  0.58046131  1
  O  O62  1  0.21864523  0.03250874  0.41953869  1
  O  O63  1  0.47609372  0.31139007  0.65031385  1
  O  O64  1  0.79800105  0.23296559  0.29656046  1
  O  O65  1  0.48518457  0.42846557  0.16370041  1
  O  O66  1  0.41953869  0.21864523  0.03250874  1
  O  O67  1  0.70199895  0.20343954  0.26703441  1
  O  O68  1  0.79656046  0.73296559  0.29800105  1
  O  O69  1  0.92846557  0.98518457  0.66370041  1
  O  O70  1  0.52390628  0.68860993  0.34968615  1
  O  O71  1  0.23296559  0.29656046  0.79800105  1
  O  O72  1  0.74783581  0.47985370  0.81039954  1
  O  O73  1  0.05495474  0.68464676  0.01438653  1
  O  O74  1  0.29800105  0.79656046  0.73296559  1
  O  O75  1  0.25216419  0.52014630  0.18960046  1
  O  O76  1  0.26703441  0.70199895  0.20343954  1
  O  O77  1  0.24783581  0.31039954  0.97985370  1
  O  O78  1  0.20343954  0.26703441  0.70199895  1
  O  O79  1  0.68860993  0.34968615  0.52390628  1
  O  O80  1  0.15031385  0.81139007  0.97609372  1
  O  O81  1  0.28135477  0.08046131  0.46749126  1
  O  O82  1  0.84968615  0.18860993  0.02390628  1
  O  O83  1  0.02014630  0.75216419  0.68960046  1
  O  O84  1  0.01481543  0.33629959  0.07153443  1
  O  O85  1  0.66370041  0.92846557  0.98518457  1
  O  O86  1  0.44504526  0.48561347  0.81535324  1
  O  O87  1  0.55495474  0.51438653  0.18464676  1
  O  O88  1  0.03250874  0.41953869  0.21864523  1
  O  O89  1  0.81535324  0.44504526  0.48561347  1
  O  O90  1  0.94504526  0.31535324  0.98561347  1
  O  O91  1  0.18960046  0.25216419  0.52014630  1
  O  O92  1  0.81139007  0.97609372  0.15031385  1
  O  O93  1  0.48561347  0.81535324  0.44504526  1
  O  O94  1  0.97985370  0.24783581  0.31039954  1
  O  O95  1  0.91953869  0.53250874  0.71864523  1
  O  O96  1  0.02390628  0.84968615  0.18860993  1
  O  O97  1  0.31535324  0.98561347  0.94504526  1
  O  O98  1  0.33629959  0.07153443  0.01481543  1
  O  O99  1  0.16370041  0.48518457  0.42846557  1
  O  O100  1  0.07153443  0.01481543  0.33629959  1
  O  O101  1  0.58046131  0.78135477  0.96749126  1
  O  O102  1  0.65031385  0.47609372  0.31139007  1
  O  O103  1  0.73296559  0.29800105  0.79656046  1
  O  O104  1  0.68960046  0.02014630  0.75216419  1
  O  O105  1  0.57153443  0.83629959  0.51481543  1
  O  O106  1  0.18860993  0.02390628  0.84968615  1
  O  O107  1  0.29656046  0.79800105  0.23296559  1
  O  O108  1  0.71864523  0.91953869  0.53250874  1
  O  O109  1  0.08046131  0.46749126  0.28135477  1
  O  O110  1  0.81039954  0.74783581  0.47985370  1
  O  O111  1  0.31039954  0.97985370  0.24783581  1
  O  O112  1  0.98518457  0.66370041  0.92846557  1
  O  O113  1  0.68464676  0.01438653  0.05495474  1
  O  O114  1  0.98561347  0.94504526  0.31535324  1
  O  O115  1  0.51481543  0.57153443  0.83629959  1
  O  O116  1  0.96749126  0.58046131  0.78135477  1
  O  O117  1  0.51438653  0.18464676  0.55495474  1
