# generated using pymatgen
data_Fe2Pb3F12
_symmetry_space_group_name_H-M   'P 1'
_cell_length_a   7.54554881
_cell_length_b   7.82099746
_cell_length_c   10.04706460
_cell_angle_alpha   110.20935230
_cell_angle_beta   107.90148668
_cell_angle_gamma   96.55108314
_symmetry_Int_Tables_number   1
_chemical_formula_structural   Fe2Pb3F12
_chemical_formula_sum   'Fe4 Pb6 F24'
_cell_volume   513.11430965
_cell_formula_units_Z   2
loop_
 _symmetry_equiv_pos_site_id
 _symmetry_equiv_pos_as_xyz
  1  'x, y, z'
loop_
 _atom_site_type_symbol
 _atom_site_label
 _atom_site_symmetry_multiplicity
 _atom_site_fract_x
 _atom_site_fract_y
 _atom_site_fract_z
 _atom_site_occupancy
  F  F0  1  0.85927542  0.31830257  0.20330597  1
  F  F1  1  0.14072458  0.68169743  0.79669403  1
  F  F2  1  0.51639239  0.88819242  0.85946089  1
  F  F3  1  0.48360761  0.11180758  0.14053911  1
  F  F4  1  0.56804170  0.89802159  0.34217680  1
  F  F5  1  0.43195830  0.10197841  0.65782320  1
  F  F6  1  0.82111743  0.58442802  0.53089739  1
  F  F7  1  0.17888257  0.41557198  0.46910261  1
  F  F8  1  0.48731495  0.28904794  0.45406972  1
  F  F9  1  0.51268505  0.71095206  0.54593028  1
  F  F10  1  0.10688985  0.84869558  0.07578155  1
  F  F11  1  0.89311015  0.15130442  0.92421845  1
  F  F12  1  0.19266163  0.41897663  0.96915843  1
  F  F13  1  0.80733837  0.58102337  0.03084157  1
  F  F14  1  0.20267681  0.06511816  0.83280777  1
  F  F15  1  0.79732319  0.93488184  0.16719223  1
  F  F16  1  0.16857939  0.64995419  0.26759264  1
  F  F17  1  0.83142061  0.35004581  0.73240736  1
  F  F18  1  0.15778287  0.03691808  0.37642615  1
  F  F19  1  0.84221713  0.96308192  0.62357385  1
  F  F20  1  0.10818229  0.24179517  0.63700127  1
  F  F21  1  0.89181771  0.75820483  0.36299873  1
  F  F22  1  0.47647487  0.48478079  0.74747047  1
  F  F23  1  0.52352513  0.51521921  0.25252953  1
  Fe  Fe24  1  0.67378049  0.73581020  0.43505001  1
  Fe  Fe25  1  0.32621951  0.26418980  0.56494999  1
  Fe  Fe26  1  0.01178868  0.20504708  0.79028856  1
  Fe  Fe27  1  0.98821132  0.79495292  0.20971144  1
  Pb  Pb28  1  0.59622072  0.23160177  0.96926362  1
  Pb  Pb29  1  0.40377928  0.76839823  0.03073638  1
  Pb  Pb30  1  0.23732939  0.78136471  0.61956789  1
  Pb  Pb31  1  0.76267061  0.21863529  0.38043211  1
  Pb  Pb32  1  0.81013058  0.66668855  0.79750896  1
  Pb  Pb33  1  0.18986942  0.33331145  0.20249104  1
