# generated using pymatgen
data_KGd(PO3)4
_symmetry_space_group_name_H-M   'P 1'
_cell_length_a   7.45039871
_cell_length_b   7.45039877
_cell_length_c   10.63716534
_cell_angle_alpha   100.93066865
_cell_angle_beta   100.93066873
_cell_angle_gamma   115.36800633
_symmetry_Int_Tables_number   1
_chemical_formula_structural   KGd(PO3)4
_chemical_formula_sum   'K2 Gd2 P8 O24'
_cell_volume   498.82768269
_cell_formula_units_Z   2
loop_
 _symmetry_equiv_pos_site_id
 _symmetry_equiv_pos_as_xyz
  1  'x, y, z'
loop_
 _atom_site_type_symbol
 _atom_site_label
 _atom_site_symmetry_multiplicity
 _atom_site_fract_x
 _atom_site_fract_y
 _atom_site_fract_z
 _atom_site_occupancy
  K  K0  1  0.81562356  0.18437644  0.75000000  1
  K  K1  1  0.18437644  0.81562356  0.25000000  1
  Gd  Gd2  1  0.87973877  0.12026123  0.25000000  1
  Gd  Gd3  1  0.12026123  0.87973877  0.75000000  1
  P  P4  1  0.30378065  0.25649723  0.55666454  1
  P  P5  1  0.69621935  0.74350277  0.44333546  1
  P  P6  1  0.28667467  0.62629913  0.50231726  1
  P  P7  1  0.62629913  0.28667467  0.00231726  1
  P  P8  1  0.74350277  0.69621935  0.94333546  1
  P  P9  1  0.71332533  0.37370087  0.49768274  1
  P  P10  1  0.25649723  0.30378065  0.05666454  1
  P  P11  1  0.37370087  0.71332533  0.99768274  1
  O  O12  1  0.83856987  0.86285079  0.58498704  1
  O  O13  1  0.86285079  0.83856987  0.08498704  1
  O  O14  1  0.70016347  0.19110977  0.39947047  1
  O  O15  1  0.35688480  0.49885813  0.58778388  1
  O  O16  1  0.18624728  0.24579887  0.17211977  1
  O  O17  1  0.29983653  0.80889023  0.60052953  1
  O  O18  1  0.50114187  0.64311520  0.91221612  1
  O  O19  1  0.75420113  0.81375272  0.32788023  1
  O  O20  1  0.46952598  0.72404739  0.43386748  1
  O  O21  1  0.81375272  0.75420113  0.82788023  1
  O  O22  1  0.19110977  0.70016347  0.89947047  1
  O  O23  1  0.27595261  0.53047402  0.06613252  1
  O  O24  1  0.72404739  0.46952598  0.93386748  1
  O  O25  1  0.24579887  0.18624728  0.67211977  1
  O  O26  1  0.16143013  0.13714921  0.41501296  1
  O  O27  1  0.80889023  0.29983653  0.10052953  1
  O  O28  1  0.90865321  0.51113677  0.61393925  1
  O  O29  1  0.09134679  0.48886323  0.38606075  1
  O  O30  1  0.53047402  0.27595261  0.56613252  1
  O  O31  1  0.51113677  0.90865321  0.11393925  1
  O  O32  1  0.13714921  0.16143013  0.91501296  1
  O  O33  1  0.49885813  0.35688480  0.08778388  1
  O  O34  1  0.64311520  0.50114187  0.41221612  1
  O  O35  1  0.48886323  0.09134679  0.88606075  1
