# generated using pymatgen
data_LiCu(PO3)3
_symmetry_space_group_name_H-M   'P 1'
_cell_length_a   9.59125098
_cell_length_b   9.60524401
_cell_length_c   9.62705181
_cell_angle_alpha   105.86045236
_cell_angle_beta   106.85713727
_cell_angle_gamma   112.67707472
_symmetry_Int_Tables_number   1
_chemical_formula_structural   LiCu(PO3)3
_chemical_formula_sum   'Li4 Cu4 P12 O36'
_cell_volume   704.77951672
_cell_formula_units_Z   4
loop_
 _symmetry_equiv_pos_site_id
 _symmetry_equiv_pos_as_xyz
  1  'x, y, z'
loop_
 _atom_site_type_symbol
 _atom_site_label
 _atom_site_symmetry_multiplicity
 _atom_site_fract_x
 _atom_site_fract_y
 _atom_site_fract_z
 _atom_site_occupancy
  Li  Li0  1  0.65226138  0.06828354  0.50134654  1
  Li  Li1  1  0.63823137  0.83310407  0.68116755  1
  Li  Li2  1  0.36176863  0.16689593  0.31883245  1
  Li  Li3  1  0.34773862  0.93171646  0.49865346  1
  Cu  Cu4  1  0.10235657  0.29293802  0.21374478  1
  Cu  Cu5  1  0.89764343  0.70706198  0.78625522  1
  Cu  Cu6  1  0.25814133  0.76955806  0.71818027  1
  Cu  Cu7  1  0.74185867  0.23044194  0.28181973  1
  P  P8  1  0.42410446  0.66442841  0.29581878  1
  P  P9  1  0.01325138  0.39507611  0.64674548  1
  P  P10  1  0.81277617  0.91627898  0.07638369  1
  P  P11  1  0.98674862  0.60492389  0.35325452  1
  P  P12  1  0.68320882  0.56947096  0.41119919  1
  P  P13  1  0.18722383  0.08372102  0.92361631  1
  P  P14  1  0.31679118  0.43052904  0.58880081  1
  P  P15  1  0.95331081  0.21284352  0.84361519  1
  P  P16  1  0.51281380  0.14831191  0.89927789  1
  P  P17  1  0.48718620  0.85168809  0.10072211  1
  P  P18  1  0.57589554  0.33557159  0.70418122  1
  P  P19  1  0.04668919  0.78715648  0.15638481  1
  O  O20  1  0.50573187  0.17631532  0.55670292  1
  O  O21  1  0.21159712  0.92700303  0.29461937  1
  O  O22  1  0.94459127  0.42837685  0.32507961  1
  O  O23  1  0.43320754  0.38522784  0.70450358  1
  O  O24  1  0.43766990  0.98562334  0.74987833  1
  O  O25  1  0.96038075  0.26944853  0.00786368  1
  O  O26  1  0.78840288  0.07299697  0.70538063  1
  O  O27  1  0.39543618  0.61527284  0.64175197  1
  O  O28  1  0.84127118  0.63965237  0.37017178  1
  O  O29  1  0.10453161  0.17746722  0.84530853  1
  O  O30  1  0.98464976  0.62397611  0.19357680  1
  O  O31  1  0.63409153  0.17265237  0.05323545  1
  O  O32  1  0.26204976  0.31295702  0.41641387  1
  O  O33  1  0.26438199  0.51762553  0.25854810  1
  O  O34  1  0.89546839  0.82253278  0.15469147  1
  O  O35  1  0.05540873  0.57162315  0.67492039  1
  O  O36  1  0.78672276  0.86996542  0.90578932  1
  O  O37  1  0.36501490  0.17767920  0.91891457  1
  O  O38  1  0.36590847  0.82734763  0.94676455  1
  O  O39  1  0.09300641  0.90116606  0.80273350  1
  O  O40  1  0.15467438  0.74362349  0.49428191  1
  O  O41  1  0.60456382  0.38472716  0.35824803  1
  O  O42  1  0.03961925  0.73055147  0.99213632  1
  O  O43  1  0.49426813  0.82368468  0.44329708  1
  O  O44  1  0.60822621  0.30183832  0.86303081  1
  O  O45  1  0.21327724  0.13003458  0.09421068  1
  O  O46  1  0.56233010  0.01437666  0.25012167  1
  O  O47  1  0.63498510  0.82232080  0.08108543  1
  O  O48  1  0.15872882  0.36034763  0.62982822  1
  O  O49  1  0.01535024  0.37602389  0.80642320  1
  O  O50  1  0.56679246  0.61477216  0.29549642  1
  O  O51  1  0.90699359  0.09883394  0.19726650  1
  O  O52  1  0.84532562  0.25637651  0.50571809  1
  O  O53  1  0.73561801  0.48237447  0.74145190  1
  O  O54  1  0.73795024  0.68704298  0.58358613  1
  O  O55  1  0.39177379  0.69816168  0.13696919  1
