# generated using pymatgen
data_Ge3Pb5O11
_symmetry_space_group_name_H-M   'P 1'
_cell_length_a   10.41003150
_cell_length_b   10.41003183
_cell_length_c   10.86378817
_cell_angle_alpha   90.00000000
_cell_angle_beta   90.00000000
_cell_angle_gamma   119.99999893
_symmetry_Int_Tables_number   1
_chemical_formula_structural   Ge3Pb5O11
_chemical_formula_sum   'Ge9 Pb15 O33'
_cell_volume   1019.56760071
_cell_formula_units_Z   3
loop_
 _symmetry_equiv_pos_site_id
 _symmetry_equiv_pos_as_xyz
  1  'x, y, z'
loop_
 _atom_site_type_symbol
 _atom_site_label
 _atom_site_symmetry_multiplicity
 _atom_site_fract_x
 _atom_site_fract_y
 _atom_site_fract_z
 _atom_site_occupancy
  Ge  Ge0  1  0.98481964  0.37621107  0.15212561  1
  Ge  Ge1  1  0.62378893  0.60860857  0.84787439  1
  Ge  Ge2  1  0.38217657  0.38946703  0.50000000  1
  Ge  Ge3  1  0.39139143  0.01518036  0.15212561  1
  Ge  Ge4  1  0.39139143  0.01518036  0.84787439  1
  Ge  Ge5  1  0.62378893  0.60860857  0.15212561  1
  Ge  Ge6  1  0.98481964  0.37621107  0.84787439  1
  Ge  Ge7  1  0.61053297  0.99270953  0.50000000  1
  Ge  Ge8  1  0.00729047  0.61782343  0.50000000  1
  Pb  Pb9  1  0.25616087  -0.00395972  0.50000000  1
  Pb  Pb10  1  0.33333300  0.66666700  0.67574333  1
  Pb  Pb11  1  0.73450378  1.00053592  0.18366713  1
  Pb  Pb12  1  0.26603214  0.26549622  0.81633287  1
  Pb  Pb13  1  0.66666700  0.33333300  0.33864944  1
  Pb  Pb14  1  0.66666700  0.33333300  0.66135056  1
  Pb  Pb15  1  0.73987942  0.74383913  0.50000000  1
  Pb  Pb16  1  1.00395972  0.26012058  0.50000000  1
  Pb  Pb17  1  0.33333300  0.66666700  0.32425667  1
  Pb  Pb18  1  0.26603214  0.26549622  0.18366713  1
  Pb  Pb19  1  0.73450378  1.00053592  0.81633287  1
  Pb  Pb20  1  0.33333300  0.66666700  0.00000000  1
  Pb  Pb21  1  0.66666700  0.33333300  0.00000000  1
  Pb  Pb22  1  -0.00053592  0.73396786  0.81633287  1
  Pb  Pb23  1  -0.00053592  0.73396786  0.18366713  1
  O  O24  1  0.88873034  0.47836544  0.83803842  1
  O  O25  1  0.48107698  0.29135312  0.50000000  1
  O  O26  1  0.31850854  0.08715274  0.73845488  1
  O  O27  1  0.30922334  0.82208835  0.16386262  1
  O  O28  1  0.08454359  0.74393136  0.62540353  1
  O  O29  1  0.91284726  0.23135580  0.26154512  1
  O  O30  1  0.76864420  0.68149146  0.26154512  1
  O  O31  1  0.17791165  0.48713500  0.16386262  1
  O  O32  1  0.58963510  0.11126966  0.16196158  1
  O  O33  1  0.51286500  0.69077666  0.16386262  1
  O  O34  1  0.76864420  0.68149146  0.73845488  1
  O  O35  1  0.31850854  0.08715274  0.26154512  1
  O  O36  1  0.17791165  0.48713500  0.83613738  1
  O  O37  1  0.71351686  0.64463262  0.00000000  1
  O  O38  1  0.51286500  0.69077666  0.83613738  1
  O  O39  1  0.52163456  0.41036490  0.83803842  1
  O  O40  1  0.25606864  0.34061223  0.62540353  1
  O  O41  1  0.65938777  0.91545641  0.37459647  1
  O  O42  1  0.25606864  0.34061223  0.37459647  1
  O  O43  1  0.49677324  0.58547881  0.50000000  1
  O  O44  1  0.91284726  0.23135580  0.73845488  1
  O  O45  1  0.58963510  0.11126966  0.83803842  1
  O  O46  1  0.93111576  0.28648314  0.00000000  1
  O  O47  1  0.41452119  0.91129443  0.50000000  1
  O  O48  1  0.70864688  0.18972387  0.50000000  1
  O  O49  1  0.08870557  0.50322676  0.50000000  1
  O  O50  1  0.08454359  0.74393136  0.37459647  1
  O  O51  1  0.52163456  0.41036490  0.16196158  1
  O  O52  1  0.88873034  0.47836544  0.16196158  1
  O  O53  1  0.65938777  0.91545641  0.62540353  1
  O  O54  1  0.30922334  0.82208835  0.83613738  1
  O  O55  1  0.35536738  0.06888424  0.00000000  1
  O  O56  1  0.81027613  0.51892302  0.50000000  1
