# generated using pymatgen
data_Ag2PS3
_symmetry_space_group_name_H-M   'P 1'
_cell_length_a   6.60011742
_cell_length_b   12.02477433
_cell_length_c   19.99040921
_cell_angle_alpha   90.00000000
_cell_angle_beta   93.37872887
_cell_angle_gamma   90.00000000
_symmetry_Int_Tables_number   1
_chemical_formula_structural   Ag2PS3
_chemical_formula_sum   'Ag24 P12 S36'
_cell_volume   1583.77952232
_cell_formula_units_Z   12
loop_
 _symmetry_equiv_pos_site_id
 _symmetry_equiv_pos_as_xyz
  1  'x, y, z'
loop_
 _atom_site_type_symbol
 _atom_site_label
 _atom_site_symmetry_multiplicity
 _atom_site_fract_x
 _atom_site_fract_y
 _atom_site_fract_z
 _atom_site_occupancy
  Ag  Ag0  1  0.57585853  0.92473377  0.16665997  1
  Ag  Ag1  1  0.03668013  0.22343702  0.78491239  1
  Ag  Ag2  1  0.07881250  0.29994923  0.00771568  1
  Ag  Ag3  1  0.47702200  0.63210408  0.10712170  1
  Ag  Ag4  1  0.52129964  0.33327389  0.12828428  1
  Ag  Ag5  1  0.42414147  0.07526623  0.83334003  1
  Ag  Ag6  1  0.03668013  0.27656298  0.28491239  1
  Ag  Ag7  1  0.91586611  0.94495313  0.90688047  1
  Ag  Ag8  1  0.96331987  0.77656298  0.21508761  1
  Ag  Ag9  1  0.42414147  0.42473377  0.33334003  1
  Ag  Ag10  1  0.47870036  0.83327389  0.37171572  1
  Ag  Ag11  1  0.96331987  0.72343702  0.71508761  1
  Ag  Ag12  1  0.07881250  0.20005077  0.50771568  1
  Ag  Ag13  1  0.92118750  0.79994923  0.49228432  1
  Ag  Ag14  1  0.52297800  0.36789592  0.89287830  1
  Ag  Ag15  1  0.08413389  0.05504687  0.09311953  1
  Ag  Ag16  1  0.52129964  0.16672611  0.62828428  1
  Ag  Ag17  1  0.52297800  0.13210408  0.39287830  1
  Ag  Ag18  1  0.47702200  0.86789592  0.60712170  1
  Ag  Ag19  1  0.08413389  0.44495313  0.59311953  1
  Ag  Ag20  1  0.92118750  0.70005077  0.99228432  1
  Ag  Ag21  1  0.47870036  0.66672611  0.87171572  1
  Ag  Ag22  1  0.91586611  0.55504687  0.40688047  1
  Ag  Ag23  1  0.57585853  0.57526623  0.66665997  1
  P  P24  1  0.53855877  0.09350152  0.00943783  1
  P  P25  1  0.95299855  0.00502391  0.62571850  1
  P  P26  1  0.46144123  0.59350152  0.49056217  1
  P  P27  1  0.84015402  0.51501271  0.23200713  1
  P  P28  1  0.15984598  0.01501271  0.26799287  1
  P  P29  1  0.53855877  0.40649848  0.50943783  1
  P  P30  1  0.04700145  0.50502391  0.87428150  1
  P  P31  1  0.84015402  0.98498729  0.73200713  1
  P  P32  1  0.15984598  0.48498729  0.76799287  1
  P  P33  1  0.46144123  0.90649848  0.99056217  1
  P  P34  1  0.95299855  0.49497609  0.12571850  1
  P  P35  1  0.04700145  0.99497609  0.37428150  1
  S  S36  1  0.91260366  0.46334894  0.70255975  1
  S  S37  1  0.83590651  0.38665922  0.49231860  1
  S  S38  1  0.16409349  0.61334078  0.50768140  1
  S  S39  1  0.09610168  0.85658322  0.60771035  1
  S  S40  1  0.08739634  0.96334894  0.79744025  1
  S  S41  1  0.46301229  0.37836750  0.60649349  1
  S  S42  1  0.68825255  0.36799625  0.25041604  1
  S  S43  1  0.91260366  0.03665106  0.20255975  1
  S  S44  1  0.35361403  0.31726979  0.44209646  1
  S  S45  1  0.70126026  0.02197937  0.56138883  1
  S  S46  1  0.83590651  0.11334078  0.99231860  1
  S  S47  1  0.64638597  0.81726979  0.05790354  1
  S  S48  1  0.12204567  0.14723352  0.62882790  1
  S  S49  1  0.87795433  0.64723352  0.87117210  1
  S  S50  1  0.87795433  0.85276648  0.37117210  1
  S  S51  1  0.29873974  0.52197937  0.93861117  1
  S  S52  1  0.53698771  0.87836750  0.89350651  1
  S  S53  1  0.29873974  0.97802063  0.43861117  1
  S  S54  1  0.65805506  0.84797812  0.72918022  1
  S  S55  1  0.08739634  0.53665106  0.29744025  1
  S  S56  1  0.90389832  0.35658322  0.89228965  1
  S  S57  1  0.34194494  0.15202188  0.27081978  1
  S  S58  1  0.70126026  0.47802063  0.06138883  1
  S  S59  1  0.53698771  0.62163250  0.39350651  1
  S  S60  1  0.46301229  0.12163250  0.10649349  1
  S  S61  1  0.65805506  0.65202188  0.22918022  1
  S  S62  1  0.35361403  0.18273021  0.94209646  1
  S  S63  1  0.64638597  0.68273021  0.55790354  1
  S  S64  1  0.31174745  0.86799625  0.24958396  1
  S  S65  1  0.09610168  0.64341678  0.10771035  1
  S  S66  1  0.16409349  0.88665922  0.00768140  1
  S  S67  1  0.68825255  0.13200375  0.75041604  1
  S  S68  1  0.12204567  0.35276648  0.12882790  1
  S  S69  1  0.90389832  0.14341678  0.39228965  1
  S  S70  1  0.34194494  0.34797812  0.77081978  1
  S  S71  1  0.31174745  0.63200375  0.74958396  1
