# generated using pymatgen
data_K2Mn2Be3F12
_symmetry_space_group_name_H-M   'P 1'
_cell_length_a   10.31607443
_cell_length_b   10.31607443
_cell_length_c   10.31607443
_cell_angle_alpha   90.00000000
_cell_angle_beta   90.00000000
_cell_angle_gamma   90.00000000
_symmetry_Int_Tables_number   1
_chemical_formula_structural   K2Mn2Be3F12
_chemical_formula_sum   'K8 Mn8 Be12 F48'
_cell_volume   1097.85099716
_cell_formula_units_Z   4
loop_
 _symmetry_equiv_pos_site_id
 _symmetry_equiv_pos_as_xyz
  1  'x, y, z'
loop_
 _atom_site_type_symbol
 _atom_site_label
 _atom_site_symmetry_multiplicity
 _atom_site_fract_x
 _atom_site_fract_y
 _atom_site_fract_z
 _atom_site_occupancy
  Be  Be0  1  0.27906854  0.62510178  0.51410809  1
  Be  Be1  1  0.22093146  0.37489822  0.01410809  1
  Be  Be2  1  0.72093146  0.12510178  0.98589191  1
  Be  Be3  1  0.77906854  0.87489822  0.48589191  1
  Be  Be4  1  0.12510178  0.98589191  0.72093146  1
  Be  Be5  1  0.48589191  0.77906854  0.87489822  1
  Be  Be6  1  0.98589191  0.72093146  0.12510178  1
  Be  Be7  1  0.37489822  0.01410809  0.22093146  1
  Be  Be8  1  0.01410809  0.22093146  0.37489822  1
  Be  Be9  1  0.87489822  0.48589191  0.77906854  1
  Be  Be10  1  0.62510178  0.51410809  0.27906854  1
  Be  Be11  1  0.51410809  0.27906854  0.62510178  1
  F  F12  1  0.45555066  0.18291934  0.72658658  1
  F  F13  1  0.72883866  0.00751812  0.08004490  1
  F  F14  1  0.77116134  0.99248188  0.58004490  1
  F  F15  1  0.00751812  0.08004490  0.72883866  1
  F  F16  1  0.26340245  0.41537595  0.15312919  1
  F  F17  1  0.23659755  0.58462405  0.65312919  1
  F  F18  1  0.65312919  0.23659755  0.58462405  1
  F  F19  1  0.58462405  0.65312919  0.23659755  1
  F  F20  1  0.91537595  0.34687081  0.73659755  1
  F  F21  1  0.15312919  0.26340245  0.41537595  1
  F  F22  1  0.41537595  0.15312919  0.26340245  1
  F  F23  1  0.84687081  0.76340245  0.08462405  1
  F  F24  1  0.34687081  0.73659755  0.91537595  1
  F  F25  1  0.08462405  0.84687081  0.76340245  1
  F  F26  1  0.73659755  0.91537595  0.34687081  1
  F  F27  1  0.76340245  0.08462405  0.84687081  1
  F  F28  1  0.18291934  0.72658658  0.45555066  1
  F  F29  1  0.22883866  0.49248188  0.91995510  1
  F  F30  1  0.72658658  0.45555066  0.18291934  1
  F  F31  1  0.77341342  0.54444934  0.68291934  1
  F  F32  1  0.95555066  0.31708066  0.27341342  1
  F  F33  1  0.27341342  0.95555066  0.31708066  1
  F  F34  1  0.04444934  0.81708066  0.22658658  1
  F  F35  1  0.54444934  0.68291934  0.77341342  1
  F  F36  1  0.22658658  0.04444934  0.81708066  1
  F  F37  1  0.68291934  0.77341342  0.54444934  1
  F  F38  1  0.81708066  0.22658658  0.04444934  1
  F  F39  1  0.31708066  0.27341342  0.95555066  1
  F  F40  1  0.42026982  0.68073736  0.51587010  1
  F  F41  1  0.51587010  0.42026982  0.68073736  1
  F  F42  1  0.68073736  0.51587010  0.42026982  1
  F  F43  1  0.81926264  0.48412990  0.92026982  1
  F  F44  1  0.01587010  0.07973018  0.31926264  1
  F  F45  1  0.31926264  0.01587010  0.07973018  1
  F  F46  1  0.98412990  0.57973018  0.18073736  1
  F  F47  1  0.48412990  0.92026982  0.81926264  1
  F  F48  1  0.18073736  0.98412990  0.57973018  1
  F  F49  1  0.92026982  0.81926264  0.48412990  1
  F  F50  1  0.57973018  0.18073736  0.98412990  1
  F  F51  1  0.07973018  0.31926264  0.01587010  1
  F  F52  1  0.27116134  0.50751812  0.41995510  1
  F  F53  1  0.41995510  0.27116134  0.50751812  1
  F  F54  1  0.50751812  0.41995510  0.27116134  1
  F  F55  1  0.99248188  0.58004490  0.77116134  1
  F  F56  1  0.91995510  0.22883866  0.49248188  1
  F  F57  1  0.58004490  0.77116134  0.99248188  1
  F  F58  1  0.08004490  0.72883866  0.00751812  1
  F  F59  1  0.49248188  0.91995510  0.22883866  1
  K  K60  1  0.19142632  0.30857368  0.69142632  1
  K  K61  1  0.69142632  0.19142632  0.30857368  1
  K  K62  1  0.30857368  0.69142632  0.19142632  1
  K  K63  1  0.80857368  0.80857368  0.80857368  1
  K  K64  1  0.44888635  0.94888635  0.55111365  1
  K  K65  1  0.55111365  0.44888635  0.94888635  1
  K  K66  1  0.94888635  0.55111365  0.44888635  1
  K  K67  1  0.05111365  0.05111365  0.05111365  1
  Mn  Mn68  1  0.33116495  0.33116495  0.33116495  1
  Mn  Mn69  1  0.16883505  0.66883505  0.83116495  1
  Mn  Mn70  1  0.83116495  0.16883505  0.66883505  1
  Mn  Mn71  1  0.66883505  0.83116495  0.16883505  1
  Mn  Mn72  1  0.59288847  0.59288847  0.59288847  1
  Mn  Mn73  1  0.90711153  0.40711153  0.09288847  1
  Mn  Mn74  1  0.09288847  0.90711153  0.40711153  1
  Mn  Mn75  1  0.40711153  0.09288847  0.90711153  1
