# generated using pymatgen
data_Li3BiO4
_symmetry_space_group_name_H-M   'P 1'
_cell_length_a   4.30858135
_cell_length_b   8.86838221
_cell_length_c   8.86838221
_cell_angle_alpha   90.00000000
_cell_angle_beta   90.00000000
_cell_angle_gamma   90.00000000
_symmetry_Int_Tables_number   1
_chemical_formula_structural   Li3BiO4
_chemical_formula_sum   'Li12 Bi4 O16'
_cell_volume   338.86218075
_cell_formula_units_Z   4
loop_
 _symmetry_equiv_pos_site_id
 _symmetry_equiv_pos_as_xyz
  1  'x, y, z'
loop_
 _atom_site_type_symbol
 _atom_site_label
 _atom_site_symmetry_multiplicity
 _atom_site_fract_x
 _atom_site_fract_y
 _atom_site_fract_z
 _atom_site_occupancy
  Li  Li0  1  0.50000000  0.13013585  0.86986415  1
  Li  Li1  1  0.00000000  0.63013585  0.63013585  1
  Li  Li2  1  0.00000000  0.88760868  0.39463461  1
  Li  Li3  1  0.50000000  0.89463461  0.61239132  1
  Li  Li4  1  0.50000000  0.86986415  0.13013585  1
  Li  Li5  1  0.50000000  0.38760868  0.10536539  1
  Li  Li6  1  0.00000000  0.39463461  0.88760868  1
  Li  Li7  1  0.00000000  0.11239132  0.60536539  1
  Li  Li8  1  0.50000000  0.61239132  0.89463461  1
  Li  Li9  1  0.00000000  0.36986415  0.36986415  1
  Li  Li10  1  0.00000000  0.60536539  0.11239132  1
  Li  Li11  1  0.50000000  0.10536539  0.38760868  1
  Bi  Bi12  1  0.50000000  0.63379051  0.36620949  1
  Bi  Bi13  1  0.50000000  0.36620949  0.63379051  1
  Bi  Bi14  1  0.00000000  0.86620949  0.86620949  1
  Bi  Bi15  1  0.00000000  0.13379051  0.13379051  1
  O  O16  1  0.00000000  0.11259272  0.88740728  1
  O  O17  1  0.50000000  0.38740728  0.38740728  1
  O  O18  1  0.50000000  0.13256724  0.62099538  1
  O  O19  1  0.50000000  0.37900462  0.86743276  1
  O  O20  1  0.50000000  0.87553605  0.87553605  1
  O  O21  1  0.50000000  0.12446395  0.12446395  1
  O  O22  1  0.50000000  0.62099538  0.13256724  1
  O  O23  1  0.50000000  0.61259272  0.61259272  1
  O  O24  1  0.00000000  0.87900462  0.63256724  1
  O  O25  1  0.00000000  0.36743276  0.12099538  1
  O  O26  1  0.00000000  0.62446395  0.37553605  1
  O  O27  1  0.00000000  0.37553605  0.62446395  1
  O  O28  1  0.00000000  0.63256724  0.87900462  1
  O  O29  1  0.50000000  0.86743276  0.37900462  1
  O  O30  1  0.00000000  0.88740728  0.11259272  1
  O  O31  1  0.00000000  0.12099538  0.36743276  1
