# generated using pymatgen
data_TiS2
_symmetry_space_group_name_H-M   'P 1'
_cell_length_a   3.40908963
_cell_length_b   3.41011359
_cell_length_c   8.81904123
_cell_angle_alpha   100.79390292
_cell_angle_beta   90.00000000
_cell_angle_gamma   119.99006748
_symmetry_Int_Tables_number   1
_chemical_formula_structural   TiS2
_chemical_formula_sum   'Ti1 S2'
_cell_volume   86.69722585
_cell_formula_units_Z   1
loop_
 _symmetry_equiv_pos_site_id
 _symmetry_equiv_pos_as_xyz
  1  'x, y, z'
loop_
 _atom_site_type_symbol
 _atom_site_label
 _atom_site_symmetry_multiplicity
 _atom_site_fract_x
 _atom_site_fract_y
 _atom_site_fract_z
 _atom_site_occupancy
  Ti  Ti0  1  0.00000000  0.00000000  0.00000000  1
  S  S1  1  0.38664541  0.77329083  0.16553031  1
  S  S2  1  0.61335459  0.22670917  0.83446969  1
