# generated using pymatgen
data_Na2B4O7
_symmetry_space_group_name_H-M   'P 1'
_cell_length_a   6.85095452
_cell_length_b   9.72997744
_cell_length_c   13.44742928
_cell_angle_alpha   104.36334329
_cell_angle_beta   91.97769276
_cell_angle_gamma   106.32609806
_symmetry_Int_Tables_number   1
_chemical_formula_structural   Na2B4O7
_chemical_formula_sum   'Na12 B24 O42'
_cell_volume   828.11017407
_cell_formula_units_Z   6
loop_
 _symmetry_equiv_pos_site_id
 _symmetry_equiv_pos_as_xyz
  1  'x, y, z'
loop_
 _atom_site_type_symbol
 _atom_site_label
 _atom_site_symmetry_multiplicity
 _atom_site_fract_x
 _atom_site_fract_y
 _atom_site_fract_z
 _atom_site_occupancy
  Na  Na0  1  0.70225401  0.40451505  0.52262176  1
  Na  Na1  1  0.29774599  0.59548495  0.47737824  1
  Na  Na2  1  0.41958220  0.17204120  0.62132209  1
  Na  Na3  1  0.58041780  0.82795880  0.37867791  1
  Na  Na4  1  0.13413748  0.90714055  0.29781239  1
  Na  Na5  1  0.86586252  0.09285945  0.70218761  1
  Na  Na6  1  0.67250944  0.40142455  0.03026002  1
  Na  Na7  1  0.44740640  0.14660964  0.11388403  1
  Na  Na8  1  0.92300040  0.10831897  0.20017999  1
  Na  Na9  1  0.07699960  0.89168103  0.79982001  1
  Na  Na10  1  0.32749056  0.59857545  0.96973998  1
  Na  Na11  1  0.55259360  0.85339036  0.88611597  1
  B  B12  1  0.87998187  0.18431538  0.95470598  1
  B  B13  1  0.82078125  0.66485711  0.91176678  1
  B  B14  1  0.42629898  0.87315114  0.67305052  1
  B  B15  1  0.75668156  0.40209559  0.30003739  1
  B  B16  1  0.12001813  0.81568462  0.04529402  1
  B  B17  1  0.30451374  0.60277799  0.19927554  1
  B  B18  1  0.69548626  0.39722201  0.80072446  1
  B  B19  1  0.29550213  0.24664956  0.42046288  1
  B  B20  1  0.08453845  0.84518373  0.57506302  1
  B  B21  1  0.70848794  0.59815737  0.71923215  1
  B  B22  1  0.17921875  0.33514289  0.08823322  1
  B  B23  1  0.23492908  0.21971360  0.90330871  1
  B  B24  1  0.22615200  0.38977589  0.77531950  1
  B  B25  1  0.29151206  0.40184263  0.28076785  1
  B  B26  1  0.45811012  0.87815416  0.16859120  1
  B  B27  1  0.24331844  0.59790441  0.69996261  1
  B  B28  1  0.54188988  0.12184584  0.83140880  1
  B  B29  1  0.57370102  0.12684886  0.32694948  1
  B  B30  1  0.70449787  0.75335044  0.57953712  1
  B  B31  1  0.76507092  0.78028640  0.09669129  1
  B  B32  1  0.77384800  0.61022411  0.22468050  1
  B  B33  1  0.87026278  0.66339221  0.41634886  1
  B  B34  1  0.12973722  0.33660779  0.58365114  1
  B  B35  1  0.91546155  0.15481627  0.42493698  1
  O  O36  1  0.08651194  0.13897530  0.37658000  1
  O  O37  1  0.30270757  0.27259219  0.01495209  1
  O  O38  1  0.69729243  0.72740781  0.98504791  1
  O  O39  1  0.33396291  0.11469629  0.85012295  1
  O  O40  1  0.70089263  0.69211340  0.46860878  1
  O  O41  1  0.28264148  0.54349576  0.78391135  1
  O  O42  1  0.21969925  0.29756306  0.18768859  1
  O  O43  1  0.23056817  0.50105645  0.10603490  1
  O  O44  1  0.27195592  0.93148595  0.62898865  1
  O  O45  1  0.86494129  0.71041206  0.31695220  1
  O  O46  1  0.54123596  0.82193574  0.59095682  1
  O  O47  1  0.13505871  0.28958794  0.68304780  1
  O  O48  1  0.35932034  0.75388501  0.21808846  1
  O  O49  1  0.14400966  0.49896157  0.60872929  1
  O  O50  1  0.85599034  0.50103843  0.39127071  1
  O  O51  1  0.66886013  0.14692958  0.93394427  1
  O  O52  1  0.92882427  0.24904732  0.52222060  1
  O  O53  1  0.69716043  0.25106643  0.28067063  1
  O  O54  1  0.29910737  0.30788660  0.53139122  1
  O  O55  1  0.72804408  0.06851405  0.37101135  1
  O  O56  1  0.64067966  0.24611499  0.78191154  1
  O  O57  1  0.72919840  0.64383249  0.13624743  1
  O  O58  1  0.66603709  0.88530371  0.14987705  1
  O  O59  1  0.95696981  0.26882637  0.05437018  1
  O  O60  1  0.07117573  0.75095268  0.47777940  1
  O  O61  1  0.30283957  0.74893357  0.71932937  1
  O  O62  1  0.33113987  0.85307042  0.06605573  1
  O  O63  1  0.27080160  0.35616751  0.86375257  1
  O  O64  1  0.45876404  0.17806426  0.40904318  1
  O  O65  1  0.00500244  0.14082133  0.88292012  1
  O  O66  1  0.55849781  0.98576741  0.76080108  1
  O  O67  1  0.91348806  0.86102470  0.62342000  1
  O  O68  1  0.78030075  0.70243694  0.81231141  1
  O  O69  1  0.33114235  0.37285844  0.37124071  1
  O  O70  1  0.04303019  0.73117363  0.94562982  1
  O  O71  1  0.76943183  0.49894355  0.89396510  1
  O  O72  1  0.67431065  0.44608278  0.71210484  1
  O  O73  1  0.71735852  0.45650424  0.21608865  1
  O  O74  1  0.66885765  0.62714156  0.62875929  1
  O  O75  1  0.44150219  0.01423259  0.23919892  1
  O  O76  1  0.32568935  0.55391722  0.28789516  1
  O  O77  1  0.99499756  0.85917867  0.11707988  1
