# generated using pymatgen
data_Pr4MnS7
_symmetry_space_group_name_H-M   'P 1'
_cell_length_a   7.10047923
_cell_length_b   9.87277537
_cell_length_c   9.87218365
_cell_angle_alpha   119.99866501
_cell_angle_beta   90.00000000
_cell_angle_gamma   90.00000000
_symmetry_Int_Tables_number   1
_chemical_formula_structural   Pr4MnS7
_chemical_formula_sum   'Pr8 Mn2 S14'
_cell_volume   599.34462809
_cell_formula_units_Z   2
loop_
 _symmetry_equiv_pos_site_id
 _symmetry_equiv_pos_as_xyz
  1  'x, y, z'
loop_
 _atom_site_type_symbol
 _atom_site_label
 _atom_site_symmetry_multiplicity
 _atom_site_fract_x
 _atom_site_fract_y
 _atom_site_fract_z
 _atom_site_occupancy
  Pr  Pr0  1  0.27562027  0.19793543  0.37779080  1
  Pr  Pr1  1  0.27561428  0.62220223  0.82014134  1
  Pr  Pr2  1  0.27563518  0.17984163  0.80205494  1
  Pr  Pr3  1  0.77562027  0.80206457  0.62220920  1
  Pr  Pr4  1  0.77561428  0.37779777  0.17985866  1
  Pr  Pr5  1  0.77563518  0.82015837  0.19794506  1
  Pr  Pr6  1  0.82248737  0.33333885  0.66667055  1
  Pr  Pr7  1  0.32248737  0.66666115  0.33332945  1
  Mn  Mn8  1  0.52124458  0.99994112  0.99999075  1
  Mn  Mn9  1  0.02124458  0.00005888  0.00000925  1
  S  S10  1  0.67103806  0.12771482  0.24771614  1
  S  S11  1  0.67105778  0.75223577  0.87998080  1
  S  S12  1  0.67104609  0.11998887  0.87230437  1
  S  S13  1  0.17103806  0.87228518  0.75228386  1
  S  S14  1  0.17105778  0.24776423  0.12001920  1
  S  S15  1  0.17104609  0.88001113  0.12769563  1
  S  S16  1  0.04027139  0.07275268  0.52908012  1
  S  S17  1  0.04027903  0.47090056  0.54367866  1
  S  S18  1  0.04028148  0.45630705  0.92723075  1
  S  S19  1  0.54027139  0.92724732  0.47091988  1
  S  S20  1  0.54027903  0.52909944  0.45632134  1
  S  S21  1  0.54028148  0.54369295  0.07276925  1
  S  S22  1  0.44242450  0.33331876  0.66665569  1
  S  S23  1  0.94242450  0.66668124  0.33334431  1
