# generated using pymatgen
data_Mg7Si8(O11F)2
_symmetry_space_group_name_H-M   'P 1'
_cell_length_a   5.36648828
_cell_length_b   9.46772416
_cell_length_c   18.08793566
_cell_angle_alpha   90.00000000
_cell_angle_beta   90.00000000
_cell_angle_gamma   90.00000000
_symmetry_Int_Tables_number   1
_chemical_formula_structural   Mg7Si8(O11F)2
_chemical_formula_sum   'Mg14 Si16 O44 F4'
_cell_volume   919.01962626
_cell_formula_units_Z   2
loop_
 _symmetry_equiv_pos_site_id
 _symmetry_equiv_pos_as_xyz
  1  'x, y, z'
loop_
 _atom_site_type_symbol
 _atom_site_label
 _atom_site_symmetry_multiplicity
 _atom_site_fract_x
 _atom_site_fract_y
 _atom_site_fract_z
 _atom_site_occupancy
  Mg  Mg0  1  0.00000000  0.50000000  0.58836183  1
  Mg  Mg1  1  0.50000000  0.50000000  0.67809091  1
  Mg  Mg2  1  0.50000000  0.00000000  0.74133064  1
  Mg  Mg3  1  0.00000000  0.50000000  0.24133064  1
  Mg  Mg4  1  0.50000000  0.50000000  0.32190909  1
  Mg  Mg5  1  0.50000000  0.00000000  0.25866936  1
  Mg  Mg6  1  0.00000000  0.50000000  0.75866936  1
  Mg  Mg7  1  0.00000000  0.50000000  0.41163817  1
  Mg  Mg8  1  0.00000000  0.00000000  0.00000000  1
  Mg  Mg9  1  0.50000000  0.00000000  0.91163817  1
  Mg  Mg10  1  0.00000000  0.00000000  0.17809091  1
  Mg  Mg11  1  0.50000000  0.00000000  0.08836183  1
  Mg  Mg12  1  0.00000000  0.00000000  0.82190909  1
  Mg  Mg13  1  0.50000000  0.50000000  0.50000000  1
  Si  Si14  1  0.32591531  0.78517286  0.58434806  1
  Si  Si15  1  0.67108397  0.29400074  0.82924427  1
  Si  Si16  1  0.67408469  0.21482714  0.58434806  1
  Si  Si17  1  0.67408469  0.21482714  0.41565194  1
  Si  Si18  1  0.82891603  0.79400074  0.67075573  1
  Si  Si19  1  0.82591531  0.71482714  0.91565194  1
  Si  Si20  1  0.17108397  0.20599926  0.32924427  1
  Si  Si21  1  0.17108397  0.20599926  0.67075573  1
  Si  Si22  1  0.32891603  0.70599926  0.17075573  1
  Si  Si23  1  0.32591531  0.78517286  0.41565194  1
  Si  Si24  1  0.67108397  0.29400074  0.17075573  1
  Si  Si25  1  0.32891603  0.70599926  0.82924427  1
  Si  Si26  1  0.82891603  0.79400074  0.32924427  1
  Si  Si27  1  0.17408469  0.28517286  0.08434806  1
  Si  Si28  1  0.82591531  0.71482714  0.08434806  1
  Si  Si29  1  0.17408469  0.28517286  0.91565194  1
  O  O30  1  0.06857140  0.84432419  0.62088660  1
  O  O31  1  0.65052609  0.15600621  0.50000000  1
  O  O32  1  0.18462259  0.12034960  0.74762454  1
  O  O33  1  0.16693293  0.11243246  0.08565237  1
  O  O34  1  0.81537741  0.87965040  0.74762454  1
  O  O35  1  0.68462259  0.37965040  0.75237546  1
  O  O36  1  0.66693293  0.38756754  0.41434763  1
  O  O37  1  0.17007524  0.37974001  0.67422959  1
  O  O38  1  0.33306707  0.61243246  0.58565237  1
  O  O39  1  0.94019232  0.34929642  0.86686610  1
  O  O40  1  0.82992476  0.62025999  0.32577041  1
  O  O41  1  0.82992476  0.62025999  0.67422959  1
  O  O42  1  0.67007524  0.12025999  0.17422959  1
  O  O43  1  0.32992476  0.87974001  0.82577041  1
  O  O44  1  0.56857140  0.65567581  0.87911340  1
  O  O45  1  0.43142860  0.34432419  0.12088660  1
  O  O46  1  0.83306707  0.88756754  0.08565237  1
  O  O47  1  0.33306707  0.61243246  0.41434763  1
  O  O48  1  0.17007524  0.37974001  0.32577041  1
  O  O49  1  0.68462259  0.37965040  0.24762454  1
  O  O50  1  0.66693293  0.38756754  0.58565237  1
  O  O51  1  0.83306707  0.88756754  0.91434763  1
  O  O52  1  0.81537741  0.87965040  0.25237546  1
  O  O53  1  0.18462259  0.12034960  0.25237546  1
  O  O54  1  0.93142860  0.15567581  0.62088660  1
  O  O55  1  0.44019232  0.15070358  0.36686610  1
  O  O56  1  0.05980768  0.65070358  0.13313390  1
  O  O57  1  0.44019232  0.15070358  0.63313390  1
  O  O58  1  0.94019232  0.34929642  0.13313390  1
  O  O59  1  0.67007524  0.12025999  0.82577041  1
  O  O60  1  0.15052609  0.34399379  0.00000000  1
  O  O61  1  0.31537741  0.62034960  0.24762454  1
  O  O62  1  0.93142860  0.15567581  0.37911340  1
  O  O63  1  0.32992476  0.87974001  0.17422959  1
  O  O64  1  0.55980768  0.84929642  0.36686610  1
  O  O65  1  0.06857140  0.84432419  0.37911340  1
  O  O66  1  0.84947391  0.65600621  0.00000000  1
  O  O67  1  0.55980768  0.84929642  0.63313390  1
  O  O68  1  0.56857140  0.65567581  0.12088660  1
  O  O69  1  0.43142860  0.34432419  0.87911340  1
  O  O70  1  0.34947391  0.84399379  0.50000000  1
  O  O71  1  0.05980768  0.65070358  0.86686610  1
  O  O72  1  0.16693293  0.11243246  0.91434763  1
  O  O73  1  0.31537741  0.62034960  0.75237546  1
  F  F74  1  0.83529064  0.60290572  0.50000000  1
  F  F75  1  0.33529064  0.89709428  0.00000000  1
  F  F76  1  0.66470936  0.10290572  0.00000000  1
  F  F77  1  0.16470936  0.39709428  0.50000000  1
