# generated using pymatgen
data_Cu3P4(SI)3
_symmetry_space_group_name_H-M   'P 1'
_cell_length_a   7.14029853
_cell_length_b   10.13782347
_cell_length_c   19.47175323
_cell_angle_alpha   90.00000000
_cell_angle_beta   90.00000000
_cell_angle_gamma   90.00000000
_symmetry_Int_Tables_number   1
_chemical_formula_structural   Cu3P4(SI)3
_chemical_formula_sum   'Cu12 P16 S12 I12'
_cell_volume   1409.50347602
_cell_formula_units_Z   4
loop_
 _symmetry_equiv_pos_site_id
 _symmetry_equiv_pos_as_xyz
  1  'x, y, z'
loop_
 _atom_site_type_symbol
 _atom_site_label
 _atom_site_symmetry_multiplicity
 _atom_site_fract_x
 _atom_site_fract_y
 _atom_site_fract_z
 _atom_site_occupancy
  Cu  Cu0  1  0.45756920  0.51719069  0.68281218  1
  Cu  Cu1  1  0.54243080  0.48280931  0.31718782  1
  Cu  Cu2  1  0.46113056  0.25000000  0.86848275  1
  Cu  Cu3  1  0.54243080  0.01719069  0.31718782  1
  Cu  Cu4  1  0.04243080  0.51719069  0.18281218  1
  Cu  Cu5  1  0.45756920  0.98280931  0.68281218  1
  Cu  Cu6  1  0.53886944  0.75000000  0.13151725  1
  Cu  Cu7  1  0.96113056  0.75000000  0.63151725  1
  Cu  Cu8  1  0.95756920  0.48280931  0.81718782  1
  Cu  Cu9  1  0.04243080  0.98280931  0.18281218  1
  Cu  Cu10  1  0.03886944  0.25000000  0.36848275  1
  Cu  Cu11  1  0.95756920  0.01719069  0.81718782  1
  P  P12  1  0.41987763  0.25000000  0.14547775  1
  P  P13  1  0.16163824  0.36309301  0.11344369  1
  P  P14  1  0.66163824  0.86309301  0.38655631  1
  P  P15  1  0.16163824  0.13690699  0.11344369  1
  P  P16  1  0.08012237  0.25000000  0.64547775  1
  P  P17  1  0.33836176  0.13690699  0.61344369  1
  P  P18  1  0.37383872  0.25000000  0.97768323  1
  P  P19  1  0.12616128  0.25000000  0.47768323  1
  P  P20  1  0.91987763  0.75000000  0.35452225  1
  P  P21  1  0.87383872  0.75000000  0.52231677  1
  P  P22  1  0.58012237  0.75000000  0.85452225  1
  P  P23  1  0.83836176  0.86309301  0.88655631  1
  P  P24  1  0.83836176  0.63690699  0.88655631  1
  P  P25  1  0.66163824  0.63690699  0.38655631  1
  P  P26  1  0.33836176  0.36309301  0.61344369  1
  P  P27  1  0.62616128  0.75000000  0.02231677  1
  S  S28  1  0.70602022  0.91081324  0.49018722  1
  S  S29  1  0.79397978  0.91081324  0.99018722  1
  S  S30  1  0.29397978  0.08918676  0.50981278  1
  S  S31  1  0.91846751  0.25000000  0.55561872  1
  S  S32  1  0.70602022  0.58918676  0.49018722  1
  S  S33  1  0.20602022  0.08918676  0.00981278  1
  S  S34  1  0.20602022  0.41081324  0.00981278  1
  S  S35  1  0.58153249  0.25000000  0.05561872  1
  S  S36  1  0.79397978  0.58918676  0.99018722  1
  S  S37  1  0.29397978  0.41081324  0.50981278  1
  S  S38  1  0.41846751  0.75000000  0.94438128  1
  S  S39  1  0.08153249  0.75000000  0.44438128  1
  I  I40  1  0.82785138  0.25000000  0.85854737  1
  I  I41  1  0.67214862  0.25000000  0.35854737  1
  I  I42  1  0.82386522  0.96211875  0.69291088  1
  I  I43  1  0.17214862  0.75000000  0.14145263  1
  I  I44  1  0.17613478  0.03788125  0.30708912  1
  I  I45  1  0.32386522  0.03788125  0.80708912  1
  I  I46  1  0.17613478  0.46211875  0.30708912  1
  I  I47  1  0.32785138  0.75000000  0.64145263  1
  I  I48  1  0.82386522  0.53788125  0.69291088  1
  I  I49  1  0.67613478  0.96211875  0.19291088  1
  I  I50  1  0.67613478  0.53788125  0.19291088  1
  I  I51  1  0.32386522  0.46211875  0.80708912  1
