# generated using pymatgen
data_La2Ti2SiO9
_symmetry_space_group_name_H-M   'P 1'
_cell_length_a   5.78956954
_cell_length_b   7.73812003
_cell_length_c   9.03070980
_cell_angle_alpha   110.05831478
_cell_angle_beta   108.69612696
_cell_angle_gamma   90.00000305
_symmetry_Int_Tables_number   1
_chemical_formula_structural   La2Ti2SiO9
_chemical_formula_sum   'La4 Ti4 Si2 O18'
_cell_volume   357.22666779
_cell_formula_units_Z   2
loop_
 _symmetry_equiv_pos_site_id
 _symmetry_equiv_pos_as_xyz
  1  'x, y, z'
loop_
 _atom_site_type_symbol
 _atom_site_label
 _atom_site_symmetry_multiplicity
 _atom_site_fract_x
 _atom_site_fract_y
 _atom_site_fract_z
 _atom_site_occupancy
  La  La0  1  0.78833739  0.69326194  0.57667479  1
  La  La1  1  0.21166261  0.30673806  0.42332521  1
  La  La2  1  0.89394711  0.30579418  0.78789422  1
  La  La3  1  0.10605289  0.69420582  0.21210578  1
  Ti  Ti4  1  0.24069854  0.00000000  0.00000000  1
  Ti  Ti5  1  0.58116922  0.44709873  0.16233843  1
  Ti  Ti6  1  0.41883078  0.55290127  0.83766157  1
  Ti  Ti7  1  0.75930146  1.00000000  1.00000000  1
  Si  Si8  1  0.66247985  0.97996291  0.32495971  1
  Si  Si9  1  0.33752015  0.02003709  0.67504029  1
  O  O10  1  0.13959772  0.98708162  0.76530865  1
  O  O11  1  0.90094911  0.48270170  0.32209931  1
  O  O12  1  0.65534135  0.76466713  0.31068269  1
  O  O13  1  0.75573966  0.13359760  0.51147932  1
  O  O14  1  0.47213358  0.81346999  0.94426717  1
  O  O15  1  0.34465865  0.23533287  0.68931731  1
  O  O16  1  0.97564668  0.82197083  0.95129335  1
  O  O17  1  0.72289626  0.50000000  1.00000000  1
  O  O18  1  0.42115020  0.48270170  0.32209931  1
  O  O19  1  0.86040228  0.01291838  0.23469135  1
  O  O20  1  0.62571094  0.98708162  0.76530865  1
  O  O21  1  0.52786642  0.18653001  0.05573283  1
  O  O22  1  0.24426034  0.86640240  0.48852068  1
  O  O23  1  0.09905089  0.51729830  0.67790069  1
  O  O24  1  0.02435332  0.17802917  0.04870665  1
  O  O25  1  0.27710374  0.50000000  0.00000000  1
  O  O26  1  0.57884980  0.51729830  0.67790069  1
  O  O27  1  0.37428906  0.01291838  0.23469135  1
