# generated using pymatgen
data_KCrCuF6
_symmetry_space_group_name_H-M   'P 1'
_cell_length_a   6.84503716
_cell_length_b   7.42913156
_cell_length_c   10.18761776
_cell_angle_alpha   90.00000000
_cell_angle_beta   90.00000000
_cell_angle_gamma   94.12133510
_symmetry_Int_Tables_number   1
_chemical_formula_structural   KCrCuF6
_chemical_formula_sum   'K4 Cr4 Cu4 F24'
_cell_volume   516.72800634
_cell_formula_units_Z   4
loop_
 _symmetry_equiv_pos_site_id
 _symmetry_equiv_pos_as_xyz
  1  'x, y, z'
loop_
 _atom_site_type_symbol
 _atom_site_label
 _atom_site_symmetry_multiplicity
 _atom_site_fract_x
 _atom_site_fract_y
 _atom_site_fract_z
 _atom_site_occupancy
  Cu  Cu0  1  0.81875892  0.25497811  0.26723709  1
  Cu  Cu1  1  0.68124108  0.74502189  0.76723709  1
  Cu  Cu2  1  0.18124108  0.74502189  0.73276291  1
  Cu  Cu3  1  0.31875892  0.25497811  0.23276291  1
  Cr  Cr4  1  0.00000000  0.50000000  0.00000000  1
  Cr  Cr5  1  0.50000000  0.50000000  0.50000000  1
  Cr  Cr6  1  0.00000000  0.00000000  0.00000000  1
  Cr  Cr7  1  0.50000000  0.00000000  0.50000000  1
  K  K8  1  0.49813276  0.24269647  0.88470076  1
  K  K9  1  0.00186724  0.75730353  0.38470076  1
  K  K10  1  0.50186724  0.75730353  0.11529924  1
  K  K11  1  0.99813276  0.24269647  0.61529924  1
  F  F12  1  0.86479969  0.97316282  0.16502142  1
  F  F13  1  0.63520031  0.02683718  0.66502142  1
  F  F14  1  0.13520031  0.02683718  0.83497858  1
  F  F15  1  0.36479969  0.97316282  0.33497858  1
  F  F16  1  0.09922906  0.51197026  0.81948423  1
  F  F17  1  0.40077094  0.48802974  0.31948423  1
  F  F18  1  0.90077094  0.48802974  0.18051577  1
  F  F19  1  0.59922906  0.51197026  0.68051577  1
  F  F20  1  0.07999271  0.24413701  0.33047261  1
  F  F21  1  0.42000729  0.75586299  0.83047261  1
  F  F22  1  0.92000729  0.75586299  0.66952739  1
  F  F23  1  0.57999271  0.24413701  0.16952739  1
  F  F24  1  0.08671453  0.75504613  0.02256799  1
  F  F25  1  0.41328547  0.24495387  0.52256799  1
  F  F26  1  0.91328547  0.24495387  0.97743201  1
  F  F27  1  0.58671453  0.75504613  0.47743201  1
  F  F28  1  0.24440327  0.07708625  0.08938363  1
  F  F29  1  0.25559673  0.92291375  0.58938363  1
  F  F30  1  0.75559673  0.92291375  0.91061637  1
  F  F31  1  0.74440327  0.07708625  0.41061637  1
  F  F32  1  0.24340906  0.55403318  0.55828945  1
  F  F33  1  0.25659094  0.44596682  0.05828945  1
  F  F34  1  0.75659094  0.44596682  0.44171055  1
  F  F35  1  0.74340906  0.55403318  0.94171055  1
