# generated using pymatgen
data_BaErAgS3
_symmetry_space_group_name_H-M   'P 1'
_cell_length_a   4.05828419
_cell_length_b   8.60324647
_cell_length_c   8.99848230
_cell_angle_alpha   102.66717756
_cell_angle_beta   103.02701607
_cell_angle_gamma   90.00743355
_symmetry_Int_Tables_number   1
_chemical_formula_structural   BaErAgS3
_chemical_formula_sum   'Ba2 Er2 Ag2 S6'
_cell_volume   298.23475762
_cell_formula_units_Z   2
loop_
 _symmetry_equiv_pos_site_id
 _symmetry_equiv_pos_as_xyz
  1  'x, y, z'
loop_
 _atom_site_type_symbol
 _atom_site_label
 _atom_site_symmetry_multiplicity
 _atom_site_fract_x
 _atom_site_fract_y
 _atom_site_fract_z
 _atom_site_occupancy
  Ba  Ba0  1  0.86414091  0.43111152  0.72828758  1
  Ba  Ba1  1  0.13585909  0.56888848  0.27171242  1
  Er  Er2  1  0.16382585  0.08043807  0.32764680  1
  Er  Er3  1  0.83617415  0.91956193  0.67235320  1
  Ag  Ag4  1  0.51473095  0.20868721  0.02925616  1
  Ag  Ag5  1  0.48526905  0.79131279  0.97074384  1
  S  S6  1  0.32525199  0.12943868  0.65057339  1
  S  S7  1  0.67474801  0.87056132  0.34942661  1
  S  S8  1  0.32398151  0.70091631  0.64808172  1
  S  S9  1  0.67601849  0.29908369  0.35191828  1
  S  S10  1  0.50000000  0.50000000  0.00000000  1
  S  S11  1  0.00000000  0.00000000  0.00000000  1
