# generated using pymatgen
data_NaNb3(TeO4)4
_symmetry_space_group_name_H-M   'P 1'
_cell_length_a   6.71264993
_cell_length_b   7.55558616
_cell_length_c   14.42705301
_cell_angle_alpha   90.00000000
_cell_angle_beta   102.08866798
_cell_angle_gamma   90.00000000
_symmetry_Int_Tables_number   1
_chemical_formula_structural   NaNb3(TeO4)4
_chemical_formula_sum   'Na2 Nb6 Te8 O32'
_cell_volume   715.48540920
_cell_formula_units_Z   2
loop_
 _symmetry_equiv_pos_site_id
 _symmetry_equiv_pos_as_xyz
  1  'x, y, z'
loop_
 _atom_site_type_symbol
 _atom_site_label
 _atom_site_symmetry_multiplicity
 _atom_site_fract_x
 _atom_site_fract_y
 _atom_site_fract_z
 _atom_site_occupancy
  Na  Na0  1  0.50000000  0.50000000  0.50000000  1
  Na  Na1  1  0.50000000  0.00000000  0.50000000  1
  Nb  Nb2  1  0.92301003  0.50021280  0.72640544  1
  Nb  Nb3  1  0.92301003  0.99978720  0.72640544  1
  Nb  Nb4  1  0.07698997  0.49978720  0.27359456  1
  Nb  Nb5  1  0.00000000  0.50000000  0.00000000  1
  Nb  Nb6  1  0.07698997  0.00021280  0.27359456  1
  Nb  Nb7  1  0.00000000  0.00000000  0.00000000  1
  Te  Te8  1  0.51076724  0.75000000  -0.00070941  1
  Te  Te9  1  0.40432267  0.75000000  0.72128790  1
  Te  Te10  1  0.94746127  0.25000000  0.50170482  1
  Te  Te11  1  0.42568264  0.25000000  0.71060824  1
  Te  Te12  1  0.48923276  0.25000000  1.00070941  1
  Te  Te13  1  0.05253873  0.75000000  0.49829518  1
  Te  Te14  1  0.57431736  0.75000000  0.28939176  1
  Te  Te15  1  0.59567733  0.25000000  0.27871210  1
  O  O16  1  0.99019346  0.75000000  0.26097599  1
  O  O17  1  0.62099345  0.43918468  0.70500375  1
  O  O18  1  0.21897659  0.55354058  0.71799937  1
  O  O19  1  0.68791305  0.75000000  0.41896346  1
  O  O20  1  0.85664370  0.75000000  0.68918506  1
  O  O21  1  0.61254568  0.25000000  0.12748566  1
  O  O22  1  0.31208695  0.25000000  0.58103654  1
  O  O23  1  0.21897659  0.94645942  0.71799937  1
  O  O24  1  0.65392154  0.25000000  0.42302916  1
  O  O25  1  0.04742170  0.46687340  0.14210427  1
  O  O26  1  0.78102341  0.05354058  0.28200063  1
  O  O27  1  0.12341198  0.94247001  0.42594508  1
  O  O28  1  0.95257830  0.96687340  0.85789573  1
  O  O29  1  0.37900655  0.56081532  0.29499625  1
  O  O30  1  0.14335630  0.25000000  0.31081494  1
  O  O31  1  0.00980654  0.25000000  0.73902401  1
  O  O32  1  0.62099345  0.06081532  0.70500375  1
  O  O33  1  0.95257830  0.53312660  0.85789573  1
  O  O34  1  0.70300517  0.55931961  0.99505065  1
  O  O35  1  0.87658802  0.05752999  0.57405492  1
  O  O36  1  0.29699483  0.05931961  0.00494935  1
  O  O37  1  0.38745432  0.75000000  0.87251434  1
  O  O38  1  0.92028069  0.25000000  0.98090520  1
  O  O39  1  0.12341198  0.55752999  0.42594508  1
  O  O40  1  0.34607846  0.75000000  0.57697084  1
  O  O41  1  0.70300517  0.94068039  0.99505065  1
  O  O42  1  0.87658802  0.44247001  0.57405492  1
  O  O43  1  0.29699483  0.44068039  0.00494935  1
  O  O44  1  0.07971931  0.75000000  0.01909480  1
  O  O45  1  0.37900655  0.93918468  0.29499625  1
  O  O46  1  0.04742170  0.03312660  0.14210427  1
  O  O47  1  0.78102341  0.44645942  0.28200063  1
