# generated using pymatgen
data_KNd(PO3)4
_symmetry_space_group_name_H-M   'P 1'
_cell_length_a   7.49426190
_cell_length_b   7.49426204
_cell_length_c   10.74893361
_cell_angle_alpha   100.75178461
_cell_angle_beta   100.75178477
_cell_angle_gamma   115.41194095
_symmetry_Int_Tables_number   1
_chemical_formula_structural   KNd(PO3)4
_chemical_formula_sum   'K2 Nd2 P8 O24'
_cell_volume   510.96884927
_cell_formula_units_Z   2
loop_
 _symmetry_equiv_pos_site_id
 _symmetry_equiv_pos_as_xyz
  1  'x, y, z'
loop_
 _atom_site_type_symbol
 _atom_site_label
 _atom_site_symmetry_multiplicity
 _atom_site_fract_x
 _atom_site_fract_y
 _atom_site_fract_z
 _atom_site_occupancy
  K  K0  1  0.31619069  0.18380931  0.75000000  1
  K  K1  1  0.68380931  0.81619069  0.25000000  1
  Nd  Nd2  1  0.62072035  0.87927965  0.75000000  1
  Nd  Nd3  1  0.37927965  0.12072035  0.25000000  1
  P  P4  1  0.19523911  0.74083100  0.44348604  1
  P  P5  1  0.87318625  0.71224904  -0.00036352  1
  P  P6  1  0.12681375  0.28775096  1.00036352  1
  P  P7  1  0.75916900  0.30476089  0.05651396  1
  P  P8  1  0.80476089  0.25916900  0.55651396  1
  P  P9  1  0.24083100  0.69523911  0.94348604  1
  P  P10  1  0.78775096  0.62681375  0.50036352  1
  P  P11  1  0.21224904  0.37318625  0.49963648  1
  O  O12  1  0.03222490  0.28207679  0.57004691  1
  O  O13  1  0.40771790  0.50802666  0.61309428  1
  O  O14  1  0.96777510  0.71792321  0.42995309  1
  O  O15  1  0.80407165  0.81013112  0.59709819  1
  O  O16  1  0.74289499  0.18865189  0.66996477  1
  O  O17  1  0.99197334  0.09228210  0.88690572  1
  O  O18  1  0.59228210  0.49197334  0.38690572  1
  O  O19  1  0.36018823  0.83221096  0.08393133  1
  O  O20  1  0.00802666  0.90771790  0.11309428  1
  O  O21  1  0.78207679  0.53222490  0.07004691  1
  O  O22  1  0.31134811  0.75710501  0.83003523  1
  O  O23  1  0.68986888  0.69592835  0.90290181  1
  O  O24  1  0.63981177  0.16778904  0.91606867  1
  O  O25  1  0.25710501  0.81134811  0.33003523  1
  O  O26  1  0.31013112  0.30407165  0.09709819  1
  O  O27  1  1.00084788  0.64515898  0.91437503  1
  O  O28  1  0.33221096  0.86018823  0.58393133  1
  O  O29  1  0.21792321  0.46777510  0.92995309  1
  O  O30  1  0.85484102  0.49915212  0.58562497  1
  O  O31  1  0.66778904  0.13981177  0.41606867  1
  O  O32  1  0.68865189  0.24289499  0.16996477  1
  O  O33  1  0.19592835  0.18986888  0.40290181  1
  O  O34  1  -0.00084788  0.35484102  0.08562497  1
  O  O35  1  0.14515898  0.50084788  0.41437503  1
