# generated using pymatgen
data_La4Mn(Cu3S5)2
_symmetry_space_group_name_H-M   'P 1'
_cell_length_a   6.61211616
_cell_length_b   7.30594944
_cell_length_c   8.81451359
_cell_angle_alpha   83.43696651
_cell_angle_beta   74.32388894
_cell_angle_gamma   89.87794422
_symmetry_Int_Tables_number   1
_chemical_formula_structural   La4Mn(Cu3S5)2
_chemical_formula_sum   'La4 Mn1 Cu6 S10'
_cell_volume   407.10071542
_cell_formula_units_Z   1
loop_
 _symmetry_equiv_pos_site_id
 _symmetry_equiv_pos_as_xyz
  1  'x, y, z'
loop_
 _atom_site_type_symbol
 _atom_site_label
 _atom_site_symmetry_multiplicity
 _atom_site_fract_x
 _atom_site_fract_y
 _atom_site_fract_z
 _atom_site_occupancy
  La  La0  1  0.27749074  0.07395231  0.82595717  1
  La  La1  1  0.93980243  0.58966646  0.75310483  1
  La  La2  1  0.06019757  0.41033354  0.24689517  1
  La  La3  1  0.72250926  0.92604769  0.17404283  1
  Mn  Mn4  1  0.50000000  0.50000000  0.50000000  1
  Cu  Cu5  1  0.43950121  0.66073307  0.94679026  1
  Cu  Cu6  1  0.21966269  0.79854392  0.34226629  1
  Cu  Cu7  1  0.78033731  0.20145608  0.65773371  1
  Cu  Cu8  1  0.56049879  0.33926693  0.05320974  1
  Cu  Cu9  1  0.33528683  0.09943318  0.42607363  1
  Cu  Cu10  1  0.66471317  0.90056682  0.57392637  1
  S  S11  1  0.86898764  0.70138895  0.42617880  1
  S  S12  1  0.47067277  0.58614153  0.21807752  1
  S  S13  1  0.13101236  0.29861105  0.57382120  1
  S  S14  1  0.08706652  0.73043861  0.00082352  1
  S  S15  1  0.68061343  0.90727131  0.83316805  1
  S  S16  1  0.31591989  0.80787754  0.58159989  1
  S  S17  1  0.68408011  0.19212246  0.41840011  1
  S  S18  1  0.91293348  0.26956139  0.99917648  1
  S  S19  1  0.52932723  0.41385847  0.78192248  1
  S  S20  1  0.31938657  0.09272869  0.16683195  1
