# generated using pymatgen
data_KNa3Al4(SiO4)4
_symmetry_space_group_name_H-M   'P 1'
_cell_length_a   10.14314915
_cell_length_b   10.14314889
_cell_length_c   8.52980686
_cell_angle_alpha   90.00000000
_cell_angle_beta   90.00000000
_cell_angle_gamma   120.00000084
_symmetry_Int_Tables_number   1
_chemical_formula_structural   KNa3Al4(SiO4)4
_chemical_formula_sum   'K2 Na6 Al8 Si8 O32'
_cell_volume   760.00322909
_cell_formula_units_Z   2
loop_
 _symmetry_equiv_pos_site_id
 _symmetry_equiv_pos_as_xyz
  1  'x, y, z'
loop_
 _atom_site_type_symbol
 _atom_site_label
 _atom_site_symmetry_multiplicity
 _atom_site_fract_x
 _atom_site_fract_y
 _atom_site_fract_z
 _atom_site_occupancy
  K  K0  1  0.00000000  0.00000000  0.00398225  1
  K  K1  1  0.00000000  0.00000000  0.50398225  1
  Na  Na2  1  0.45029499  0.44121444  0.50070199  1
  Na  Na3  1  0.99091945  0.54970501  0.50070199  1
  Na  Na4  1  0.44121444  0.99091945  1.00070199  1
  Na  Na5  1  0.00908055  0.45029499  1.00070199  1
  Na  Na6  1  0.54970501  0.55878556  1.00070199  1
  Na  Na7  1  0.55878556  0.00908055  0.50070199  1
  Al  Al8  1  0.66720713  0.76067000  0.31291834  1
  Al  Al9  1  0.76067000  0.09346286  0.81291834  1
  Al  Al10  1  0.66666700  0.33333300  0.30329745  1
  Al  Al11  1  0.33333300  0.66666700  0.80329745  1
  Al  Al12  1  0.09346286  0.33279287  0.31291834  1
  Al  Al13  1  0.90653714  0.66720713  0.81291834  1
  Al  Al14  1  0.33279287  0.23933000  0.81291834  1
  Al  Al15  1  0.23933000  0.90653714  0.31291834  1
  Si  Si16  1  0.90599877  0.66667968  0.18546688  1
  Si  Si17  1  0.23931909  0.90599877  0.68546688  1
  Si  Si18  1  0.76068091  0.09400123  0.18546688  1
  Si  Si19  1  0.66667968  0.76068091  0.68546688  1
  Si  Si20  1  0.33333300  0.66666700  0.19714020  1
  Si  Si21  1  0.66666700  0.33333300  0.69714020  1
  Si  Si22  1  0.33332032  0.23931909  0.18546688  1
  Si  Si23  1  0.09400123  0.33332032  0.68546688  1
  O  O24  1  0.22528233  0.28402182  0.68367354  1
  O  O25  1  0.77471767  0.71597818  0.18367354  1
  O  O26  1  0.97351180  0.68531637  0.00695973  1
  O  O27  1  0.95796710  0.22209253  0.80674590  1
  O  O28  1  0.05873950  0.77471767  0.68367354  1
  O  O29  1  0.77790747  0.73587457  0.80674590  1
  O  O30  1  0.26412543  0.04203290  0.80674590  1
  O  O31  1  0.49038446  0.65128891  0.74157417  1
  O  O32  1  0.71597818  0.94126050  0.68367354  1
  O  O33  1  0.65128891  0.16090446  0.24157417  1
  O  O34  1  0.17183546  0.52396049  0.25818853  1
  O  O35  1  0.31468363  0.28819543  0.00695973  1
  O  O36  1  0.83909554  0.49038446  0.24157417  1
  O  O37  1  0.52396049  0.35212503  0.75818853  1
  O  O38  1  0.64787497  0.17183546  0.75818853  1
  O  O39  1  0.71180457  0.02648820  0.00695973  1
  O  O40  1  0.50961554  0.34871109  0.24157417  1
  O  O41  1  0.34871109  0.83909554  0.74157417  1
  O  O42  1  0.82816454  0.47603951  0.75818853  1
  O  O43  1  0.28819543  0.97351180  0.50695973  1
  O  O44  1  0.02648820  0.31468363  0.50695973  1
  O  O45  1  0.16090446  0.50961554  0.74157417  1
  O  O46  1  0.04203290  0.77790747  0.30674590  1
  O  O47  1  0.73587457  0.95796710  0.30674590  1
  O  O48  1  0.47603951  0.64787497  0.25818853  1
  O  O49  1  0.28402182  0.05873950  0.18367354  1
  O  O50  1  0.66666700  0.33333300  0.50689283  1
  O  O51  1  0.35212503  0.82816454  0.25818853  1
  O  O52  1  0.94126050  0.22528233  0.18367354  1
  O  O53  1  0.68531637  0.71180457  0.50695973  1
  O  O54  1  0.33333300  0.66666700  0.00689283  1
  O  O55  1  0.22209253  0.26412543  0.30674590  1
