# generated using pymatgen
data_Nd10S14O
_symmetry_space_group_name_H-M   'P 1'
_cell_length_a   14.67889232
_cell_length_b   14.67889280
_cell_length_c   14.67889231
_cell_angle_alpha   93.71015051
_cell_angle_beta   117.88156806
_cell_angle_gamma   117.88156561
_symmetry_Int_Tables_number   1
_chemical_formula_structural   Nd10S14O
_chemical_formula_sum   'Nd40 S56 O4'
_cell_volume   2302.86870721
_cell_formula_units_Z   4
loop_
 _symmetry_equiv_pos_site_id
 _symmetry_equiv_pos_as_xyz
  1  'x, y, z'
loop_
 _atom_site_type_symbol
 _atom_site_label
 _atom_site_symmetry_multiplicity
 _atom_site_fract_x
 _atom_site_fract_y
 _atom_site_fract_z
 _atom_site_occupancy
  Nd  Nd0  1  0.75000000  0.25987766  0.24012234  1
  Nd  Nd1  1  0.34485680  0.32546225  0.42590997  1
  Nd  Nd2  1  0.34485680  0.51939455  0.91894683  1
  Nd  Nd3  1  0.98024467  0.24012234  0.99012234  1
  Nd  Nd4  1  0.60044772  0.08105317  0.92590997  1
  Nd  Nd5  1  0.11144006  0.42542177  0.30127114  1
  Nd  Nd6  1  0.12415063  0.69872886  0.31016892  1
  Nd  Nd7  1  0.65514320  0.67453775  0.57409003  1
  Nd  Nd8  1  0.10044772  0.42590997  0.58105317  1
  Nd  Nd9  1  0.61144006  0.31016892  0.68601829  1
  Nd  Nd10  1  0.87584937  0.07457823  0.18601829  1
  Nd  Nd11  1  0.84485680  0.92590997  0.82546225  1
  Nd  Nd12  1  0.38855994  0.19872886  0.07457823  1
  Nd  Nd13  1  0.84485680  0.41894683  0.01939455  1
  Nd  Nd14  1  0.51975533  0.50987766  0.25987766  1
  Nd  Nd15  1  0.25000000  0.00987766  0.49012234  1
  Nd  Nd16  1  0.12415063  0.92542177  0.81398171  1
  Nd  Nd17  1  0.25000000  0.74012234  0.75987766  1
  Nd  Nd18  1  0.60044772  0.01939455  0.67453775  1
  Nd  Nd19  1  0.88855994  0.81398171  0.18983108  1
  Nd  Nd20  1  0.62415063  0.31398171  0.42542177  1
  Nd  Nd21  1  0.89955228  0.82546225  0.48060545  1
  Nd  Nd22  1  0.11144006  0.18601829  0.81016892  1
  Nd  Nd23  1  0.87584937  0.30127114  0.68983108  1
  Nd  Nd24  1  0.37584937  0.18983108  0.80127114  1
  Nd  Nd25  1  0.15514320  0.58105317  0.98060545  1
  Nd  Nd26  1  0.39955228  0.98060545  0.32546225  1
  Nd  Nd27  1  0.65514320  0.48060545  0.08105317  1
  Nd  Nd28  1  0.88855994  0.57457823  0.69872886  1
  Nd  Nd29  1  0.10044772  0.17453775  0.51939455  1
  Nd  Nd30  1  0.15514320  0.07409003  0.17453775  1
  Nd  Nd31  1  0.38855994  0.68983108  0.31398171  1
  Nd  Nd32  1  0.61144006  0.80127114  0.92542177  1
  Nd  Nd33  1  0.48024467  0.49012234  0.74012234  1
  Nd  Nd34  1  0.75000000  0.99012234  0.50987766  1
  Nd  Nd35  1  0.37584937  0.68601829  0.57457823  1
  Nd  Nd36  1  0.01975533  0.75987766  0.00987766  1
  Nd  Nd37  1  0.62415063  0.81016892  0.19872886  1
  Nd  Nd38  1  0.89955228  0.57409003  0.41894683  1
  Nd  Nd39  1  0.39955228  0.91894683  0.07409003  1
  S  S40  1  0.89115792  0.63329195  0.10089974  1
  S  S41  1  0.09265595  0.47188648  0.11376097  1
  S  S42  1  0.09265595  0.12076947  0.97889499  1
  S  S43  1  0.41623178  0.75017841  0.97949127  1
  S  S44  1  0.35215076  0.25000000  0.60215076  1
  S  S45  1  0.77068714  0.02050873  0.93674051  1
  S  S46  1  0.35812552  0.97188648  0.87923053  1
  S  S47  1  0.59265595  0.61376097  0.97188648  1
  S  S48  1  0.58376822  0.24982159  0.02050873  1
  S  S49  1  0.91623178  0.47949127  0.25017841  1
  S  S50  1  0.90734405  0.87923053  0.02110501  1
  S  S51  1  0.72931286  0.66605337  0.24982159  1
  S  S52  1  0.46760779  0.86670805  0.75786597  1
  S  S53  1  0.89115792  0.75786597  0.79025818  1
  S  S54  1  0.59265595  0.47889499  0.62076947  1
  S  S55  1  0.10884208  0.36670805  0.89910026  1
  S  S56  1  0.96760779  0.20974182  0.60089974  1
  S  S57  1  0.64187448  0.11376097  0.52110501  1
  S  S58  1  0.08376822  0.52050873  0.74982159  1
  S  S59  1  0.03239221  0.79025818  0.39910026  1
  S  S60  1  0.40734405  0.52110501  0.37923053  1
  S  S61  1  0.35215076  0.60215076  0.75000000  1
  S  S62  1  0.96760779  0.25786597  0.36670805  1
  S  S63  1  0.03239221  0.74213403  0.63329195  1
  S  S64  1  0.60884208  0.70974182  0.74213403  1
  S  S65  1  0.14187448  0.02110501  0.61376097  1
  S  S66  1  0.91623178  0.93674051  0.66605337  1
  S  S67  1  0.41623178  0.16605337  0.43674051  1
  S  S68  1  0.46760779  0.10089974  0.70974182  1
  S  S69  1  0.14784924  0.89784924  0.25000000  1
  S  S70  1  0.90734405  0.52811352  0.88623903  1
  S  S71  1  0.39115792  0.60089974  0.13329195  1
  S  S72  1  0.10884208  0.24213403  0.20974182  1
  S  S73  1  0.85215076  0.25000000  0.10215076  1
  S  S74  1  0.77068714  0.25017841  0.83394663  1
  S  S75  1  0.27068714  0.33394663  0.75017841  1
  S  S76  1  0.27068714  0.43674051  0.52050873  1
  S  S77  1  0.85812552  0.37923053  0.47188648  1
  S  S78  1  0.64187448  0.02811352  0.12076947  1
  S  S79  1  0.08376822  0.06325949  0.33394663  1
  S  S80  1  0.14784924  0.75000000  0.89784924  1
  S  S81  1  0.35812552  0.88623903  0.47889499  1
  S  S82  1  0.22931286  0.97949127  0.06325949  1
  S  S83  1  0.53239221  0.13329195  0.24213403  1
  S  S84  1  0.39115792  0.29025818  0.25786597  1
  S  S85  1  0.53239221  0.89910026  0.29025818  1
  S  S86  1  0.64784924  0.39784924  0.25000000  1
  S  S87  1  0.64784924  0.75000000  0.39784924  1
  S  S88  1  0.22931286  0.74982159  0.16605337  1
  S  S89  1  0.40734405  0.38623903  0.02811352  1
  S  S90  1  0.85215076  0.10215076  0.75000000  1
  S  S91  1  0.14187448  0.62076947  0.52811352  1
  S  S92  1  0.60884208  0.39910026  0.86670805  1
  S  S93  1  0.85812552  0.97889499  0.38623903  1
  S  S94  1  0.72931286  0.56325949  0.47949127  1
  S  S95  1  0.58376822  0.83394663  0.56325949  1
  O  O96  1  0.75000000  0.87500000  0.12500000  1
  O  O97  1  0.25000000  0.62500000  0.37500000  1
  O  O98  1  0.25000000  0.12500000  0.87500000  1
  O  O99  1  0.75000000  0.37500000  0.62500000  1
