# generated using pymatgen
data_Sm2EuBeO5
_symmetry_space_group_name_H-M   'P 1'
_cell_length_a   6.56484191
_cell_length_b   7.21522952
_cell_length_c   9.54022595
_cell_angle_alpha   90.39391682
_cell_angle_beta   90.00000000
_cell_angle_gamma   90.00000000
_symmetry_Int_Tables_number   1
_chemical_formula_structural   Sm2EuBeO5
_chemical_formula_sum   'Sm8 Eu4 Be4 O20'
_cell_volume   451.87968737
_cell_formula_units_Z   4
loop_
 _symmetry_equiv_pos_site_id
 _symmetry_equiv_pos_as_xyz
  1  'x, y, z'
loop_
 _atom_site_type_symbol
 _atom_site_label
 _atom_site_symmetry_multiplicity
 _atom_site_fract_x
 _atom_site_fract_y
 _atom_site_fract_z
 _atom_site_occupancy
  Eu  Eu0  1  0.58023102  0.97923077  0.67267402  1
  Eu  Eu1  1  0.41976898  0.02076923  0.32732598  1
  Eu  Eu2  1  0.91976898  0.97923077  0.17267402  1
  Eu  Eu3  1  0.08023102  0.02076923  0.82732598  1
  Sm  Sm4  1  0.40514201  0.75042589  0.02228602  1
  Sm  Sm5  1  0.08110386  0.47753636  0.82386986  1
  Sm  Sm6  1  0.90514201  0.24957411  0.47771398  1
  Sm  Sm7  1  0.09485799  0.75042589  0.52228602  1
  Sm  Sm8  1  0.58110386  0.52246364  0.67613014  1
  Sm  Sm9  1  0.59485799  0.24957411  0.97771398  1
  Sm  Sm10  1  0.41889614  0.47753636  0.32386986  1
  Sm  Sm11  1  0.91889614  0.52246364  0.17613014  1
  Be  Be12  1  0.19296455  0.25385658  0.09979938  1
  Be  Be13  1  0.69296455  0.74614342  0.40020062  1
  Be  Be14  1  0.80703545  0.74614342  0.90020062  1
  Be  Be15  1  0.30703545  0.25385658  0.59979938  1
  O  O16  1  0.47931711  0.73198901  0.49057107  1
  O  O17  1  0.52068289  0.26801099  0.50942893  1
  O  O18  1  0.33372642  0.72719405  0.77927518  1
  O  O19  1  0.30699279  0.05980973  0.06657338  1
  O  O20  1  0.02068289  0.73198901  0.99057107  1
  O  O21  1  0.66627358  0.27280595  0.22072482  1
  O  O22  1  0.68328345  0.55690463  0.93101461  1
  O  O23  1  0.69300721  0.94019027  0.93342662  1
  O  O24  1  0.13364034  0.26740084  0.27411427  1
  O  O25  1  0.16627358  0.72719405  0.27927518  1
  O  O26  1  0.31671655  0.44309537  0.06898539  1
  O  O27  1  0.18328345  0.44309537  0.56898539  1
  O  O28  1  0.97931711  0.26801099  0.00942893  1
  O  O29  1  0.63364034  0.73259916  0.22588573  1
  O  O30  1  0.81671655  0.55690463  0.43101461  1
  O  O31  1  0.80699279  0.94019027  0.43342662  1
  O  O32  1  0.19300721  0.05980973  0.56657338  1
  O  O33  1  0.36635966  0.26740084  0.77411427  1
  O  O34  1  0.86635966  0.73259916  0.72588573  1
  O  O35  1  0.83372642  0.27280595  0.72072482  1
