# generated using pymatgen
data_Be(PO3)2
_symmetry_space_group_name_H-M   'P 1'
_cell_length_a   7.21931318
_cell_length_b   7.21931363
_cell_length_c   8.89171848
_cell_angle_alpha   90.00000000
_cell_angle_beta   90.00000000
_cell_angle_gamma   89.07715551
_symmetry_Int_Tables_number   1
_chemical_formula_structural   Be(PO3)2
_chemical_formula_sum   'Be4 P8 O24'
_cell_volume   463.36279560
_cell_formula_units_Z   4
loop_
 _symmetry_equiv_pos_site_id
 _symmetry_equiv_pos_as_xyz
  1  'x, y, z'
loop_
 _atom_site_type_symbol
 _atom_site_label
 _atom_site_symmetry_multiplicity
 _atom_site_fract_x
 _atom_site_fract_y
 _atom_site_fract_z
 _atom_site_occupancy
  Be  Be0  1  0.36468271  0.82783610  0.02789255  1
  Be  Be1  1  0.17216390  0.63531729  0.47210745  1
  Be  Be2  1  0.63531729  0.17216390  0.52789255  1
  Be  Be3  1  0.82783610  0.36468271  0.97210745  1
  P  P4  1  0.93179550  0.06820450  0.75000000  1
  P  P5  1  0.11019940  0.34453773  0.22639355  1
  P  P6  1  0.06820450  0.93179550  0.25000000  1
  P  P7  1  0.34453773  0.11019940  0.77360645  1
  P  P8  1  0.65546227  0.88980060  0.27360645  1
  P  P9  1  0.40942631  0.40942631  0.00000000  1
  P  P10  1  0.59057369  0.59057369  0.50000000  1
  P  P11  1  0.88980060  0.65546227  0.72639355  1
  O  O12  1  0.91441939  0.85613056  0.79790822  1
  O  O13  1  0.86078580  0.53181018  0.85722528  1
  O  O14  1  0.64520788  0.39123744  0.48225821  1
  O  O15  1  0.39123744  0.64520788  0.51774179  1
  O  O16  1  0.60714934  0.04422664  0.37895760  1
  O  O17  1  0.60876256  0.35479212  0.01774179  1
  O  O18  1  0.13921420  0.46818982  0.35722528  1
  O  O19  1  0.14386944  0.08558061  0.70209178  1
  O  O20  1  0.08558061  0.14386944  0.29790822  1
  O  O21  1  0.89118894  0.17270166  0.89131392  1
  O  O22  1  0.85613056  0.91441939  0.20209178  1
  O  O23  1  0.31730943  0.30530819  0.85964321  1
  O  O24  1  0.82729834  0.10881106  0.60868608  1
  O  O25  1  0.95577336  0.39285066  0.12104240  1
  O  O26  1  0.53181018  0.86078580  0.14277472  1
  O  O27  1  0.46818982  0.13921420  0.64277472  1
  O  O28  1  0.35479212  0.60876256  0.98225821  1
  O  O29  1  0.04422664  0.60714934  0.62104240  1
  O  O30  1  0.39285066  0.95577336  0.87895760  1
  O  O31  1  0.30530819  0.31730943  0.14035679  1
  O  O32  1  0.17270166  0.89118894  0.10868608  1
  O  O33  1  0.10881106  0.82729834  0.39131392  1
  O  O34  1  0.68269057  0.69469181  0.35964321  1
  O  O35  1  0.69469181  0.68269057  0.64035679  1
