# generated using pymatgen
data_Li4SiO4
_symmetry_space_group_name_H-M   'P 1'
_cell_length_a   6.15812753
_cell_length_b   11.69642740
_cell_length_c   16.91575167
_cell_angle_alpha   98.96165465
_cell_angle_beta   90.00000000
_cell_angle_gamma   90.00000000
_symmetry_Int_Tables_number   1
_chemical_formula_structural   Li4SiO4
_chemical_formula_sum   'Li56 Si14 O56'
_cell_volume   1203.53596088
_cell_formula_units_Z   14
loop_
 _symmetry_equiv_pos_site_id
 _symmetry_equiv_pos_as_xyz
  1  'x, y, z'
loop_
 _atom_site_type_symbol
 _atom_site_label
 _atom_site_symmetry_multiplicity
 _atom_site_fract_x
 _atom_site_fract_y
 _atom_site_fract_z
 _atom_site_occupancy
  Li  Li0  1  0.25000000  0.97297217  0.42962586  1
  Li  Li1  1  0.49434620  0.52311553  0.11721523  1
  Li  Li2  1  0.00663127  0.66314604  0.82677269  1
  Li  Li3  1  0.03954278  0.23764374  0.59800194  1
  Li  Li4  1  0.98563291  0.92056355  0.13263652  1
  Li  Li5  1  0.75000000  0.12713283  0.71116051  1
  Li  Li6  1  0.53114179  0.19305028  0.01495657  1
  Li  Li7  1  0.25000000  0.27449951  0.85953254  1
  Li  Li8  1  0.02978109  0.94915539  0.70713891  1
  Li  Li9  1  0.03114179  0.80694972  0.98504343  1
  Li  Li10  1  0.97021891  0.05084461  0.29286109  1
  Li  Li11  1  0.99641405  0.61672507  0.59186678  1
  Li  Li12  1  0.53479078  0.33400421  0.73236973  1
  Li  Li13  1  0.25000000  0.00595587  0.01060608  1
  Li  Li14  1  0.25000000  0.14020730  0.73243198  1
  Li  Li15  1  0.75000000  0.72550049  0.14046746  1
  Li  Li16  1  0.46045722  0.23764374  0.59800194  1
  Li  Li17  1  0.00358595  0.38327493  0.40813322  1
  Li  Li18  1  0.51436709  0.92056355  0.13263652  1
  Li  Li19  1  0.99699423  0.18776733  0.45449004  1
  Li  Li20  1  0.25000000  0.12872751  0.14621905  1
  Li  Li21  1  0.96045722  0.76235626  0.40199806  1
  Li  Li22  1  0.49699423  0.81223267  0.54550996  1
  Li  Li23  1  0.50358595  0.61672507  0.59186678  1
  Li  Li24  1  0.03479078  0.66599579  0.26763027  1
  Li  Li25  1  0.25000000  0.58947385  0.98324896  1
  Li  Li26  1  0.75000000  0.27200578  0.30409408  1
  Li  Li27  1  0.47021891  0.94915539  0.70713891  1
  Li  Li28  1  0.53954278  0.76235626  0.40199806  1
  Li  Li29  1  0.49641405  0.38327493  0.40813322  1
  Li  Li30  1  0.52978109  0.05084461  0.29286109  1
  Li  Li31  1  0.50663127  0.33685396  0.17322731  1
  Li  Li32  1  0.99336873  0.33685396  0.17322731  1
  Li  Li33  1  0.00565380  0.52311553  0.11721523  1
  Li  Li34  1  0.25000000  0.45287725  0.27743458  1
  Li  Li35  1  0.25000000  0.87286717  0.28883949  1
  Li  Li36  1  0.00300577  0.81223267  0.54550996  1
  Li  Li37  1  0.48563291  0.07943645  0.86736348  1
  Li  Li38  1  0.75000000  0.85979270  0.26756802  1
  Li  Li39  1  0.25000000  0.72799422  0.69590592  1
  Li  Li40  1  0.75000000  0.99404413  0.98939392  1
  Li  Li41  1  0.75000000  0.02702783  0.57037414  1
  Li  Li42  1  0.25000000  0.41767415  0.55007020  1
  Li  Li43  1  0.46520922  0.66599579  0.26763027  1
  Li  Li44  1  0.01436709  0.07943645  0.86736348  1
  Li  Li45  1  0.75000000  0.58232585  0.44992980  1
  Li  Li46  1  0.75000000  0.87127249  0.85378095  1
  Li  Li47  1  0.99434620  0.47688447  0.88278477  1
  Li  Li48  1  0.96520922  0.33400421  0.73236973  1
  Li  Li49  1  0.75000000  0.54712275  0.72256542  1
  Li  Li50  1  0.96885821  0.19305028  0.01495657  1
  Li  Li51  1  0.49336873  0.66314604  0.82677269  1
  Li  Li52  1  0.50565380  0.47688447  0.88278477  1
  Li  Li53  1  0.46885821  0.80694972  0.98504343  1
  Li  Li54  1  0.75000000  0.41052615  0.01675104  1
  Li  Li55  1  0.50300577  0.18776733  0.45449004  1
  Si  Si56  1  0.25000000  0.47712669  0.71385591  1
  Si  Si57  1  0.25000000  0.75220211  0.13801297  1
  Si  Si58  1  0.75000000  0.52287331  0.28614409  1
  Si  Si59  1  0.75000000  0.38402403  0.57109321  1
  Si  Si60  1  0.75000000  0.10454009  0.14359170  1
  Si  Si61  1  0.75000000  0.65902415  0.99388416  1
  Si  Si62  1  0.25000000  0.34097585  0.00611584  1
  Si  Si63  1  0.75000000  0.24779789  0.86198703  1
  Si  Si64  1  0.25000000  0.61597597  0.42890679  1
  Si  Si65  1  0.25000000  0.89545991  0.85640830  1
  Si  Si66  1  0.75000000  0.95989808  0.42119603  1
  Si  Si67  1  0.25000000  0.20169772  0.29235957  1
  Si  Si68  1  0.75000000  0.79830228  0.70764043  1
  Si  Si69  1  0.25000000  0.04010192  0.57880397  1
  O  O70  1  0.25000000  0.33421684  0.67587415  1
  O  O71  1  0.25000000  0.90906142  0.53003854  1
  O  O72  1  0.75000000  0.23755296  0.18704395  1
  O  O73  1  0.25000000  0.28228018  0.22107116  1
  O  O74  1  0.52717140  0.64234779  0.93966595  1
  O  O75  1  0.75000000  0.30406178  0.64670484  1
  O  O76  1  0.75000000  0.38282928  0.90122790  1
  O  O77  1  0.52891444  0.34499119  0.51849008  1
  O  O78  1  0.46810406  0.78510713  0.19611561  1
  O  O79  1  0.96810406  0.21489287  0.80388439  1
  O  O80  1  0.25000000  0.61717072  0.09877210  1
  O  O81  1  0.53293764  0.07257785  0.08405309  1
  O  O82  1  0.52917847  0.50201829  0.23018731  1
  O  O83  1  0.25000000  0.99194277  0.79332236  1
  O  O84  1  0.97393111  0.78238852  0.65399832  1
  O  O85  1  0.75000000  0.00805723  0.20667764  1
  O  O86  1  0.97282860  0.64234779  0.93966595  1
  O  O87  1  0.25000000  0.06287903  0.24626055  1
  O  O88  1  0.02917847  0.49798171  0.76981269  1
  O  O89  1  0.25000000  0.55557478  0.64133509  1
  O  O90  1  0.52606889  0.78238852  0.65399832  1
  O  O91  1  0.75000000  0.86743845  0.48551690  1
  O  O92  1  0.47108556  0.65500881  0.48150992  1
  O  O93  1  0.53238367  0.93063366  0.36207204  1
  O  O94  1  0.97108556  0.34499119  0.51849008  1
  O  O95  1  0.25000000  0.76244704  0.81295605  1
  O  O96  1  0.02606889  0.21761148  0.34600168  1
  O  O97  1  0.96761633  0.93063366  0.36207204  1
  O  O98  1  0.97082153  0.50201829  0.23018731  1
  O  O99  1  0.03238367  0.06936634  0.63792796  1
  O  O100  1  0.75000000  0.66578316  0.32412585  1
  O  O101  1  0.47082153  0.49798171  0.76981269  1
  O  O102  1  0.75000000  0.52270178  0.60474352  1
  O  O103  1  0.53189594  0.21489287  0.80388439  1
  O  O104  1  0.25000000  0.42077500  0.93416438  1
  O  O105  1  0.46706236  0.92742215  0.91594691  1
  O  O106  1  0.47393111  0.21761148  0.34600168  1
  O  O107  1  0.25000000  0.69593822  0.35329516  1
  O  O108  1  0.96706236  0.07257785  0.08405309  1
  O  O109  1  0.47282860  0.35765221  0.06033405  1
  O  O110  1  0.25000000  0.47729822  0.39525648  1
  O  O111  1  0.75000000  0.71771982  0.77892884  1
  O  O112  1  0.75000000  0.57922500  0.06583562  1
  O  O113  1  0.25000000  0.13256155  0.51448310  1
  O  O114  1  0.02891444  0.65500881  0.48150992  1
  O  O115  1  0.75000000  0.15616942  0.92881504  1
  O  O116  1  0.75000000  0.44442522  0.35866491  1
  O  O117  1  0.25000000  0.84383058  0.07118496  1
  O  O118  1  0.75000000  0.93712097  0.75373945  1
  O  O119  1  0.75000000  0.09093858  0.46996146  1
  O  O120  1  0.02717140  0.35765221  0.06033405  1
  O  O121  1  0.46761633  0.06936634  0.63792796  1
  O  O122  1  0.03189594  0.78510713  0.19611561  1
  O  O123  1  0.75000000  0.79944599  0.03949929  1
  O  O124  1  0.03293764  0.92742215  0.91594691  1
  O  O125  1  0.25000000  0.20055401  0.96050071  1
