# generated using pymatgen
data_CsNiPdF5
_symmetry_space_group_name_H-M   'P 1'
_cell_length_a   6.65372007
_cell_length_b   7.36433044
_cell_length_c   7.36433041
_cell_angle_alpha   62.02485458
_cell_angle_beta   63.14377490
_cell_angle_gamma   63.14377754
_symmetry_Int_Tables_number   1
_chemical_formula_structural   CsNiPdF5
_chemical_formula_sum   'Cs2 Ni2 Pd2 F10'
_cell_volume   270.82252851
_cell_formula_units_Z   2
loop_
 _symmetry_equiv_pos_site_id
 _symmetry_equiv_pos_as_xyz
  1  'x, y, z'
loop_
 _atom_site_type_symbol
 _atom_site_label
 _atom_site_symmetry_multiplicity
 _atom_site_fract_x
 _atom_site_fract_y
 _atom_site_fract_z
 _atom_site_occupancy
  Cs  Cs0  1  0.38093072  0.86906928  0.36906928  1
  Cs  Cs1  1  0.61906928  0.13093072  0.63093072  1
  Ni  Ni2  1  0.00000000  0.00000000  0.00000000  1
  Ni  Ni3  1  0.00000000  0.50000000  0.50000000  1
  Pd  Pd4  1  0.50000000  0.50000000  0.00000000  1
  Pd  Pd5  1  0.00000000  0.50000000  0.00000000  1
  F  F6  1  0.89356267  0.44210465  0.31786960  1
  F  F7  1  0.65353692  0.55789535  0.68213040  1
  F  F8  1  0.10643733  0.18213040  0.05789535  1
  F  F9  1  0.34646308  0.81786960  0.94210465  1
  F  F10  1  0.10643733  0.55789535  0.68213040  1
  F  F11  1  0.34646308  0.44210465  0.31786960  1
  F  F12  1  0.92994103  0.82005897  0.32005897  1
  F  F13  1  0.07005897  0.17994103  0.67994103  1
  F  F14  1  0.65353692  0.18213040  0.05789535  1
  F  F15  1  0.89356267  0.81786960  0.94210465  1
