# generated using pymatgen
data_LaCl3O7
_symmetry_space_group_name_H-M   'P 1'
_cell_length_a   8.18491406
_cell_length_b   5.60956297
_cell_length_c   8.98615818
_cell_angle_alpha   94.98967177
_cell_angle_beta   90.57485497
_cell_angle_gamma   79.89415975
_symmetry_Int_Tables_number   1
_chemical_formula_structural   LaCl3O7
_chemical_formula_sum   'La2 Cl6 O14'
_cell_volume   404.64235745
_cell_formula_units_Z   2
loop_
 _symmetry_equiv_pos_site_id
 _symmetry_equiv_pos_as_xyz
  1  'x, y, z'
loop_
 _atom_site_type_symbol
 _atom_site_label
 _atom_site_symmetry_multiplicity
 _atom_site_fract_x
 _atom_site_fract_y
 _atom_site_fract_z
 _atom_site_occupancy
  La  La0  1  0.19145981  0.23910105  0.25641620  1
  La  La1  1  0.80854019  0.76089895  0.74358380  1
  Cl  Cl2  1  0.74083660  0.26581725  0.43212135  1
  Cl  Cl3  1  0.25916340  0.73418275  0.56787865  1
  Cl  Cl4  1  0.64742709  0.27687925  0.91308338  1
  Cl  Cl5  1  0.35257291  0.72312075  0.08691662  1
  Cl  Cl6  1  0.16450106  0.29789798  0.84613649  1
  Cl  Cl7  1  0.83549894  0.70210202  0.15386351  1
  O  O8  1  0.43368950  0.92855669  0.17632922  1
  O  O9  1  0.56631050  0.07144331  0.82367078  1
  O  O10  1  0.37651805  0.48558719  0.17283755  1
  O  O11  1  0.62348195  0.51441281  0.82716245  1
  O  O12  1  0.23106862  0.89782382  0.44427133  1
  O  O13  1  0.76893138  0.10217618  0.55572867  1
  O  O14  1  0.26489104  0.47599383  0.50034061  1
  O  O15  1  0.73510896  0.52400617  0.49965939  1
  O  O16  1  0.14670113  0.16149327  0.99000949  1
  O  O17  1  0.85329887  0.83850673  0.00999051  1
  O  O18  1  0.89201599  0.20711394  0.33342869  1
  O  O19  1  0.10798401  0.79288606  0.66657131  1
  O  O20  1  0.01407914  0.61684773  0.21816897  1
  O  O21  1  0.98592086  0.38315227  0.78183103  1
