# generated using pymatgen
data_RbGa3(P3O10)2
_symmetry_space_group_name_H-M   'P 1'
_cell_length_a   8.35675590
_cell_length_b   8.35675567
_cell_length_c   12.21933858
_cell_angle_alpha   90.00000000
_cell_angle_beta   90.00000000
_cell_angle_gamma   105.18580947
_symmetry_Int_Tables_number   1
_chemical_formula_structural   RbGa3(P3O10)2
_chemical_formula_sum   'Rb2 Ga6 P12 O40'
_cell_volume   823.54449074
_cell_formula_units_Z   2
loop_
 _symmetry_equiv_pos_site_id
 _symmetry_equiv_pos_as_xyz
  1  'x, y, z'
loop_
 _atom_site_type_symbol
 _atom_site_label
 _atom_site_symmetry_multiplicity
 _atom_site_fract_x
 _atom_site_fract_y
 _atom_site_fract_z
 _atom_site_occupancy
  Rb  Rb0  1  0.47362324  0.47362324  0.50000000  1
  Rb  Rb1  1  0.52637676  0.52637676  0.00000000  1
  Ga  Ga2  1  0.70628050  0.29371950  0.25000000  1
  Ga  Ga3  1  0.86452477  0.86452477  0.50000000  1
  Ga  Ga4  1  0.29371950  0.70628050  0.75000000  1
  Ga  Ga5  1  0.24369457  0.75630543  0.25000000  1
  Ga  Ga6  1  0.75630543  0.24369457  0.75000000  1
  Ga  Ga7  1  0.13547523  0.13547523  0.00000000  1
  P  P8  1  0.14984739  0.74112655  0.98786732  1
  P  P9  1  0.69703047  0.82564324  0.72328762  1
  P  P10  1  0.09387476  0.36737946  0.31702994  1
  P  P11  1  0.90612524  0.63262054  0.81702994  1
  P  P12  1  0.17435676  0.30296953  0.77671238  1
  P  P13  1  0.63262054  0.90612524  0.18297006  1
  P  P14  1  0.85015261  0.25887345  0.48786732  1
  P  P15  1  0.30296953  0.17435676  0.22328762  1
  P  P16  1  0.25887345  0.85015261  0.51213268  1
  P  P17  1  0.82564324  0.69703047  0.27671238  1
  P  P18  1  0.36737946  0.09387476  0.68297006  1
  P  P19  1  0.74112655  0.14984739  0.01213268  1
  O  O20  1  0.94959436  0.33406570  0.23969121  1
  O  O21  1  0.74942781  0.73761589  0.38648575  1
  O  O22  1  0.01034548  0.73099215  0.29055855  1
  O  O23  1  0.21036533  0.17223750  0.68625419  1
  O  O24  1  0.76800118  0.47606921  0.80148018  1
  O  O25  1  0.17223750  0.21036533  0.31374581  1
  O  O26  1  0.03478678  0.36235684  0.44259160  1
  O  O27  1  0.63764316  0.96521322  0.05740840  1
  O  O28  1  0.67865221  0.16136736  0.89735156  1
  O  O29  1  0.72872585  0.53107745  0.23283273  1
  O  O30  1  0.72381956  0.30433205  0.41202211  1
  O  O31  1  0.92283774  0.14630046  0.02181015  1
  O  O32  1  0.36235684  0.03478678  0.55740840  1
  O  O33  1  0.52393079  0.23199882  0.69851982  1
  O  O34  1  0.14630046  0.92283774  0.97818985  1
  O  O35  1  0.53107745  0.72872585  0.76716727  1
  O  O36  1  0.85369954  0.07716226  0.47818985  1
  O  O37  1  0.26900785  0.98965452  0.20944145  1
  O  O38  1  0.32134779  0.83863264  0.39735156  1
  O  O39  1  0.07716226  0.85369954  0.52181015  1
  O  O40  1  0.25057219  0.26238411  0.88648575  1
  O  O41  1  0.69566795  0.27618044  0.08797789  1
  O  O42  1  0.83863264  0.32134779  0.60264844  1
  O  O43  1  0.82776250  0.78963467  0.81374581  1
  O  O44  1  0.05040564  0.66593430  0.73969121  1
  O  O45  1  0.73099215  0.01034548  0.70944145  1
  O  O46  1  0.23199882  0.52393079  0.30148018  1
  O  O47  1  0.26238411  0.25057219  0.11351425  1
  O  O48  1  0.30433205  0.72381956  0.58797789  1
  O  O49  1  0.33406570  0.94959436  0.76030879  1
  O  O50  1  0.47606921  0.76800118  0.19851982  1
  O  O51  1  0.78963467  0.82776250  0.18625419  1
  O  O52  1  0.27127415  0.46892255  0.73283273  1
  O  O53  1  0.16136736  0.67865221  0.10264844  1
  O  O54  1  0.27618044  0.69566795  0.91202211  1
  O  O55  1  0.66593430  0.05040564  0.26030879  1
  O  O56  1  0.98965452  0.26900785  0.79055855  1
  O  O57  1  0.96521322  0.63764316  0.94259160  1
  O  O58  1  0.46892255  0.27127415  0.26716727  1
  O  O59  1  0.73761589  0.74942781  0.61351425  1
