# generated using pymatgen
data_Ce2Ti2SiO9
_symmetry_space_group_name_H-M   'P 1'
_cell_length_a   5.79253966
_cell_length_b   7.69977719
_cell_length_c   8.98276457
_cell_angle_alpha   110.02101427
_cell_angle_beta   108.80965763
_cell_angle_gamma   90.00000188
_symmetry_Int_Tables_number   1
_chemical_formula_structural   Ce2Ti2SiO9
_chemical_formula_sum   'Ce4 Ti4 Si2 O18'
_cell_volume   353.57215647
_cell_formula_units_Z   2
loop_
 _symmetry_equiv_pos_site_id
 _symmetry_equiv_pos_as_xyz
  1  'x, y, z'
loop_
 _atom_site_type_symbol
 _atom_site_label
 _atom_site_symmetry_multiplicity
 _atom_site_fract_x
 _atom_site_fract_y
 _atom_site_fract_z
 _atom_site_occupancy
  Ce  Ce0  1  0.10448533  0.69456956  0.20897066  1
  Ce  Ce1  1  0.89551467  0.30543044  0.79102934  1
  Ce  Ce2  1  0.21186546  0.31482478  0.42373092  1
  Ce  Ce3  1  0.78813454  0.68517522  0.57626908  1
  Ti  Ti4  1  0.41856173  0.55184217  0.83712346  1
  Ti  Ti5  1  0.23983503  1.00000000  1.00000000  1
  Ti  Ti6  1  0.76016497  0.00000000  0.00000000  1
  Ti  Ti7  1  0.58143827  0.44815783  0.16287654  1
  Si  Si8  1  0.33568623  0.01734975  0.67137245  1
  Si  Si9  1  0.66431377  0.98265025  0.32862755  1
  O  O10  1  0.52817382  0.19060735  0.05634764  1
  O  O11  1  0.09344319  0.51600059  0.67340424  1
  O  O12  1  0.65687762  0.76490791  0.31375524  1
  O  O13  1  0.97705273  0.81593010  0.95410546  1
  O  O14  1  0.42003895  0.48399941  0.32659576  1
  O  O15  1  0.62495281  0.98422845  0.76056544  1
  O  O16  1  0.27196193  0.50000000  1.00000000  1
  O  O17  1  0.02294727  0.18406990  0.04589454  1
  O  O18  1  0.57996105  0.51600059  0.67340424  1
  O  O19  1  0.72803807  0.50000000  0.00000000  1
  O  O20  1  0.34312238  0.23509209  0.68624476  1
  O  O21  1  0.37504719  0.01577155  0.23943456  1
  O  O22  1  0.24109658  0.86346224  0.48219316  1
  O  O23  1  0.90655681  0.48399941  0.32659576  1
  O  O24  1  0.13561263  0.98422845  0.76056544  1
  O  O25  1  0.75890342  0.13653776  0.51780684  1
  O  O26  1  0.47182618  0.80939265  0.94365236  1
  O  O27  1  0.86438737  0.01577155  0.23943456  1
