# generated using pymatgen
data_MgBi5
_symmetry_space_group_name_H-M   'P 1'
_cell_length_a   6.12063073
_cell_length_b   6.12059785
_cell_length_c   6.66493532
_cell_angle_alpha   117.20694448
_cell_angle_beta   62.79277762
_cell_angle_gamma   119.50956053
_symmetry_Int_Tables_number   1
_chemical_formula_structural   MgBi5
_chemical_formula_sum   'Mg1 Bi5'
_cell_volume   184.36389796
_cell_formula_units_Z   1
loop_
 _symmetry_equiv_pos_site_id
 _symmetry_equiv_pos_as_xyz
  1  'x, y, z'
loop_
 _atom_site_type_symbol
 _atom_site_label
 _atom_site_symmetry_multiplicity
 _atom_site_fract_x
 _atom_site_fract_y
 _atom_site_fract_z
 _atom_site_occupancy
  Mg  Mg0  1  0.83261730  0.49928643  0.49999821  1
  Bi  Bi1  1  0.68963198  0.35629780  0.99999861  1
  Bi  Bi2  1  0.33413746  0.64280665  0.99929690  1
  Bi  Bi3  1  0.97614252  0.00080199  0.00070364  1
  Bi  Bi4  1  0.50517127  0.82897501  0.48758913  1
  Bi  Bi5  1  0.16229947  0.17183412  0.51241351  1
