# generated using pymatgen
data_CeP5
_symmetry_space_group_name_H-M   'P 1'
_cell_length_a   4.60790064
_cell_length_b   5.57480990
_cell_length_c   9.57692510
_cell_angle_alpha   90.00000000
_cell_angle_beta   90.00000000
_cell_angle_gamma   108.93770540
_symmetry_Int_Tables_number   1
_chemical_formula_structural   CeP5
_chemical_formula_sum   'Ce2 P10'
_cell_volume   232.69745002
_cell_formula_units_Z   2
loop_
 _symmetry_equiv_pos_site_id
 _symmetry_equiv_pos_as_xyz
  1  'x, y, z'
loop_
 _atom_site_type_symbol
 _atom_site_label
 _atom_site_symmetry_multiplicity
 _atom_site_fract_x
 _atom_site_fract_y
 _atom_site_fract_z
 _atom_site_occupancy
  P  P0  1  0.23590513  0.55345233  0.25000000  1
  P  P1  1  0.76409487  0.44654767  0.75000000  1
  P  P2  1  0.13304069  0.48049260  0.90551092  1
  P  P3  1  0.86695931  0.51950740  0.40551092  1
  P  P4  1  0.86695931  0.51950740  0.09448908  1
  P  P5  1  0.13304069  0.48049260  0.59448908  1
  P  P6  1  0.20923793  0.11181121  0.94293517  1
  P  P7  1  0.79076207  0.88818879  0.44293517  1
  P  P8  1  0.79076207  0.88818879  0.05706483  1
  P  P9  1  0.20923793  0.11181121  0.55706483  1
  Ce  Ce10  1  0.40289896  0.09455738  0.25000000  1
  Ce  Ce11  1  0.59710104  0.90544262  0.75000000  1
