# generated using pymatgen
data_LiV3(TeO6)2
_symmetry_space_group_name_H-M   'P 1'
_cell_length_a   6.30189388
_cell_length_b   7.24644161
_cell_length_c   10.80606901
_cell_angle_alpha   91.42454148
_cell_angle_beta   93.23646385
_cell_angle_gamma   104.89916348
_symmetry_Int_Tables_number   1
_chemical_formula_structural   LiV3(TeO6)2
_chemical_formula_sum   'Li2 V6 Te4 O24'
_cell_volume   475.72531667
_cell_formula_units_Z   2
loop_
 _symmetry_equiv_pos_site_id
 _symmetry_equiv_pos_as_xyz
  1  'x, y, z'
loop_
 _atom_site_type_symbol
 _atom_site_label
 _atom_site_symmetry_multiplicity
 _atom_site_fract_x
 _atom_site_fract_y
 _atom_site_fract_z
 _atom_site_occupancy
  Li  Li0  1  0.78988834  0.77469611  0.10903414  1
  Li  Li1  1  0.21011166  0.22530389  0.89096586  1
  V  V2  1  0.38194833  0.80595511  0.57860886  1
  V  V3  1  0.61880332  0.22923456  0.08416025  1
  V  V4  1  0.38119668  0.77076544  0.91583975  1
  V  V5  1  0.65930464  0.21115241  0.75478097  1
  V  V6  1  0.61805167  0.19404489  0.42139114  1
  V  V7  1  0.34069536  0.78884759  0.24521903  1
  Te  Te8  1  0.16652646  0.21541201  0.59229393  1
  Te  Te9  1  0.85770277  0.81723011  0.78787663  1
  Te  Te10  1  0.83347354  0.78458799  0.40770607  1
  Te  Te11  1  0.14229723  0.18276989  0.21212337  1
  O  O12  1  0.09167137  0.90563781  0.21438239  1
  O  O13  1  0.48191800  0.84289815  0.74582320  1
  O  O14  1  0.37948460  0.88139533  0.40830702  1
  O  O15  1  0.29986178  0.22315118  0.06540258  1
  O  O16  1  0.70013822  0.77684882  0.93459742  1
  O  O17  1  0.20971589  0.59356618  0.57541195  1
  O  O18  1  0.18154258  0.57221769  0.24393600  1
  O  O19  1  0.79028411  0.40643382  0.42458805  1
  O  O20  1  0.85313617  0.05838967  0.40523607  1
  O  O21  1  0.14686383  0.94161033  0.59476393  1
  O  O22  1  0.26726189  0.54234230  0.90517205  1
  O  O23  1  0.90832763  0.09436219  0.78561761  1
  O  O24  1  0.51808200  0.15710185  0.25417680  1
  O  O25  1  0.81845742  0.42778231  0.75606400  1
  O  O26  1  0.62051540  0.11860467  0.59169298  1
  O  O27  1  0.73273811  0.45765770  0.09482795  1
  O  O28  1  0.62577278  0.73095246  0.26701351  1
  O  O29  1  0.41523810  0.83885921  0.08088218  1
  O  O30  1  0.85773581  0.12643074  0.11730011  1
  O  O31  1  0.14226419  0.87356926  0.88269989  1
  O  O32  1  0.37422722  0.26904754  0.73298649  1
  O  O33  1  0.35547063  0.26573042  0.45763234  1
  O  O34  1  0.64452937  0.73426958  0.54236766  1
  O  O35  1  0.58476190  0.16114079  0.91911782  1
