# generated using pymatgen
data_Ba2V2ZnO8
_symmetry_space_group_name_H-M   'P 1'
_cell_length_a   6.27053119
_cell_length_b   8.06773124
_cell_length_c   16.44960176
_cell_angle_alpha   90.00000000
_cell_angle_beta   90.00000000
_cell_angle_gamma   90.32835510
_symmetry_Int_Tables_number   1
_chemical_formula_structural   Ba2V2ZnO8
_chemical_formula_sum   'Ba8 V8 Zn4 O32'
_cell_volume   832.15458696
_cell_formula_units_Z   4
loop_
 _symmetry_equiv_pos_site_id
 _symmetry_equiv_pos_as_xyz
  1  'x, y, z'
loop_
 _atom_site_type_symbol
 _atom_site_label
 _atom_site_symmetry_multiplicity
 _atom_site_fract_x
 _atom_site_fract_y
 _atom_site_fract_z
 _atom_site_occupancy
  Ba  Ba0  1  0.73703595  0.63879882  0.45748838  1
  Ba  Ba1  1  0.76296405  0.36120118  0.95748838  1
  Ba  Ba2  1  0.23703595  0.63879882  0.04251162  1
  Ba  Ba3  1  0.77733745  0.14371565  0.37074103  1
  Ba  Ba4  1  0.72266255  0.85628435  0.87074103  1
  Ba  Ba5  1  0.26296405  0.36120118  0.54251162  1
  Ba  Ba6  1  0.22266255  0.85628435  0.62925897  1
  Ba  Ba7  1  0.27733745  0.14371565  0.12925897  1
  V  V8  1  0.76412683  0.59500594  0.66971381  1
  V  V9  1  0.73587317  0.40499406  0.16971381  1
  V  V10  1  0.75364130  0.87640330  0.09104964  1
  V  V11  1  0.23587317  0.40499406  0.33028619  1
  V  V12  1  0.25364130  0.87640330  0.40895036  1
  V  V13  1  0.24635870  0.12359670  0.90895036  1
  V  V14  1  0.26412683  0.59500594  0.83028619  1
  V  V15  1  0.74635870  0.12359670  0.59104964  1
  Zn  Zn16  1  0.99777702  0.72702386  0.24996104  1
  Zn  Zn17  1  0.50222298  0.27297614  0.74996104  1
  Zn  Zn18  1  0.49777702  0.72702386  0.25003896  1
  Zn  Zn19  1  0.00222298  0.27297614  0.75003896  1
  O  O20  1  0.46706787  0.39680604  0.38726175  1
  O  O21  1  0.00859139  0.85041079  0.35356540  1
  O  O22  1  0.22601154  0.28429538  0.97637154  1
  O  O23  1  0.68628095  0.22110476  0.21743291  1
  O  O24  1  0.49126123  0.86890369  0.34802232  1
  O  O25  1  0.27398846  0.71570462  0.47637154  1
  O  O26  1  0.72601154  0.28429538  0.52362846  1
  O  O27  1  0.81371905  0.77889524  0.71743291  1
  O  O28  1  0.26061053  0.94765820  0.96649744  1
  O  O29  1  0.49140861  0.14958921  0.85356540  1
  O  O30  1  0.97112101  0.57590341  0.60061688  1
  O  O31  1  0.00873877  0.13109631  0.84802232  1
  O  O32  1  0.53293213  0.60319396  0.61273825  1
  O  O33  1  0.73938947  0.05234180  0.03350256  1
  O  O34  1  0.96706787  0.39680604  0.11273825  1
  O  O35  1  0.25331292  0.42194566  0.75716277  1
  O  O36  1  0.76061053  0.94765820  0.53350256  1
  O  O37  1  0.03293213  0.60319396  0.88726175  1
  O  O38  1  0.50873877  0.13109631  0.65197768  1
  O  O39  1  0.24668708  0.57805434  0.25716277  1
  O  O40  1  0.75331292  0.42194566  0.74283723  1
  O  O41  1  0.52887899  0.42409659  0.10061688  1
  O  O42  1  0.31371905  0.77889524  0.78256709  1
  O  O43  1  0.99140861  0.14958921  0.64643460  1
  O  O44  1  0.77398846  0.71570462  0.02362846  1
  O  O45  1  0.74668708  0.57805434  0.24283723  1
  O  O46  1  0.23938947  0.05234180  0.46649744  1
  O  O47  1  0.50859139  0.85041079  0.14643460  1
  O  O48  1  0.99126123  0.86890369  0.15197768  1
  O  O49  1  0.02887899  0.42409659  0.39938312  1
  O  O50  1  0.47112101  0.57590341  0.89938312  1
  O  O51  1  0.18628095  0.22110476  0.28256709  1
