# generated using pymatgen
data_Na5MoNO4
_symmetry_space_group_name_H-M   'P 1'
_cell_length_a   5.77273195
_cell_length_b   5.77273182
_cell_length_c   10.84058672
_cell_angle_alpha   90.00000000
_cell_angle_beta   90.00000000
_cell_angle_gamma   119.16121380
_symmetry_Int_Tables_number   1
_chemical_formula_structural   Na5MoNO4
_chemical_formula_sum   'Na10 Mo2 N2 O8'
_cell_volume   315.46793048
_cell_formula_units_Z   2
loop_
 _symmetry_equiv_pos_site_id
 _symmetry_equiv_pos_as_xyz
  1  'x, y, z'
loop_
 _atom_site_type_symbol
 _atom_site_label
 _atom_site_symmetry_multiplicity
 _atom_site_fract_x
 _atom_site_fract_y
 _atom_site_fract_z
 _atom_site_occupancy
  Na  Na0  1  0.80909132  0.19090868  0.50000000  1
  Na  Na1  1  0.80909132  0.19090868  0.00000000  1
  Na  Na2  1  0.16899172  0.54546180  0.75000000  1
  Na  Na3  1  0.54546180  0.16899172  0.75000000  1
  Na  Na4  1  0.50000000  0.50000000  0.00000000  1
  Na  Na5  1  0.19090868  0.80909132  0.50000000  1
  Na  Na6  1  0.19090868  0.80909132  0.00000000  1
  Na  Na7  1  0.50000000  0.50000000  0.50000000  1
  Na  Na8  1  0.83100828  0.45453820  0.25000000  1
  Na  Na9  1  0.45453820  0.83100828  0.25000000  1
  Mo  Mo10  1  0.20758860  0.20758860  0.25000000  1
  Mo  Mo11  1  0.79241140  0.79241140  0.75000000  1
  N  N12  1  0.90664217  0.90664217  0.25000000  1
  N  N13  1  0.09335783  0.09335783  0.75000000  1
  O  O14  1  0.55925179  0.83459808  0.62712520  1
  O  O15  1  0.83459808  0.55925179  0.62712520  1
  O  O16  1  0.44074821  0.16540192  0.37287480  1
  O  O17  1  0.16540192  0.44074821  0.37287480  1
  O  O18  1  0.16540192  0.44074821  0.12712520  1
  O  O19  1  0.44074821  0.16540192  0.12712520  1
  O  O20  1  0.83459808  0.55925179  0.87287480  1
  O  O21  1  0.55925179  0.83459808  0.87287480  1
