# generated using pymatgen
data_Na3Fe2(PO4)3
_symmetry_space_group_name_H-M   'P 1'
_cell_length_a   8.84549931
_cell_length_b   8.84549902
_cell_length_c   8.90897924
_cell_angle_alpha   59.77334992
_cell_angle_beta   59.77335102
_cell_angle_gamma   60.16180954
_symmetry_Int_Tables_number   1
_chemical_formula_structural   Na3Fe2(PO4)3
_chemical_formula_sum   'Na6 Fe4 P6 O24'
_cell_volume   491.79702451
_cell_formula_units_Z   2
loop_
 _symmetry_equiv_pos_site_id
 _symmetry_equiv_pos_as_xyz
  1  'x, y, z'
loop_
 _atom_site_type_symbol
 _atom_site_label
 _atom_site_symmetry_multiplicity
 _atom_site_fract_x
 _atom_site_fract_y
 _atom_site_fract_z
 _atom_site_occupancy
  Na  Na0  1  0.89098035  0.75159826  0.24140854  1
  Na  Na1  1  0.10901965  0.24840174  0.75859146  1
  Na  Na2  1  0.75159826  0.89098035  0.74140854  1
  Na  Na3  1  0.24840174  0.10901965  0.25859146  1
  Na  Na4  1  0.50000000  0.00000000  0.50000000  1
  Na  Na5  1  0.00000000  0.50000000  0.00000000  1
  Fe  Fe6  1  0.84664479  0.35779261  0.44202928  1
  Fe  Fe7  1  0.64220739  0.15335521  0.05797072  1
  Fe  Fe8  1  0.15335521  0.64220739  0.55797072  1
  Fe  Fe9  1  0.35779261  0.84664479  0.94202928  1
  P  P10  1  0.54983797  0.74740468  0.23935879  1
  P  P11  1  0.25259532  0.45016203  0.26064121  1
  P  P12  1  0.04414222  0.95585778  0.75000000  1
  P  P13  1  0.45016203  0.25259532  0.76064121  1
  P  P14  1  0.74740468  0.54983797  0.73935879  1
  P  P15  1  0.95585778  0.04414222  0.25000000  1
  O  O16  1  0.08689264  0.43561798  0.25369105  1
  O  O17  1  0.29018151  0.62508942  0.09880663  1
  O  O18  1  0.73160957  0.58351881  0.25214680  1
  O  O19  1  0.56438202  0.91310736  0.24630895  1
  O  O20  1  0.22065554  0.93827102  0.76298803  1
  O  O21  1  0.77934446  0.06172898  0.23701197  1
  O  O22  1  0.53214421  0.79835074  0.05424943  1
  O  O23  1  0.70981849  0.37491058  0.90119337  1
  O  O24  1  0.41648119  0.26839043  0.24785320  1
  O  O25  1  0.98466239  0.87314277  0.42461390  1
  O  O26  1  0.91310736  0.56438202  0.74630895  1
  O  O27  1  0.93827102  0.22065554  0.26298803  1
  O  O28  1  0.37491058  0.70981849  0.40119337  1
  O  O29  1  0.79835074  0.53214421  0.55424943  1
  O  O30  1  0.26839043  0.41648119  0.74785320  1
  O  O31  1  0.12685723  0.01533761  0.07538610  1
  O  O32  1  0.01533761  0.12685723  0.57538610  1
  O  O33  1  0.46785579  0.20164926  0.94575057  1
  O  O34  1  0.43561798  0.08689264  0.75369105  1
  O  O35  1  0.06172898  0.77934446  0.73701197  1
  O  O36  1  0.58351881  0.73160957  0.75214680  1
  O  O37  1  0.62508942  0.29018151  0.59880663  1
  O  O38  1  0.20164926  0.46785579  0.44575057  1
  O  O39  1  0.87314277  0.98466239  0.92461390  1
