# generated using pymatgen
data_LiMg4V3O12
_symmetry_space_group_name_H-M   'P 1'
_cell_length_a   6.95806167
_cell_length_b   6.95806206
_cell_length_c   10.77345011
_cell_angle_alpha   108.83998914
_cell_angle_beta   108.83999027
_cell_angle_gamma   90.00000091
_symmetry_Int_Tables_number   1
_chemical_formula_structural   LiMg4V3O12
_chemical_formula_sum   'Li2 Mg8 V6 O24'
_cell_volume   464.02309528
_cell_formula_units_Z   2
loop_
 _symmetry_equiv_pos_site_id
 _symmetry_equiv_pos_as_xyz
  1  'x, y, z'
loop_
 _atom_site_type_symbol
 _atom_site_label
 _atom_site_symmetry_multiplicity
 _atom_site_fract_x
 _atom_site_fract_y
 _atom_site_fract_z
 _atom_site_occupancy
  Li  Li0  1  0.25000000  0.75000000  0.50000000  1
  Li  Li1  1  0.50000000  0.50000000  0.00000000  1
  Mg  Mg2  1  0.97524700  0.47524700  0.95049400  1
  Mg  Mg3  1  0.52475300  0.02475300  0.04950600  1
  Mg  Mg4  1  0.37500000  0.88272052  0.25000000  1
  Mg  Mg5  1  0.11727948  0.12500000  0.75000000  1
  Mg  Mg6  1  0.77475300  0.77475300  0.54950600  1
  Mg  Mg7  1  0.22524700  0.22524700  0.45049400  1
  Mg  Mg8  1  0.87500000  0.36727948  0.25000000  1
  Mg  Mg9  1  0.63272052  0.62500000  0.75000000  1
  V  V10  1  0.37500000  0.47518189  0.25000000  1
  V  V11  1  0.52481811  0.12500000  0.75000000  1
  V  V12  1  0.22518189  0.62500000  0.75000000  1
  V  V13  1  0.75000000  0.25000000  0.50000000  1
  V  V14  1  0.87500000  0.77481811  0.25000000  1
  V  V15  1  0.00000000  0.00000000  0.00000000  1
  O  O16  1  0.49401610  0.15115793  0.40899802  1
  O  O17  1  0.90560974  0.68322915  0.38846740  1
  O  O18  1  0.83501808  0.09884207  0.09100198  1
  O  O19  1  0.43322915  0.15560974  0.88846740  1
  O  O20  1  0.84884207  0.08501808  0.59100198  1
  O  O21  1  0.91498192  0.25784009  0.40899802  1
  O  O22  1  0.64207707  0.87338351  0.20233016  1
  O  O23  1  0.25598390  0.99215991  0.09100198  1
  O  O24  1  0.12661649  0.43974691  0.79766984  1
  O  O25  1  0.84439026  0.54476174  0.11153260  1
  O  O26  1  0.18974691  0.37661649  0.29766984  1
  O  O27  1  0.90115793  0.74401610  0.90899802  1
  O  O28  1  0.74215991  0.50598390  0.59100198  1
  O  O29  1  0.62338351  0.89207707  0.70233016  1
  O  O30  1  0.48285766  0.70523826  0.38846740  1
  O  O31  1  0.07894665  0.81025309  0.70233016  1
  O  O32  1  0.31677085  0.51714234  0.61153260  1
  O  O33  1  0.56025309  0.32894665  0.20233016  1
  O  O34  1  0.45523826  0.73285766  0.88846740  1
  O  O35  1  0.29476174  0.09439026  0.61153260  1
  O  O36  1  0.67105335  0.35792293  0.79766984  1
  O  O37  1  0.26714234  0.56677085  0.11153260  1
  O  O38  1  0.00784009  0.16498192  0.90899802  1
  O  O39  1  0.10792293  0.92105335  0.29766984  1
