# generated using pymatgen
data_Sr5B3O9F
_symmetry_space_group_name_H-M   'P 1'
_cell_length_a   7.30809418
_cell_length_b   9.89328936
_cell_length_c   14.29770716
_cell_angle_alpha   90.00000000
_cell_angle_beta   90.00000000
_cell_angle_gamma   90.00000000
_symmetry_Int_Tables_number   1
_chemical_formula_structural   Sr5B3O9F
_chemical_formula_sum   'Sr20 B12 O36 F4'
_cell_volume   1033.73981779
_cell_formula_units_Z   4
loop_
 _symmetry_equiv_pos_site_id
 _symmetry_equiv_pos_as_xyz
  1  'x, y, z'
loop_
 _atom_site_type_symbol
 _atom_site_label
 _atom_site_symmetry_multiplicity
 _atom_site_fract_x
 _atom_site_fract_y
 _atom_site_fract_z
 _atom_site_occupancy
  Sr  Sr0  1  0.28894200  0.48147058  0.25000000  1
  Sr  Sr1  1  0.25493660  0.62577378  0.88023617  1
  Sr  Sr2  1  0.47185195  0.24587812  0.61222730  1
  Sr  Sr3  1  0.24506340  0.12577378  0.38023617  1
  Sr  Sr4  1  0.97185195  0.25412188  0.61222730  1
  Sr  Sr5  1  0.02814805  0.74587812  0.11222730  1
  Sr  Sr6  1  0.74506340  0.37422622  0.11976383  1
  Sr  Sr7  1  0.52814805  0.75412188  0.38777270  1
  Sr  Sr8  1  0.75493660  0.87422622  0.61976383  1
  Sr  Sr9  1  0.24506340  0.12577378  0.11976383  1
  Sr  Sr10  1  0.75493660  0.87422622  0.88023617  1
  Sr  Sr11  1  0.78894200  0.01852942  0.25000000  1
  Sr  Sr12  1  0.02814805  0.74587812  0.38777270  1
  Sr  Sr13  1  0.21105800  0.98147058  0.75000000  1
  Sr  Sr14  1  0.74506340  0.37422622  0.38023617  1
  Sr  Sr15  1  0.52814805  0.75412188  0.11222730  1
  Sr  Sr16  1  0.97185195  0.25412188  0.88777270  1
  Sr  Sr17  1  0.47185195  0.24587812  0.88777270  1
  Sr  Sr18  1  0.25493660  0.62577378  0.61976383  1
  Sr  Sr19  1  0.71105800  0.51852942  0.75000000  1
  B  B20  1  0.19962572  0.93818290  0.53872051  1
  B  B21  1  0.21772740  0.38986017  0.75000000  1
  B  B22  1  0.71772740  0.11013983  0.75000000  1
  B  B23  1  0.30037428  0.43818290  0.03872051  1
  B  B24  1  0.80037428  0.06181710  0.46127949  1
  B  B25  1  0.19962572  0.93818290  0.96127949  1
  B  B26  1  0.69962572  0.56181710  0.96127949  1
  B  B27  1  0.69962572  0.56181710  0.53872051  1
  B  B28  1  0.30037428  0.43818290  0.46127949  1
  B  B29  1  0.78227260  0.61013983  0.25000000  1
  B  B30  1  0.80037428  0.06181710  0.03872051  1
  B  B31  1  0.28227260  0.88986017  0.25000000  1
  O  O32  1  0.21500370  0.24856032  0.75000000  1
  O  O33  1  0.22395311  0.07090551  0.93016658  1
  O  O34  1  0.77604689  0.92909449  0.06983342  1
  O  O35  1  0.72395311  0.42909449  0.56983342  1
  O  O36  1  0.59310179  0.65262180  0.58951453  1
  O  O37  1  0.90689821  0.15262180  0.08951453  1
  O  O38  1  0.55648603  0.03673977  0.75000000  1
  O  O39  1  0.77936389  0.60364089  0.04486596  1
  O  O40  1  0.27604689  0.57090551  0.43016658  1
  O  O41  1  0.22063611  0.39635911  0.54486596  1
  O  O42  1  0.88485496  0.04404731  0.75000000  1
  O  O43  1  0.71500370  0.25143968  0.75000000  1
  O  O44  1  0.27936389  0.89635911  0.45513404  1
  O  O45  1  0.40689821  0.34737820  0.41048547  1
  O  O46  1  0.77936389  0.60364089  0.45513404  1
  O  O47  1  0.44351397  0.96326023  0.25000000  1
  O  O48  1  0.27936389  0.89635911  0.04486596  1
  O  O49  1  0.78499630  0.75143968  0.25000000  1
  O  O50  1  0.05648603  0.46326023  0.75000000  1
  O  O51  1  0.09310179  0.84737820  0.91048547  1
  O  O52  1  0.40689821  0.34737820  0.08951453  1
  O  O53  1  0.38485496  0.45595269  0.75000000  1
  O  O54  1  0.72063611  0.10364089  0.54486596  1
  O  O55  1  0.61514504  0.54404731  0.25000000  1
  O  O56  1  0.27604689  0.57090551  0.06983342  1
  O  O57  1  0.11514504  0.95595269  0.25000000  1
  O  O58  1  0.59310179  0.65262180  0.91048547  1
  O  O59  1  0.22063611  0.39635911  0.95513404  1
  O  O60  1  0.28499630  0.74856032  0.25000000  1
  O  O61  1  0.72063611  0.10364089  0.95513404  1
  O  O62  1  0.77604689  0.92909449  0.43016658  1
  O  O63  1  0.72395311  0.42909449  0.93016658  1
  O  O64  1  0.22395311  0.07090551  0.56983342  1
  O  O65  1  0.90689821  0.15262180  0.41048547  1
  O  O66  1  0.94351397  0.53673977  0.25000000  1
  O  O67  1  0.09310179  0.84737820  0.58951453  1
  F  F68  1  0.36003487  0.76386899  0.75000000  1
  F  F69  1  0.86003487  0.73613101  0.75000000  1
  F  F70  1  0.63996513  0.23613101  0.25000000  1
  F  F71  1  0.13996513  0.26386899  0.25000000  1
