# generated using pymatgen
data_Rb2U(N2O7)2
_symmetry_space_group_name_H-M   'P 1'
_cell_length_a   6.63354221
_cell_length_b   8.11597423
_cell_length_c   12.95497002
_cell_angle_alpha   90.00000000
_cell_angle_beta   103.12878836
_cell_angle_gamma   90.00000000
_symmetry_Int_Tables_number   1
_chemical_formula_structural   Rb2U(N2O7)2
_chemical_formula_sum   'Rb4 U2 N8 O28'
_cell_volume   679.23486808
_cell_formula_units_Z   2
loop_
 _symmetry_equiv_pos_site_id
 _symmetry_equiv_pos_as_xyz
  1  'x, y, z'
loop_
 _atom_site_type_symbol
 _atom_site_label
 _atom_site_symmetry_multiplicity
 _atom_site_fract_x
 _atom_site_fract_y
 _atom_site_fract_z
 _atom_site_occupancy
  Rb  Rb0  1  0.66312804  0.98614138  0.34200133  1
  Rb  Rb1  1  0.16312804  0.51385862  0.84200133  1
  Rb  Rb2  1  0.33687196  0.01385862  0.65799867  1
  Rb  Rb3  1  0.83687196  0.48614138  0.15799867  1
  U  U4  1  0.00000000  0.00000000  0.00000000  1
  U  U5  1  0.50000000  0.50000000  0.50000000  1
  N  N6  1  0.19520417  0.26051093  0.37172105  1
  N  N7  1  0.30479583  0.76051093  0.12827895  1
  N  N8  1  0.80479583  0.73948907  0.62827895  1
  N  N9  1  0.87383734  0.22723546  0.60964938  1
  N  N10  1  0.62616266  0.72723546  0.89035062  1
  N  N11  1  0.12616266  0.77276454  0.39035062  1
  N  N12  1  0.37383734  0.27276454  0.10964938  1
  N  N13  1  0.69520417  0.23948907  0.87172105  1
  O  O14  1  0.43305062  0.66478114  0.17891323  1
  O  O15  1  0.35675309  0.21181716  0.44079051  1
  O  O16  1  0.81942666  0.77294630  0.89980444  1
  O  O17  1  0.33388732  0.50586328  0.59221495  1
  O  O18  1  0.00924885  0.76881582  0.30010211  1
  O  O19  1  0.93116237  0.17828376  0.52971456  1
  O  O20  1  0.56694938  0.33521886  0.82108677  1
  O  O21  1  0.18057334  0.22705370  0.10019556  1
  O  O22  1  0.06694938  0.16478114  0.32108677  1
  O  O23  1  0.56883763  0.67828376  0.97028544  1
  O  O24  1  0.66611268  0.49413672  0.40778505  1
  O  O25  1  0.43116237  0.32171624  0.02971456  1
  O  O26  1  0.81949189  0.58249922  0.64035478  1
  O  O27  1  0.85675309  0.28818284  0.94079051  1
  O  O28  1  0.50924885  0.73118418  0.80010211  1
  O  O29  1  0.68057334  0.27294630  0.60019556  1
  O  O30  1  0.06883763  0.82171624  0.47028544  1
  O  O31  1  0.68050811  0.08249922  0.85964522  1
  O  O32  1  0.18050811  0.41750078  0.35964522  1
  O  O33  1  0.16611268  0.00586328  0.90778505  1
  O  O34  1  0.93305062  0.83521886  0.67891323  1
  O  O35  1  0.83388732  0.99413672  0.09221495  1
  O  O36  1  0.31942666  0.72705370  0.39980444  1
  O  O37  1  0.14324691  0.71181716  0.05920949  1
  O  O38  1  0.49075115  0.26881582  0.19989789  1
  O  O39  1  0.31949189  0.91750078  0.14035478  1
  O  O40  1  0.99075115  0.23118418  0.69989789  1
  O  O41  1  0.64324691  0.78818284  0.55920949  1
