# generated using pymatgen
data_SrP2(HO4)2
_symmetry_space_group_name_H-M   'P 1'
_cell_length_a   6.83713183
_cell_length_b   7.09645840
_cell_length_c   8.10040929
_cell_angle_alpha   102.88315688
_cell_angle_beta   98.17500987
_cell_angle_gamma   108.22837968
_symmetry_Int_Tables_number   1
_chemical_formula_structural   SrP2(HO4)2
_chemical_formula_sum   'Sr2 P4 H4 O16'
_cell_volume   354.24485780
_cell_formula_units_Z   2
loop_
 _symmetry_equiv_pos_site_id
 _symmetry_equiv_pos_as_xyz
  1  'x, y, z'
loop_
 _atom_site_type_symbol
 _atom_site_label
 _atom_site_symmetry_multiplicity
 _atom_site_fract_x
 _atom_site_fract_y
 _atom_site_fract_z
 _atom_site_occupancy
  Sr  Sr0  1  0.76690006  0.78404278  0.09834444  1
  Sr  Sr1  1  0.23309994  0.21595722  0.90165556  1
  P  P2  1  0.79122386  0.71063499  0.58351994  1
  P  P3  1  0.20877614  0.28936501  0.41648006  1
  P  P4  1  0.73290033  0.22268108  0.91200175  1
  P  P5  1  0.26709967  0.77731892  0.08799825  1
  H  H6  1  0.86069323  0.38713949  0.71473448  1
  H  H7  1  0.13930677  0.61286051  0.28526552  1
  H  H8  1  0.53537997  0.91096708  0.74044806  1
  H  H9  1  0.46462003  0.08903292  0.25955194  1
  O  O10  1  0.65650401  0.38993512  0.99750902  1
  O  O11  1  0.34349599  0.61006488  0.00249098  1
  O  O12  1  0.88825443  0.29902643  0.79153700  1
  O  O13  1  0.11174557  0.70097357  0.20846300  1
  O  O14  1  0.64800838  0.72750284  0.71320673  1
  O  O15  1  0.35199162  0.27249716  0.28679327  1
  O  O16  1  0.85996253  0.52360271  0.58821786  1
  O  O17  1  0.14003747  0.47639729  0.41178214  1
  O  O18  1  0.85633446  0.13134276  0.02120293  1
  O  O19  1  0.14366554  0.86865724  0.97879707  1
  O  O20  1  0.98737447  0.91005410  0.63784204  1
  O  O21  1  0.01262553  0.08994590  0.36215796  1
  O  O22  1  0.68013022  0.67781035  0.39458159  1
  O  O23  1  0.31986978  0.32218965  0.60541841  1
  O  O24  1  0.51806928  0.04621051  0.78959551  1
  O  O25  1  0.48193072  0.95378949  0.21040449  1
