# generated using pymatgen
data_KFe2(PO4)2
_symmetry_space_group_name_H-M   'P 1'
_cell_length_a   8.00051688
_cell_length_b   9.27760971
_cell_length_c   10.22876940
_cell_angle_alpha   90.00000000
_cell_angle_beta   90.00000000
_cell_angle_gamma   115.54384251
_symmetry_Int_Tables_number   1
_chemical_formula_structural   KFe2(PO4)2
_chemical_formula_sum   'K4 Fe8 P8 O32'
_cell_volume   685.02609572
_cell_formula_units_Z   4
loop_
 _symmetry_equiv_pos_site_id
 _symmetry_equiv_pos_as_xyz
  1  'x, y, z'
loop_
 _atom_site_type_symbol
 _atom_site_label
 _atom_site_symmetry_multiplicity
 _atom_site_fract_x
 _atom_site_fract_y
 _atom_site_fract_z
 _atom_site_occupancy
  K  K0  1  0.07420714  0.42742512  0.64055032  1
  K  K1  1  0.42579286  0.07257488  0.14055032  1
  K  K2  1  0.92579286  0.57257488  0.35944968  1
  K  K3  1  0.57420714  0.92742512  0.85944968  1
  Fe  Fe4  1  0.11842973  0.05407013  0.38229405  1
  Fe  Fe5  1  0.01465489  0.74354966  0.87837112  1
  Fe  Fe6  1  0.48534511  0.75645034  0.37837112  1
  Fe  Fe7  1  0.38157027  0.44592987  0.88229405  1
  Fe  Fe8  1  0.61842973  0.55407013  0.11770595  1
  Fe  Fe9  1  0.51465489  0.24354966  0.62162888  1
  Fe  Fe10  1  0.88157027  0.94592987  0.61770595  1
  Fe  Fe11  1  0.98534511  0.25645034  0.12162888  1
  P  P12  1  0.12837304  0.13573026  0.83959947  1
  P  P13  1  0.87162696  0.86426974  0.16040053  1
  P  P14  1  0.26171040  0.64773395  0.09564808  1
  P  P15  1  0.73828960  0.35226605  0.90435192  1
  P  P16  1  0.23828960  0.85226605  0.59564808  1
  P  P17  1  0.37162696  0.36426974  0.33959947  1
  P  P18  1  0.62837304  0.63573026  0.66040053  1
  P  P19  1  0.76171040  0.14773395  0.40435192  1
  O  O20  1  0.70307182  0.76127477  0.25104580  1
  O  O21  1  0.08806776  0.49365391  0.12896462  1
  O  O22  1  0.85160074  0.74535123  0.04399125  1
  O  O23  1  0.41411538  0.60390366  0.03456399  1
  O  O24  1  0.79692818  0.73872523  0.75104580  1
  O  O25  1  0.72230188  0.25404558  0.50468169  1
  O  O26  1  0.14839926  0.25464877  0.95600875  1
  O  O27  1  0.94645368  0.09934212  0.76538725  1
  O  O28  1  0.13945825  0.98478515  0.89034900  1
  O  O29  1  0.66015320  0.24977855  0.78073970  1
  O  O30  1  0.77769812  0.24595442  0.00468169  1
  O  O31  1  0.63945825  0.48478515  0.60965100  1
  O  O32  1  0.86054175  0.01521485  0.10965100  1
  O  O33  1  0.36054175  0.51521485  0.39034900  1
  O  O34  1  0.29692818  0.23872523  0.74895420  1
  O  O35  1  0.58588462  0.39609634  0.96543601  1
  O  O36  1  0.58806776  0.99365391  0.37103538  1
  O  O37  1  0.20307182  0.26127477  0.24895420  1
  O  O38  1  0.55354632  0.40065788  0.26538725  1
  O  O39  1  0.16015320  0.74977855  0.71926030  1
  O  O40  1  0.27769812  0.74595442  0.49531831  1
  O  O41  1  0.91411538  0.10390366  0.46543601  1
  O  O42  1  0.44645368  0.59934212  0.73461275  1
  O  O43  1  0.22230188  0.75404558  0.99531831  1
  O  O44  1  0.83984680  0.25022145  0.28073970  1
  O  O45  1  0.33984680  0.75022145  0.21926030  1
  O  O46  1  0.35160074  0.24535123  0.45600875  1
  O  O47  1  0.05354632  0.90065788  0.23461275  1
  O  O48  1  0.91193224  0.50634609  0.87103538  1
  O  O49  1  0.08588462  0.89609634  0.53456399  1
  O  O50  1  0.41193224  0.00634609  0.62896462  1
  O  O51  1  0.64839926  0.75464877  0.54399125  1
