# generated using pymatgen
data_VPO5
_symmetry_space_group_name_H-M   'P 1'
_cell_length_a   5.09612512
_cell_length_b   5.09612590
_cell_length_c   7.38904575
_cell_angle_alpha   72.07216940
_cell_angle_beta   72.07216649
_cell_angle_gamma   87.72800602
_symmetry_Int_Tables_number   1
_chemical_formula_structural   VPO5
_chemical_formula_sum   'V2 P2 O10'
_cell_volume   173.39225718
_cell_formula_units_Z   2
loop_
 _symmetry_equiv_pos_site_id
 _symmetry_equiv_pos_as_xyz
  1  'x, y, z'
loop_
 _atom_site_type_symbol
 _atom_site_label
 _atom_site_symmetry_multiplicity
 _atom_site_fract_x
 _atom_site_fract_y
 _atom_site_fract_z
 _atom_site_occupancy
  V  V0  1  0.23073197  0.76905333  0.99524999  1
  V  V1  1  0.76905333  0.23073197  0.49524999  1
  P  P2  1  0.58822775  0.83078323  0.28417149  1
  P  P3  1  0.83078323  0.58822775  0.78417149  1
  O  O4  1  0.85187980  0.34856843  0.69617091  1
  O  O5  1  0.04132238  0.34249997  0.30476679  1
  O  O6  1  0.87325507  0.87017946  0.61971811  1
  O  O7  1  0.34856843  0.85187980  0.19617091  1
  O  O8  1  0.55553787  0.05729648  0.38698275  1
  O  O9  1  0.87017946  0.87325507  0.11971811  1
  O  O10  1  0.05729648  0.55553787  0.88698275  1
  O  O11  1  0.55915893  0.54350533  0.44673996  1
  O  O12  1  0.54350533  0.55915893  0.94673996  1
  O  O13  1  0.34249997  0.04132238  0.80476679  1
