# generated using pymatgen
data_Na3FeO3
_symmetry_space_group_name_H-M   'P 1'
_cell_length_a   6.20537035
_cell_length_b   8.61827437
_cell_length_c   8.61827403
_cell_angle_alpha   77.72002849
_cell_angle_beta   69.49328986
_cell_angle_gamma   69.49328636
_symmetry_Int_Tables_number   1
_chemical_formula_structural   Na3FeO3
_chemical_formula_sum   'Na12 Fe4 O12'
_cell_volume   402.20707234
_cell_formula_units_Z   4
loop_
 _symmetry_equiv_pos_site_id
 _symmetry_equiv_pos_as_xyz
  1  'x, y, z'
loop_
 _atom_site_type_symbol
 _atom_site_label
 _atom_site_symmetry_multiplicity
 _atom_site_fract_x
 _atom_site_fract_y
 _atom_site_fract_z
 _atom_site_occupancy
  Na  Na0  1  0.38465449  0.25134437  0.20556565  1
  Na  Na1  1  0.51440657  0.35312120  0.82672911  1
  Na  Na2  1  0.88465449  0.20556565  0.25134437  1
  Na  Na3  1  0.96669714  0.72344204  0.76796097  1
  Na  Na4  1  0.22570779  0.01612280  0.96444879  1
  Na  Na5  1  0.00395709  0.06177778  0.63495862  1
  Na  Na6  1  0.46669714  0.76796097  0.72344204  1
  Na  Na7  1  0.72570779  0.96444879  0.01612280  1
  Na  Na8  1  0.50395709  0.63495862  0.06177778  1
  Na  Na9  1  0.94585103  0.43740600  0.52194852  1
  Na  Na10  1  0.44585103  0.52194852  0.43740600  1
  Na  Na11  1  0.01440657  0.82672911  0.35312120  1
  Fe  Fe12  1  0.95565655  0.35365363  0.87664287  1
  Fe  Fe13  1  0.03194901  0.60037105  0.12214457  1
  Fe  Fe14  1  0.53194901  0.12214457  0.60037105  1
  Fe  Fe15  1  0.45565655  0.87664287  0.35365363  1
  O  O16  1  0.68942186  0.68966159  0.23012676  1
  O  O17  1  0.11490862  0.40548405  0.00765411  1
  O  O18  1  0.70334614  0.28091300  0.53216583  1
  O  O19  1  0.61490862  0.00765411  0.40548405  1
  O  O20  1  0.18942186  0.23012676  0.68966159  1
  O  O21  1  0.20334614  0.53216583  0.28091300  1
  O  O22  1  0.25383640  0.78701175  0.54203976  1
  O  O23  1  0.63143960  0.96919263  0.77299779  1
  O  O24  1  0.13143960  0.77299779  0.96919263  1
  O  O25  1  0.77072771  0.21706671  0.01292803  1
  O  O26  1  0.75383640  0.54203976  0.78701175  1
  O  O27  1  0.27072771  0.01292803  0.21706671  1
