# generated using pymatgen
data_LiCr3O8
_symmetry_space_group_name_H-M   'P 1'
_cell_length_a   5.06578413
_cell_length_b   5.06578535
_cell_length_c   6.43829895
_cell_angle_alpha   88.95430973
_cell_angle_beta   88.95430951
_cell_angle_gamma   66.25289974
_symmetry_Int_Tables_number   1
_chemical_formula_structural   LiCr3O8
_chemical_formula_sum   'Li1 Cr3 O8'
_cell_volume   151.19590818
_cell_formula_units_Z   1
loop_
 _symmetry_equiv_pos_site_id
 _symmetry_equiv_pos_as_xyz
  1  'x, y, z'
loop_
 _atom_site_type_symbol
 _atom_site_label
 _atom_site_symmetry_multiplicity
 _atom_site_fract_x
 _atom_site_fract_y
 _atom_site_fract_z
 _atom_site_occupancy
  Li  Li0  1  0.00000000  0.00000000  0.00000000  1
  Cr  Cr1  1  0.64403710  0.64403710  0.25977828  1
  Cr  Cr2  1  0.35596290  0.35596290  0.74022172  1
  Cr  Cr3  1  0.00000000  0.00000000  0.50000000  1
  O  O4  1  0.74255994  0.74255994  0.04343471  1
  O  O5  1  0.25744006  0.25744006  0.95656529  1
  O  O6  1  0.78404212  0.27566199  0.27208709  1
  O  O7  1  0.21595788  0.72433801  0.72791291  1
  O  O8  1  0.76888635  0.76888635  0.45443440  1
  O  O9  1  0.27566199  0.78404212  0.27208709  1
  O  O10  1  0.23111365  0.23111365  0.54556560  1
  O  O11  1  0.72433801  0.21595788  0.72791291  1
