# generated using pymatgen
data_Rb3FeO3
_symmetry_space_group_name_H-M   'P 1'
_cell_length_a   6.93143961
_cell_length_b   6.96549539
_cell_length_c   6.96549498
_cell_angle_alpha   114.49259653
_cell_angle_beta   96.99332311
_cell_angle_gamma   96.99332244
_symmetry_Int_Tables_number   1
_chemical_formula_structural   Rb3FeO3
_chemical_formula_sum   'Rb6 Fe2 O6'
_cell_volume   298.18829284
_cell_formula_units_Z   2
loop_
 _symmetry_equiv_pos_site_id
 _symmetry_equiv_pos_as_xyz
  1  'x, y, z'
loop_
 _atom_site_type_symbol
 _atom_site_label
 _atom_site_symmetry_multiplicity
 _atom_site_fract_x
 _atom_site_fract_y
 _atom_site_fract_z
 _atom_site_occupancy
  Rb  Rb0  1  0.00000000  0.26092631  0.73907369  1
  Rb  Rb1  1  1.00000000  0.73907369  0.26092631  1
  Rb  Rb2  1  0.50000000  0.19136941  0.80863059  1
  Rb  Rb3  1  0.50000000  0.80863059  0.19136941  1
  Rb  Rb4  1  0.34628350  0.62698869  0.62698869  1
  Rb  Rb5  1  0.65371650  0.37301131  0.37301131  1
  Fe  Fe6  1  0.85271122  0.83515279  0.83515279  1
  Fe  Fe7  1  0.14728878  0.16484721  0.16484721  1
  O  O8  1  0.26580192  0.41734902  0.15279388  1
  O  O9  1  0.73419808  0.58265098  0.84720612  1
  O  O10  1  0.14773180  0.90203401  0.90203401  1
  O  O11  1  0.26580192  0.15279388  0.41734902  1
  O  O12  1  0.73419808  0.84720612  0.58265098  1
  O  O13  1  0.85226820  0.09796599  0.09796599  1
