# generated using pymatgen
data_Sr2UMnO6
_symmetry_space_group_name_H-M   'P 1'
_cell_length_a   5.97477071
_cell_length_b   5.88595423
_cell_length_c   8.35398429
_cell_angle_alpha   90.14025744
_cell_angle_beta   90.00000000
_cell_angle_gamma   90.00000000
_symmetry_Int_Tables_number   1
_chemical_formula_structural   Sr2UMnO6
_chemical_formula_sum   'Sr4 U2 Mn2 O12'
_cell_volume   293.78558130
_cell_formula_units_Z   2
loop_
 _symmetry_equiv_pos_site_id
 _symmetry_equiv_pos_as_xyz
  1  'x, y, z'
loop_
 _atom_site_type_symbol
 _atom_site_label
 _atom_site_symmetry_multiplicity
 _atom_site_fract_x
 _atom_site_fract_y
 _atom_site_fract_z
 _atom_site_occupancy
  Sr  Sr0  1  0.54037247  0.50803664  0.24881103  1
  Sr  Sr1  1  0.95962753  0.00803664  0.74881103  1
  Sr  Sr2  1  0.45962753  0.49196336  0.75118897  1
  Sr  Sr3  1  0.04037247  0.99196336  0.25118897  1
  U  U4  1  0.00000000  0.50000000  0.50000000  1
  U  U5  1  0.50000000  0.00000000  0.00000000  1
  Mn  Mn6  1  0.00000000  0.50000000  0.00000000  1
  Mn  Mn7  1  0.50000000  0.00000000  0.50000000  1
  O  O8  1  0.19928785  0.21304446  0.54149105  1
  O  O9  1  0.30071215  0.71304446  0.04149105  1
  O  O10  1  0.02722062  0.58389071  0.74346526  1
  O  O11  1  0.52722062  0.91610929  0.75653474  1
  O  O12  1  0.28550694  0.69823821  0.45406000  1
  O  O13  1  0.71449306  0.30176179  0.54594000  1
  O  O14  1  0.21449306  0.19823821  0.95406000  1
  O  O15  1  0.80071215  0.78695554  0.45850895  1
  O  O16  1  0.69928785  0.28695554  0.95850895  1
  O  O17  1  0.97277938  0.41610929  0.25653474  1
  O  O18  1  0.78550694  0.80176179  0.04594000  1
  O  O19  1  0.47277938  0.08389071  0.24346526  1
