# generated using pymatgen
data_Ba2MnSi2ClO7
_symmetry_space_group_name_H-M   'P 1'
_cell_length_a   5.51630139
_cell_length_b   8.61722903
_cell_length_c   8.61722903
_cell_angle_alpha   90.00000000
_cell_angle_beta   90.00000000
_cell_angle_gamma   90.00000000
_symmetry_Int_Tables_number   1
_chemical_formula_structural   Ba2MnSi2ClO7
_chemical_formula_sum   'Ba4 Mn2 Si4 Cl2 O14'
_cell_volume   409.62198524
_cell_formula_units_Z   2
loop_
 _symmetry_equiv_pos_site_id
 _symmetry_equiv_pos_as_xyz
  1  'x, y, z'
loop_
 _atom_site_type_symbol
 _atom_site_label
 _atom_site_symmetry_multiplicity
 _atom_site_fract_x
 _atom_site_fract_y
 _atom_site_fract_z
 _atom_site_occupancy
  Ba  Ba0  1  0.18011642  0.82947463  0.32947463  1
  Ba  Ba1  1  0.18011642  0.17052537  0.67052537  1
  Ba  Ba2  1  0.18011642  0.32947463  0.17052537  1
  Ba  Ba3  1  0.18011642  0.67052537  0.82947463  1
  Mn  Mn4  1  0.79496152  0.50000000  0.50000000  1
  Mn  Mn5  1  0.79496152  0.00000000  0.00000000  1
  Si  Si6  1  0.70200487  0.62942908  0.12942908  1
  Si  Si7  1  0.70200487  0.12942908  0.37057092  1
  Si  Si8  1  0.70200487  0.87057092  0.62942908  1
  Si  Si9  1  0.70200487  0.37057092  0.87057092  1
  Cl  Cl10  1  0.32933967  0.00000000  0.00000000  1
  Cl  Cl11  1  0.32933967  0.50000000  0.50000000  1
  O  O12  1  0.81144692  0.50000000  0.00000000  1
  O  O13  1  0.83880747  0.79192943  0.07957599  1
  O  O14  1  0.83880747  0.57957599  0.29192943  1
  O  O15  1  0.83880747  0.07957599  0.20807057  1
  O  O16  1  0.41065971  0.12946959  0.37053041  1
  O  O17  1  0.83880747  0.70807057  0.57957599  1
  O  O18  1  0.83880747  0.29192943  0.42042401  1
  O  O19  1  0.83880747  0.42042401  0.70807057  1
  O  O20  1  0.83880747  0.20807057  0.92042401  1
  O  O21  1  0.41065971  0.62946959  0.12946959  1
  O  O22  1  0.83880747  0.92042401  0.79192943  1
  O  O23  1  0.81144692  0.00000000  0.50000000  1
  O  O24  1  0.41065971  0.37053041  0.87053041  1
  O  O25  1  0.41065971  0.87053041  0.62946959  1
