# generated using pymatgen
data_Nd2Te4MoO14
_symmetry_space_group_name_H-M   'P 1'
_cell_length_a   7.04868909
_cell_length_b   10.18301643
_cell_length_c   10.27774644
_cell_angle_alpha   90.16707243
_cell_angle_beta   72.82172394
_cell_angle_gamma   86.75173242
_symmetry_Int_Tables_number   1
_chemical_formula_structural   Nd2Te4MoO14
_chemical_formula_sum   'Nd4 Te8 Mo2 O28'
_cell_volume   703.51455729
_cell_formula_units_Z   2
loop_
 _symmetry_equiv_pos_site_id
 _symmetry_equiv_pos_as_xyz
  1  'x, y, z'
loop_
 _atom_site_type_symbol
 _atom_site_label
 _atom_site_symmetry_multiplicity
 _atom_site_fract_x
 _atom_site_fract_y
 _atom_site_fract_z
 _atom_site_occupancy
  Nd  Nd0  1  0.64303574  0.69040616  0.91433113  1
  Nd  Nd1  1  0.35696426  0.30959384  0.08566887  1
  Nd  Nd2  1  0.22129657  0.53374301  0.78522655  1
  Nd  Nd3  1  0.77870343  0.46625699  0.21477345  1
  Te  Te4  1  0.74252266  0.39182574  0.72028281  1
  Te  Te5  1  0.25747734  0.60817426  0.27971719  1
  Te  Te6  1  0.05644132  0.78829143  0.04188436  1
  Te  Te7  1  0.07318310  0.83316853  0.63257384  1
  Te  Te8  1  0.36539722  0.27247793  0.45792420  1
  Te  Te9  1  0.92681690  0.16683147  0.36742616  1
  Te  Te10  1  0.94355868  0.21170857  0.95811564  1
  Te  Te11  1  0.63460278  0.72752207  0.54207580  1
  Mo  Mo12  1  0.47815075  0.03714449  0.76863453  1
  Mo  Mo13  1  0.52184925  0.96285551  0.23136547  1
  O  O14  1  0.89374895  0.64529448  0.05009215  1
  O  O15  1  0.70698208  0.29821736  0.06909197  1
  O  O16  1  0.29301792  0.70178264  0.93090803  1
  O  O17  1  0.62288648  0.88282682  0.76861350  1
  O  O18  1  0.58456468  0.60453479  0.68836458  1
  O  O19  1  0.07181277  0.27738973  0.45960855  1
  O  O20  1  0.25085293  0.00011786  0.73536200  1
  O  O21  1  0.41280125  0.12380911  0.93042427  1
  O  O22  1  0.74914707  0.99988214  0.26463800  1
  O  O23  1  0.68967704  0.60882597  0.39624914  1
  O  O24  1  0.28624306  0.70336405  0.60175432  1
  O  O25  1  0.02715789  0.22715662  0.18581504  1
  O  O26  1  0.58719875  0.87619089  0.06957573  1
  O  O27  1  0.61392248  0.13665503  0.63570227  1
  O  O28  1  0.13082394  0.76420719  0.20930153  1
  O  O29  1  0.88137449  0.50974157  0.79561706  1
  O  O30  1  0.92818723  0.72261027  0.54039145  1
  O  O31  1  0.97284211  0.77284338  0.81418496  1
  O  O32  1  0.41543532  0.39546521  0.31163542  1
  O  O33  1  0.31032296  0.39117403  0.60375086  1
  O  O34  1  0.49878300  0.58166694  0.13365850  1
  O  O35  1  0.10625105  0.35470552  0.94990785  1
  O  O36  1  0.11862551  0.49025843  0.20438294  1
  O  O37  1  0.50121700  0.41833306  0.86634150  1
  O  O38  1  0.37711352  0.11717318  0.23138650  1
  O  O39  1  0.86917606  0.23579281  0.79069847  1
  O  O40  1  0.38607752  0.86334497  0.36429773  1
  O  O41  1  0.71375694  0.29663595  0.39824568  1
