# generated using pymatgen
data_Cu7Hg6
_symmetry_space_group_name_H-M   'P 1'
_cell_length_a   8.16885311
_cell_length_b   8.28860643
_cell_length_c   8.28860657
_cell_angle_alpha   109.76204387
_cell_angle_beta   109.17880826
_cell_angle_gamma   109.17880862
_symmetry_Int_Tables_number   1
_chemical_formula_structural   Cu7Hg6
_chemical_formula_sum   'Cu14 Hg12'
_cell_volume   433.56757024
_cell_formula_units_Z   2
loop_
 _symmetry_equiv_pos_site_id
 _symmetry_equiv_pos_as_xyz
  1  'x, y, z'
loop_
 _atom_site_type_symbol
 _atom_site_label
 _atom_site_symmetry_multiplicity
 _atom_site_fract_x
 _atom_site_fract_y
 _atom_site_fract_z
 _atom_site_occupancy
  Cu  Cu0  1  0.00167252  1.00000000  1.00000000  1
  Cu  Cu1  1  0.50517714  1.00000000  1.00000000  1
  Cu  Cu2  1  0.15635314  0.32334472  0.32334472  1
  Cu  Cu3  1  0.83300842  0.67665528  0.00000000  1
  Cu  Cu4  1  0.83300842  1.00000000  0.67665528  1
  Cu  Cu5  1  0.85554376  0.67822171  0.67822171  1
  Cu  Cu6  1  0.17732205  0.32177829  1.00000000  1
  Cu  Cu7  1  0.17732205  1.00000000  0.32177829  1
  Cu  Cu8  1  0.62945252  0.80064157  0.80064157  1
  Cu  Cu9  1  0.82881095  0.19935843  1.00000000  1
  Cu  Cu10  1  0.82881095  1.00000000  0.19935843  1
  Cu  Cu11  1  0.37707342  0.19403918  0.19403918  1
  Cu  Cu12  1  0.18303425  0.80596082  0.00000000  1
  Cu  Cu13  1  0.18303425  0.00000000  0.80596082  1
  Hg  Hg14  1  0.21432208  0.65116826  0.65116826  1
  Hg  Hg15  1  0.56315381  0.34883174  0.00000000  1
  Hg  Hg16  1  0.56315381  1.00000000  0.34883173  1
  Hg  Hg17  1  0.81790114  0.35368181  0.35368181  1
  Hg  Hg18  1  0.46421933  0.64631819  1.00000000  1
  Hg  Hg19  1  0.46421933  0.00000000  0.64631819  1
  Hg  Hg20  1  0.13036208  0.22677355  0.62070935  1
  Hg  Hg21  1  0.50965273  0.37929065  0.60606420  1
  Hg  Hg22  1  0.90358853  0.39393580  0.77322645  1
  Hg  Hg23  1  0.13036208  0.62070935  0.22677355  1
  Hg  Hg24  1  0.90358853  0.77322645  0.39393580  1
  Hg  Hg25  1  0.50965273  0.60606420  0.37929065  1
