# generated using pymatgen
data_SiNi2(P2O7)2
_symmetry_space_group_name_H-M   'P 1'
_cell_length_a   4.97427839
_cell_length_b   8.88591951
_cell_length_c   12.34018376
_cell_angle_alpha   103.04379565
_cell_angle_beta   90.00000000
_cell_angle_gamma   106.25403721
_symmetry_Int_Tables_number   1
_chemical_formula_structural   SiNi2(P2O7)2
_chemical_formula_sum   'Si2 Ni4 P8 O28'
_cell_volume   508.97115341
_cell_formula_units_Z   2
loop_
 _symmetry_equiv_pos_site_id
 _symmetry_equiv_pos_as_xyz
  1  'x, y, z'
loop_
 _atom_site_type_symbol
 _atom_site_label
 _atom_site_symmetry_multiplicity
 _atom_site_fract_x
 _atom_site_fract_y
 _atom_site_fract_z
 _atom_site_occupancy
  Si  Si0  1  0.65934438  0.00000000  0.75000000  1
  Si  Si1  1  0.34065562  0.00000000  0.25000000  1
  Ni  Ni2  1  0.40260914  0.50490596  0.37100374  1
  Ni  Ni3  1  0.89770318  0.49509404  0.12899626  1
  Ni  Ni4  1  0.10229682  0.50490596  0.87100374  1
  Ni  Ni5  1  0.59739086  0.49509404  0.62899626  1
  P  P6  1  0.74114391  0.74685107  0.86354313  1
  P  P7  1  0.47053296  0.27253043  0.91612353  1
  P  P8  1  0.25885609  0.25314893  0.13645687  1
  P  P9  1  0.19800252  0.72746957  0.58387647  1
  P  P10  1  0.00570716  0.74685107  0.36354313  1
  P  P11  1  0.80199748  0.27253043  0.41612353  1
  P  P12  1  0.99429284  0.25314893  0.63645687  1
  P  P13  1  0.52946704  0.72746957  0.08387647  1
  O  O14  1  0.89681090  0.09117175  0.67773502  1
  O  O15  1  0.81303735  0.18989086  0.51849212  1
  O  O16  1  0.19436085  0.09117175  0.17773502  1
  O  O17  1  0.98649880  0.28814519  0.12050131  1
  O  O18  1  0.01350120  0.71185481  0.87949869  1
  O  O19  1  0.59536829  0.12739665  0.33233927  1
  O  O20  1  0.10318910  0.90882825  0.32226498  1
  O  O21  1  0.10916054  0.61138439  0.29293698  1
  O  O22  1  0.53202836  0.12739665  0.83233927  1
  O  O23  1  0.50222384  0.61138439  0.79293698  1
  O  O24  1  0.62314649  0.81010914  0.98150788  1
  O  O25  1  0.22783860  0.31003104  0.86815124  1
  O  O26  1  0.08219243  0.31003104  0.36815124  1
  O  O27  1  0.30164639  0.28814519  0.62050131  1
  O  O28  1  0.67021074  0.40922364  0.45558474  1
  O  O29  1  0.91780757  0.68996896  0.63184876  1
  O  O30  1  0.69835361  0.71185481  0.37949869  1
  O  O31  1  0.73901289  0.40922364  0.95558474  1
  O  O32  1  0.18696265  0.81010914  0.48150788  1
  O  O33  1  0.77216140  0.68996896  0.13184876  1
  O  O34  1  0.49777616  0.38861561  0.20706302  1
  O  O35  1  0.32978926  0.59077636  0.54441526  1
  O  O36  1  0.89083946  0.38861561  0.70706302  1
  O  O37  1  0.46797164  0.87260335  0.16766073  1
  O  O38  1  0.80563915  0.90882825  0.82226498  1
  O  O39  1  0.37685351  0.18989086  0.01849212  1
  O  O40  1  0.40463171  0.87260335  0.66766073  1
  O  O41  1  0.26098711  0.59077636  0.04441526  1
