# generated using pymatgen
data_Pr2B2MoO9
_symmetry_space_group_name_H-M   'P 1'
_cell_length_a   5.36242954
_cell_length_b   7.11285080
_cell_length_c   10.75309592
_cell_angle_alpha   74.46059106
_cell_angle_beta   76.14233112
_cell_angle_gamma   73.00953831
_symmetry_Int_Tables_number   1
_chemical_formula_structural   Pr2B2MoO9
_chemical_formula_sum   'Pr4 B4 Mo2 O18'
_cell_volume   372.07645331
_cell_formula_units_Z   2
loop_
 _symmetry_equiv_pos_site_id
 _symmetry_equiv_pos_as_xyz
  1  'x, y, z'
loop_
 _atom_site_type_symbol
 _atom_site_label
 _atom_site_symmetry_multiplicity
 _atom_site_fract_x
 _atom_site_fract_y
 _atom_site_fract_z
 _atom_site_occupancy
  Pr  Pr0  1  0.84267227  0.79362767  0.95379320  1
  Pr  Pr1  1  0.36988392  0.07763735  0.68633016  1
  Pr  Pr2  1  0.63011608  0.92236265  0.31366984  1
  Pr  Pr3  1  0.15732773  0.20637233  0.04620680  1
  B  B4  1  0.73725405  0.24562724  0.84422005  1
  B  B5  1  0.45972392  0.58786899  0.86349830  1
  B  B6  1  0.54027608  0.41213101  0.13650170  1
  B  B7  1  0.26274595  0.75437276  0.15577995  1
  Mo  Mo8  1  0.03758109  0.70961408  0.58107135  1
  Mo  Mo9  1  0.96241891  0.29038592  0.41892865  1
  O  O10  1  0.91781745  0.17257688  0.29822850  1
  O  O11  1  0.08218255  0.82742312  0.70177150  1
  O  O12  1  0.51587315  0.22039710  0.14701695  1
  O  O13  1  0.76554474  0.47234325  0.07329831  1
  O  O14  1  0.45400703  0.85819261  0.13924166  1
  O  O15  1  0.23445526  0.52765675  0.92670169  1
  O  O16  1  0.98897580  0.13391677  0.86558197  1
  O  O17  1  0.85537057  0.55766996  0.37627047  1
  O  O18  1  0.24007576  0.79021339  0.42980753  1
  O  O19  1  0.69492587  0.81935773  0.55445230  1
  O  O20  1  0.01102420  0.86608323  0.13441803  1
  O  O21  1  0.54599297  0.14180739  0.86075834  1
  O  O22  1  0.14462943  0.44233004  0.62372953  1
  O  O23  1  0.68711995  0.45361851  0.81426771  1
  O  O24  1  0.48412685  0.77960290  0.85298305  1
  O  O25  1  0.30507413  0.18064227  0.44554770  1
  O  O26  1  0.75992424  0.20978661  0.57019247  1
  O  O27  1  0.31288005  0.54638149  0.18573229  1
