# generated using pymatgen
data_Sm5Si4
_symmetry_space_group_name_H-M   'P 1'
_cell_length_a   7.65613785
_cell_length_b   7.86731117
_cell_length_c   14.96501633
_cell_angle_alpha   90.00000000
_cell_angle_beta   90.00000000
_cell_angle_gamma   90.00000000
_symmetry_Int_Tables_number   1
_chemical_formula_structural   Sm5Si4
_chemical_formula_sum   'Sm20 Si16'
_cell_volume   901.39110335
_cell_formula_units_Z   4
loop_
 _symmetry_equiv_pos_site_id
 _symmetry_equiv_pos_as_xyz
  1  'x, y, z'
loop_
 _atom_site_type_symbol
 _atom_site_label
 _atom_site_symmetry_multiplicity
 _atom_site_fract_x
 _atom_site_fract_y
 _atom_site_fract_z
 _atom_site_occupancy
  Sm  Sm0  1  0.85702083  0.48687224  0.25000000  1
  Sm  Sm1  1  0.31339447  0.18084487  0.87790873  1
  Sm  Sm2  1  0.14297917  0.51312776  0.75000000  1
  Sm  Sm3  1  0.81339447  0.31915513  0.62209127  1
  Sm  Sm4  1  0.46361009  0.68644846  0.60046537  1
  Sm  Sm5  1  0.68660553  0.81915513  0.12209127  1
  Sm  Sm6  1  0.53638991  0.31355154  0.10046537  1
  Sm  Sm7  1  0.96361009  0.81355154  0.89953463  1
  Sm  Sm8  1  0.64297917  0.98687224  0.75000000  1
  Sm  Sm9  1  0.35702083  0.01312776  0.25000000  1
  Sm  Sm10  1  0.53638991  0.31355154  0.39953463  1
  Sm  Sm11  1  0.03638991  0.18644846  0.10046537  1
  Sm  Sm12  1  0.96361009  0.81355154  0.60046537  1
  Sm  Sm13  1  0.18660553  0.68084487  0.12209127  1
  Sm  Sm14  1  0.68660553  0.81915513  0.37790873  1
  Sm  Sm15  1  0.31339447  0.18084487  0.62209127  1
  Sm  Sm16  1  0.46361009  0.68644846  0.89953463  1
  Sm  Sm17  1  0.03638991  0.18644846  0.39953463  1
  Sm  Sm18  1  0.18660553  0.68084487  0.37790873  1
  Sm  Sm19  1  0.81339447  0.31915513  0.87790873  1
  Si  Si20  1  0.51848567  0.39963581  0.75000000  1
  Si  Si21  1  0.13822713  0.47312951  0.95955404  1
  Si  Si22  1  0.63822713  0.02687049  0.95955404  1
  Si  Si23  1  0.25612103  0.87727365  0.75000000  1
  Si  Si24  1  0.24387897  0.37727365  0.25000000  1
  Si  Si25  1  0.86177287  0.52687049  0.04044596  1
  Si  Si26  1  0.74387897  0.12272635  0.25000000  1
  Si  Si27  1  0.48151433  0.60036419  0.25000000  1
  Si  Si28  1  0.36177287  0.97312951  0.04044596  1
  Si  Si29  1  0.98151433  0.89963581  0.25000000  1
  Si  Si30  1  0.86177287  0.52687049  0.45955404  1
  Si  Si31  1  0.36177287  0.97312951  0.45955404  1
  Si  Si32  1  0.75612103  0.62272635  0.75000000  1
  Si  Si33  1  0.13822713  0.47312951  0.54044596  1
  Si  Si34  1  0.01848567  0.10036419  0.75000000  1
  Si  Si35  1  0.63822713  0.02687049  0.54044596  1
