# generated using pymatgen
data_KCoH3(CO2)3
_symmetry_space_group_name_H-M   'P 1'
_cell_length_a   7.24514197
_cell_length_b   7.24487164
_cell_length_c   8.39364413
_cell_angle_alpha   90.00922291
_cell_angle_beta   90.00000000
_cell_angle_gamma   120.00123847
_symmetry_Int_Tables_number   1
_chemical_formula_structural   KCoH3(CO2)3
_chemical_formula_sum   'K2 Co2 H6 C6 O12'
_cell_volume   381.55166358
_cell_formula_units_Z   2
loop_
 _symmetry_equiv_pos_site_id
 _symmetry_equiv_pos_as_xyz
  1  'x, y, z'
loop_
 _atom_site_type_symbol
 _atom_site_label
 _atom_site_symmetry_multiplicity
 _atom_site_fract_x
 _atom_site_fract_y
 _atom_site_fract_z
 _atom_site_occupancy
  K  K0  1  0.99999609  0.99999046  0.74999674  1
  K  K1  1  0.00000563  0.00000954  0.25000326  1
  Co  Co2  1  0.33330698  0.66666980  0.74999992  1
  Co  Co3  1  0.66663718  0.33333020  0.25000008  1
  H  H4  1  0.41282304  0.00000000  0.50000000  1
  H  H5  1  0.58726111  0.58728488  0.50002955  1
  H  H6  1  0.99997622  0.41271512  0.49997045  1
  H  H7  1  0.58727193  1.00000000  1.00000000  1
  H  H8  1  0.41274938  0.41279648  0.99996451  1
  H  H9  1  0.99995289  0.58720352  0.00003549  1
  C  C10  1  0.56487538  0.00000000  0.50000000  1
  C  C11  1  0.43496985  0.43486620  0.49988967  1
  C  C12  1  0.00010365  0.56513380  0.50011033  1
  C  C13  1  0.43480059  1.00000000  0.00000000  1
  C  C14  1  0.56498247  0.56488458  0.00012012  1
  C  C15  1  0.00009788  0.43511542  -0.00012012  1
  O  O16  1  0.59338627  0.89314973  0.60765971  1
  O  O17  1  0.29984813  0.40662446  0.60759985  1
  O  O18  1  0.10672920  0.70006755  0.60757805  1
  O  O19  1  0.70023654  0.10685027  0.39234029  1
  O  O20  1  0.89322367  0.59337554  0.39240015  1
  O  O21  1  0.40666165  0.29993245  0.39242195  1
  O  O22  1  0.40665139  0.10671013  0.10756899  1
  O  O23  1  0.70012027  0.59335138  0.10761148  1
  O  O24  1  0.89312586  0.29972926  0.10765177  1
  O  O25  1  0.29994126  0.89328987  0.89243101  1
  O  O26  1  0.10676889  0.40664862  0.89238852  1
  O  O27  1  0.59339660  0.70027074  0.89234823  1
