# generated using pymatgen
data_NbBr5
_symmetry_space_group_name_H-M   'P 1'
_cell_length_a   6.96443802
_cell_length_b   7.54283335
_cell_length_c   10.11951218
_cell_angle_alpha   109.93079626
_cell_angle_beta   91.12540360
_cell_angle_gamma   115.97432437
_symmetry_Int_Tables_number   1
_chemical_formula_structural   NbBr5
_chemical_formula_sum   'Nb2 Br10'
_cell_volume   440.20707429
_cell_formula_units_Z   2
loop_
 _symmetry_equiv_pos_site_id
 _symmetry_equiv_pos_as_xyz
  1  'x, y, z'
loop_
 _atom_site_type_symbol
 _atom_site_label
 _atom_site_symmetry_multiplicity
 _atom_site_fract_x
 _atom_site_fract_y
 _atom_site_fract_z
 _atom_site_occupancy
  Nb  Nb0  1  0.10496252  0.21814185  0.71971608  1
  Nb  Nb1  1  0.89503748  0.78185815  0.28028392  1
  Br  Br2  1  0.88752507  0.37201307  0.64932293  1
  Br  Br3  1  0.22844304  0.17333261  0.45821070  1
  Br  Br4  1  0.11247493  0.62798693  0.35067707  1
  Br  Br5  1  0.56460969  0.43579223  0.17470898  1
  Br  Br6  1  0.43539031  0.56420777  0.82529102  1
  Br  Br7  1  0.70358497  0.98566659  0.25457477  1
  Br  Br8  1  0.77155696  0.82666739  0.54178930  1
  Br  Br9  1  0.07002782  0.81622522  0.07636489  1
  Br  Br10  1  0.92997218  0.18377478  0.92363511  1
  Br  Br11  1  0.29641503  0.01433341  0.74542523  1
