# generated using pymatgen
data_TeI4
_symmetry_space_group_name_H-M   'P 1'
_cell_length_a   7.54792934
_cell_length_b   15.18875120
_cell_length_c   17.42256721
_cell_angle_alpha   90.00000000
_cell_angle_beta   90.00000000
_cell_angle_gamma   90.00000000
_symmetry_Int_Tables_number   1
_chemical_formula_structural   TeI4
_chemical_formula_sum   'Te8 I32'
_cell_volume   1997.38618894
_cell_formula_units_Z   8
loop_
 _symmetry_equiv_pos_site_id
 _symmetry_equiv_pos_as_xyz
  1  'x, y, z'
loop_
 _atom_site_type_symbol
 _atom_site_label
 _atom_site_symmetry_multiplicity
 _atom_site_fract_x
 _atom_site_fract_y
 _atom_site_fract_z
 _atom_site_occupancy
  Te  Te0  1  0.26876176  0.39760145  0.00000000  1
  Te  Te1  1  0.74453508  0.16345929  0.36043500  1
  Te  Te2  1  0.25546492  0.66345929  0.86043500  1
  Te  Te3  1  0.24981637  0.92948410  0.00000000  1
  Te  Te4  1  0.74453508  0.16345929  0.63956500  1
  Te  Te5  1  0.73123824  0.89760145  0.50000000  1
  Te  Te6  1  0.75018363  0.42948410  0.50000000  1
  Te  Te7  1  0.25546492  0.66345929  0.13956500  1
  I  I8  1  0.52083721  0.83059174  0.61872253  1
  I  I9  1  0.97804499  0.24865502  0.50000000  1
  I  I10  1  0.51081519  0.08081320  0.50000000  1
  I  I11  1  0.48675151  0.82368208  0.12661465  1
  I  I12  1  0.98189123  0.76183381  0.50000000  1
  I  I13  1  0.02873836  0.73899636  0.75180109  1
  I  I14  1  0.48675151  0.82368208  0.87338535  1
  I  I15  1  0.04330875  0.99935673  0.11919889  1
  I  I16  1  0.95669125  0.49935673  0.38080111  1
  I  I17  1  0.02621105  0.50277580  0.87364461  1
  I  I18  1  0.47916279  0.33059174  0.11872253  1
  I  I19  1  0.51488263  0.08716891  0.74622492  1
  I  I20  1  0.97126164  0.23899636  0.25180109  1
  I  I21  1  0.97378895  0.00277580  0.37364461  1
  I  I22  1  0.48511737  0.58716891  0.24622492  1
  I  I23  1  0.48511737  0.58716891  0.75377508  1
  I  I24  1  0.97378895  0.00277580  0.62635539  1
  I  I25  1  0.95669125  0.49935673  0.61919889  1
  I  I26  1  0.52083721  0.83059174  0.38127747  1
  I  I27  1  0.02195501  0.74865502  0.00000000  1
  I  I28  1  0.47916279  0.33059174  0.88127747  1
  I  I29  1  0.49386865  0.56255061  0.50000000  1
  I  I30  1  0.51324849  0.32368208  0.37338535  1
  I  I31  1  0.04330875  0.99935673  0.88080111  1
  I  I32  1  0.02621105  0.50277580  0.12635539  1
  I  I33  1  0.97126164  0.23899636  0.74819891  1
  I  I34  1  0.48918481  0.58081320  0.00000000  1
  I  I35  1  0.01810877  0.26183381  0.00000000  1
  I  I36  1  0.51324849  0.32368208  0.62661465  1
  I  I37  1  0.51488263  0.08716891  0.25377508  1
  I  I38  1  0.50613135  0.06255061  0.00000000  1
  I  I39  1  0.02873836  0.73899636  0.24819891  1
