# generated using pymatgen
data_Al22Mo5
_symmetry_space_group_name_H-M   'P 1'
_cell_length_a   4.94540840
_cell_length_b   5.21760454
_cell_length_c   37.03889044
_cell_angle_alpha   88.18695133
_cell_angle_beta   86.17210144
_cell_angle_gamma   61.71123193
_symmetry_Int_Tables_number   1
_chemical_formula_structural   Al22Mo5
_chemical_formula_sum   'Al44 Mo10'
_cell_volume   839.70231746
_cell_formula_units_Z   2
loop_
 _symmetry_equiv_pos_site_id
 _symmetry_equiv_pos_as_xyz
  1  'x, y, z'
loop_
 _atom_site_type_symbol
 _atom_site_label
 _atom_site_symmetry_multiplicity
 _atom_site_fract_x
 _atom_site_fract_y
 _atom_site_fract_z
 _atom_site_occupancy
  Al  Al0  1  0.06076664  0.04269710  0.20865511  1
  Al  Al1  1  0.59969550  0.94970773  0.16759361  1
  Al  Al2  1  0.45302460  0.45569789  0.98256772  1
  Al  Al3  1  0.27696047  0.66450830  0.62844490  1
  Al  Al4  1  0.60829444  0.14793449  0.44441135  1
  Al  Al5  1  0.30270579  0.64793449  0.05558865  1
  Al  Al6  1  0.71699684  0.05029227  0.83240639  1
  Al  Al7  1  0.00622893  0.35206551  0.94441135  1
  Al  Al8  1  0.59200009  0.25456884  0.90570578  1
  Al  Al9  1  0.20064028  0.85206551  0.55558865  1
  Al  Al10  1  0.56043914  0.92045696  0.96232686  1
  Al  Al11  1  0.87924854  0.41314306  0.74442260  1
  Al  Al12  1  0.15338019  0.50675048  0.18285302  1
  Al  Al13  1  0.35346374  0.45730290  0.70865511  1
  Al  Al14  1  0.85749083  0.21041935  0.07339550  1
  Al  Al15  1  0.44322296  0.07954304  0.03767314  1
  Al  Al16  1  0.31791018  0.28958065  0.57339550  1
  Al  Al17  1  0.15540537  0.16450830  0.87155510  1
  Al  Al18  1  0.31211885  0.95730290  0.79134489  1
  Al  Al19  1  0.51942175  0.54269710  0.29134489  1
  Al  Al20  1  0.03681420  0.58685694  0.25557740  1
  Al  Al21  1  0.89129022  0.54430211  0.01743228  1
  Al  Al22  1  0.73089610  0.57954304  0.46232686  1
  Al  Al23  1  0.15872250  0.04430211  0.48256772  1
  Al  Al24  1  0.58623321  0.00675048  0.31714698  1
  Al  Al25  1  0.84298369  0.49324952  0.81714698  1
  Al  Al26  1  0.36620343  0.13372472  0.64869573  1
  Al  Al27  1  0.77276600  0.42045696  0.53767314  1
  Al  Al28  1  0.14130568  0.78958065  0.92660450  1
  Al  Al29  1  0.01728911  0.44970773  0.33240639  1
  Al  Al30  1  0.18088633  0.71041935  0.42660450  1
  Al  Al31  1  0.68559232  0.95569789  0.51743228  1
  Al  Al32  1  0.74992814  0.36627528  0.14869573  1
  Al  Al33  1  0.87367114  0.91314306  0.75557740  1
  Al  Al34  1  0.19146876  0.83549170  0.12844490  1
  Al  Al35  1  0.14862387  0.86627528  0.35130427  1
  Al  Al36  1  0.74770587  0.75456884  0.59429422  1
  Al  Al37  1  0.09656893  0.24543116  0.40570578  1
  Al  Al38  1  0.79940323  0.55029227  0.66759361  1
  Al  Al39  1  0.75227471  0.74543116  0.09429422  1
  Al  Al40  1  0.54239160  0.08685694  0.24442260  1
  Al  Al41  1  0.91013067  0.99324952  0.68285302  1
  Al  Al42  1  0.26489915  0.63372472  0.85130427  1
  Al  Al43  1  0.56991367  0.33549170  0.37155510  1
  Mo  Mo44  1  0.05773581  0.07434896  0.28196967  1
  Mo  Mo45  1  0.69823780  0.71138386  0.89029447  1
  Mo  Mo46  1  0.65962166  0.78861614  0.39029447  1
  Mo  Mo47  1  0.38208478  0.42565104  0.78196967  1
  Mo  Mo48  1  0.41405444  0.92565104  0.71803033  1
  Mo  Mo49  1  0.99956699  0.00000000  0.00000000  1
  Mo  Mo50  1  0.58970548  0.57434896  0.21803033  1
  Mo  Mo51  1  0.83853228  0.21138386  0.60970553  1
  Mo  Mo52  1  0.29991614  0.28861614  0.10970553  1
  Mo  Mo53  1  0.24956699  0.50000000  0.50000000  1
