# generated using pymatgen
data_K(In3Au2)2
_symmetry_space_group_name_H-M   'P 1'
_cell_length_a   8.29418052
_cell_length_b   8.29418023
_cell_length_c   4.50626824
_cell_angle_alpha   90.00000000
_cell_angle_beta   90.00000000
_cell_angle_gamma   120.00000115
_symmetry_Int_Tables_number   1
_chemical_formula_structural   K(In3Au2)2
_chemical_formula_sum   'K1 In6 Au4'
_cell_volume   268.46929248
_cell_formula_units_Z   1
loop_
 _symmetry_equiv_pos_site_id
 _symmetry_equiv_pos_as_xyz
  1  'x, y, z'
loop_
 _atom_site_type_symbol
 _atom_site_label
 _atom_site_symmetry_multiplicity
 _atom_site_fract_x
 _atom_site_fract_y
 _atom_site_fract_z
 _atom_site_occupancy
  K  K0  1  0.00000000  0.00000000  0.00000000  1
  In  In1  1  0.93132523  0.46566262  0.00000000  1
  In  In2  1  0.19656068  0.80343932  0.50000000  1
  In  In3  1  0.53433738  0.06867477  0.00000000  1
  In  In4  1  0.53433738  0.46566262  0.00000000  1
  In  In5  1  0.19656068  0.39312136  0.50000000  1
  In  In6  1  0.60687864  0.80343932  0.50000000  1
  Au  Au7  1  0.40932154  0.20466077  0.50000000  1
  Au  Au8  1  0.79533923  0.20466077  0.50000000  1
  Au  Au9  1  0.79533923  0.59067846  0.50000000  1
  Au  Au10  1  0.33333300  0.66666700  0.00000000  1
