# generated using pymatgen
data_Rb2Mo(SO)2
_symmetry_space_group_name_H-M   'P 1'
_cell_length_a   6.90546081
_cell_length_b   8.72864596
_cell_length_c   12.83589697
_cell_angle_alpha   90.00000000
_cell_angle_beta   93.84707723
_cell_angle_gamma   90.00000000
_symmetry_Int_Tables_number   1
_chemical_formula_structural   Rb2Mo(SO)2
_chemical_formula_sum   'Rb8 Mo4 S8 O8'
_cell_volume   771.94446288
_cell_formula_units_Z   4
loop_
 _symmetry_equiv_pos_site_id
 _symmetry_equiv_pos_as_xyz
  1  'x, y, z'
loop_
 _atom_site_type_symbol
 _atom_site_label
 _atom_site_symmetry_multiplicity
 _atom_site_fract_x
 _atom_site_fract_y
 _atom_site_fract_z
 _atom_site_occupancy
  Rb  Rb0  1  0.21775490  0.18785488  0.55220497  1
  Rb  Rb1  1  0.28224510  0.68785488  0.94779503  1
  Rb  Rb2  1  0.78224510  0.81214512  0.44779503  1
  Rb  Rb3  1  0.71775490  0.31214512  0.05220497  1
  Rb  Rb4  1  0.64952842  0.98069541  0.79960716  1
  Rb  Rb5  1  0.85047158  0.48069541  0.70039284  1
  Rb  Rb6  1  0.35047158  0.01930459  0.20039284  1
  Rb  Rb7  1  0.14952842  0.51930459  0.29960716  1
  Mo  Mo8  1  0.30846596  0.71224773  0.58484177  1
  Mo  Mo9  1  0.19153404  0.21224773  0.91515823  1
  Mo  Mo10  1  0.69153404  0.28775227  0.41515823  1
  Mo  Mo11  1  0.80846596  0.78775227  0.08484177  1
  S  S12  1  0.78651856  0.65975157  0.93221730  1
  S  S13  1  0.71348144  0.15975157  0.56778270  1
  S  S14  1  0.21348144  0.34024843  0.06778270  1
  S  S15  1  0.28651856  0.84024843  0.43221730  1
  S  S16  1  0.12639649  0.83446821  0.69663770  1
  S  S17  1  0.37360351  0.33446821  0.80336230  1
  S  S18  1  0.87360351  0.16553179  0.30336230  1
  S  S19  1  0.62639649  0.66553179  0.19663770  1
  O  O20  1  0.21677031  0.52505812  0.56126614  1
  O  O21  1  0.28322969  0.02505812  0.93873386  1
  O  O22  1  0.78322969  0.47494188  0.43873386  1
  O  O23  1  0.71677031  0.97494188  0.06126614  1
  O  O24  1  0.55561818  0.71018532  0.63431605  1
  O  O25  1  0.94438182  0.21018532  0.86568395  1
  O  O26  1  0.44438182  0.28981468  0.36568395  1
  O  O27  1  0.05561818  0.78981468  0.13431605  1
