# generated using pymatgen
data_K2La6OsI12
_symmetry_space_group_name_H-M   'P 1'
_cell_length_a   10.09074849
_cell_length_b   10.06193248
_cell_length_c   19.64852111
_cell_angle_alpha   90.00000000
_cell_angle_beta   90.00000000
_cell_angle_gamma   108.24188016
_symmetry_Int_Tables_number   1
_chemical_formula_structural   K2La6OsI12
_chemical_formula_sum   'K4 La12 Os2 I24'
_cell_volume   1894.70227657
_cell_formula_units_Z   2
loop_
 _symmetry_equiv_pos_site_id
 _symmetry_equiv_pos_as_xyz
  1  'x, y, z'
loop_
 _atom_site_type_symbol
 _atom_site_label
 _atom_site_symmetry_multiplicity
 _atom_site_fract_x
 _atom_site_fract_y
 _atom_site_fract_z
 _atom_site_occupancy
  K  K0  1  0.57333689  0.91184746  0.30758382  1
  K  K1  1  0.42666311  0.58815254  0.80758382  1
  K  K2  1  0.42666311  0.08815254  0.69241618  1
  K  K3  1  0.57333689  0.41184746  0.19241618  1
  La  La4  1  0.99250731  0.76325601  0.45578480  1
  La  La5  1  0.02255726  0.59779438  0.64467806  1
  La  La6  1  0.00749269  0.23674399  0.54421520  1
  La  La7  1  0.70749024  0.90671628  0.98674068  1
  La  La8  1  0.70749024  0.40671628  0.51325932  1
  La  La9  1  0.02255726  0.09779438  0.85532194  1
  La  La10  1  0.99250731  0.26325601  0.04421520  1
  La  La11  1  0.97744274  0.90220562  0.14467806  1
  La  La12  1  0.00749269  0.73674399  0.95578480  1
  La  La13  1  0.29250976  0.09328372  0.01325932  1
  La  La14  1  0.29250976  0.59328372  0.48674068  1
  La  La15  1  0.97744274  0.40220562  0.35532194  1
  Os  Os16  1  0.00000000  0.50000000  0.50000000  1
  Os  Os17  1  0.00000000  0.00000000  0.00000000  1
  I  I18  1  0.32292942  0.40563062  0.06603856  1
  I  I19  1  0.91917024  0.18656090  0.20555376  1
  I  I20  1  0.30845223  0.01978927  0.17761486  1
  I  I21  1  0.08082976  0.31343910  0.70555376  1
  I  I22  1  0.32292942  0.90563062  0.43396144  1
  I  I23  1  0.34787304  0.29961493  0.53148099  1
  I  I24  1  0.65212696  0.70038507  0.46851901  1
  I  I25  1  0.97484688  0.58380158  0.10353589  1
  I  I26  1  0.67707058  0.09436938  0.56603856  1
  I  I27  1  0.36369759  0.21997910  0.85527807  1
  I  I28  1  0.63630241  0.28002090  0.35527807  1
  I  I29  1  0.69154777  0.48021073  0.67761486  1
  I  I30  1  0.02515312  0.91619842  0.60353589  1
  I  I31  1  0.65212696  0.20038507  0.03148099  1
  I  I32  1  0.08082976  0.81343910  0.79444624  1
  I  I33  1  0.91917024  0.68656090  0.29444624  1
  I  I34  1  0.02515312  0.41619842  0.89646411  1
  I  I35  1  0.97484688  0.08380158  0.39646411  1
  I  I36  1  0.67707058  0.59436938  0.93396144  1
  I  I37  1  0.36369759  0.71997910  0.64472193  1
  I  I38  1  0.63630241  0.78002090  0.14472193  1
  I  I39  1  0.69154777  0.98021073  0.82238514  1
  I  I40  1  0.34787304  0.79961493  0.96851901  1
  I  I41  1  0.30845223  0.51978927  0.32238514  1
