# generated using pymatgen
data_Yb8Ge3Sb5
_symmetry_space_group_name_H-M   'P 1'
_cell_length_a   6.81773164
_cell_length_b   11.93623658
_cell_length_c   11.93623700
_cell_angle_alpha   85.32167829
_cell_angle_beta   73.40590021
_cell_angle_gamma   73.40590424
_symmetry_Int_Tables_number   1
_chemical_formula_structural   Yb8Ge3Sb5
_chemical_formula_sum   'Yb16 Ge6 Sb10'
_cell_volume   892.12325471
_cell_formula_units_Z   2
loop_
 _symmetry_equiv_pos_site_id
 _symmetry_equiv_pos_as_xyz
  1  'x, y, z'
loop_
 _atom_site_type_symbol
 _atom_site_label
 _atom_site_symmetry_multiplicity
 _atom_site_fract_x
 _atom_site_fract_y
 _atom_site_fract_z
 _atom_site_occupancy
  Yb  Yb0  1  0.10198132  0.50000000  0.79603736  1
  Yb  Yb1  1  0.37137510  0.25724980  1.00000000  1
  Yb  Yb2  1  0.39801868  0.50000000  0.20396264  1
  Yb  Yb3  1  0.62862490  0.00000000  0.74275020  1
  Yb  Yb4  1  0.89801868  0.20396264  0.50000000  1
  Yb  Yb5  1  0.00000000  0.81420143  0.18579857  1
  Yb  Yb6  1  0.60198132  0.79603736  0.50000000  1
  Yb  Yb7  1  0.39801868  0.20396264  0.50000000  1
  Yb  Yb8  1  0.10198132  0.79603736  0.50000000  1
  Yb  Yb9  1  0.18579857  0.81420143  0.81420143  1
  Yb  Yb10  1  0.89801868  0.50000000  0.20396264  1
  Yb  Yb11  1  1.00000000  0.18579857  0.81420143  1
  Yb  Yb12  1  0.81420143  0.18579857  0.18579857  1
  Yb  Yb13  1  0.62862490  0.74275020  0.00000000  1
  Yb  Yb14  1  0.60198132  0.50000000  0.79603736  1
  Yb  Yb15  1  0.37137510  1.00000000  0.25724980  1
  Ge  Ge16  1  1.00000000  0.61791236  0.38208764  1
  Ge  Ge17  1  0.61791236  0.38208764  0.38208764  1
  Ge  Ge18  1  0.38208764  0.61791236  0.61791236  1
  Ge  Ge19  1  0.00000000  0.38208764  0.61791236  1
  Ge  Ge20  1  0.75000000  0.50000000  0.50000000  1
  Ge  Ge21  1  0.25000000  0.50000000  0.50000000  1
  Sb  Sb22  1  0.50000000  0.27069669  0.72930331  1
  Sb  Sb23  1  0.19434196  1.00000000  0.61131609  1
  Sb  Sb24  1  0.80565804  0.00000000  0.38868391  1
  Sb  Sb25  1  0.19434196  0.61131609  1.00000000  1
  Sb  Sb26  1  0.77069669  0.72930331  0.72930331  1
  Sb  Sb27  1  0.80565804  0.38868391  0.00000000  1
  Sb  Sb28  1  0.22930331  0.27069669  0.27069669  1
  Sb  Sb29  1  0.23956290  0.00000000  1.00000000  1
  Sb  Sb30  1  0.50000000  0.72930331  0.27069669  1
  Sb  Sb31  1  0.76043710  1.00000000  0.00000000  1
