# generated using pymatgen
data_KBi(PSe3)2
_symmetry_space_group_name_H-M   'P 1'
_cell_length_a   7.09199656
_cell_length_b   7.83896510
_cell_length_c   10.45420305
_cell_angle_alpha   90.00000000
_cell_angle_beta   91.70277692
_cell_angle_gamma   90.00000000
_symmetry_Int_Tables_number   1
_chemical_formula_structural   KBi(PSe3)2
_chemical_formula_sum   'K2 Bi2 P4 Se12'
_cell_volume   580.93341949
_cell_formula_units_Z   2
loop_
 _symmetry_equiv_pos_site_id
 _symmetry_equiv_pos_as_xyz
  1  'x, y, z'
loop_
 _atom_site_type_symbol
 _atom_site_label
 _atom_site_symmetry_multiplicity
 _atom_site_fract_x
 _atom_site_fract_y
 _atom_site_fract_z
 _atom_site_occupancy
  K  K0  1  0.69818849  0.95698751  0.49961213  1
  K  K1  1  0.30181151  0.45698751  0.50038787  1
  Bi  Bi2  1  0.79311382  0.71026111  0.98198993  1
  Bi  Bi3  1  0.20688618  0.21026111  0.01801007  1
  P  P4  1  0.69212706  0.25121371  0.82509982  1
  P  P5  1  0.30787294  0.75121371  0.17490018  1
  P  P6  1  0.20351752  0.97007518  0.29862894  1
  P  P7  1  0.79648248  0.47007518  0.70137106  1
  Se  Se8  1  0.64980204  0.37113634  0.01902420  1
  Se  Se9  1  0.17256756  0.88504793  0.49219099  1
  Se  Se10  1  0.92378387  0.05756941  0.82692065  1
  Se  Se11  1  0.41555213  0.17221178  0.26936981  1
  Se  Se12  1  0.57418296  0.65507284  0.25755357  1
  Se  Se13  1  0.58444787  0.67221178  0.73063019  1
  Se  Se14  1  0.05550383  0.55692419  0.81212608  1
  Se  Se15  1  0.94449617  0.05692419  0.18787392  1
  Se  Se16  1  0.82743244  0.38504793  0.50780901  1
  Se  Se17  1  0.35019796  0.87113634  0.98097580  1
  Se  Se18  1  0.07621613  0.55756941  0.17307935  1
  Se  Se19  1  0.42581704  0.15507284  0.74244643  1
