# generated using pymatgen
data_Ag10Te4Br3
_symmetry_space_group_name_H-M   'P 1'
_cell_length_a   11.18513865
_cell_length_b   11.18513887
_cell_length_c   13.91523083
_cell_angle_alpha   90.00000000
_cell_angle_beta   90.00000000
_cell_angle_gamma   91.18424817
_symmetry_Int_Tables_number   1
_chemical_formula_structural   Ag10Te4Br3
_chemical_formula_sum   'Ag40 Te16 Br12'
_cell_volume   1740.52551290
_cell_formula_units_Z   4
loop_
 _symmetry_equiv_pos_site_id
 _symmetry_equiv_pos_as_xyz
  1  'x, y, z'
loop_
 _atom_site_type_symbol
 _atom_site_label
 _atom_site_symmetry_multiplicity
 _atom_site_fract_x
 _atom_site_fract_y
 _atom_site_fract_z
 _atom_site_occupancy
  Ag  Ag0  1  0.93411075  0.88189323  0.78356130  1
  Ag  Ag1  1  0.64734463  0.15217027  0.64142669  1
  Ag  Ag2  1  0.36505780  0.82502203  0.90187020  1
  Ag  Ag3  1  0.63494220  0.17497797  0.40187020  1
  Ag  Ag4  1  0.40187447  0.31350049  0.65972690  1
  Ag  Ag5  1  0.35786497  0.88610021  0.64025224  1
  Ag  Ag6  1  0.84782973  0.35265537  0.64142669  1
  Ag  Ag7  1  0.14774055  0.60455635  0.36811740  1
  Ag  Ag8  1  0.11389979  0.64213503  0.64025224  1
  Ag  Ag9  1  0.39544365  0.85225945  0.36811740  1
  Ag  Ag10  1  0.40061579  0.35762452  0.87508082  1
  Ag  Ag11  1  0.37416054  0.62583946  0.26202603  1
  Ag  Ag12  1  0.68649951  0.59812553  0.65972690  1
  Ag  Ag13  1  0.98839234  0.79810378  0.44712713  1
  Ag  Ag14  1  0.17497797  0.63494220  0.90187020  1
  Ag  Ag15  1  0.16358712  0.02577969  0.09190615  1
  Ag  Ag16  1  0.35762452  0.40061579  0.37508082  1
  Ag  Ag17  1  0.79810378  0.98839234  0.94712713  1
  Ag  Ag18  1  0.88610021  0.35786497  0.14025224  1
  Ag  Ag19  1  0.64237548  0.59938421  0.87508082  1
  Ag  Ag20  1  0.15217027  0.64734463  0.14142669  1
  Ag  Ag21  1  0.60455635  0.14774055  0.86811740  1
  Ag  Ag22  1  0.02577969  0.16358712  0.59190615  1
  Ag  Ag23  1  0.97422031  0.83641288  0.09190615  1
  Ag  Ag24  1  0.88189323  0.93411075  0.28356130  1
  Ag  Ag25  1  0.82502203  0.36505780  0.40187020  1
  Ag  Ag26  1  0.31350049  0.40187447  0.15972690  1
  Ag  Ag27  1  0.01160766  0.20189622  0.94712713  1
  Ag  Ag28  1  0.83641288  0.97422031  0.59190615  1
  Ag  Ag29  1  0.11810677  0.06588925  0.78356130  1
  Ag  Ag30  1  0.85395841  0.14604159  0.78011923  1
  Ag  Ag31  1  0.64213503  0.11389979  0.14025224  1
  Ag  Ag32  1  0.06588925  0.11810677  0.28356130  1
  Ag  Ag33  1  0.85225945  0.39544365  0.86811740  1
  Ag  Ag34  1  0.59938421  0.64237548  0.37508082  1
  Ag  Ag35  1  0.20189622  0.01160766  0.44712713  1
  Ag  Ag36  1  0.62583946  0.37416054  0.76202603  1
  Ag  Ag37  1  0.14604159  0.85395841  0.28011923  1
  Ag  Ag38  1  0.35265537  0.84782973  0.14142669  1
  Ag  Ag39  1  0.59812553  0.68649951  0.15972690  1
  Te  Te40  1  0.36937403  0.63062597  0.46197459  1
  Te  Te41  1  0.10893433  0.89106567  0.60780332  1
  Te  Te42  1  0.63062597  0.36937403  0.96197459  1
  Te  Te43  1  0.52450365  0.29184943  0.24826824  1
  Te  Te44  1  0.30859193  0.04940431  0.26016132  1
  Te  Te45  1  0.04940431  0.30859193  0.76016132  1
  Te  Te46  1  0.95059569  0.69140807  0.26016132  1
  Te  Te47  1  0.29184943  0.52450365  0.74826824  1
  Te  Te48  1  0.88094995  0.11905005  0.42729593  1
  Te  Te49  1  0.38088805  0.61911195  0.06122532  1
  Te  Te50  1  0.69140807  0.95059569  0.76016132  1
  Te  Te51  1  0.89106567  0.10893433  0.10780332  1
  Te  Te52  1  0.11905005  0.88094995  0.92729593  1
  Te  Te53  1  0.47549635  0.70815057  0.74826824  1
  Te  Te54  1  0.70815057  0.47549635  0.24826824  1
  Te  Te55  1  0.61911195  0.38088805  0.56122532  1
  Br  Br56  1  0.00514105  0.50558099  0.00879858  1
  Br  Br57  1  0.36289900  0.10279343  0.76165655  1
  Br  Br58  1  0.25253631  0.25147771  0.00938826  1
  Br  Br59  1  0.50558099  0.00514105  0.50879858  1
  Br  Br60  1  0.89720657  0.63710100  0.76165655  1
  Br  Br61  1  0.74746369  0.74852229  0.50938826  1
  Br  Br62  1  0.74852229  0.74746369  0.00938826  1
  Br  Br63  1  0.10279343  0.36289900  0.26165655  1
  Br  Br64  1  0.25147771  0.25253631  0.50938826  1
  Br  Br65  1  0.99485895  0.49441901  0.50879858  1
  Br  Br66  1  0.63710100  0.89720657  0.26165655  1
  Br  Br67  1  0.49441901  0.99485895  0.00879858  1
