# generated using pymatgen
data_TlPAuSe3
_symmetry_space_group_name_H-M   'P 1'
_cell_length_a   7.24041839
_cell_length_b   7.24041841
_cell_length_c   8.44094112
_cell_angle_alpha   90.74581973
_cell_angle_beta   115.38316600
_cell_angle_gamma   119.01760128
_symmetry_Int_Tables_number   1
_chemical_formula_structural   TlPAuSe3
_chemical_formula_sum   'Tl2 P2 Au2 Se6'
_cell_volume   335.65065471
_cell_formula_units_Z   2
loop_
 _symmetry_equiv_pos_site_id
 _symmetry_equiv_pos_as_xyz
  1  'x, y, z'
loop_
 _atom_site_type_symbol
 _atom_site_label
 _atom_site_symmetry_multiplicity
 _atom_site_fract_x
 _atom_site_fract_y
 _atom_site_fract_z
 _atom_site_occupancy
  Tl  Tl0  1  0.94518196  0.28496703  0.23014899  1
  Tl  Tl1  1  0.05481804  0.71503297  0.76985101  1
  P  P2  1  0.62111433  0.03176765  0.65288198  1
  P  P3  1  0.37888567  0.96823235  0.34711802  1
  Au  Au4  1  0.76167871  0.76167871  0.00000000  1
  Au  Au5  1  0.23832129  0.23832129  1.00000000  1
  Se  Se6  1  0.42172866  0.76725311  0.18898177  1
  Se  Se7  1  0.51590536  0.31527602  0.32496445  1
  Se  Se8  1  0.57827134  0.23274689  0.81101823  1
  Se  Se9  1  0.48409464  0.68472398  0.67503555  1
  Se  Se10  1  0.00968843  0.80905909  0.32496445  1
  Se  Se11  1  0.99031157  0.19094091  0.67503555  1
