# generated using pymatgen
data_Cu5Sn4
_symmetry_space_group_name_H-M   'P 1'
_cell_length_a   7.40912979
_cell_length_b   7.40912979
_cell_length_c   10.30908915
_cell_angle_alpha   89.71652804
_cell_angle_beta   89.71652804
_cell_angle_gamma   59.94268145
_symmetry_Int_Tables_number   1
_chemical_formula_structural   Cu5Sn4
_chemical_formula_sum   'Cu15 Sn12'
_cell_volume   489.80940509
_cell_formula_units_Z   3
loop_
 _symmetry_equiv_pos_site_id
 _symmetry_equiv_pos_as_xyz
  1  'x, y, z'
loop_
 _atom_site_type_symbol
 _atom_site_label
 _atom_site_symmetry_multiplicity
 _atom_site_fract_x
 _atom_site_fract_y
 _atom_site_fract_z
 _atom_site_occupancy
  Cu  Cu0  1  0.32152285  0.67847715  0.00000000  1
  Cu  Cu1  1  0.99634272  0.02067677  0.37685015  1
  Cu  Cu2  1  0.97932323  0.00365728  0.62314985  1
  Cu  Cu3  1  0.01140531  0.00384929  0.12576609  1
  Cu  Cu4  1  0.99615071  0.98859469  0.87423391  1
  Cu  Cu5  1  0.31430185  0.02761391  0.25021764  1
  Cu  Cu6  1  0.97238609  0.68569815  0.74978236  1
  Cu  Cu7  1  0.31324867  0.33904935  0.37721649  1
  Cu  Cu8  1  0.66095065  0.68675133  0.62278351  1
  Cu  Cu9  1  0.31400493  0.35382064  0.12579143  1
  Cu  Cu10  1  0.64617936  0.68599507  0.87420857  1
  Cu  Cu11  1  0.61910676  0.70216485  0.12578302  1
  Cu  Cu12  1  0.29783515  0.38089324  0.87421698  1
  Cu  Cu13  1  0.63238643  0.70477240  0.37652405  1
  Cu  Cu14  1  0.29522760  0.36761357  0.62347595  1
  Sn  Sn15  1  0.67819623  0.32180377  0.00000000  1
  Sn  Sn16  1  0.65198895  0.34801105  0.50000000  1
  Sn  Sn17  1  0.94927537  0.37718384  0.24925439  1
  Sn  Sn18  1  0.62281616  0.05072463  0.75074561  1
  Sn  Sn19  1  0.95611606  0.68608256  0.01884011  1
  Sn  Sn20  1  0.31391744  0.04388394  0.98115989  1
  Sn  Sn21  1  0.97545269  0.68712503  0.48051862  1
  Sn  Sn22  1  0.31287497  0.02454731  0.51948138  1
  Sn  Sn23  1  0.32096389  0.66139113  0.26843960  1
  Sn  Sn24  1  0.33860887  0.67903611  0.73156040  1
  Sn  Sn25  1  0.67113112  0.02941409  0.24936732  1
  Sn  Sn26  1  0.97058591  0.32886888  0.75063268  1
