# generated using pymatgen
data_P(W2O7)2
_symmetry_space_group_name_H-M   'P 1'
_cell_length_a   5.41416941
_cell_length_b   6.69933040
_cell_length_c   30.36980664
_cell_angle_alpha   90.00000000
_cell_angle_beta   90.00000000
_cell_angle_gamma   90.00000000
_symmetry_Int_Tables_number   1
_chemical_formula_structural   P(W2O7)2
_chemical_formula_sum   'P4 W16 O56'
_cell_volume   1101.55266275
_cell_formula_units_Z   4
loop_
 _symmetry_equiv_pos_site_id
 _symmetry_equiv_pos_as_xyz
  1  'x, y, z'
loop_
 _atom_site_type_symbol
 _atom_site_label
 _atom_site_symmetry_multiplicity
 _atom_site_fract_x
 _atom_site_fract_y
 _atom_site_fract_z
 _atom_site_occupancy
  P  P0  1  0.23674379  0.28295646  0.71328500  1
  P  P1  1  0.26325621  0.71704354  0.21328500  1
  P  P2  1  0.76325621  0.78295646  0.78671500  1
  P  P3  1  0.73674379  0.21704354  0.28671500  1
  W  W4  1  0.75812532  0.42511659  0.87148124  1
  W  W5  1  0.74187468  0.57488341  0.37148124  1
  W  W6  1  0.75688655  0.08631320  0.97423062  1
  W  W7  1  0.24468985  0.24696822  0.42424880  1
  W  W8  1  0.24402494  0.91270741  0.32088180  1
  W  W9  1  0.74311345  0.91368680  0.47423062  1
  W  W10  1  0.24311345  0.58631320  0.52576938  1
  W  W11  1  0.25812532  0.07488341  0.12851876  1
  W  W12  1  0.75531015  0.74696822  0.07575120  1
  W  W13  1  0.74468985  0.25303178  0.57575120  1
  W  W14  1  0.25531015  0.75303178  0.92424880  1
  W  W15  1  0.74402494  0.58729259  0.67911820  1
  W  W16  1  0.25688655  0.41368680  0.02576938  1
  W  W17  1  0.24187468  0.92511659  0.62851876  1
  W  W18  1  0.25597506  0.08729259  0.82088180  1
  W  W19  1  0.75597506  0.41270741  0.17911820  1
  O  O20  1  0.47151475  0.10103833  0.60326419  1
  O  O21  1  0.01186198  0.74186659  0.66107366  1
  O  O22  1  0.03019096  0.57163237  0.89203428  1
  O  O23  1  0.75659602  0.25363552  0.92000479  1
  O  O24  1  0.24403864  0.09427933  0.68451061  1
  O  O25  1  0.25659602  0.24636448  0.07999521  1
  O  O26  1  0.53019096  0.92836763  0.10796572  1
  O  O27  1  0.74347521  0.08229467  0.52635267  1
  O  O28  1  0.01434228  0.73083881  0.34310470  1
  O  O29  1  0.98749613  0.39156434  0.70783996  1
  O  O30  1  0.48319853  0.93236948  0.95013453  1
  O  O31  1  0.01250387  0.89156434  0.79216004  1
  O  O32  1  0.98204701  0.90109784  0.94531640  1
  O  O33  1  0.95574792  0.07877183  0.29732187  1
  O  O34  1  0.45574792  0.42122817  0.70267813  1
  O  O35  1  0.03008356  0.23433688  0.99759975  1
  O  O36  1  0.46991644  0.76566312  0.49759975  1
  O  O37  1  0.04425208  0.57877183  0.20267813  1
  O  O38  1  0.24473590  0.07401481  0.37018272  1
  O  O39  1  0.24347521  0.41770533  0.47364733  1
  O  O40  1  0.25652479  0.58229467  0.97364733  1
  O  O41  1  0.73915359  0.72021609  0.73804353  1
  O  O42  1  0.74340398  0.74636448  0.42000479  1
  O  O43  1  0.51434228  0.76916119  0.65689530  1
  O  O44  1  0.96980904  0.07163237  0.60796572  1
  O  O45  1  0.75596136  0.59427933  0.81548939  1
  O  O46  1  0.75652479  0.91770533  0.02635267  1
  O  O47  1  0.98319853  0.56763052  0.04986547  1
  O  O48  1  0.01680147  0.06763052  0.45013453  1
  O  O49  1  0.24340398  0.75363552  0.57999521  1
  O  O50  1  0.46980904  0.42836763  0.39203428  1
  O  O51  1  0.98565772  0.23083881  0.15689530  1
  O  O52  1  0.02848525  0.89896167  0.10326419  1
  O  O53  1  0.48749613  0.10843566  0.29216004  1
  O  O54  1  0.54425208  0.92122817  0.79732187  1
  O  O55  1  0.01795299  0.40109784  0.55468360  1
  O  O56  1  0.52848525  0.60103833  0.89673581  1
  O  O57  1  0.48204701  0.59890216  0.05468360  1
  O  O58  1  0.48565772  0.26916119  0.84310470  1
  O  O59  1  0.26084641  0.22021609  0.76195647  1
  O  O60  1  0.23915359  0.77978391  0.26195647  1
  O  O61  1  0.25526410  0.92598519  0.87018272  1
  O  O62  1  0.51186198  0.75813341  0.33892634  1
  O  O63  1  0.51250387  0.60843566  0.20783996  1
  O  O64  1  0.51795299  0.09890216  0.44531640  1
  O  O65  1  0.51680147  0.43236948  0.54986547  1
  O  O66  1  0.74473590  0.42598519  0.62981728  1
  O  O67  1  0.75526410  0.57401481  0.12981728  1
  O  O68  1  0.76084641  0.27978391  0.23804353  1
  O  O69  1  0.98813802  0.24186659  0.83892634  1
  O  O70  1  0.25596136  0.90572067  0.18451061  1
  O  O71  1  0.97151475  0.39896167  0.39673581  1
  O  O72  1  0.96991644  0.73433688  0.50240025  1
  O  O73  1  0.48813802  0.25813341  0.16107366  1
  O  O74  1  0.74403864  0.40572067  0.31548939  1
  O  O75  1  0.53008356  0.26566312  0.00240025  1
