# generated using pymatgen
data_Ca3Si2O7
_symmetry_space_group_name_H-M   'P 1'
_cell_length_a   5.13912718
_cell_length_b   11.55462884
_cell_length_c   12.78872718
_cell_angle_alpha   116.85719660
_cell_angle_beta   101.59227954
_cell_angle_gamma   89.99948972
_symmetry_Int_Tables_number   1
_chemical_formula_structural   Ca3Si2O7
_chemical_formula_sum   'Ca12 Si8 O28'
_cell_volume   660.08199178
_cell_formula_units_Z   4
loop_
 _symmetry_equiv_pos_site_id
 _symmetry_equiv_pos_as_xyz
  1  'x, y, z'
loop_
 _atom_site_type_symbol
 _atom_site_label
 _atom_site_symmetry_multiplicity
 _atom_site_fract_x
 _atom_site_fract_y
 _atom_site_fract_z
 _atom_site_occupancy
  Ca  Ca0  1  0.59950096  0.88698854  0.20869379  1
  Ca  Ca1  1  0.40049256  0.67827007  0.79129403  1
  Ca  Ca2  1  0.99998952  0.01033589  0.00000074  1
  Ca  Ca3  1  0.33642021  0.32116634  0.66300069  1
  Ca  Ca4  1  0.17343398  0.15817423  0.33699628  1
  Ca  Ca5  1  0.82657856  0.82115173  0.66300259  1
  Ca  Ca6  1  0.50002074  0.51033576  0.00000658  1
  Ca  Ca7  1  0.66359262  0.65817394  0.33700389  1
  Ca  Ca8  1  0.75131442  0.46380298  0.49999752  1
  Ca  Ca9  1  0.24870385  0.96381202  0.50000367  1
  Ca  Ca10  1  0.89081084  0.17828823  0.79130884  1
  Ca  Ca11  1  0.10919949  0.38699828  0.20870073  1
  Si  Si12  1  0.32141610  0.65290476  0.49998961  1
  Si  Si13  1  0.04003193  0.69218087  0.20141997  1
  Si  Si14  1  0.66141913  0.19218028  0.20141280  1
  Si  Si15  1  0.95999931  0.49074897  0.79860011  1
  Si  Si16  1  0.33860347  0.99072529  0.79859441  1
  Si  Si17  1  0.49997330  0.25819107  0.99998881  1
  Si  Si18  1  0.99998900  0.75819914  0.99999765  1
  Si  Si19  1  0.67858812  0.15290981  0.49999311  1
  O  O20  1  0.78790948  0.05650165  0.18441008  1
  O  O21  1  0.64801117  0.49911505  0.80655944  1
  O  O22  1  0.65854278  0.99910265  0.80656535  1
  O  O23  1  0.45601245  0.78434611  0.49998976  1
  O  O24  1  0.10354163  0.37209668  0.81562145  1
  O  O25  1  0.72962187  0.20967049  0.08218746  1
  O  O26  1  0.77867119  0.79800211  0.91701513  1
  O  O27  1  0.48885640  0.02752354  0.38252242  1
  O  O28  1  0.51112445  0.64498693  0.61745854  1
  O  O29  1  0.60636000  0.14498876  0.61746133  1
  O  O30  1  0.27036091  0.12746676  0.91780058  1
  O  O31  1  0.00157130  0.65238806  0.49998176  1
  O  O32  1  0.22125828  0.88098194  0.08296399  1
  O  O33  1  0.39367576  0.52752038  0.38252459  1
  O  O34  1  0.14744457  0.62748330  0.91781319  1
  O  O35  1  0.04157269  0.49511983  0.68212888  1
  O  O36  1  0.89650217  0.55650568  0.18440458  1
  O  O37  1  0.21208358  0.87208190  0.81562730  1
  O  O38  1  0.14051865  0.99510029  0.68212148  1
  O  O39  1  0.95840119  0.81303236  0.31788397  1
  O  O40  1  0.63835350  0.29801099  0.91704186  1
  O  O41  1  0.99841248  0.15239547  0.49997945  1
  O  O42  1  0.54398310  0.28435815  0.50000660  1
  O  O43  1  0.85948823  0.31303623  0.31787607  1
  O  O44  1  0.35199785  0.69260643  0.19346627  1
  O  O45  1  0.85255834  0.70967037  0.08219202  1
  O  O46  1  0.34147455  0.19260009  0.19344977  1
  O  O47  1  0.36161334  0.38096965  0.08294085  1
