# generated using pymatgen
data_U(Cr3P2)2
_symmetry_space_group_name_H-M   'P 1'
_cell_length_a   3.49252740
_cell_length_b   6.89016688
_cell_length_c   11.87929260
_cell_angle_alpha   90.00000000
_cell_angle_beta   90.00000000
_cell_angle_gamma   90.00000000
_symmetry_Int_Tables_number   1
_chemical_formula_structural   U(Cr3P2)2
_chemical_formula_sum   'U2 Cr12 P8'
_cell_volume   285.86444489
_cell_formula_units_Z   2
loop_
 _symmetry_equiv_pos_site_id
 _symmetry_equiv_pos_as_xyz
  1  'x, y, z'
loop_
 _atom_site_type_symbol
 _atom_site_label
 _atom_site_symmetry_multiplicity
 _atom_site_fract_x
 _atom_site_fract_y
 _atom_site_fract_z
 _atom_site_occupancy
  U  U0  1  0.75000000  0.25000000  0.68139126  1
  U  U1  1  0.25000000  0.75000000  0.31860874  1
  Cr  Cr2  1  0.75000000  0.05592174  0.42385153  1
  Cr  Cr3  1  0.25000000  0.05329052  0.08942066  1
  Cr  Cr4  1  0.75000000  0.55329052  0.91057934  1
  Cr  Cr5  1  0.25000000  0.25000000  0.88407386  1
  Cr  Cr6  1  0.75000000  0.44407826  0.42385153  1
  Cr  Cr7  1  0.25000000  0.44670948  0.08942066  1
  Cr  Cr8  1  0.75000000  0.75000000  0.71879892  1
  Cr  Cr9  1  0.25000000  0.94407826  0.57614847  1
  Cr  Cr10  1  0.25000000  0.55592174  0.57614847  1
  Cr  Cr11  1  0.25000000  0.25000000  0.28120108  1
  Cr  Cr12  1  0.75000000  0.94670948  0.91057934  1
  Cr  Cr13  1  0.75000000  0.75000000  0.11592614  1
  P  P14  1  0.75000000  0.25000000  0.01140374  1
  P  P15  1  0.75000000  0.03294464  0.22631906  1
  P  P16  1  0.75000000  0.46705536  0.22631906  1
  P  P17  1  0.25000000  0.25000000  0.48971446  1
  P  P18  1  0.25000000  0.75000000  0.98859626  1
  P  P19  1  0.75000000  0.75000000  0.51028554  1
  P  P20  1  0.25000000  0.96705536  0.77368094  1
  P  P21  1  0.25000000  0.53294464  0.77368094  1
