# generated using pymatgen
data_K3Mo2Br9
_symmetry_space_group_name_H-M   'P 1'
_cell_length_a   7.61836667
_cell_length_b   7.61836682
_cell_length_c   18.55969264
_cell_angle_alpha   90.00000000
_cell_angle_beta   90.00000000
_cell_angle_gamma   119.99999938
_symmetry_Int_Tables_number   1
_chemical_formula_structural   K3Mo2Br9
_chemical_formula_sum   'K6 Mo4 Br18'
_cell_volume   932.87867426
_cell_formula_units_Z   2
loop_
 _symmetry_equiv_pos_site_id
 _symmetry_equiv_pos_as_xyz
  1  'x, y, z'
loop_
 _atom_site_type_symbol
 _atom_site_label
 _atom_site_symmetry_multiplicity
 _atom_site_fract_x
 _atom_site_fract_y
 _atom_site_fract_z
 _atom_site_occupancy
  K  K0  1  0.33333300  0.66666700  0.94560030  1
  K  K1  1  0.66666700  0.33333300  0.44560030  1
  K  K2  1  0.00000000  0.00000000  0.25000000  1
  K  K3  1  0.66666700  0.33333300  0.05439970  1
  K  K4  1  0.33333300  0.66666700  0.55439970  1
  K  K5  1  0.00000000  0.00000000  0.75000000  1
  Mo  Mo6  1  0.33333300  0.66666700  0.17339226  1
  Mo  Mo7  1  0.33333300  0.66666700  0.32660774  1
  Mo  Mo8  1  0.66666700  0.33333300  0.67339226  1
  Mo  Mo9  1  0.66666700  0.33333300  0.82660774  1
  Br  Br10  1  0.23004357  0.87856913  0.09337438  1
  Br  Br11  1  0.00447386  0.55472631  0.25000000  1
  Br  Br12  1  0.44974755  0.00447386  0.75000000  1
  Br  Br13  1  0.87856913  0.64852556  0.59337438  1
  Br  Br14  1  0.23004357  0.87856913  0.40662562  1
  Br  Br15  1  0.76995643  0.12143087  0.90662562  1
  Br  Br16  1  0.35147444  0.23004357  0.90662562  1
  Br  Br17  1  0.99552614  0.44527369  0.75000000  1
  Br  Br18  1  0.55025245  0.99552614  0.25000000  1
  Br  Br19  1  0.55472631  0.55025245  0.75000000  1
  Br  Br20  1  0.76995643  0.12143087  0.59337438  1
  Br  Br21  1  0.64852556  0.76995643  0.09337438  1
  Br  Br22  1  0.44527369  0.44974755  0.25000000  1
  Br  Br23  1  0.87856913  0.64852556  0.90662562  1
  Br  Br24  1  0.64852556  0.76995643  0.40662562  1
  Br  Br25  1  0.12143087  0.35147444  0.09337438  1
  Br  Br26  1  0.35147444  0.23004357  0.59337438  1
  Br  Br27  1  0.12143087  0.35147444  0.40662562  1
