# generated using pymatgen
data_Li9Fe3P8O29
_symmetry_space_group_name_H-M   'P 1'
_cell_length_a   9.86157036
_cell_length_b   9.86157050
_cell_length_c   13.76563698
_cell_angle_alpha   90.00000000
_cell_angle_beta   90.00000000
_cell_angle_gamma   119.99999954
_symmetry_Int_Tables_number   1
_chemical_formula_structural   Li9Fe3P8O29
_chemical_formula_sum   'Li18 Fe6 P16 O58'
_cell_volume   1159.36212235
_cell_formula_units_Z   2
loop_
 _symmetry_equiv_pos_site_id
 _symmetry_equiv_pos_as_xyz
  1  'x, y, z'
loop_
 _atom_site_type_symbol
 _atom_site_label
 _atom_site_symmetry_multiplicity
 _atom_site_fract_x
 _atom_site_fract_y
 _atom_site_fract_z
 _atom_site_occupancy
  Li  Li0  1  0.89933465  0.23447130  0.06392843  1
  Li  Li1  1  0.89933465  0.66486335  0.56392843  1
  Li  Li2  1  0.66666700  0.33333300  0.88012208  1
  Li  Li3  1  0.10066535  0.76552870  0.93607157  1
  Li  Li4  1  0.10066535  0.33513665  0.43607157  1
  Li  Li5  1  0.23447130  0.33513665  0.93607157  1
  Li  Li6  1  0.66486335  0.76552870  0.43607157  1
  Li  Li7  1  0.66666700  0.33333300  0.38012208  1
  Li  Li8  1  0.76552870  0.66486335  0.06392843  1
  Li  Li9  1  0.33513665  0.10066535  0.06392843  1
  Li  Li10  1  0.76552870  0.10066535  0.56392843  1
  Li  Li11  1  0.33333300  0.66666700  0.61987792  1
  Li  Li12  1  0.33333300  0.66666700  0.11987792  1
  Li  Li13  1  0.23447130  0.89933465  0.43607157  1
  Li  Li14  1  0.00000000  0.00000000  0.00000000  1
  Li  Li15  1  0.00000000  0.00000000  0.50000000  1
  Li  Li16  1  0.33513665  0.23447130  0.56392843  1
  Li  Li17  1  0.66486335  0.89933465  0.93607157  1
  Fe  Fe18  1  0.56597690  0.00000000  0.75000000  1
  Fe  Fe19  1  0.00000000  0.56597690  0.75000000  1
  Fe  Fe20  1  0.56597690  0.56597690  0.25000000  1
  Fe  Fe21  1  0.43402310  0.43402310  0.75000000  1
  Fe  Fe22  1  0.43402310  0.00000000  0.25000000  1
  Fe  Fe23  1  1.00000000  0.43402310  0.25000000  1
  P  P24  1  0.77368964  0.68366653  0.84429283  1
  P  P25  1  0.22631036  0.31633347  0.15570717  1
  P  P26  1  0.77368964  0.09002311  0.34429283  1
  P  P27  1  0.33333300  0.66666700  0.87556125  1
  P  P28  1  0.68366653  0.90997689  0.15570717  1
  P  P29  1  0.66666700  0.33333300  0.12443875  1
  P  P30  1  0.31633347  0.09002311  0.84429283  1
  P  P31  1  0.90997689  0.22631036  0.84429283  1
  P  P32  1  0.22631036  0.90997689  0.65570717  1
  P  P33  1  0.33333300  0.66666700  0.37556125  1
  P  P34  1  0.31633347  0.22631036  0.34429283  1
  P  P35  1  0.66666700  0.33333300  0.62443875  1
  P  P36  1  0.90997689  0.68366653  0.34429283  1
  P  P37  1  0.09002311  0.77368964  0.15570717  1
  P  P38  1  0.09002311  0.31633347  0.65570717  1
  P  P39  1  0.68366653  0.77368964  0.65570717  1
  O  O40  1  0.00266281  0.22794780  0.93330433  1
  O  O41  1  0.47996500  0.10828608  0.83357868  1
  O  O42  1  0.51269167  0.32326362  0.66311264  1
  O  O43  1  0.89171392  0.52003500  0.33357868  1
  O  O44  1  0.66666700  0.33333300  0.51442057  1
  O  O45  1  0.07761248  0.32928709  0.15552713  1
  O  O46  1  0.67673638  0.18942705  0.66311264  1
  O  O47  1  0.74832438  0.07761248  0.84447187  1
  O  O48  1  0.32928709  0.25167562  0.84447187  1
  O  O49  1  0.32326362  0.81057295  0.33688736  1
  O  O50  1  0.18942705  0.51269167  0.33688736  1
  O  O51  1  0.99733719  0.77205220  0.06669567  1
  O  O52  1  0.89171392  0.37167893  0.83357868  1
  O  O53  1  0.32326362  0.51269167  0.83688736  1
  O  O54  1  0.62832107  0.52003500  0.83357868  1
  O  O55  1  0.00000000  0.21335929  0.75000000  1
  O  O56  1  0.51269167  0.18942705  0.16311264  1
  O  O57  1  0.52003500  0.89171392  0.16642132  1
  O  O58  1  0.74832438  0.67071291  0.34447187  1
  O  O59  1  0.10828608  0.62832107  0.16642132  1
  O  O60  1  0.22794780  0.22528598  0.06669567  1
  O  O61  1  0.25167562  0.32928709  0.65552813  1
  O  O62  1  0.77205220  0.77471402  0.93330433  1
  O  O63  1  0.10828608  0.47996500  0.66642132  1
  O  O64  1  0.67071291  0.92238752  0.65552813  1
  O  O65  1  0.33333300  0.66666700  0.48557943  1
  O  O66  1  0.92238752  0.25167562  0.34447187  1
  O  O67  1  0.48730833  0.67673638  0.33688736  1
  O  O68  1  0.21335929  0.21335929  0.25000000  1
  O  O69  1  0.52003500  0.62832107  0.66642132  1
  O  O70  1  0.37167893  0.89171392  0.66642132  1
  O  O71  1  0.00266281  0.77471402  0.43330433  1
  O  O72  1  0.81057295  0.32326362  0.16311264  1
  O  O73  1  0.33333300  0.66666700  0.98557943  1
  O  O74  1  0.37167893  0.47996500  0.16642132  1
  O  O75  1  0.62832107  0.10828608  0.33357868  1
  O  O76  1  0.81057295  0.48730833  0.66311264  1
  O  O77  1  0.22528598  0.22794780  0.43330433  1
  O  O78  1  0.78664071  0.78664071  0.75000000  1
  O  O79  1  0.47996500  0.37167893  0.33357868  1
  O  O80  1  0.18942705  0.67673638  0.83688736  1
  O  O81  1  0.77471402  0.00266281  0.06669567  1
  O  O82  1  0.99733719  0.22528598  0.56669567  1
  O  O83  1  0.32928709  0.07761248  0.34447187  1
  O  O84  1  0.67673638  0.48730833  0.16311264  1
  O  O85  1  0.92238752  0.67071291  0.84447187  1
  O  O86  1  0.66666700  0.33333300  0.01442057  1
  O  O87  1  0.77471402  0.77205220  0.56669567  1
  O  O88  1  0.78664071  0.00000000  0.25000000  1
  O  O89  1  0.22794780  0.00266281  0.56669567  1
  O  O90  1  0.25167562  0.92238752  0.15552713  1
  O  O91  1  0.67071291  0.74832438  0.15552713  1
  O  O92  1  0.77205220  0.99733719  0.43330433  1
  O  O93  1  0.21335929  0.00000000  0.75000000  1
  O  O94  1  0.48730833  0.81057295  0.83688736  1
  O  O95  1  0.22528598  0.99733719  0.93330433  1
  O  O96  1  1.00000000  0.78664071  0.25000000  1
  O  O97  1  0.07761248  0.74832438  0.65552813  1
