# generated using pymatgen
data_NaZnAs(H2O3)2
_symmetry_space_group_name_H-M   'P 1'
_cell_length_a   5.95436727
_cell_length_b   6.27418652
_cell_length_c   7.92966048
_cell_angle_alpha   83.99286535
_cell_angle_beta   83.56622906
_cell_angle_gamma   88.36194952
_symmetry_Int_Tables_number   1
_chemical_formula_structural   NaZnAs(H2O3)2
_chemical_formula_sum   'Na2 Zn2 As2 H8 O12'
_cell_volume   292.71789878
_cell_formula_units_Z   2
loop_
 _symmetry_equiv_pos_site_id
 _symmetry_equiv_pos_as_xyz
  1  'x, y, z'
loop_
 _atom_site_type_symbol
 _atom_site_label
 _atom_site_symmetry_multiplicity
 _atom_site_fract_x
 _atom_site_fract_y
 _atom_site_fract_z
 _atom_site_occupancy
  Na  Na0  1  0.00000000  0.00000000  -0.00000000  1
  Na  Na1  1  0.50000000  0.50000000  -0.00000000  1
  Zn  Zn2  1  0.70518327  0.76438801  0.38873230  1
  Zn  Zn3  1  0.29481673  0.23561199  0.61126770  1
  As  As4  1  0.18382553  0.74168725  0.61159927  1
  As  As5  1  0.81617447  0.25831275  0.38840073  1
  H  H6  1  0.80800183  0.69897213  0.94315603  1
  H  H7  1  0.19199817  0.30102787  0.05684397  1
  H  H8  1  0.75006892  0.81672825  0.77398312  1
  H  H9  1  0.24993108  0.18327175  0.22601688  1
  H  H10  1  0.96485711  0.40812593  0.84829576  1
  H  H11  1  0.03514289  0.59187407  0.15170424  1
  H  H12  1  0.84189138  0.34225387  0.03856860  1
  H  H13  1  0.15810862  0.65774613  0.96143140  1
  O  O14  1  0.37346035  0.75460671  0.43388553  1
  O  O15  1  0.62653965  0.24539329  0.56611447  1
  O  O16  1  0.90318168  0.74345222  0.57579703  1
  O  O17  1  0.09681832  0.25654778  0.42420297  1
  O  O18  1  0.21810945  0.94582548  0.73699064  1
  O  O19  1  0.78189055  0.05417452  0.26300936  1
  O  O20  1  0.22033924  0.50112581  0.74577971  1
  O  O21  1  0.77966076  0.49887419  0.25422029  1
  O  O22  1  0.70616861  0.81066946  0.89968519  1
  O  O23  1  0.29383139  0.18933054  0.10031481  1
  O  O24  1  0.83545916  0.32921077  0.91668782  1
  O  O25  1  0.16454084  0.67078923  0.08331218  1
