# generated using pymatgen
data_Nd3Ti4O12
_symmetry_space_group_name_H-M   'P 1'
_cell_length_a   5.46711506
_cell_length_b   7.64820049
_cell_length_c   22.40176170
_cell_angle_alpha   90.00000000
_cell_angle_beta   90.00000000
_cell_angle_gamma   90.00000000
_symmetry_Int_Tables_number   1
_chemical_formula_structural   Nd3Ti4O12
_chemical_formula_sum   'Nd12 Ti16 O48'
_cell_volume   936.69812561
_cell_formula_units_Z   4
loop_
 _symmetry_equiv_pos_site_id
 _symmetry_equiv_pos_as_xyz
  1  'x, y, z'
loop_
 _atom_site_type_symbol
 _atom_site_label
 _atom_site_symmetry_multiplicity
 _atom_site_fract_x
 _atom_site_fract_y
 _atom_site_fract_z
 _atom_site_occupancy
  Nd  Nd0  1  0.55779483  0.25000000  0.29695428  1
  Nd  Nd1  1  0.05779483  0.75000000  0.20304572  1
  Nd  Nd2  1  0.42588337  0.25000000  0.67587532  1
  Nd  Nd3  1  0.45419181  0.75000000  0.97243733  1
  Nd  Nd4  1  0.04580819  0.75000000  0.47243733  1
  Nd  Nd5  1  0.54580819  0.25000000  0.02756267  1
  Nd  Nd6  1  0.44220517  0.75000000  0.70304572  1
  Nd  Nd7  1  0.07411663  0.25000000  0.17587532  1
  Nd  Nd8  1  0.92588337  0.75000000  0.82412468  1
  Nd  Nd9  1  0.95419181  0.25000000  0.52756267  1
  Nd  Nd10  1  0.94220517  0.25000000  0.79695428  1
  Nd  Nd11  1  0.57411663  0.75000000  0.32412468  1
  Ti  Ti12  1  0.44132200  0.49882950  0.82320103  1
  Ti  Ti13  1  0.55867800  0.50117050  0.17679897  1
  Ti  Ti14  1  0.45242787  0.51158438  0.56099192  1
  Ti  Ti15  1  0.54757213  0.01158438  0.43900808  1
  Ti  Ti16  1  0.04757213  0.98841562  0.06099192  1
  Ti  Ti17  1  0.94132200  0.99882950  0.67679897  1
  Ti  Ti18  1  0.04757213  0.51158438  0.06099192  1
  Ti  Ti19  1  0.95242787  0.48841562  0.93900808  1
  Ti  Ti20  1  0.05867800  0.49882950  0.32320103  1
  Ti  Ti21  1  0.05867800  0.00117050  0.32320103  1
  Ti  Ti22  1  0.54757213  0.48841562  0.43900808  1
  Ti  Ti23  1  0.94132200  0.50117050  0.67679897  1
  Ti  Ti24  1  0.45242787  0.98841562  0.56099192  1
  Ti  Ti25  1  0.55867800  0.99882950  0.17679897  1
  Ti  Ti26  1  0.44132200  0.00117050  0.82320103  1
  Ti  Ti27  1  0.95242787  0.01158438  0.93900808  1
  O  O28  1  0.36415439  0.43851662  0.11333949  1
  O  O29  1  0.29578587  0.04041615  0.23674502  1
  O  O30  1  0.36415439  0.06148338  0.11333949  1
  O  O31  1  0.79578587  0.54041615  0.26325498  1
  O  O32  1  0.16064180  0.75000000  0.06179802  1
  O  O33  1  0.20421413  0.45958385  0.73674502  1
  O  O34  1  0.24771331  0.03838719  0.98756549  1
  O  O35  1  0.12123452  0.46758884  0.85822565  1
  O  O36  1  0.83935820  0.25000000  0.93820198  1
  O  O37  1  -0.00329514  0.25000000  0.31475170  1
  O  O38  1  0.13584561  0.06148338  0.61333949  1
  O  O39  1  0.70421413  0.54041615  0.76325498  1
  O  O40  1  0.65087854  0.25000000  0.19313247  1
  O  O41  1  0.25228669  0.46161281  0.48756549  1
  O  O42  1  0.74771331  0.96161281  0.51243451  1
  O  O43  1  0.75228669  0.96161281  0.01243451  1
  O  O44  1  0.12123452  0.03241116  0.85822565  1
  O  O45  1  0.75228669  0.53838719  0.01243451  1
  O  O46  1  0.86415439  0.56148338  0.38666051  1
  O  O47  1  0.87876548  0.96758884  0.14177435  1
  O  O48  1  0.86415439  0.93851662  0.38666051  1
  O  O49  1  0.62123452  0.53241116  0.64177435  1
  O  O50  1  0.49670486  0.75000000  0.18524830  1
  O  O51  1  0.63584561  0.93851662  0.88666051  1
  O  O52  1  0.66064180  0.25000000  0.43820198  1
  O  O53  1  0.25228669  0.03838719  0.48756549  1
  O  O54  1  0.79578587  0.95958385  0.26325498  1
  O  O55  1  0.37876548  0.03241116  0.35822565  1
  O  O56  1  0.46728523  0.75000000  0.43020374  1
  O  O57  1  0.34912146  0.75000000  0.80686753  1
  O  O58  1  0.63584561  0.56148338  0.88666051  1
  O  O59  1  1.00329514  0.75000000  0.68524830  1
  O  O60  1  0.29578587  0.45958385  0.23674502  1
  O  O61  1  0.03271477  0.75000000  0.93020374  1
  O  O62  1  0.15087854  0.75000000  0.30686753  1
  O  O63  1  0.53271477  0.25000000  0.56979626  1
  O  O64  1  0.74771331  0.53838719  0.51243451  1
  O  O65  1  0.96728523  0.25000000  0.06979626  1
  O  O66  1  0.24771331  0.46161281  0.98756549  1
  O  O67  1  0.20421413  0.04041615  0.73674502  1
  O  O68  1  0.37876548  0.46758884  0.35822565  1
  O  O69  1  0.13584561  0.43851662  0.61333949  1
  O  O70  1  0.84912146  0.25000000  0.69313247  1
  O  O71  1  0.87876548  0.53241116  0.14177435  1
  O  O72  1  0.50329514  0.25000000  0.81475170  1
  O  O73  1  0.70421413  0.95958385  0.76325498  1
  O  O74  1  0.33935820  0.75000000  0.56179802  1
  O  O75  1  0.62123452  0.96758884  0.64177435  1
