# generated using pymatgen
data_Dy5Sn11
_symmetry_space_group_name_H-M   'P 1'
_cell_length_a   4.38891363
_cell_length_b   4.47091719
_cell_length_c   21.68473455
_cell_angle_alpha   95.91301455
_cell_angle_beta   95.79500429
_cell_angle_gamma   89.98416978
_symmetry_Int_Tables_number   1
_chemical_formula_structural   Dy5Sn11
_chemical_formula_sum   'Dy5 Sn11'
_cell_volume   421.05907593
_cell_formula_units_Z   1
loop_
 _symmetry_equiv_pos_site_id
 _symmetry_equiv_pos_as_xyz
  1  'x, y, z'
loop_
 _atom_site_type_symbol
 _atom_site_label
 _atom_site_symmetry_multiplicity
 _atom_site_fract_x
 _atom_site_fract_y
 _atom_site_fract_z
 _atom_site_occupancy
  Dy  Dy0  1  0.80760244  0.30758406  0.61515366  1
  Dy  Dy1  1  0.61691481  0.61679782  0.23388889  1
  Dy  Dy2  1  0.00000000  0.00000000  0.00000000  1
  Dy  Dy3  1  0.19239756  0.69241594  0.38484634  1
  Dy  Dy4  1  0.38308519  0.38320218  0.76611111  1
  Sn  Sn5  1  0.43989422  0.94029953  0.87991581  1
  Sn  Sn6  1  0.13133864  0.13116276  0.26288198  1
  Sn  Sn7  1  0.24965240  0.24976658  0.49920098  1
  Sn  Sn8  1  0.56010578  0.05970047  0.12008419  1
  Sn  Sn9  1  0.32017737  0.82018136  0.64029378  1
  Sn  Sn10  1  0.75034760  0.75023342  0.50079902  1
  Sn  Sn11  1  0.05922437  0.55895370  0.11845324  1
  Sn  Sn12  1  0.94077563  0.44104630  0.88154676  1
  Sn  Sn13  1  0.86866136  0.86883724  0.73711802  1
  Sn  Sn14  1  0.50000000  0.50000000  0.00000000  1
  Sn  Sn15  1  0.67982263  0.17981864  0.35970622  1
