# generated using pymatgen
data_Pr(In2Au)2
_symmetry_space_group_name_H-M   'P 1'
_cell_length_a   4.73647973
_cell_length_b   7.50788604
_cell_length_c   18.96183984
_cell_angle_alpha   89.94893877
_cell_angle_beta   90.01188952
_cell_angle_gamma   90.01115996
_symmetry_Int_Tables_number   1
_chemical_formula_structural   Pr(In2Au)2
_chemical_formula_sum   'Pr4 In16 Au8'
_cell_volume   674.30074493
_cell_formula_units_Z   4
loop_
 _symmetry_equiv_pos_site_id
 _symmetry_equiv_pos_as_xyz
  1  'x, y, z'
loop_
 _atom_site_type_symbol
 _atom_site_label
 _atom_site_symmetry_multiplicity
 _atom_site_fract_x
 _atom_site_fract_y
 _atom_site_fract_z
 _atom_site_occupancy
  Pr  Pr0  1  0.25048447  0.52596818  0.35835894  1
  Pr  Pr1  1  0.25023096  0.97356468  0.85834119  1
  Pr  Pr2  1  0.74910945  0.02505767  0.14167082  1
  Pr  Pr3  1  0.74977295  0.47505229  0.64154368  1
  In  In4  1  0.75065089  0.23420187  0.31171366  1
  In  In5  1  0.75074462  0.26524437  0.81159449  1
  In  In6  1  0.25017135  0.73453859  0.18845425  1
  In  In7  1  0.75053130  0.00827379  0.56873073  1
  In  In8  1  0.75011537  0.67416459  0.81511272  1
  In  In9  1  0.24998848  0.17523398  0.68481681  1
  In  In10  1  0.24926638  0.85047518  0.03521023  1
  In  In11  1  0.24990756  0.76600294  0.68829644  1
  In  In12  1  0.24973492  0.50857494  0.93129549  1
  In  In13  1  0.74981235  0.35067390  0.46489296  1
  In  In14  1  0.24996000  0.32523010  0.18478913  1
  In  In15  1  0.24984345  0.99217887  0.43133922  1
  In  In16  1  0.75016577  0.82516015  0.31514210  1
  In  In17  1  0.74963610  0.14928794  0.96488003  1
  In  In18  1  0.24989367  0.64949740  0.53514140  1
  In  In19  1  0.75013127  0.49164855  0.06873868  1
  Au  Au20  1  0.74935616  0.75713144  0.96046396  1
  Au  Au21  1  0.74973594  0.96708907  0.71902001  1
  Au  Au22  1  0.25007436  0.25743686  0.53952036  1
  Au  Au23  1  0.25042301  0.46700061  0.78101374  1
  Au  Au24  1  0.74981898  0.74276717  0.46050583  1
  Au  Au25  1  0.24986133  0.24278125  0.03953444  1
  Au  Au26  1  0.75033726  0.53314473  0.21889952  1
  Au  Au27  1  0.25024161  0.03261888  0.28097917  1
