# generated using pymatgen
data_Ba(CuS)2
_symmetry_space_group_name_H-M   'P 1'
_cell_length_a   4.05115154
_cell_length_b   9.28425908
_cell_length_c   10.41640269
_cell_angle_alpha   90.00000000
_cell_angle_beta   90.00000000
_cell_angle_gamma   90.00000000
_symmetry_Int_Tables_number   1
_chemical_formula_structural   Ba(CuS)2
_chemical_formula_sum   'Ba4 Cu8 S8'
_cell_volume   391.78111788
_cell_formula_units_Z   4
loop_
 _symmetry_equiv_pos_site_id
 _symmetry_equiv_pos_as_xyz
  1  'x, y, z'
loop_
 _atom_site_type_symbol
 _atom_site_label
 _atom_site_symmetry_multiplicity
 _atom_site_fract_x
 _atom_site_fract_y
 _atom_site_fract_z
 _atom_site_occupancy
  S  S0  1  0.75000000  0.65639175  0.45878416  1
  S  S1  1  0.25000000  0.34360825  0.54121584  1
  S  S2  1  0.75000000  0.15639175  0.04121584  1
  S  S3  1  0.25000000  0.84360825  0.95878416  1
  S  S4  1  0.25000000  0.48041579  0.16689449  1
  S  S5  1  0.75000000  0.51958421  0.83310551  1
  S  S6  1  0.25000000  0.98041579  0.33310551  1
  S  S7  1  0.75000000  0.01958421  0.66689449  1
  Cu  Cu8  1  0.25000000  0.58331175  0.95624168  1
  Cu  Cu9  1  0.75000000  0.41668825  0.04375832  1
  Cu  Cu10  1  0.25000000  0.08331175  0.54375832  1
  Cu  Cu11  1  0.75000000  0.91668825  0.45624168  1
  Cu  Cu12  1  0.25000000  0.05655720  0.11438451  1
  Cu  Cu13  1  0.75000000  0.94344280  0.88561549  1
  Cu  Cu14  1  0.25000000  0.55655720  0.38561549  1
  Cu  Cu15  1  0.75000000  0.44344280  0.61438451  1
  Ba  Ba16  1  0.75000000  0.75955201  0.17577970  1
  Ba  Ba17  1  0.25000000  0.24044799  0.82422030  1
  Ba  Ba18  1  0.75000000  0.25955201  0.32422030  1
  Ba  Ba19  1  0.25000000  0.74044799  0.67577970  1
