# generated using pymatgen
data_SrLi2Ta2O7
_symmetry_space_group_name_H-M   'P 1'
_cell_length_a   3.98265101
_cell_length_b   3.98265101
_cell_length_c   9.68669650
_cell_angle_alpha   101.86305750
_cell_angle_beta   101.86305748
_cell_angle_gamma   90.00000002
_symmetry_Int_Tables_number   1
_chemical_formula_structural   SrLi2Ta2O7
_chemical_formula_sum   'Sr1 Li2 Ta2 O7'
_cell_volume   147.00918149
_cell_formula_units_Z   1
loop_
 _symmetry_equiv_pos_site_id
 _symmetry_equiv_pos_as_xyz
  1  'x, y, z'
loop_
 _atom_site_type_symbol
 _atom_site_label
 _atom_site_symmetry_multiplicity
 _atom_site_fract_x
 _atom_site_fract_y
 _atom_site_fract_z
 _atom_site_occupancy
  Li  Li0  1  0.25000000  0.75000000  0.50000000  1
  Li  Li1  1  0.75000000  0.25000000  0.50000000  1
  O  O2  1  0.50000000  0.50000000  0.00000000  1
  O  O3  1  0.60373307  0.10373307  0.20746615  1
  O  O4  1  0.10373307  0.60373307  0.20746615  1
  O  O5  1  0.39626693  0.89626693  0.79253385  1
  O  O6  1  0.89626693  0.39626693  0.79253385  1
  O  O7  1  0.28367028  0.28367028  0.56734056  1
  O  O8  1  0.71632972  0.71632972  0.43265944  1
  Sr  Sr9  1  0.00000000  0.00000000  0.00000000  1
  Ta  Ta10  1  0.61407353  0.61407353  0.22814706  1
  Ta  Ta11  1  0.38592647  0.38592647  0.77185294  1
