# generated using pymatgen
data_Nb2NiO6
_symmetry_space_group_name_H-M   'P 1'
_cell_length_a   5.08165013
_cell_length_b   5.79452784
_cell_length_c   14.27187153
_cell_angle_alpha   90.00000000
_cell_angle_beta   90.00000000
_cell_angle_gamma   90.00000000
_symmetry_Int_Tables_number   1
_chemical_formula_structural   Nb2NiO6
_chemical_formula_sum   'Nb8 Ni4 O24'
_cell_volume   420.24614880
_cell_formula_units_Z   4
loop_
 _symmetry_equiv_pos_site_id
 _symmetry_equiv_pos_as_xyz
  1  'x, y, z'
loop_
 _atom_site_type_symbol
 _atom_site_label
 _atom_site_symmetry_multiplicity
 _atom_site_fract_x
 _atom_site_fract_y
 _atom_site_fract_z
 _atom_site_occupancy
  O  O0  1  0.92336888  0.37589236  0.25565194  1
  O  O1  1  0.42336888  0.12410764  0.24434806  1
  O  O2  1  0.57663112  0.37589236  0.74434806  1
  O  O3  1  0.07663112  0.12410764  0.75565194  1
  O  O4  1  0.07663112  0.62410764  0.74434806  1
  O  O5  1  0.57663112  0.87589236  0.75565194  1
  O  O6  1  0.42336888  0.62410764  0.25565194  1
  O  O7  1  0.92336888  0.87589236  0.24434806  1
  O  O8  1  0.91144655  0.38415844  0.92185454  1
  O  O9  1  0.41144655  0.11584156  0.57814546  1
  O  O10  1  0.58855345  0.38415844  0.07814546  1
  O  O11  1  0.08855345  0.11584156  0.42185454  1
  O  O12  1  0.92135132  0.89195838  0.90537695  1
  O  O13  1  0.42135132  0.60804162  0.59462305  1
  O  O14  1  0.57864868  0.89195838  0.09462305  1
  O  O15  1  0.07864868  0.60804162  0.40537695  1
  O  O16  1  0.07864868  0.10804162  0.09462305  1
  O  O17  1  0.57864868  0.39195838  0.40537695  1
  O  O18  1  0.42135132  0.10804162  0.90537695  1
  O  O19  1  0.92135132  0.39195838  0.59462305  1
  O  O20  1  0.91144655  0.88415844  0.57814546  1
  O  O21  1  0.41144655  0.61584156  0.92185454  1
  O  O22  1  0.58855345  0.88415844  0.42185454  1
  O  O23  1  0.08855345  0.61584156  0.07814546  1
  Ni  Ni24  1  0.75000000  0.65470900  0.00000000  1
  Ni  Ni25  1  0.25000000  0.84529100  0.50000000  1
  Ni  Ni26  1  0.25000000  0.34529100  0.00000000  1
  Ni  Ni27  1  0.75000000  0.15470900  0.50000000  1
  Nb  Nb28  1  0.75369295  0.68256258  0.34101608  1
  Nb  Nb29  1  0.25369295  0.81743742  0.15898392  1
  Nb  Nb30  1  0.74630705  0.68256258  0.65898392  1
  Nb  Nb31  1  0.24630705  0.81743742  0.84101608  1
  Nb  Nb32  1  0.75369295  0.18256258  0.15898392  1
  Nb  Nb33  1  0.25369295  0.31743742  0.34101608  1
  Nb  Nb34  1  0.74630705  0.18256258  0.84101608  1
  Nb  Nb35  1  0.24630705  0.31743742  0.65898392  1
