# generated using pymatgen
data_La(HO)3
_symmetry_space_group_name_H-M   'P 1'
_cell_length_a   6.61215770
_cell_length_b   6.57091588
_cell_length_c   3.83109215
_cell_angle_alpha   87.61291643
_cell_angle_beta   92.18489929
_cell_angle_gamma   119.41507910
_symmetry_Int_Tables_number   1
_chemical_formula_structural   La(HO)3
_chemical_formula_sum   'La2 H6 O6'
_cell_volume   144.83899438
_cell_formula_units_Z   2
loop_
 _symmetry_equiv_pos_site_id
 _symmetry_equiv_pos_as_xyz
  1  'x, y, z'
loop_
 _atom_site_type_symbol
 _atom_site_label
 _atom_site_symmetry_multiplicity
 _atom_site_fract_x
 _atom_site_fract_y
 _atom_site_fract_z
 _atom_site_occupancy
  La  La0  1  0.33601765  0.66086183  0.21750143  1
  La  La1  1  0.67362621  0.33053435  0.72725980  1
  H  H2  1  0.87023431  0.71366312  0.13031554  1
  H  H3  1  0.86136522  0.13151459  0.23593974  1
  H  H4  1  0.30085552  0.13878512  0.24267301  1
  H  H5  1  0.13830851  0.27164306  0.75739565  1
  H  H6  1  0.14895826  0.86119732  0.64250894  1
  H  H7  1  0.71224191  0.84490048  0.64393766  1
  O  O8  1  0.92799055  0.61245925  0.23468586  1
  O  O9  1  0.69540278  0.07573899  0.25419424  1
  O  O10  1  0.40515534  0.30708431  0.21888371  1
  O  O11  1  0.08923295  0.38939033  0.72870661  1
  O  O12  1  0.31149128  0.91472986  0.71189362  1
  O  O13  1  0.61529451  0.68676839  0.73905519  1
