# generated using pymatgen
data_LiHO
_symmetry_space_group_name_H-M   'P 1'
_cell_length_a   3.58357554
_cell_length_b   3.58357554
_cell_length_c   4.58208951
_cell_angle_alpha   89.67722445
_cell_angle_beta   90.32277555
_cell_angle_gamma   89.64098243
_symmetry_Int_Tables_number   1
_chemical_formula_structural   LiHO
_chemical_formula_sum   'Li2 H2 O2'
_cell_volume   58.84022177
_cell_formula_units_Z   2
loop_
 _symmetry_equiv_pos_site_id
 _symmetry_equiv_pos_as_xyz
  1  'x, y, z'
loop_
 _atom_site_type_symbol
 _atom_site_label
 _atom_site_symmetry_multiplicity
 _atom_site_fract_x
 _atom_site_fract_y
 _atom_site_fract_z
 _atom_site_occupancy
  Li  Li0  1  0.45654710  0.54283474  0.01638103  1
  Li  Li1  1  0.95716526  0.04345290  0.01638103  1
  H  H2  1  0.92495998  0.57504002  0.41105655  1
  H  H3  1  0.42325461  0.07674539  0.62188137  1
  O  O4  1  0.95615681  0.54384319  0.20160854  1
  O  O5  1  0.45377224  0.04622776  0.83071048  1
