# generated using pymatgen
data_In4SnSe4
_symmetry_space_group_name_H-M   'P 1'
_cell_length_a   13.01279654
_cell_length_b   13.01279654
_cell_length_c   13.01279654
_cell_angle_alpha   90.00000000
_cell_angle_beta   90.00000000
_cell_angle_gamma   90.00000000
_symmetry_Int_Tables_number   1
_chemical_formula_structural   In4SnSe4
_chemical_formula_sum   'In32 Sn8 Se32'
_cell_volume   2203.49423418
_cell_formula_units_Z   8
loop_
 _symmetry_equiv_pos_site_id
 _symmetry_equiv_pos_as_xyz
  1  'x, y, z'
loop_
 _atom_site_type_symbol
 _atom_site_label
 _atom_site_symmetry_multiplicity
 _atom_site_fract_x
 _atom_site_fract_y
 _atom_site_fract_z
 _atom_site_occupancy
  In  In0  1  0.22683506  0.53187240  0.06820950  1
  In  In1  1  0.43179050  0.77316494  0.03187240  1
  In  In2  1  0.77316494  0.46812760  0.93179050  1
  In  In3  1  0.93179050  0.72683506  0.96812760  1
  In  In4  1  0.77368364  0.22631636  0.72631636  1
  In  In5  1  0.72631636  0.77368364  0.22631636  1
  In  In6  1  0.72683506  0.53187240  0.43179050  1
  In  In7  1  0.03187240  0.43179050  0.77316494  1
  In  In8  1  0.56820950  0.27316494  0.46812760  1
  In  In9  1  0.46812760  0.93179050  0.77316494  1
  In  In10  1  0.27368364  0.27368364  0.27368364  1
  In  In11  1  0.06820950  0.27316494  0.03187240  1
  In  In12  1  0.06820950  0.22683506  0.53187240  1
  In  In13  1  0.27368364  0.22631636  0.77368364  1
  In  In14  1  0.27316494  0.03187240  0.06820950  1
  In  In15  1  0.27316494  0.46812760  0.56820950  1
  In  In16  1  0.46812760  0.56820950  0.27316494  1
  In  In17  1  0.72683506  0.96812760  0.93179050  1
  In  In18  1  0.22683506  0.96812760  0.56820950  1
  In  In19  1  0.22631636  0.72631636  0.77368364  1
  In  In20  1  0.77316494  0.03187240  0.43179050  1
  In  In21  1  0.22631636  0.77368364  0.27368364  1
  In  In22  1  0.77368364  0.27368364  0.22631636  1
  In  In23  1  0.72631636  0.72631636  0.72631636  1
  In  In24  1  0.56820950  0.22683506  0.96812760  1
  In  In25  1  0.93179050  0.77316494  0.46812760  1
  In  In26  1  0.96812760  0.93179050  0.72683506  1
  In  In27  1  0.53187240  0.43179050  0.72683506  1
  In  In28  1  0.03187240  0.06820950  0.27316494  1
  In  In29  1  0.96812760  0.56820950  0.22683506  1
  In  In30  1  0.53187240  0.06820950  0.22683506  1
  In  In31  1  0.43179050  0.72683506  0.53187240  1
  Sn  Sn32  1  0.59889260  0.90110740  0.09889260  1
  Sn  Sn33  1  0.90110740  0.40110740  0.09889260  1
  Sn  Sn34  1  0.09889260  0.59889260  0.90110740  1
  Sn  Sn35  1  0.40110740  0.40110740  0.40110740  1
  Sn  Sn36  1  0.09889260  0.90110740  0.40110740  1
  Sn  Sn37  1  0.90110740  0.09889260  0.59889260  1
  Sn  Sn38  1  0.40110740  0.09889260  0.90110740  1
  Sn  Sn39  1  0.59889260  0.59889260  0.59889260  1
  Se  Se40  1  0.76337243  0.17386647  0.92834146  1
  Se  Se41  1  0.17386647  0.92834146  0.76337243  1
  Se  Se42  1  0.23662757  0.82613353  0.07165854  1
  Se  Se43  1  0.26337243  0.17386647  0.57165854  1
  Se  Se44  1  0.57396438  0.42603562  0.92603562  1
  Se  Se45  1  0.42834146  0.76337243  0.32613353  1
  Se  Se46  1  0.76337243  0.32613353  0.42834146  1
  Se  Se47  1  0.57165854  0.23662757  0.67386647  1
  Se  Se48  1  0.73662757  0.67386647  0.92834146  1
  Se  Se49  1  0.92834146  0.76337243  0.17386647  1
  Se  Se50  1  0.67386647  0.57165854  0.23662757  1
  Se  Se51  1  0.07165854  0.23662757  0.82613353  1
  Se  Se52  1  0.42603562  0.57396438  0.07396438  1
  Se  Se53  1  0.57396438  0.07396438  0.42603562  1
  Se  Se54  1  0.57165854  0.26337243  0.17386647  1
  Se  Se55  1  0.32613353  0.07165854  0.26337243  1
  Se  Se56  1  0.67386647  0.92834146  0.73662757  1
  Se  Se57  1  0.17386647  0.57165854  0.26337243  1
  Se  Se58  1  0.07396438  0.42603562  0.57396438  1
  Se  Se59  1  0.26337243  0.32613353  0.07165854  1
  Se  Se60  1  0.07165854  0.26337243  0.32613353  1
  Se  Se61  1  0.42834146  0.73662757  0.82613353  1
  Se  Se62  1  0.92603562  0.57396438  0.42603562  1
  Se  Se63  1  0.82613353  0.42834146  0.73662757  1
  Se  Se64  1  0.07396438  0.07396438  0.07396438  1
  Se  Se65  1  0.92834146  0.73662757  0.67386647  1
  Se  Se66  1  0.23662757  0.67386647  0.57165854  1
  Se  Se67  1  0.82613353  0.07165854  0.23662757  1
  Se  Se68  1  0.42603562  0.92603562  0.57396438  1
  Se  Se69  1  0.92603562  0.92603562  0.92603562  1
  Se  Se70  1  0.32613353  0.42834146  0.76337243  1
  Se  Se71  1  0.73662757  0.82613353  0.42834146  1
