# generated using pymatgen
data_Pr(HO)3
_symmetry_space_group_name_H-M   'P 1'
_cell_length_a   6.57667326
_cell_length_b   6.66747247
_cell_length_c   3.73877537
_cell_angle_alpha   90.00000000
_cell_angle_beta   90.00000000
_cell_angle_gamma   120.66715564
_symmetry_Int_Tables_number   1
_chemical_formula_structural   Pr(HO)3
_chemical_formula_sum   'Pr2 H6 O6'
_cell_volume   141.01601437
_cell_formula_units_Z   2
loop_
 _symmetry_equiv_pos_site_id
 _symmetry_equiv_pos_as_xyz
  1  'x, y, z'
loop_
 _atom_site_type_symbol
 _atom_site_label
 _atom_site_symmetry_multiplicity
 _atom_site_fract_x
 _atom_site_fract_y
 _atom_site_fract_z
 _atom_site_occupancy
  Pr  Pr0  1  0.33848699  0.67125399  0.25000000  1
  Pr  Pr1  1  0.66151301  0.32874601  0.75000000  1
  H  H2  1  0.85191116  0.70505612  0.25000000  1
  H  H3  1  0.86114845  0.15937363  0.25000000  1
  H  H4  1  0.26620563  0.14273377  0.25000000  1
  H  H5  1  0.14808884  0.29494388  0.75000000  1
  H  H6  1  0.13885155  0.84062637  0.75000000  1
  H  H7  1  0.73379437  0.85726623  0.75000000  1
  O  O8  1  0.91502847  0.60105882  0.25000000  1
  O  O9  1  0.69006347  0.08731868  0.25000000  1
  O  O10  1  0.38541118  0.30826838  0.25000000  1
  O  O11  1  0.08497153  0.39894118  0.75000000  1
  O  O12  1  0.30993653  0.91268132  0.75000000  1
  O  O13  1  0.61458882  0.69173162  0.75000000  1
