# generated using pymatgen
data_H5ClO6
_symmetry_space_group_name_H-M   'P 1'
_cell_length_a   6.11124389
_cell_length_b   10.80715756
_cell_length_c   7.25468437
_cell_angle_alpha   90.00000000
_cell_angle_beta   90.00000000
_cell_angle_gamma   90.00000000
_symmetry_Int_Tables_number   1
_chemical_formula_structural   H5ClO6
_chemical_formula_sum   'H20 Cl4 O24'
_cell_volume   479.13690319
_cell_formula_units_Z   4
loop_
 _symmetry_equiv_pos_site_id
 _symmetry_equiv_pos_as_xyz
  1  'x, y, z'
loop_
 _atom_site_type_symbol
 _atom_site_label
 _atom_site_symmetry_multiplicity
 _atom_site_fract_x
 _atom_site_fract_y
 _atom_site_fract_z
 _atom_site_occupancy
  H  H0  1  0.51801832  0.10459557  0.20772083  1
  H  H1  1  0.49799252  0.95891717  0.25297382  1
  H  H2  1  0.49763739  0.00179479  0.00996250  1
  H  H3  1  0.99799252  0.54108283  0.24702618  1
  H  H4  1  0.01801832  0.39540443  0.29227917  1
  H  H5  1  0.99763739  0.49820521  0.49003750  1
  H  H6  1  0.48198168  0.60459557  0.79227917  1
  H  H7  1  0.50236261  0.50179479  0.99003750  1
  H  H8  1  0.50200748  0.45891717  0.74702618  1
  H  H9  1  0.00236261  0.99820521  0.50996250  1
  H  H10  1  0.98198168  0.89540443  0.70772083  1
  H  H11  1  0.00200748  0.04108283  0.75297382  1
  H  H12  1  0.48689570  0.89709574  0.80224056  1
  H  H13  1  0.50469374  0.04139874  0.75760350  1
  H  H14  1  0.00469374  0.45860126  0.74239650  1
  H  H15  1  0.98689570  0.60290426  0.69775944  1
  H  H16  1  0.51310430  0.39709574  0.19775944  1
  H  H17  1  0.49530626  0.54139874  0.24239650  1
  H  H18  1  0.01310430  0.10290426  0.30224056  1
  H  H19  1  0.99530626  0.95860126  0.25760350  1
  Cl  Cl20  1  0.57780628  0.24926544  0.50041496  1
  Cl  Cl21  1  0.07780628  0.25073456  0.99958504  1
  Cl  Cl22  1  0.42219372  0.74926544  0.49958504  1
  Cl  Cl23  1  0.92219372  0.75073456  0.00041496  1
  O  O24  1  0.59489358  0.24847850  0.29500389  1
  O  O25  1  0.09489358  0.25152150  0.20499611  1
  O  O26  1  0.40510642  0.74847850  0.70499611  1
  O  O27  1  0.90510642  0.75152150  0.79500389  1
  O  O28  1  0.79448386  0.24878187  0.57991093  1
  O  O29  1  0.29448386  0.25121813  0.92008907  1
  O  O30  1  0.20551614  0.74878187  0.42008907  1
  O  O31  1  0.70551614  0.75121813  0.07991093  1
  O  O32  1  0.45562540  0.13917756  0.55509742  1
  O  O33  1  0.95562540  0.36082244  0.94490258  1
  O  O34  1  0.54437460  0.63917756  0.44490258  1
  O  O35  1  0.04437460  0.86082244  0.05509742  1
  O  O36  1  0.54169333  0.86106441  0.44784109  1
  O  O37  1  0.04169333  0.63893559  0.05215891  1
  O  O38  1  0.45830667  0.36106441  0.55215891  1
  O  O39  1  0.95830667  0.13893559  0.94784109  1
  O  O40  1  0.45406331  0.02453764  0.16449508  1
  O  O41  1  0.95406331  0.47546236  0.33550492  1
  O  O42  1  0.54593669  0.52453764  0.83550492  1
  O  O43  1  0.04593669  0.97546236  0.66449508  1
  O  O44  1  0.54671544  0.97671594  0.84750271  1
  O  O45  1  0.04671544  0.52328406  0.65249729  1
  O  O46  1  0.45328456  0.47671594  0.15249729  1
  O  O47  1  0.95328456  0.02328406  0.34750271  1
