# generated using pymatgen
data_Ca(H8O5)2
_symmetry_space_group_name_H-M   'P 1'
_cell_length_a   6.20947457
_cell_length_b   6.21322616
_cell_length_c   10.94680821
_cell_angle_alpha   90.00000000
_cell_angle_beta   89.94575743
_cell_angle_gamma   90.00000000
_symmetry_Int_Tables_number   1
_chemical_formula_structural   Ca(H8O5)2
_chemical_formula_sum   'Ca2 H32 O20'
_cell_volume   422.33719338
_cell_formula_units_Z   2
loop_
 _symmetry_equiv_pos_site_id
 _symmetry_equiv_pos_as_xyz
  1  'x, y, z'
loop_
 _atom_site_type_symbol
 _atom_site_label
 _atom_site_symmetry_multiplicity
 _atom_site_fract_x
 _atom_site_fract_y
 _atom_site_fract_z
 _atom_site_occupancy
  Ca  Ca0  1  0.99719466  0.00272338  0.24872686  1
  Ca  Ca1  1  0.99719466  0.99727662  0.74872686  1
  H  H2  1  0.27526025  0.37978076  0.35268748  1
  H  H3  1  0.03103343  0.44633910  0.36866597  1
  H  H4  1  0.72475442  0.61805220  0.35174265  1
  H  H5  1  0.86804597  0.69897342  0.46411354  1
  H  H6  1  0.55633413  0.03280077  0.36818995  1
  H  H7  1  0.62129312  0.27890911  0.35257403  1
  H  H8  1  0.37684036  0.73730427  0.34103353  1
  H  H9  1  0.30213875  0.86621430  0.45952274  1
  H  H10  1  0.72475442  0.38194780  0.85174265  1
  H  H11  1  0.86804597  0.30102658  0.96411354  1
  H  H12  1  0.27526025  0.62021924  0.85268748  1
  H  H13  1  0.03103343  0.55366090  0.86866597  1
  H  H14  1  0.37684036  0.26269573  0.84103353  1
  H  H15  1  0.30213875  0.13378570  0.95952274  1
  H  H16  1  0.62129312  0.72109089  0.85257403  1
  H  H17  1  0.55633413  0.96719923  0.86818995  1
  H  H18  1  0.96925760  0.55514200  0.63147520  1
  H  H19  1  0.72392038  0.62127906  0.64656617  1
  H  H20  1  0.27437030  0.38395800  0.64682235  1
  H  H21  1  0.13117813  0.30057151  0.53566572  1
  H  H22  1  0.44175068  0.96858344  0.62964261  1
  H  H23  1  0.37957712  0.72292748  0.64595464  1
  H  H24  1  0.61861878  0.27453462  0.64747927  1
  H  H25  1  0.69856258  0.13022350  0.53554885  1
  H  H26  1  0.27437030  0.61604200  0.14682235  1
  H  H27  1  0.13117813  0.69942849  0.03566572  1
  H  H28  1  0.96925760  0.44485800  0.13147520  1
  H  H29  1  0.72392038  0.37872094  0.14656617  1
  H  H30  1  0.61861878  0.72546538  0.14747927  1
  H  H31  1  0.69856258  0.86977650  0.03554885  1
  H  H32  1  0.37957712  0.27707252  0.14595464  1
  H  H33  1  0.44175068  0.03141656  0.12964261  1
  O  O34  1  0.49903391  0.50227711  0.31624341  1
  O  O35  1  0.49903391  0.49772289  0.81624341  1
  O  O36  1  0.50159820  0.50207091  0.67985767  1
  O  O37  1  0.50159820  0.49792909  0.17985767  1
  O  O38  1  0.12760831  0.31831183  0.37461500  1
  O  O39  1  0.87104842  0.68215381  0.37342919  1
  O  O40  1  0.68293896  0.13154183  0.37499483  1
  O  O41  1  0.31632441  0.88250015  0.36809821  1
  O  O42  1  0.87104842  0.31784619  0.87342919  1
  O  O43  1  0.12760831  0.68168817  0.87461500  1
  O  O44  1  0.31632441  0.11749985  0.86809821  1
  O  O45  1  0.68293896  0.86845817  0.87499483  1
  O  O46  1  0.87199238  0.68253408  0.62526206  1
  O  O47  1  0.12847381  0.31882828  0.62630511  1
  O  O48  1  0.31615031  0.86928544  0.62178236  1
  O  O49  1  0.68022563  0.12707027  0.62624459  1
  O  O50  1  0.12847381  0.68117172  0.12630511  1
  O  O51  1  0.87199238  0.31746592  0.12526206  1
  O  O52  1  0.68022563  0.87292973  0.12624459  1
  O  O53  1  0.31615031  0.13071456  0.12178236  1
