# generated using pymatgen
data_U13O34
_symmetry_space_group_name_H-M   'P 1'
_cell_length_a   4.16444849
_cell_length_b   6.91947282
_cell_length_c   25.62343791
_cell_angle_alpha   97.75991235
_cell_angle_beta   90.00000000
_cell_angle_gamma   90.00000000
_symmetry_Int_Tables_number   1
_chemical_formula_structural   U13O34
_chemical_formula_sum   'U13 O34'
_cell_volume   731.59806945
_cell_formula_units_Z   1
loop_
 _symmetry_equiv_pos_site_id
 _symmetry_equiv_pos_as_xyz
  1  'x, y, z'
loop_
 _atom_site_type_symbol
 _atom_site_label
 _atom_site_symmetry_multiplicity
 _atom_site_fract_x
 _atom_site_fract_y
 _atom_site_fract_z
 _atom_site_occupancy
  U  U0  1  0.00000000  0.13873346  0.30311424  1
  U  U1  1  0.00000000  0.83561922  0.69688576  1
  U  U2  1  0.00000000  0.08242915  0.15090511  1
  U  U3  1  0.00000000  0.51640259  0.07843754  1
  U  U4  1  0.00000000  0.59999440  0.23852226  1
  U  U5  1  0.00000000  0.93152404  0.84909489  1
  U  U6  1  0.00000000  0.68072292  0.38474466  1
  U  U7  1  0.00000000  0.94158658  0.00000000  1
  U  U8  1  0.00000000  0.36147214  0.76147774  1
  U  U9  1  0.00000000  0.43796505  0.92156246  1
  U  U10  1  0.00000000  0.75247222  0.53075920  1
  U  U11  1  0.00000000  0.29597826  0.61525534  1
  U  U12  1  0.00000000  0.22171303  0.46924080  1
  O  O13  1  0.00000000  0.45374769  0.15491797  1
  O  O14  1  0.00000000  0.02548542  0.77128851  1
  O  O15  1  0.00000000  0.52753214  0.45322558  1
  O  O16  1  0.00000000  0.44797704  0.54809031  1
  O  O17  1  0.00000000  0.75033173  0.91315366  1
  O  O18  1  0.50000000  0.29273412  0.61492869  1
  O  O19  1  0.00000000  0.45734755  0.31822013  1
  O  O20  1  0.00000000  0.78961295  0.61560927  1
  O  O21  1  0.50000000  0.59777242  0.24083739  1
  O  O22  1  0.50000000  0.51336693  0.07713801  1
  O  O23  1  0.50000000  0.22317603  0.47071914  1
  O  O24  1  0.00000000  0.07430656  0.54677442  1
  O  O25  1  0.00000000  0.19723608  0.06190494  1
  O  O26  1  0.00000000  0.86681857  0.20565717  1
  O  O27  1  0.00000000  0.82318910  0.31202140  1
  O  O28  1  0.00000000  0.17400368  0.38439073  1
  O  O29  1  0.00000000  0.83717807  0.08684634  1
  O  O30  1  0.50000000  0.82839475  0.69917984  1
  O  O31  1  0.50000000  0.92649933  0.00000000  1
  O  O32  1  0.00000000  0.29882972  0.84508203  1
  O  O33  1  0.50000000  0.67780543  0.38507131  1
  O  O34  1  0.00000000  0.89988673  0.45190969  1
  O  O35  1  0.00000000  0.13533114  0.93809506  1
  O  O36  1  0.00000000  0.13912742  0.68177987  1
  O  O37  1  0.50000000  0.94214063  0.85093105  1
  O  O38  1  0.50000000  0.35693503  0.75916261  1
  O  O39  1  0.00000000  0.51116770  0.68797860  1
  O  O40  1  0.00000000  0.58298435  1.00000000  1
  O  O41  1  0.50000000  0.75245689  0.52928086  1
  O  O42  1  0.50000000  0.12921491  0.30082016  1
  O  O43  1  0.00000000  0.25419691  0.22871149  1
  O  O44  1  0.50000000  0.43622892  0.92286199  1
  O  O45  1  0.50000000  0.09120958  0.14906895  1
  O  O46  1  0.00000000  0.66116140  0.79434283  1
