# generated using pymatgen
data_Ni6Mo2P3
_symmetry_space_group_name_H-M   'P 1'
_cell_length_a   3.52751422
_cell_length_b   5.67483242
_cell_length_c   12.84885962
_cell_angle_alpha   90.00259150
_cell_angle_beta   90.00003535
_cell_angle_gamma   90.00004048
_symmetry_Int_Tables_number   1
_chemical_formula_structural   Ni6Mo2P3
_chemical_formula_sum   'Ni12 Mo4 P6'
_cell_volume   257.20914062
_cell_formula_units_Z   2
loop_
 _symmetry_equiv_pos_site_id
 _symmetry_equiv_pos_as_xyz
  1  'x, y, z'
loop_
 _atom_site_type_symbol
 _atom_site_label
 _atom_site_symmetry_multiplicity
 _atom_site_fract_x
 _atom_site_fract_y
 _atom_site_fract_z
 _atom_site_occupancy
  Ni  Ni0  1  0.75000013  0.04813495  0.34858588  1
  Ni  Ni1  1  0.74999992  0.43715452  0.25000809  1
  Ni  Ni2  1  0.74999990  0.13773653  0.96000506  1
  Ni  Ni3  1  0.25000018  0.56278118  0.74999261  1
  Ni  Ni4  1  0.24999990  0.86227397  0.04002103  1
  Ni  Ni5  1  0.25000030  0.86230549  0.45998630  1
  Ni  Ni6  1  0.74999981  0.23137623  0.74999543  1
  Ni  Ni7  1  0.25000025  0.76861086  0.25000555  1
  Ni  Ni8  1  0.75000004  0.04813952  0.15141082  1
  Ni  Ni9  1  0.74999975  0.13773991  0.54000208  1
  Ni  Ni10  1  0.24999967  0.95184457  0.84859016  1
  Ni  Ni11  1  0.24999979  0.95186367  0.65141228  1
  Mo  Mo12  1  0.75000009  0.61617442  0.91763421  1
  Mo  Mo13  1  0.24999995  0.38383093  0.08236435  1
  Mo  Mo14  1  0.25000005  0.38388477  0.41764443  1
  Mo  Mo15  1  0.75000010  0.61614435  0.58235188  1
  P  P16  1  0.25000003  0.32450592  0.61200754  1
  P  P17  1  0.75000007  0.67549298  0.11203022  1
  P  P18  1  0.25000006  0.17207358  0.25000463  1
  P  P19  1  0.74999995  0.82792860  0.74998958  1
  P  P20  1  0.75000019  0.67551274  0.38798706  1
  P  P21  1  0.24999987  0.32449032  0.88797079  1
