# generated using pymatgen
data_Bi2PbS4
_symmetry_space_group_name_H-M   'P 1'
_cell_length_a   4.13292211
_cell_length_b   11.89535169
_cell_length_c   14.68644618
_cell_angle_alpha   90.00000000
_cell_angle_beta   90.00000000
_cell_angle_gamma   90.00000000
_symmetry_Int_Tables_number   1
_chemical_formula_structural   Bi2PbS4
_chemical_formula_sum   'Bi8 Pb4 S16'
_cell_volume   722.02332097
_cell_formula_units_Z   4
loop_
 _symmetry_equiv_pos_site_id
 _symmetry_equiv_pos_as_xyz
  1  'x, y, z'
loop_
 _atom_site_type_symbol
 _atom_site_label
 _atom_site_symmetry_multiplicity
 _atom_site_fract_x
 _atom_site_fract_y
 _atom_site_fract_z
 _atom_site_occupancy
  Bi  Bi0  1  0.25000000  0.39766335  0.59723518  1
  Bi  Bi1  1  0.75000000  0.60233665  0.40276482  1
  Bi  Bi2  1  0.75000000  0.06728274  0.60860143  1
  Bi  Bi3  1  0.25000000  0.89766335  0.90276482  1
  Bi  Bi4  1  0.75000000  0.10233665  0.09723518  1
  Bi  Bi5  1  0.25000000  0.43271726  0.10860143  1
  Bi  Bi6  1  0.25000000  0.93271726  0.39139857  1
  Bi  Bi7  1  0.75000000  0.56728274  0.89139857  1
  Pb  Pb8  1  0.75000000  0.24608915  0.34752850  1
  Pb  Pb9  1  0.25000000  0.25391085  0.84752850  1
  Pb  Pb10  1  0.25000000  0.75391085  0.65247150  1
  Pb  Pb11  1  0.75000000  0.74608915  0.15247150  1
  S  S12  1  0.75000000  0.83632941  0.51237486  1
  S  S13  1  0.25000000  0.23744750  0.19947781  1
  S  S14  1  0.25000000  0.44742534  0.40945168  1
  S  S15  1  0.75000000  0.33632941  0.98762514  1
  S  S16  1  0.75000000  0.55257466  0.59054832  1
  S  S17  1  0.75000000  0.76255250  0.80052219  1
  S  S18  1  0.25000000  0.94742534  0.09054832  1
  S  S19  1  0.25000000  0.16367059  0.48762514  1
  S  S20  1  0.25000000  0.98224729  0.71263657  1
  S  S21  1  0.25000000  0.48224729  0.78736343  1
  S  S22  1  0.75000000  0.01775271  0.28736343  1
  S  S23  1  0.25000000  0.66367059  0.01237486  1
  S  S24  1  0.75000000  0.51775271  0.21263657  1
  S  S25  1  0.75000000  0.26255250  0.69947781  1
  S  S26  1  0.25000000  0.73744750  0.30052219  1
  S  S27  1  0.75000000  0.05257466  0.90945168  1
