# generated using pymatgen
data_Cs2Mo(SO)2
_symmetry_space_group_name_H-M   'P 1'
_cell_length_a   8.00929026
_cell_length_b   9.60557914
_cell_length_c   11.28449899
_cell_angle_alpha   90.00000000
_cell_angle_beta   90.00000000
_cell_angle_gamma   90.00000000
_symmetry_Int_Tables_number   1
_chemical_formula_structural   Cs2Mo(SO)2
_chemical_formula_sum   'Cs8 Mo4 S8 O8'
_cell_volume   868.16019465
_cell_formula_units_Z   4
loop_
 _symmetry_equiv_pos_site_id
 _symmetry_equiv_pos_as_xyz
  1  'x, y, z'
loop_
 _atom_site_type_symbol
 _atom_site_label
 _atom_site_symmetry_multiplicity
 _atom_site_fract_x
 _atom_site_fract_y
 _atom_site_fract_z
 _atom_site_occupancy
  Cs  Cs0  1  0.28996450  0.61422107  0.41220264  1
  Cs  Cs1  1  0.21003550  0.88577893  0.91220264  1
  Cs  Cs2  1  0.21003550  0.11422107  0.58779736  1
  Cs  Cs3  1  0.28996450  0.38577893  0.08779736  1
  Cs  Cs4  1  0.71003550  0.38577893  0.58779736  1
  Cs  Cs5  1  0.78996450  0.11422107  0.08779736  1
  Cs  Cs6  1  0.78996450  0.88577893  0.41220264  1
  Cs  Cs7  1  0.71003550  0.61422107  0.91220264  1
  Mo  Mo8  1  0.30520051  0.00000000  0.25000000  1
  Mo  Mo9  1  0.19479949  0.50000000  0.75000000  1
  Mo  Mo10  1  0.69479949  0.00000000  0.75000000  1
  Mo  Mo11  1  0.80520051  0.50000000  0.25000000  1
  S  S12  1  0.46796463  0.83234128  0.17467667  1
  S  S13  1  0.03203537  0.66765872  0.67467667  1
  S  S14  1  0.03203537  0.33234128  0.82532333  1
  S  S15  1  0.46796463  0.16765872  0.32532333  1
  S  S16  1  0.53203537  0.16765872  0.82532333  1
  S  S17  1  0.96796463  0.33234128  0.32532333  1
  S  S18  1  0.96796463  0.66765872  0.17467667  1
  S  S19  1  0.53203537  0.83234128  0.67467667  1
  O  O20  1  0.18014289  0.92795406  0.36595047  1
  O  O21  1  0.31985711  0.57204594  0.86595047  1
  O  O22  1  0.31985711  0.42795406  0.63404953  1
  O  O23  1  0.18014289  0.07204594  0.13404953  1
  O  O24  1  0.81985711  0.07204594  0.63404953  1
  O  O25  1  0.68014289  0.42795406  0.13404953  1
  O  O26  1  0.68014289  0.57204594  0.36595047  1
  O  O27  1  0.81985711  0.92795406  0.86595047  1
