# generated using pymatgen
data_Ba4Pr(RuO4)3
_symmetry_space_group_name_H-M   'P 1'
_cell_length_a   5.99099944
_cell_length_b   5.99099922
_cell_length_c   30.02434591
_cell_angle_alpha   89.06964620
_cell_angle_beta   89.06964623
_cell_angle_gamma   60.07009285
_symmetry_Int_Tables_number   1
_chemical_formula_structural   Ba4Pr(RuO4)3
_chemical_formula_sum   'Ba12 Pr3 Ru9 O36'
_cell_volume   933.75435309
_cell_formula_units_Z   3
loop_
 _symmetry_equiv_pos_site_id
 _symmetry_equiv_pos_as_xyz
  1  'x, y, z'
loop_
 _atom_site_type_symbol
 _atom_site_label
 _atom_site_symmetry_multiplicity
 _atom_site_fract_x
 _atom_site_fract_y
 _atom_site_fract_z
 _atom_site_occupancy
  Ba  Ba0  1  0.99754796  0.99754796  0.71810101  1
  Ba  Ba1  1  0.00245204  0.00245204  0.28189899  1
  Ba  Ba2  1  0.00255139  0.00255139  0.13221529  1
  Ba  Ba3  1  0.99744861  0.99744861  0.86778471  1
  Ba  Ba4  1  0.33663727  0.33663727  0.61462025  1
  Ba  Ba5  1  0.66336273  0.66336273  0.38537975  1
  Ba  Ba6  1  0.33505016  0.33505016  0.20354113  1
  Ba  Ba7  1  0.66611030  0.66611030  0.53566398  1
  Ba  Ba8  1  0.33163346  0.33163346  0.05168455  1
  Ba  Ba9  1  0.33388970  0.33388970  0.46433602  1
  Ba  Ba10  1  0.66836654  0.66836654  0.94831545  1
  Ba  Ba11  1  0.66494984  0.66494984  0.79645887  1
  Pr  Pr12  1  0.33298666  0.33298666  0.33344712  1
  Pr  Pr13  1  0.66701334  0.66701334  0.66655288  1
  Pr  Pr14  1  0.00000000  0.00000000  0.00000000  1
  Ru  Ru15  1  0.66314642  0.66314642  0.08162551  1
  Ru  Ru16  1  0.33268602  0.33268602  0.83340434  1
  Ru  Ru17  1  0.99352887  0.99352887  0.41506078  1
  Ru  Ru18  1  0.66731398  0.66731398  0.16659566  1
  Ru  Ru19  1  0.00647113  0.00647113  0.58493922  1
  Ru  Ru20  1  0.00000000  0.00000000  0.50000000  1
  Ru  Ru21  1  0.33685358  0.33685358  0.91837449  1
  Ru  Ru22  1  0.67109900  0.67109900  0.25152895  1
  Ru  Ru23  1  0.32890100  0.32890100  0.74847105  1
  O  O24  1  0.15832281  0.15832281  0.53849770  1
  O  O25  1  0.50974490  0.97605798  0.12396783  1
  O  O26  1  0.85941864  0.85941864  0.62550715  1
  O  O27  1  0.49025510  0.02394202  0.87603217  1
  O  O28  1  0.17704161  0.17704161  0.79405684  1
  O  O29  1  0.01399740  0.48035601  0.71456472  1
  O  O30  1  0.51964399  0.98600260  0.28543528  1
  O  O31  1  0.65033763  0.18644409  0.95257710  1
  O  O32  1  0.64211284  0.17518165  0.79064144  1
  O  O33  1  0.47933408  0.47933408  0.70955644  1
  O  O34  1  0.17518165  0.64211284  0.79064144  1
  O  O35  1  0.81281639  0.81281639  0.04269495  1
  O  O36  1  0.32198295  0.85789980  0.61839689  1
  O  O37  1  0.82481835  0.35788716  0.20935856  1
  O  O38  1  0.52066592  0.52066592  0.29044356  1
  O  O39  1  0.69205324  0.15813273  0.54294043  1
  O  O40  1  0.84186727  0.30794676  0.45705957  1
  O  O41  1  0.98600260  0.51964399  0.28543528  1
  O  O42  1  0.14210020  0.67801705  0.38160311  1
  O  O43  1  0.18718361  0.18718361  0.95730505  1
  O  O44  1  0.02394202  0.49025510  0.87603217  1
  O  O45  1  0.97605798  0.50974490  0.12396783  1
  O  O46  1  0.51128892  0.51128892  0.12760193  1
  O  O47  1  0.34966237  0.81355591  0.04742290  1
  O  O48  1  0.35788716  0.82481835  0.20935856  1
  O  O49  1  0.15813273  0.69205324  0.54294043  1
  O  O50  1  0.85789980  0.32198295  0.61839689  1
  O  O51  1  0.14058136  0.14058136  0.37449285  1
  O  O52  1  0.48035601  0.01399740  0.71456472  1
  O  O53  1  0.18644409  0.65033763  0.95257710  1
  O  O54  1  0.82295839  0.82295839  0.20594316  1
  O  O55  1  0.81355591  0.34966237  0.04742290  1
  O  O56  1  0.48871108  0.48871108  0.87239807  1
  O  O57  1  0.67801705  0.14210020  0.38160311  1
  O  O58  1  0.84167719  0.84167719  0.46150230  1
  O  O59  1  0.30794676  0.84186727  0.45705957  1
