# generated using pymatgen
data_CuSbPbS3
_symmetry_space_group_name_H-M   'P 1'
_cell_length_a   7.88064177
_cell_length_b   8.26703093
_cell_length_c   8.87367318
_cell_angle_alpha   90.00000000
_cell_angle_beta   90.00000000
_cell_angle_gamma   90.00000000
_symmetry_Int_Tables_number   1
_chemical_formula_structural   CuSbPbS3
_chemical_formula_sum   'Cu4 Sb4 Pb4 S12'
_cell_volume   578.11545302
_cell_formula_units_Z   4
loop_
 _symmetry_equiv_pos_site_id
 _symmetry_equiv_pos_as_xyz
  1  'x, y, z'
loop_
 _atom_site_type_symbol
 _atom_site_label
 _atom_site_symmetry_multiplicity
 _atom_site_fract_x
 _atom_site_fract_y
 _atom_site_fract_z
 _atom_site_occupancy
  Cu  Cu0  1  0.74386132  0.72529006  0.91089736  1
  Cu  Cu1  1  0.25613868  0.72529006  0.91089736  1
  Cu  Cu2  1  0.75613868  0.27470994  0.41089736  1
  Cu  Cu3  1  0.24386132  0.27470994  0.41089736  1
  Sb  Sb4  1  0.50000000  0.07194877  0.04091918  1
  Sb  Sb5  1  0.00000000  0.92805123  0.54091918  1
  Sb  Sb6  1  0.50000000  0.48838536  0.65391074  1
  Sb  Sb7  1  -0.00000000  0.51161464  0.15391074  1
  Pb  Pb8  1  0.50000000  0.92272368  0.49049650  1
  Pb  Pb9  1  -0.00000000  0.07727632  0.99049650  1
  Pb  Pb10  1  0.50000000  0.55295296  0.17091459  1
  Pb  Pb11  1  0.00000000  0.44704704  0.67091459  1
  S  S12  1  0.50000000  0.75891806  0.77234090  1
  S  S13  1  -0.00000000  0.24108194  0.27234090  1
  S  S14  1  0.50000000  0.22951316  0.28175782  1
  S  S15  1  0.00000000  0.77048684  0.78175782  1
  S  S16  1  0.73583140  0.89174819  0.12243896  1
  S  S17  1  0.26416860  0.89174819  0.12243896  1
  S  S18  1  0.76416860  0.10825181  0.62243896  1
  S  S19  1  0.23583140  0.10825181  0.62243896  1
  S  S20  1  0.76751353  0.44546230  0.97414382  1
  S  S21  1  0.23248647  0.44546230  0.97414382  1
  S  S22  1  0.73248647  0.55453770  0.47414382  1
  S  S23  1  0.26751353  0.55453770  0.47414382  1
