# generated using pymatgen
data_NaH8Rh(N2O3)4
_symmetry_space_group_name_H-M   'P 1'
_cell_length_a   7.68397370
_cell_length_b   7.68397370
_cell_length_c   7.68397370
_cell_angle_alpha   60.00000000
_cell_angle_beta   60.00000000
_cell_angle_gamma   60.00000000
_symmetry_Int_Tables_number   1
_chemical_formula_structural   NaH8Rh(N2O3)4
_chemical_formula_sum   'Na1 H8 Rh1 N8 O12'
_cell_volume   320.80609541
_cell_formula_units_Z   1
loop_
 _symmetry_equiv_pos_site_id
 _symmetry_equiv_pos_as_xyz
  1  'x, y, z'
loop_
 _atom_site_type_symbol
 _atom_site_label
 _atom_site_symmetry_multiplicity
 _atom_site_fract_x
 _atom_site_fract_y
 _atom_site_fract_z
 _atom_site_occupancy
  Na  Na0  1  0.50000000  0.50000000  0.50000000  1
  H  H1  1  0.19542867  0.19542867  0.19542867  1
  H  H2  1  0.19542867  0.41371400  0.19542867  1
  H  H3  1  0.19542867  0.19542867  0.41371400  1
  H  H4  1  0.80457133  0.80457133  0.80457133  1
  H  H5  1  0.80457133  0.58628600  0.80457133  1
  H  H6  1  0.80457133  0.80457133  0.58628600  1
  H  H7  1  0.41371400  0.19542867  0.19542867  1
  H  H8  1  0.58628600  0.80457133  0.80457133  1
  Rh  Rh9  1  -0.00000000  0.00000000  -0.00000000  1
  N  N10  1  0.80716051  0.19283949  0.80716051  1
  N  N11  1  0.80716051  0.19283949  0.19283949  1
  N  N12  1  0.80716051  0.80716051  0.19283949  1
  N  N13  1  0.19283949  0.80716051  0.19283949  1
  N  N14  1  0.19283949  0.80716051  0.80716051  1
  N  N15  1  0.19283949  0.19283949  0.80716051  1
  N  N16  1  0.25000000  0.25000000  0.25000000  1
  N  N17  1  0.75000000  0.75000000  0.75000000  1
  O  O18  1  0.84890630  0.34999771  0.15109370  1
  O  O19  1  0.84890630  0.65000229  0.34999771  1
  O  O20  1  0.84890630  0.15109370  0.65000229  1
  O  O21  1  0.15109370  0.65000229  0.84890630  1
  O  O22  1  0.15109370  0.34999771  0.65000229  1
  O  O23  1  0.15109370  0.84890630  0.34999771  1
  O  O24  1  0.34999771  0.84890630  0.65000229  1
  O  O25  1  0.65000229  0.84890630  0.15109370  1
  O  O26  1  0.65000229  0.15109370  0.34999771  1
  O  O27  1  0.34999771  0.15109370  0.84890630  1
  O  O28  1  0.65000229  0.34999771  0.84890630  1
  O  O29  1  0.34999771  0.65000229  0.15109370  1
