# generated using pymatgen
data_TeMo3Se7I6
_symmetry_space_group_name_H-M   'P 1'
_cell_length_a   11.22700745
_cell_length_b   13.27321118
_cell_length_c   17.57205107
_cell_angle_alpha   90.00000000
_cell_angle_beta   103.26611422
_cell_angle_gamma   90.00000000
_symmetry_Int_Tables_number   1
_chemical_formula_structural   TeMo3Se7I6
_chemical_formula_sum   'Te4 Mo12 Se28 I24'
_cell_volume   2548.68275391
_cell_formula_units_Z   4
loop_
 _symmetry_equiv_pos_site_id
 _symmetry_equiv_pos_as_xyz
  1  'x, y, z'
loop_
 _atom_site_type_symbol
 _atom_site_label
 _atom_site_symmetry_multiplicity
 _atom_site_fract_x
 _atom_site_fract_y
 _atom_site_fract_z
 _atom_site_occupancy
  Te  Te0  1  0.21469463  0.26904516  0.66373876  1
  Te  Te1  1  0.28530537  0.76904516  0.83626124  1
  Te  Te2  1  0.71469463  0.23095484  0.16373876  1
  Te  Te3  1  0.78530537  0.73095484  0.33626124  1
  Mo  Mo4  1  0.66148114  0.86139328  0.73120964  1
  Mo  Mo5  1  0.93144988  0.72033034  0.22605587  1
  Mo  Mo6  1  0.83851886  0.36139328  0.76879036  1
  Mo  Mo7  1  0.12698181  0.84723713  0.22389665  1
  Mo  Mo8  1  0.16148114  0.63860672  0.23120964  1
  Mo  Mo9  1  0.62698181  0.65276287  0.72389665  1
  Mo  Mo10  1  0.43144988  0.77966966  0.72605587  1
  Mo  Mo11  1  0.37301819  0.34723713  0.27610335  1
  Mo  Mo12  1  0.33851886  0.13860672  0.26879036  1
  Mo  Mo13  1  0.56855012  0.22033034  0.27394413  1
  Mo  Mo14  1  0.06855012  0.27966966  0.77394413  1
  Mo  Mo15  1  0.87301819  0.15276287  0.77610335  1
  Se  Se16  1  0.97685453  0.52859211  0.25264303  1
  Se  Se17  1  0.61143296  0.75887192  0.83938071  1
  Se  Se18  1  0.15406891  0.26541352  0.25173175  1
  Se  Se19  1  0.47685453  0.97140789  0.75264303  1
  Se  Se20  1  0.97032129  0.59276430  0.12518241  1
  Se  Se21  1  0.21227585  0.74865259  0.12324521  1
  Se  Se22  1  0.47032129  0.90723570  0.62518241  1
  Se  Se23  1  0.88856704  0.25887192  0.66061929  1
  Se  Se24  1  0.71227585  0.75134741  0.62324521  1
  Se  Se25  1  0.58802808  0.41726492  0.26532027  1
  Se  Se26  1  0.42992040  0.65508388  0.61400164  1
  Se  Se27  1  0.92992040  0.84491612  0.11400164  1
  Se  Se28  1  0.78772415  0.25134741  0.87675479  1
  Se  Se29  1  0.65406891  0.23458648  0.75173175  1
  Se  Se30  1  0.38856704  0.24112808  0.16061929  1
  Se  Se31  1  0.28772415  0.24865259  0.37675479  1
  Se  Se32  1  0.34593109  0.76541352  0.24826825  1
  Se  Se33  1  0.02314547  0.47140789  0.74735697  1
  Se  Se34  1  0.11143296  0.74112808  0.33938071  1
  Se  Se35  1  0.07007960  0.15508388  0.88599836  1
  Se  Se36  1  0.02967871  0.40723570  0.87481759  1
  Se  Se37  1  0.08802808  0.08273508  0.76532027  1
  Se  Se38  1  0.91197192  0.91726492  0.23467973  1
  Se  Se39  1  0.41197192  0.58273508  0.73467973  1
  Se  Se40  1  0.52314547  0.02859211  0.24735697  1
  Se  Se41  1  0.57007960  0.34491612  0.38599836  1
  Se  Se42  1  0.84593109  0.73458648  0.74826825  1
  Se  Se43  1  0.52967871  0.09276430  0.37481759  1
  I  I44  1  0.69146355  0.47554367  0.64200375  1
  I  I45  1  0.85778872  0.57400740  0.44281357  1
  I  I46  1  0.72506933  0.51443672  0.84613456  1
  I  I47  1  0.80853645  0.97554367  0.85799625  1
  I  I48  1  0.14221128  0.42599260  0.55718643  1
  I  I49  1  0.38040174  0.60775038  0.93890940  1
  I  I50  1  0.88040174  0.89224962  0.43890940  1
  I  I51  1  0.99230773  0.71736877  0.97794939  1
  I  I52  1  0.17192122  0.81408447  0.66289839  1
  I  I53  1  0.32807878  0.31408447  0.83710161  1
  I  I54  1  0.77493067  0.01443672  0.65386544  1
  I  I55  1  0.11959826  0.10775038  0.56109060  1
  I  I56  1  0.82807878  0.18591553  0.33710161  1
  I  I57  1  0.19146355  0.02445633  0.14200375  1
  I  I58  1  0.30853645  0.52445633  0.35799625  1
  I  I59  1  0.50769227  0.21736877  0.52205061  1
  I  I60  1  0.49230773  0.78263123  0.47794939  1
  I  I61  1  0.27493067  0.48556328  0.15386544  1
  I  I62  1  0.35778872  0.92599260  0.94281357  1
  I  I63  1  0.22506933  0.98556328  0.34613456  1
  I  I64  1  0.64221128  0.07400740  0.05718643  1
  I  I65  1  0.61959826  0.39224962  0.06109060  1
  I  I66  1  0.67192122  0.68591553  0.16289839  1
  I  I67  1  0.00769227  0.28263123  0.02205061  1
