# generated using pymatgen
data_Co5Se4(ClO6)2
_symmetry_space_group_name_H-M   'P 1'
_cell_length_a   6.58916044
_cell_length_b   7.85054561
_cell_length_c   7.97379403
_cell_angle_alpha   65.74674847
_cell_angle_beta   72.59760015
_cell_angle_gamma   81.15674723
_symmetry_Int_Tables_number   1
_chemical_formula_structural   Co5Se4(ClO6)2
_chemical_formula_sum   'Co5 Se4 Cl2 O12'
_cell_volume   358.62759175
_cell_formula_units_Z   1
loop_
 _symmetry_equiv_pos_site_id
 _symmetry_equiv_pos_as_xyz
  1  'x, y, z'
loop_
 _atom_site_type_symbol
 _atom_site_label
 _atom_site_symmetry_multiplicity
 _atom_site_fract_x
 _atom_site_fract_y
 _atom_site_fract_z
 _atom_site_occupancy
  Co  Co0  1  0.11312605  0.69695104  0.43501875  1
  Co  Co1  1  0.88687395  0.30304896  0.56498125  1
  Co  Co2  1  0.00000000  0.00000000  0.00000000  1
  Co  Co3  1  0.67898820  0.12744281  0.34351432  1
  Co  Co4  1  0.32101180  0.87255719  0.65648568  1
  Se  Se5  1  0.65261151  0.69151147  0.32347196  1
  Se  Se6  1  0.34738849  0.30848853  0.67652804  1
  Se  Se7  1  0.78845398  0.83671858  0.77905027  1
  Se  Se8  1  0.21154602  0.16328142  0.22094973  1
  Cl  Cl9  1  0.17776235  0.68647937  0.00696261  1
  Cl  Cl10  1  0.82223765  0.31352063  0.99303739  1
  O  O11  1  0.58239953  0.30218934  0.50673121  1
  O  O12  1  0.83316339  0.04558708  0.79087577  1
  O  O13  1  0.96299612  0.19671575  0.36214104  1
  O  O14  1  0.83234161  0.58610237  0.46330452  1
  O  O15  1  0.26261456  0.08073720  0.77687780  1
  O  O16  1  0.16765839  0.41389763  0.53669548  1
  O  O17  1  0.35910831  0.09972226  0.38506216  1
  O  O18  1  0.16683661  0.95441292  0.20912423  1
  O  O19  1  0.73738544  0.91926280  0.22312220  1
  O  O20  1  0.41760047  0.69781066  0.49326879  1
  O  O21  1  0.03700388  0.80328425  0.63785896  1
  O  O22  1  0.64089169  0.90027774  0.61493784  1
