# generated using pymatgen
data_NaHSeO4
_symmetry_space_group_name_H-M   'P 1'
_cell_length_a   5.36075658
_cell_length_b   7.98687773
_cell_length_c   9.01715579
_cell_angle_alpha   90.00000000
_cell_angle_beta   101.29906844
_cell_angle_gamma   90.00000000
_symmetry_Int_Tables_number   1
_chemical_formula_structural   NaHSeO4
_chemical_formula_sum   'Na4 H4 Se4 O16'
_cell_volume   378.59291982
_cell_formula_units_Z   4
loop_
 _symmetry_equiv_pos_site_id
 _symmetry_equiv_pos_as_xyz
  1  'x, y, z'
loop_
 _atom_site_type_symbol
 _atom_site_label
 _atom_site_symmetry_multiplicity
 _atom_site_fract_x
 _atom_site_fract_y
 _atom_site_fract_z
 _atom_site_occupancy
  Na  Na0  1  0.79666845  0.00017234  0.29621190  1
  Na  Na1  1  0.29666845  0.49982766  0.79621190  1
  Na  Na2  1  0.20333155  0.99982766  0.70378810  1
  Na  Na3  1  0.70333155  0.50017234  0.20378810  1
  H  H4  1  0.23400076  0.53804102  0.36784487  1
  H  H5  1  0.73400076  0.96195898  0.86784487  1
  H  H6  1  0.76599924  0.46195898  0.63215513  1
  H  H7  1  0.26599924  0.03804102  0.13215513  1
  Se  Se8  1  0.35194469  0.27455138  0.43823229  1
  Se  Se9  1  0.85194469  0.22544862  0.93823229  1
  Se  Se10  1  0.64805531  0.72544862  0.56176771  1
  Se  Se11  1  0.14805531  0.77455138  0.06176771  1
  O  O12  1  0.17768365  0.10778931  0.45066211  1
  O  O13  1  0.67768365  0.39221069  0.95066211  1
  O  O14  1  0.82231635  0.89221069  0.54933789  1
  O  O15  1  0.32231635  0.60778931  0.04933789  1
  O  O16  1  0.55328797  0.25379881  0.32190866  1
  O  O17  1  0.05328797  0.24620119  0.82190866  1
  O  O18  1  0.44671203  0.74620119  0.67809134  1
  O  O19  1  0.94671203  0.75379881  0.17809134  1
  O  O20  1  0.48859260  0.34329846  0.60891917  1
  O  O21  1  0.98859260  0.15670154  0.10891917  1
  O  O22  1  0.51140740  0.65670154  0.39108083  1
  O  O23  1  0.01140740  0.84329846  0.89108083  1
  O  O24  1  0.12765454  0.43205403  0.36138737  1
  O  O25  1  0.62765454  0.06794597  0.86138737  1
  O  O26  1  0.87234546  0.56794597  0.63861263  1
  O  O27  1  0.37234546  0.93205403  0.13861263  1
