# generated using pymatgen
data_CaCeC2O6F
_symmetry_space_group_name_H-M   'P 1'
_cell_length_a   7.23610382
_cell_length_b   7.24391666
_cell_length_c   18.84357020
_cell_angle_alpha   79.08190479
_cell_angle_beta   79.16354451
_cell_angle_gamma   60.10679949
_symmetry_Int_Tables_number   1
_chemical_formula_structural   CaCeC2O6F
_chemical_formula_sum   'Ca6 Ce6 C12 O36 F6'
_cell_volume   835.72499941
_cell_formula_units_Z   6
loop_
 _symmetry_equiv_pos_site_id
 _symmetry_equiv_pos_as_xyz
  1  'x, y, z'
loop_
 _atom_site_type_symbol
 _atom_site_label
 _atom_site_symmetry_multiplicity
 _atom_site_fract_x
 _atom_site_fract_y
 _atom_site_fract_z
 _atom_site_occupancy
  Ca  Ca0  1  0.84197659  0.31332674  0.50013175  1
  Ca  Ca1  1  0.65604379  0.18565815  0.99979895  1
  Ca  Ca2  1  0.15802341  0.68667326  0.49986825  1
  Ca  Ca3  1  0.50000000  -0.00000000  0.50000000  1
  Ca  Ca4  1  0.34395621  0.81434185  0.00020105  1
  Ca  Ca5  1  0.00000000  0.50000000  0.00000000  1
  Ce  Ce6  1  0.92583241  0.40953654  0.25029618  1
  Ce  Ce7  1  0.41506254  0.90771576  0.75010606  1
  Ce  Ce8  1  0.58493746  0.09228424  0.24989394  1
  Ce  Ce9  1  0.24154041  0.75060341  0.24988401  1
  Ce  Ce10  1  0.75845959  0.24939659  0.75011599  1
  Ce  Ce11  1  0.07416759  0.59046346  0.74970382  1
  C  C12  1  0.91953388  0.83554272  0.11451992  1
  C  C13  1  0.74857718  0.96505047  0.61825921  1
  C  C14  1  0.33165027  0.53446706  0.88177978  1
  C  C15  1  0.13034949  0.33565945  0.61450774  1
  C  C16  1  0.70028937  0.91490900  0.88622443  1
  C  C17  1  0.25142282  0.03494953  0.38174079  1
  C  C18  1  0.08046612  0.16445728  0.88548008  1
  C  C19  1  0.86965051  0.66434055  0.38549226  1
  C  C20  1  0.49810606  0.41555765  0.38637876  1
  C  C21  1  0.50189394  0.58444235  0.61362124  1
  C  C22  1  0.66834973  0.46553294  0.11822022  1
  C  C23  1  0.29971063  0.08509100  0.11377557  1
  O  O24  1  0.17318505  0.05409080  0.32263595  1
  O  O25  1  0.73651707  0.01053076  0.12013392  1
  O  O26  1  0.61609025  0.48093611  0.05430612  1
  O  O27  1  0.55102259  0.44707314  0.17733261  1
  O  O28  1  0.56550848  0.96877806  0.62219386  1
  O  O29  1  0.31402509  0.17812481  0.04796019  1
  O  O30  1  0.01535797  0.78656637  0.04969422  1
  O  O31  1  0.44897741  0.55292686  0.82266739  1
  O  O32  1  0.62211307  0.33050478  0.32927157  1
  O  O33  1  0.84795306  0.98063922  0.55435703  1
  O  O34  1  0.71824801  0.82941243  0.82909656  1
  O  O35  1  0.86788126  0.48880012  0.37991906  1
  O  O36  1  0.45954452  0.67844168  0.54787109  1
  O  O37  1  0.88895396  0.78398314  0.32695967  1
  O  O38  1  0.30389404  0.90063199  0.12089505  1
  O  O39  1  0.38390975  0.51906389  0.94569388  1
  O  O40  1  0.99896385  0.28465464  0.82703539  1
  O  O41  1  0.15204694  0.01936078  0.44564297  1
  O  O42  1  0.98464203  0.21343363  0.95030578  1
  O  O43  1  0.26348293  0.98946924  0.87986608  1
  O  O44  1  0.43449152  0.03122194  0.37780614  1
  O  O45  1  0.69610596  0.09936801  0.87910495  1
  O  O46  1  0.54045548  0.32155832  0.45212891  1
  O  O47  1  0.00103615  0.71534536  0.17296461  1
  O  O48  1  0.37788693  0.66949522  0.67072843  1
  O  O49  1  0.14842207  0.28578825  0.54969661  1
  O  O50  1  0.28175199  0.17058757  0.17090344  1
  O  O51  1  0.84401595  0.46877525  0.12225076  1
  O  O52  1  0.67459742  0.39982853  0.62081200  1
  O  O53  1  0.68597491  0.82187519  0.95203981  1
  O  O54  1  0.15598405  0.53122475  0.87774924  1
  O  O55  1  0.82681495  0.94590920  0.67736405  1
  O  O56  1  0.85157793  0.71421175  0.45030339  1
  O  O57  1  0.32540258  0.60017147  0.37918800  1
  O  O58  1  0.13211874  0.51119988  0.62008094  1
  O  O59  1  0.11104604  0.21601686  0.67304033  1
  F  F60  1  0.75625772  0.59120930  0.72606926  1
  F  F61  1  0.24374228  0.40879070  0.27393074  1
  F  F62  1  0.92517163  0.09194372  0.22610284  1
  F  F63  1  0.07482837  0.90805628  0.77389716  1
  F  F64  1  0.41501422  0.24919526  0.74992765  1
  F  F65  1  0.58498578  0.75080474  0.25007235  1
