# generated using pymatgen
data_Ba3B(PO4)3
_symmetry_space_group_name_H-M   'P 1'
_cell_length_a   7.19498844
_cell_length_b   13.90258458
_cell_length_c   13.90258458
_cell_angle_alpha   62.76106309
_cell_angle_beta   75.00324026
_cell_angle_gamma   75.00324025
_symmetry_Int_Tables_number   1
_chemical_formula_structural   Ba3B(PO4)3
_chemical_formula_sum   'Ba12 B4 P12 O48'
_cell_volume   1178.28049947
_cell_formula_units_Z   4
loop_
 _symmetry_equiv_pos_site_id
 _symmetry_equiv_pos_as_xyz
  1  'x, y, z'
loop_
 _atom_site_type_symbol
 _atom_site_label
 _atom_site_symmetry_multiplicity
 _atom_site_fract_x
 _atom_site_fract_y
 _atom_site_fract_z
 _atom_site_occupancy
  B  B0  1  0.08283880  0.66716120  0.66716120  1
  B  B1  1  0.91716120  0.33283880  0.33283880  1
  B  B2  1  0.58283880  0.16716120  0.16716120  1
  B  B3  1  0.41716120  0.83283880  0.83283880  1
  O  O4  1  0.60705475  0.57057871  0.17351610  1
  O  O5  1  0.64885045  0.07057871  0.67351610  1
  O  O6  1  0.10705475  0.67351610  0.07057871  1
  O  O7  1  0.85114955  0.82648390  0.42942129  1
  O  O8  1  0.88134005  0.45232270  0.28228316  1
  O  O9  1  0.61594590  0.04767730  0.21771684  1
  O  O10  1  0.61865995  0.21771684  0.04767730  1
  O  O11  1  0.88405410  0.28228316  0.45232270  1
  O  O12  1  0.11865995  0.54767730  0.71771684  1
  O  O13  1  0.38405410  0.95232270  0.78228316  1
  O  O14  1  0.38134005  0.78228316  0.95232270  1
  O  O15  1  0.11594590  0.71771684  0.54767730  1
  O  O16  1  0.37533805  0.20560254  0.20267407  1
  O  O17  1  0.78361466  0.29439746  0.29732593  1
  O  O18  1  0.65481315  0.86804104  0.21292237  1
  O  O19  1  0.71638534  0.20267407  0.20560254  1
  O  O20  1  0.62466195  0.79439746  0.79732593  1
  O  O21  1  0.21638534  0.70560254  0.70267407  1
  O  O22  1  0.87533805  0.70267407  0.70560254  1
  O  O23  1  0.28361466  0.79732593  0.79439746  1
  O  O24  1  0.14885045  0.17351610  0.57057871  1
  O  O25  1  0.39294525  0.42942129  0.82648390  1
  O  O26  1  0.89294525  0.32648390  0.92942129  1
  O  O27  1  0.35114955  0.92942129  0.32648390  1
  O  O28  1  0.11549131  0.38084425  0.47937876  1
  O  O29  1  0.97571433  0.11915575  0.02062124  1
  O  O30  1  0.38450869  0.02062124  0.11915575  1
  O  O31  1  0.52428567  0.47937876  0.38084425  1
  O  O32  1  0.88450869  0.61915575  0.52062124  1
  O  O33  1  0.02428567  0.88084425  0.97937876  1
  O  O34  1  0.61549131  0.97937876  0.88084425  1
  O  O35  1  0.47571433  0.52062124  0.61915575  1
  O  O36  1  0.37247693  0.41221532  0.14417314  1
  O  O37  1  0.92886538  0.08778468  0.35582686  1
  O  O38  1  0.12752307  0.35582686  0.08778468  1
  O  O39  1  0.57113462  0.14417314  0.41221532  1
  O  O40  1  0.62752307  0.58778468  0.85582686  1
  O  O41  1  0.07113462  0.91221532  0.64417314  1
  O  O42  1  0.87247693  0.64417314  0.91221532  1
  O  O43  1  0.42886538  0.85582686  0.58778468  1
  O  O44  1  0.23577655  0.78707763  0.13195896  1
  O  O45  1  0.15481315  0.71292237  0.36804104  1
  O  O46  1  0.26422345  0.36804104  0.71292237  1
  O  O47  1  0.34518685  0.13195896  0.78707763  1
  O  O48  1  0.76422345  0.21292237  0.86804104  1
  O  O49  1  0.84518685  0.28707763  0.63195896  1
  O  O50  1  0.73577655  0.63195896  0.28707763  1
  O  O51  1  0.12466195  0.29732593  0.29439746  1
  P  P52  1  0.32379038  0.46471874  0.71670891  1
  P  P53  1  0.50521804  0.03528126  0.78329109  1
  P  P54  1  0.17620962  0.78329109  0.03528126  1
  P  P55  1  0.99478196  0.71670891  0.46471874  1
  P  P56  1  0.67620962  0.53528126  0.28329109  1
  P  P57  1  0.49478196  0.96471874  0.21670891  1
  P  P58  1  0.82379038  0.21670891  0.96471874  1
  P  P59  1  0.00521804  0.28329109  0.53528126  1
  P  P60  1  0.25000000  0.82426979  0.67573021  1
  P  P61  1  0.75000000  0.67573021  0.82426979  1
  P  P62  1  0.75000000  0.17573021  0.32426979  1
  P  P63  1  0.25000000  0.32426979  0.17573021  1
  Ba  Ba64  1  0.25000000  0.06931177  0.43068823  1
  Ba  Ba65  1  0.75000000  0.43068823  0.06931177  1
  Ba  Ba66  1  0.75000000  0.93068823  0.56931177  1
  Ba  Ba67  1  0.25000000  0.56931177  0.93068823  1
  Ba  Ba68  1  0.52534805  0.71107842  0.43702052  1
  Ba  Ba69  1  0.67344700  0.78892158  0.06297948  1
  Ba  Ba70  1  0.97465195  0.06297948  0.78892158  1
  Ba  Ba71  1  0.82655300  0.43702052  0.71107842  1
  Ba  Ba72  1  0.47465195  0.28892158  0.56297948  1
  Ba  Ba73  1  0.32655300  0.21107842  0.93702052  1
  Ba  Ba74  1  0.02534805  0.93702052  0.21107842  1
  Ba  Ba75  1  0.17344700  0.56297948  0.28892158  1
