# generated using pymatgen
data_RhSCl5
_symmetry_space_group_name_H-M   'P 1'
_cell_length_a   6.97717456
_cell_length_b   13.90870306
_cell_length_c   24.29278488
_cell_angle_alpha   87.67656124
_cell_angle_beta   81.59873610
_cell_angle_gamma   75.44033079
_symmetry_Int_Tables_number   1
_chemical_formula_structural   RhSCl5
_chemical_formula_sum   'Rh12 S12 Cl60'
_cell_volume   2257.24607780
_cell_formula_units_Z   12
loop_
 _symmetry_equiv_pos_site_id
 _symmetry_equiv_pos_as_xyz
  1  'x, y, z'
loop_
 _atom_site_type_symbol
 _atom_site_label
 _atom_site_symmetry_multiplicity
 _atom_site_fract_x
 _atom_site_fract_y
 _atom_site_fract_z
 _atom_site_occupancy
  Rh  Rh0  1  0.15654741  0.71812379  0.06222391  1
  Rh  Rh1  1  0.93590293  0.79315647  0.58383298  1
  Rh  Rh2  1  0.68425924  0.29354977  0.08420398  1
  Rh  Rh3  1  0.35824282  0.51171761  0.14781936  1
  Rh  Rh4  1  0.06007736  0.20538308  0.41512501  1
  Rh  Rh5  1  0.93376796  0.78183561  0.43753473  1
  Rh  Rh6  1  0.84505399  0.28233310  0.93796915  1
  Rh  Rh7  1  0.31598901  0.70564964  0.91516956  1
  Rh  Rh8  1  0.01469077  0.98894576  0.35187536  1
  Rh  Rh9  1  0.98282434  0.00959929  0.64749875  1
  Rh  Rh10  1  0.06509096  0.21810090  0.56196440  1
  Rh  Rh11  1  0.63935653  0.48838162  0.85256042  1
  S  S12  1  0.70314631  0.12970916  0.08674406  1
  S  S13  1  0.08120135  0.62938473  0.58557527  1
  S  S14  1  0.45553250  0.51424464  0.78164637  1
  S  S15  1  0.91918039  0.36977149  0.41297666  1
  S  S16  1  0.29726267  0.86957488  0.91254463  1
  S  S17  1  0.86270126  0.74443581  0.11839032  1
  S  S18  1  0.54760785  0.48544845  0.21754844  1
  S  S19  1  0.13799100  0.25686894  0.88095488  1
  S  S20  1  0.24818010  0.01259269  0.28128608  1
  S  S21  1  0.74987288  0.98711655  0.71821316  1
  S  S22  1  0.27739679  0.24299559  0.61828718  1
  S  S23  1  0.72194434  0.75739315  0.38132820  1
  Cl  Cl24  1  0.78166508  0.95759509  0.43225252  1
  Cl  Cl25  1  0.55785578  0.89301959  0.93152660  1
  Cl  Cl26  1  0.68059637  0.08453008  0.16750771  1
  Cl  Cl27  1  0.38390963  0.60796840  0.56635132  1
  Cl  Cl28  1  0.84935942  0.18290202  0.49837195  1
  Cl  Cl29  1  0.61372074  0.39150685  0.43107466  1
  Cl  Cl30  1  0.13930822  0.71184423  0.84000572  1
  Cl  Cl31  1  0.93902728  0.41544109  0.33197756  1
  Cl  Cl32  1  0.47233715  0.68187375  0.99807267  1
  Cl  Cl33  1  0.65183200  0.84525857  0.08242154  1
  Cl  Cl34  1  0.57662980  0.65536915  0.41749517  1
  Cl  Cl35  1  0.85339763  0.15969013  0.35793874  1
  Cl  Cl36  1  0.62758713  0.65956708  0.85798411  1
  Cl  Cl37  1  0.16198987  0.81526679  0.36079299  1
  Cl  Cl38  1  0.82492424  0.45780454  0.93231348  1
  Cl  Cl39  1  0.45191488  0.61222543  0.26520400  1
  Cl  Cl40  1  0.11632570  0.32026886  0.68666646  1
  Cl  Cl41  1  0.85032744  0.11289437  0.94302089  1
  Cl  Cl42  1  0.99032517  0.26527959  0.02128516  1
  Cl  Cl43  1  0.68893679  0.78523224  0.65972585  1
  Cl  Cl44  1  0.21635779  0.04182978  0.56700038  1
  Cl  Cl45  1  0.67743004  0.11229238  0.76615479  1
  Cl  Cl46  1  0.43897243  0.10922577  0.06722426  1
  Cl  Cl47  1  0.06463330  0.58391420  0.66625852  1
  Cl  Cl48  1  0.11055606  0.11113727  0.22590402  1
  Cl  Cl49  1  0.83867221  0.18370770  0.63850984  1
  Cl  Cl50  1  0.65838757  0.31553929  0.86153535  1
  Cl  Cl51  1  0.42160430  0.34499355  0.58237070  1
  Cl  Cl52  1  0.86476306  0.28495048  0.16020495  1
  Cl  Cl53  1  0.14217683  0.83843531  0.64234594  1
  Cl  Cl54  1  0.32992069  0.88582678  0.23435739  1
  Cl  Cl55  1  0.33116132  0.52740762  0.91590930  1
  Cl  Cl56  1  0.90587536  0.38700223  0.55778294  1
  Cl  Cl57  1  0.79760164  0.95633790  0.29449088  1
  Cl  Cl58  1  0.72325031  0.76424232  0.52127522  1
  Cl  Cl59  1  0.15530949  0.88805701  0.05718007  1
  Cl  Cl60  1  0.34169758  0.68392254  0.13821533  1
  Cl  Cl61  1  0.12598397  0.17959109  0.81308775  1
  Cl  Cl62  1  0.45803825  0.38595253  0.27246610  1
  Cl  Cl63  1  0.22206358  0.02721417  0.41539567  1
  Cl  Cl64  1  0.31814953  0.91249055  0.83128401  1
  Cl  Cl65  1  0.53005492  0.31860906  0.00214410  1
  Cl  Cl66  1  0.54431707  0.61428251  0.72734550  1
  Cl  Cl67  1  0.30653394  0.21161608  0.33825297  1
  Cl  Cl68  1  0.17264271  0.54354499  0.06777246  1
  Cl  Cl69  1  0.66898481  0.47178161  0.08402050  1
  Cl  Cl70  1  0.05367977  0.54251132  0.20618836  1
  Cl  Cl71  1  0.27645302  0.23522363  0.47761749  1
  Cl  Cl72  1  0.14961330  0.81811527  0.50120818  1
  Cl  Cl73  1  0.09535282  0.61279351  0.44135523  1
  Cl  Cl74  1  0.87482778  0.81996296  0.18682797  1
  Cl  Cl75  1  0.34766377  0.15522318  0.91776208  1
  Cl  Cl76  1  0.77424398  0.97187393  0.58463144  1
  Cl  Cl77  1  0.55229151  0.38828437  0.73363306  1
  Cl  Cl78  1  0.88129851  0.68020399  0.31304727  1
  Cl  Cl79  1  0.20362932  0.04018947  0.70474641  1
  Cl  Cl80  1  0.88252536  0.88490707  0.77300789  1
  Cl  Cl81  1  0.37432228  0.33919200  0.14256114  1
  Cl  Cl82  1  0.94989358  0.45659770  0.79481273  1
  Cl  Cl83  1  0.01021415  0.73749333  0.97851090  1
