# generated using pymatgen
data_KUVO6
_symmetry_space_group_name_H-M   'P 1'
_cell_length_a   7.08498816
_cell_length_b   8.52681246
_cell_length_c   10.72042276
_cell_angle_alpha   90.00000000
_cell_angle_beta   89.99279465
_cell_angle_gamma   90.00000000
_symmetry_Int_Tables_number   1
_chemical_formula_structural   KUVO6
_chemical_formula_sum   'K4 U4 V4 O24'
_cell_volume   647.64609174
_cell_formula_units_Z   4
loop_
 _symmetry_equiv_pos_site_id
 _symmetry_equiv_pos_as_xyz
  1  'x, y, z'
loop_
 _atom_site_type_symbol
 _atom_site_label
 _atom_site_symmetry_multiplicity
 _atom_site_fract_x
 _atom_site_fract_y
 _atom_site_fract_z
 _atom_site_occupancy
  K  K0  1  0.47857685  0.75592176  0.70836986  1
  K  K1  1  0.47857685  0.74407824  0.20836986  1
  K  K2  1  0.52142315  0.24407824  0.29163014  1
  K  K3  1  0.52142315  0.25592176  0.79163014  1
  U  U4  1  0.00067206  0.48620910  0.68064287  1
  U  U5  1  0.00067206  0.01379090  0.18064287  1
  U  U6  1  0.99932794  0.51379090  0.31935713  1
  U  U7  1  0.99932794  0.98620910  0.81935713  1
  V  V8  1  0.90514302  0.35126377  0.04165654  1
  V  V9  1  0.09485698  0.64873623  0.95834346  1
  V  V10  1  0.09485698  0.85126377  0.45834346  1
  V  V11  1  0.90514302  0.14873623  0.54165654  1
  O  O12  1  0.95112973  0.28442127  0.20542486  1
  O  O13  1  0.32596322  0.86012266  0.47036803  1
  O  O14  1  0.04887027  0.78442127  0.29457514  1
  O  O15  1  0.00416460  0.05159296  0.39485985  1
  O  O16  1  0.25795662  0.01145160  0.81542310  1
  O  O17  1  0.99583540  0.94840704  0.60514015  1
  O  O18  1  0.32596322  0.63987734  0.97036803  1
  O  O19  1  0.00416460  0.44840704  0.89485985  1
  O  O20  1  0.95112973  0.21557873  0.70542486  1
  O  O21  1  0.02187136  0.84288397  0.01066311  1
  O  O22  1  0.25864660  0.03670513  0.18130365  1
  O  O23  1  0.25795662  0.48854840  0.31542310  1
  O  O24  1  0.74204338  0.51145160  0.68457690  1
  O  O25  1  0.99583540  0.55159296  0.10514015  1
  O  O26  1  0.67403678  0.36012266  0.02963197  1
  O  O27  1  0.97812864  0.34288397  0.48933689  1
  O  O28  1  0.97812864  0.15711603  0.98933689  1
  O  O29  1  0.25864660  0.46329487  0.68130365  1
  O  O30  1  0.67403678  0.13987734  0.52963197  1
  O  O31  1  0.74204338  0.98854840  0.18457690  1
  O  O32  1  0.74135340  0.53670513  0.31869635  1
  O  O33  1  0.74135340  0.96329487  0.81869635  1
  O  O34  1  0.04887027  0.71557873  0.79457514  1
  O  O35  1  0.02187136  0.65711603  0.51066311  1
