# generated using pymatgen
data_K4Nb2Si8O23
_symmetry_space_group_name_H-M   'P 1'
_cell_length_a   7.84626175
_cell_length_b   11.09070286
_cell_length_c   32.77515098
_cell_angle_alpha   92.99628021
_cell_angle_beta   94.77158541
_cell_angle_gamma   103.64279900
_symmetry_Int_Tables_number   1
_chemical_formula_structural   K4Nb2Si8O23
_chemical_formula_sum   'K20 Nb10 Si40 O115'
_cell_volume   2754.41266423
_cell_formula_units_Z   5
loop_
 _symmetry_equiv_pos_site_id
 _symmetry_equiv_pos_as_xyz
  1  'x, y, z'
loop_
 _atom_site_type_symbol
 _atom_site_label
 _atom_site_symmetry_multiplicity
 _atom_site_fract_x
 _atom_site_fract_y
 _atom_site_fract_z
 _atom_site_occupancy
  K  K0  1  0.02435874  0.14434468  0.26313918  1
  K  K1  1  0.61873284  0.13425937  0.66515803  1
  K  K2  1  0.17335376  0.47597522  0.05727806  1
  K  K3  1  0.24408094  0.14142496  0.06618160  1
  K  K4  1  0.24441827  0.52743102  0.54436085  1
  K  K5  1  0.84299909  0.14686200  0.46629550  1
  K  K6  1  0.00188808  0.49331373  0.25511492  1
  K  K7  1  0.63948801  0.52699417  0.14507236  1
  K  K8  1  0.99811192  0.50668627  0.74488508  1
  K  K9  1  0.39826606  0.51336953  0.34573135  1
  K  K10  1  0.82664624  0.52402478  0.94272194  1
  K  K11  1  0.38126716  0.86574063  0.33484197  1
  K  K12  1  0.75591906  0.85857504  0.93381840  1
  K  K13  1  0.15700091  0.85313800  0.53370450  1
  K  K14  1  0.75558173  0.47256898  0.45563915  1
  K  K15  1  0.43387685  0.14460170  0.86552182  1
  K  K16  1  0.60173394  0.48663047  0.65426865  1
  K  K17  1  0.97564126  0.85565532  0.73686082  1
  K  K18  1  0.56612315  0.85539830  0.13447818  1
  K  K19  1  0.36051199  0.47300583  0.85492764  1
  Nb  Nb20  1  0.50015737  0.70586457  0.24593912  1
  Nb  Nb21  1  0.90023795  0.29474166  0.35479482  1
  Nb  Nb22  1  0.86704099  0.67642236  0.84189826  1
  Nb  Nb23  1  0.13295901  0.32357764  0.15810174  1
  Nb  Nb24  1  0.67817953  0.68860693  0.04167352  1
  Nb  Nb25  1  0.32182047  0.31139307  0.95832648  1
  Nb  Nb26  1  0.73369722  0.32682770  0.55790436  1
  Nb  Nb27  1  0.09976205  0.70525834  0.64520518  1
  Nb  Nb28  1  0.49984263  0.29413543  0.75406088  1
  Nb  Nb29  1  0.26630278  0.67317230  0.44209564  1
  Si  Si30  1  0.07959690  0.80193614  0.09682968  1
  Si  Si31  1  0.15135730  0.00561496  0.16836424  1
  Si  Si32  1  0.10121608  0.22120664  0.69810907  1
  Si  Si33  1  0.84232161  0.35932121  0.83513640  1
  Si  Si34  1  0.92040310  0.19806386  0.90317032  1
  Si  Si35  1  0.90550741  0.20197239  0.99442290  1
  Si  Si36  1  0.48172016  0.19326665  0.38936390  1
  Si  Si37  1  0.08006906  0.20424159  0.78884905  1
  Si  Si38  1  0.32798894  0.62283162  0.96651302  1
  Si  Si39  1  0.24615982  0.99259454  0.43378153  1
  Si  Si40  1  0.67166489  0.79390592  0.49615848  1
  Si  Si41  1  0.89878392  0.77879336  0.30189093  1
  Si  Si42  1  0.50113177  0.78283582  0.70142707  1
  Si  Si43  1  0.31319703  0.22004168  0.59509830  1
  Si  Si44  1  0.52668536  0.60097610  0.76317033  1
  Si  Si45  1  0.91993094  0.79575841  0.21115095  1
  Si  Si46  1  0.47331464  0.39902390  0.23682967  1
  Si  Si47  1  0.93141416  0.98732838  0.36779707  1
  Si  Si48  1  0.06858584  0.01267162  0.63220293  1
  Si  Si49  1  0.47456056  0.01428106  0.23028136  1
  Si  Si50  1  0.27275683  0.77830217  0.89652123  1
  Si  Si51  1  0.75022663  0.64133249  0.56623234  1
  Si  Si52  1  0.49886823  0.21716418  0.29857293  1
  Si  Si53  1  0.91917437  0.60147029  0.36550746  1
  Si  Si54  1  0.15767839  0.64067879  0.16486360  1
  Si  Si55  1  0.84864270  0.99438504  0.83163576  1
  Si  Si56  1  0.24977337  0.35866751  0.43376766  1
  Si  Si57  1  0.08082563  0.39852971  0.63449254  1
  Si  Si58  1  0.67201106  0.37716838  0.03348698  1
  Si  Si59  1  0.75384018  0.00740546  0.56621847  1
  Si  Si60  1  0.32833511  0.20609408  0.50384152  1
  Si  Si61  1  0.52543944  0.98571894  0.76971864  1
  Si  Si62  1  0.29077052  0.77114173  0.80539760  1
  Si  Si63  1  0.51827984  0.80673335  0.61063610  1
  Si  Si64  1  0.70922948  0.22885827  0.19460240  1
  Si  Si65  1  0.65887922  0.00425771  0.03573719  1
  Si  Si66  1  0.68680297  0.77995832  0.40490170  1
  Si  Si67  1  0.09449259  0.79802761  0.00557710  1
  Si  Si68  1  0.72724317  0.22169783  0.10347877  1
  Si  Si69  1  0.34112078  0.99574229  0.96426281  1
  O  O70  1  0.05546782  0.32191560  0.40861164  1
  O  O71  1  0.23841816  0.84992487  0.44009244  1
  O  O72  1  0.40265104  0.18043241  0.34036965  1
  O  O73  1  0.06807820  0.36000097  0.32225215  1
  O  O74  1  0.66358542  0.09479007  0.21672429  1
  O  O75  1  0.29065501  0.76062941  0.69382096  1
  O  O76  1  0.51071253  0.62651414  0.07470624  1
  O  O77  1  0.26115614  0.09078001  0.61961563  1
  O  O78  1  0.40100616  0.67802781  0.78557252  1
  O  O79  1  0.76449234  0.81684911  0.45342680  1
  O  O80  1  0.11654578  0.62779039  0.38861465  1
  O  O81  1  0.12726182  0.26503735  0.90994123  1
  O  O82  1  0.32878530  0.66011401  0.91808806  1
  O  O83  1  0.36957021  0.79831062  0.85413442  1
  O  O84  1  0.70934499  0.23937059  0.30617904  1
  O  O85  1  0.28991223  0.24157332  0.79701991  1
  O  O86  1  0.76158184  0.15007513  0.55990756  1
  O  O87  1  0.88147554  0.05900215  0.87881667  1
  O  O88  1  0.28077484  0.37973890  0.21175500  1
  O  O89  1  0.20720368  0.32208103  0.61158227  1
  O  O90  1  0.22809402  0.29982696  0.47918161  1
  O  O91  1  0.81847598  0.45562150  0.36394420  1
  O  O92  1  0.69023922  0.76642472  0.29424147  1
  O  O93  1  0.94012440  0.65015971  0.31874286  1
  O  O94  1  0.55680710  0.65732796  0.71748679  1
  O  O95  1  0.32826081  0.64988672  0.27854038  1
  O  O96  1  0.99559038  0.93620260  0.19558163  1
  O  O97  1  0.40186567  0.10176113  0.26392906  1
  O  O98  1  0.08323208  0.71269922  0.79952165  1
  O  O99  1  0.74962765  0.52478137  0.03024975  1
  O  O100  1  0.33836440  0.50675289  0.43896630  1
  O  O101  1  0.46156677  0.73685879  0.48996085  1
  O  O102  1  0.33992351  0.13074649  0.94957581  1
  O  O103  1  0.62814694  0.09290920  0.07506057  1
  O  O104  1  0.99649796  0.10372566  0.66496646  1
  O  O105  1  0.63042979  0.20168938  0.14586558  1
  O  O106  1  0.89945301  0.37444377  0.52320585  1
  O  O107  1  0.37185306  0.90709080  0.92493943  1
  O  O108  1  0.79279632  0.67791897  0.38841773  1
  O  O109  1  0.82650983  0.16923174  0.94570463  1
  O  O110  1  0.33641458  0.90520993  0.78327571  1
  O  O111  1  0.81267198  0.30879845  0.01272220  1
  O  O112  1  0.58041691  0.54370884  0.24095057  1
  O  O113  1  0.41958309  0.45629116  0.75904943  1
  O  O114  1  0.67173919  0.35011328  0.72145962  1
  O  O115  1  0.30816912  0.76879037  0.60328837  1
  O  O116  1  0.93737658  0.98559455  0.58915388  1
  O  O117  1  0.17349017  0.83076826  0.05429537  1
  O  O118  1  0.05987560  0.34984029  0.68125714  1
  O  O119  1  0.71008777  0.75842668  0.20298009  1
  O  O120  1  0.65980549  0.01698684  0.81221949  1
  O  O121  1  0.92333590  0.11436210  0.34754461  1
  O  O122  1  0.07353226  0.49346708  0.15411674  1
  O  O123  1  0.51185286  0.11248568  0.75022011  1
  O  O124  1  0.67121470  0.33988599  0.08191194  1
  O  O125  1  0.40773164  0.05440314  0.40669437  1
  O  O126  1  0.34801291  0.67190716  0.19166652  1
  O  O127  1  0.25037235  0.47521863  0.96975025  1
  O  O128  1  0.69183088  0.23120963  0.39671163  1
  O  O129  1  0.00440962  0.06379740  0.80441837  1
  O  O130  1  0.59899384  0.32197219  0.21442748  1
  O  O131  1  0.30196395  0.35668452  0.12339747  1
  O  O132  1  0.81044551  0.28492340  0.87777696  1
  O  O133  1  0.66163560  0.49324711  0.56103370  1
  O  O134  1  0.88345422  0.37220961  0.61138535  1
  O  O135  1  0.94453218  0.67808440  0.59138836  1
  O  O136  1  0.27352861  0.06656791  0.47951601  1
  O  O137  1  0.71922516  0.62026110  0.78824500  1
  O  O138  1  0.77190598  0.70017304  0.52081839  1
  O  O139  1  0.88502142  0.75170839  0.99964933  1
  O  O140  1  0.18732802  0.69120155  0.98727780  1
  O  O141  1  0.87273818  0.73496265  0.09005877  1
  O  O142  1  0.07666410  0.88563790  0.65245539  1
  O  O143  1  0.00737163  0.69320768  0.18784651  1
  O  O144  1  0.66007649  0.86925351  0.05042419  1
  O  O145  1  0.44319290  0.34267204  0.28251321  1
  O  O146  1  0.00284788  0.19610288  0.74011272  1
  O  O147  1  0.92646774  0.50653292  0.84588326  1
  O  O148  1  0.59734896  0.81956759  0.65963035  1
  O  O149  1  0.99715212  0.80389712  0.25988728  1
  O  O150  1  0.34019451  0.98301316  0.18778051  1
  O  O151  1  0.91676792  0.28730078  0.20047835  1
  O  O152  1  0.11852446  0.94099785  0.12118333  1
  O  O153  1  0.52182218  0.27384536  0.60071259  1
  O  O154  1  0.72647139  0.93343209  0.52048399  1
  O  O155  1  0.52805872  0.67214470  0.98792622  1
  O  O156  1  0.48928747  0.37348586  0.92529376  1
  O  O157  1  0.84740983  0.85100977  0.83221626  1
  O  O158  1  0.18955449  0.71507660  0.12222304  1
  O  O159  1  0.59813433  0.89823887  0.73607094  1
  O  O160  1  0.00350204  0.89627434  0.33503354  1
  O  O161  1  0.60545999  0.70339578  0.58795844  1
  O  O162  1  0.15259017  0.14899023  0.16778374  1
  O  O163  1  0.47194128  0.32785530  0.01207378  1
  O  O164  1  0.06114352  0.75250340  0.88904497  1
  O  O165  1  0.23550766  0.18315089  0.54657320  1
  O  O166  1  0.06262342  0.01440545  0.41084612  1
  O  O167  1  0.48814714  0.88751432  0.24977989  1
  O  O168  1  0.69803605  0.64331548  0.87660253  1
  O  O169  1  0.30976078  0.23357528  0.70575853  1
  O  O170  1  0.39454001  0.29660422  0.41204156  1
  O  O171  1  0.59226836  0.94559686  0.59330563  1
  O  O172  1  0.84466960  0.07229732  0.01790629  1
  O  O173  1  0.10054699  0.62555623  0.47679415  1
  O  O174  1  0.15533040  0.92770268  0.98209371  1
  O  O175  1  0.73884386  0.90921999  0.38038437  1
  O  O176  1  0.50000000  0.00000000  0.00000000  1
  O  O177  1  0.65198709  0.32809284  0.80833348  1
  O  O178  1  0.53843323  0.26314121  0.51003915  1
  O  O179  1  0.99262837  0.30679232  0.81215349  1
  O  O180  1  0.93192180  0.63999903  0.67774785  1
  O  O181  1  0.11497858  0.24829161  0.00035067  1
  O  O182  1  0.18152402  0.54437850  0.63605580  1
  O  O183  1  0.47817782  0.72615464  0.39928741  1
  O  O184  1  0.93885648  0.24749660  0.11095503  1
