# generated using pymatgen
data_Ca4Mg3H14
_symmetry_space_group_name_H-M   'P 1'
_cell_length_a   6.23951381
_cell_length_b   6.23951381
_cell_length_c   6.86027516
_cell_angle_alpha   90.00000000
_cell_angle_beta   90.00000000
_cell_angle_gamma   119.99972981
_symmetry_Int_Tables_number   1
_chemical_formula_structural   Ca4Mg3H14
_chemical_formula_sum   'Ca4 Mg3 H14'
_cell_volume   231.29958291
_cell_formula_units_Z   1
loop_
 _symmetry_equiv_pos_site_id
 _symmetry_equiv_pos_as_xyz
  1  'x, y, z'
loop_
 _atom_site_type_symbol
 _atom_site_label
 _atom_site_symmetry_multiplicity
 _atom_site_fract_x
 _atom_site_fract_y
 _atom_site_fract_z
 _atom_site_occupancy
  Ca  Ca0  1  0.00000973  0.00000973  0.73505327  1
  Ca  Ca1  1  0.00000973  0.00000973  0.26494673  1
  Ca  Ca2  1  0.66668394  0.33334284  0.50000000  1
  Ca  Ca3  1  0.33334284  0.66668394  0.50000000  1
  Mg  Mg4  1  0.44634571  0.44634571  0.00000000  1
  Mg  Mg5  1  0.55368199  0.00002331  0.00000000  1
  Mg  Mg6  1  0.00002331  0.55368199  0.00000000  1
  H  H7  1  0.38873584  0.38873584  0.72365754  1
  H  H8  1  0.61127948  0.00000797  0.72366184  1
  H  H9  1  0.00000797  0.61127948  0.72366184  1
  H  H10  1  0.38873584  0.38873584  0.27634246  1
  H  H11  1  0.61127948  0.00000797  0.27633816  1
  H  H12  1  0.00000797  0.61127948  0.27633816  1
  H  H13  1  0.73725072  0.73725072  0.50000000  1
  H  H14  1  0.26276206  0.00000137  0.50000000  1
  H  H15  1  0.00000137  0.26276206  0.50000000  1
  H  H16  1  0.77067280  0.77067280  0.00000000  1
  H  H17  1  0.22934433  0.00000617  0.00000000  1
  H  H18  1  0.00000617  0.22934433  0.00000000  1
  H  H19  1  0.66667866  0.33334004  0.00000000  1
  H  H20  1  0.33334004  0.66667866  0.00000000  1
