# generated using pymatgen
data_Cu3Pd
_symmetry_space_group_name_H-M   'P 1'
_cell_length_a   3.72125418
_cell_length_b   3.72123967
_cell_length_c   25.86954388
_cell_angle_alpha   90.00046070
_cell_angle_beta   89.99997831
_cell_angle_gamma   90.00022849
_symmetry_Int_Tables_number   1
_chemical_formula_structural   Cu3Pd
_chemical_formula_sum   'Cu21 Pd7'
_cell_volume   358.23313116
_cell_formula_units_Z   7
loop_
 _symmetry_equiv_pos_site_id
 _symmetry_equiv_pos_as_xyz
  1  'x, y, z'
loop_
 _atom_site_type_symbol
 _atom_site_label
 _atom_site_symmetry_multiplicity
 _atom_site_fract_x
 _atom_site_fract_y
 _atom_site_fract_z
 _atom_site_occupancy
  Cu  Cu0  1  0.49999491  0.50000392  0.99860499  1
  Cu  Cu1  1  0.49999442  0.49999665  0.28568976  1
  Cu  Cu2  1  0.00001367  0.49999712  0.63904490  1
  Cu  Cu3  1  -0.00000037  0.50000814  0.92616299  1
  Cu  Cu4  1  0.49999905  0.99999580  0.63904423  1
  Cu  Cu5  1  0.99999929  0.00000718  0.56840118  1
  Cu  Cu6  1  0.49999959  0.00000562  0.92616434  1
  Cu  Cu7  1  0.50000092  0.00000911  0.78162067  1
  Cu  Cu8  1  -0.00000442  0.50000553  0.35700552  1
  Cu  Cu9  1  0.50000540  -0.00000399  0.21422451  1
  Cu  Cu10  1  0.99999580  0.50000744  0.49827749  1
  Cu  Cu11  1  0.50000191  0.00000234  0.07059362  1
  Cu  Cu12  1  0.99999433  0.49999177  0.07059481  1
  Cu  Cu13  1  0.00000404  0.00000129  0.70966113  1
  Cu  Cu14  1  0.50000186  0.00000133  0.35700578  1
  Cu  Cu15  1  0.99999665  0.49999505  0.21422539  1
  Cu  Cu16  1  0.50000061  0.49999250  0.14280192  1
  Cu  Cu17  1  0.00000324  0.99999256  0.85385484  1
  Cu  Cu18  1  0.50001055  0.99999330  0.49827932  1
  Cu  Cu19  1  0.00000006  0.50000374  0.78161765  1
  Cu  Cu20  1  0.50000016  0.50000099  0.42801428  1
  Pd  Pd21  1  -0.00000254  0.00000641  0.42786548  1
  Pd  Pd22  1  0.00000786  -0.00000257  0.14234520  1
  Pd  Pd23  1  0.49999865  0.49999773  0.71011743  1
  Pd  Pd24  1  0.50000374  0.49999501  0.85390190  1
  Pd  Pd25  1  0.49998967  0.49999396  0.56835660  1
  Pd  Pd26  1  0.99999269  0.00000187  0.99833489  1
  Pd  Pd27  1  -0.00000175  0.00000022  0.28588918  1
