# generated using pymatgen
data_NaLaS2
_symmetry_space_group_name_H-M   'P 1'
_cell_length_a   8.20240176
_cell_length_b   11.03330434
_cell_length_c   7.37932210
_cell_angle_alpha   28.90668449
_cell_angle_beta   56.23627786
_cell_angle_gamma   41.97624888
_symmetry_Int_Tables_number   1
_chemical_formula_structural   NaLaS2
_chemical_formula_sum   'Na2 La2 S4'
_cell_volume   206.36944749
_cell_formula_units_Z   2
loop_
 _symmetry_equiv_pos_site_id
 _symmetry_equiv_pos_as_xyz
  1  'x, y, z'
loop_
 _atom_site_type_symbol
 _atom_site_label
 _atom_site_symmetry_multiplicity
 _atom_site_fract_x
 _atom_site_fract_y
 _atom_site_fract_z
 _atom_site_occupancy
  Na  Na0  1  0.00000000  0.00000000  -0.00000000  1
  Na  Na1  1  0.75000000  0.50000000  -0.00000000  1
  La  La2  1  0.25000000  0.50000000  -0.00000000  1
  La  La3  1  0.50000000  -0.00000000  -0.00000000  1
  S  S4  1  0.01501225  0.50000000  0.46997549  1
  S  S5  1  0.48498775  0.50000000  0.53002451  1
  S  S6  1  0.26501225  1.00000000  0.46997549  1
  S  S7  1  0.73498775  0.00000000  0.53002451  1
