# generated using pymatgen
data_H10PbC6S2IN
_symmetry_space_group_name_H-M   'P 1'
_cell_length_a   4.99974296
_cell_length_b   11.94546814
_cell_length_c   12.20879950
_cell_angle_alpha   112.34707465
_cell_angle_beta   95.16904885
_cell_angle_gamma   100.39153482
_symmetry_Int_Tables_number   1
_chemical_formula_structural   H10PbC6S2IN
_chemical_formula_sum   'H20 Pb2 C12 S4 I2 N2'
_cell_volume   653.17025663
_cell_formula_units_Z   2
loop_
 _symmetry_equiv_pos_site_id
 _symmetry_equiv_pos_as_xyz
  1  'x, y, z'
loop_
 _atom_site_type_symbol
 _atom_site_label
 _atom_site_symmetry_multiplicity
 _atom_site_fract_x
 _atom_site_fract_y
 _atom_site_fract_z
 _atom_site_occupancy
  H  H0  1  0.24149785  0.61879070  0.24858753  1
  H  H1  1  0.75850215  0.38120930  0.75141247  1
  H  H2  1  0.97111523  0.55047217  0.12115834  1
  H  H3  1  0.02888477  0.44952783  0.87884166  1
  H  H4  1  0.11354126  0.78376696  0.19493234  1
  H  H5  1  0.88645874  0.21623304  0.80506766  1
  H  H6  1  0.76109112  0.73012892  0.19846409  1
  H  H7  1  0.23890888  0.26987108  0.80153591  1
  H  H8  1  0.24464773  0.84816576  0.41138550  1
  H  H9  1  0.75535227  0.15183424  0.58861450  1
  H  H10  1  0.96368064  0.91201544  0.38813113  1
  H  H11  1  0.03631936  0.08798456  0.61186887  1
  H  H12  1  0.63931901  0.75179029  0.42098779  1
  H  H13  1  0.36068099  0.24820971  0.57901221  1
  H  H14  1  0.92572436  0.81218701  0.54044946  1
  H  H15  1  0.07427564  0.18781299  0.45955054  1
  H  H16  1  0.77358845  0.57776255  0.45381546  1
  H  H17  1  0.22641155  0.42223745  0.54618454  1
  H  H18  1  0.12336420  0.63319106  0.44621837  1
  H  H19  1  0.87663580  0.36680894  0.55378163  1
  Pb  Pb20  1  0.24093134  0.18028328  0.09946523  1
  Pb  Pb21  1  0.75906866  0.81971672  0.90053477  1
  C  C22  1  0.67597994  0.44194151  0.22846713  1
  C  C23  1  0.32402006  0.55805849  0.77153287  1
  C  C24  1  0.02326052  0.61150546  0.21716391  1
  C  C25  1  0.97673948  0.38849454  0.78283609  1
  C  C26  1  0.97369553  0.74087289  0.24025650  1
  C  C27  1  0.02630447  0.25912711  0.75974350  1
  C  C28  1  0.02244256  0.82386332  0.37453572  1
  C  C29  1  0.97755744  0.17613668  0.62546428  1
  C  C30  1  0.86146322  0.75851312  0.44272730  1
  C  C31  1  0.13853678  0.24148688  0.55727270  1
  C  C32  1  0.90751127  0.62767129  0.41261926  1
  C  C33  1  0.09248873  0.37232871  0.58738074  1
  S  S34  1  0.66212832  0.34987438  0.07751443  1
  S  S35  1  0.33787168  0.65012562  0.92248557  1
  S  S36  1  0.45740639  0.38828995  0.30899289  1
  S  S37  1  0.54259361  0.61171005  0.69100711  1
  I  I38  1  0.58469979  0.03123008  0.18455716  1
  I  I39  1  0.41530021  0.96876992  0.81544284  1
  N  N40  1  0.85464750  0.55312679  0.28207626  1
  N  N41  1  0.14535250  0.44687321  0.71792374  1
