# generated using pymatgen
data_Yb3DySb3
_symmetry_space_group_name_H-M   'P 1'
_cell_length_a   16.25534595
_cell_length_b   9.38502775
_cell_length_c   9.38502814
_cell_angle_alpha   90.00000000
_cell_angle_beta   54.73561128
_cell_angle_gamma   54.73560984
_symmetry_Int_Tables_number   1
_chemical_formula_structural   Yb3DySb3
_chemical_formula_sum   'Yb12 Dy4 Sb12'
_cell_volume   826.62157237
_cell_formula_units_Z   4
loop_
 _symmetry_equiv_pos_site_id
 _symmetry_equiv_pos_as_xyz
  1  'x, y, z'
loop_
 _atom_site_type_symbol
 _atom_site_label
 _atom_site_symmetry_multiplicity
 _atom_site_fract_x
 _atom_site_fract_y
 _atom_site_fract_z
 _atom_site_occupancy
  Yb  Yb0  1  0.07322998  1.00000000  0.35354004  1
  Yb  Yb1  1  0.18014779  0.50000000  0.00000000  1
  Yb  Yb2  1  0.07545789  0.34908422  0.50000000  1
  Yb  Yb3  1  0.42677002  0.14645996  0.14645996  1
  Yb  Yb4  1  0.42454211  0.50000000  1.00000000  1
  Yb  Yb5  1  0.57545789  0.00000000  0.34908422  1
  Yb  Yb6  1  0.31985221  0.86029558  0.50000000  1
  Yb  Yb7  1  0.57322998  0.35354004  0.50000000  1
  Yb  Yb8  1  0.92454211  0.15091578  0.15091578  1
  Yb  Yb9  1  0.92677002  0.50000000  0.00000000  1
  Yb  Yb10  1  0.81985221  1.00000000  0.86029558  1
  Yb  Yb11  1  0.68014779  0.63970442  0.63970442  1
  Dy  Dy12  1  0.32057057  1.00000000  0.85885887  1
  Dy  Dy13  1  0.17942943  0.64114113  0.64114113  1
  Dy  Dy14  1  0.67942943  0.50000000  0.00000000  1
  Dy  Dy15  1  0.82057057  0.85885887  0.50000000  1
  Sb  Sb16  1  0.99634209  0.12408358  0.75401512  1
  Sb  Sb17  1  0.12042567  0.62921712  0.38323224  1
  Sb  Sb18  1  0.25035722  0.25330069  0.62921712  1
  Sb  Sb19  1  0.49634209  0.38323224  0.25330069  1
  Sb  Sb20  1  0.37957433  0.87006845  0.11676776  1
  Sb  Sb21  1  0.24964278  0.75401512  0.87078288  1
  Sb  Sb22  1  0.50365791  0.11676776  0.74598488  1
  Sb  Sb23  1  0.62042567  0.62993155  0.37591642  1
  Sb  Sb24  1  0.74964278  0.24669931  0.62993155  1
  Sb  Sb25  1  0.00365791  0.37591642  0.24669931  1
  Sb  Sb26  1  0.87957433  0.87078288  0.12408358  1
  Sb  Sb27  1  0.75035722  0.74598488  0.87006845  1
