# generated using pymatgen
data_K2Ba(Ge4O9)2
_symmetry_space_group_name_H-M   'P 1'
_cell_length_a   11.90796467
_cell_length_b   11.90796471
_cell_length_c   19.58686561
_cell_angle_alpha   90.00000000
_cell_angle_beta   90.00000000
_cell_angle_gamma   119.99999993
_symmetry_Int_Tables_number   1
_chemical_formula_structural   K2Ba(Ge4O9)2
_chemical_formula_sum   'K12 Ba6 Ge48 O108'
_cell_volume   2405.30775651
_cell_formula_units_Z   6
loop_
 _symmetry_equiv_pos_site_id
 _symmetry_equiv_pos_as_xyz
  1  'x, y, z'
loop_
 _atom_site_type_symbol
 _atom_site_label
 _atom_site_symmetry_multiplicity
 _atom_site_fract_x
 _atom_site_fract_y
 _atom_site_fract_z
 _atom_site_occupancy
  K  K0  1  0.66267931  0.99829765  0.53934927  1
  K  K1  1  0.00170235  0.66438166  0.53934927  1
  K  K2  1  0.99829765  0.33561834  0.46065073  1
  K  K3  1  0.66438166  0.66267931  0.46065073  1
  K  K4  1  0.33561834  0.99829765  0.03934927  1
  K  K5  1  0.00170235  0.33732069  0.03934927  1
  K  K6  1  0.33732069  0.33561834  0.96065073  1
  K  K7  1  0.66267931  0.66438166  0.03934927  1
  K  K8  1  0.66438166  0.00170235  0.96065073  1
  K  K9  1  0.33561834  0.33732069  0.53934927  1
  K  K10  1  0.33732069  0.00170235  0.46065073  1
  K  K11  1  0.99829765  0.66267931  0.96065073  1
  Ba  Ba12  1  0.33513386  0.00000000  0.25000000  1
  Ba  Ba13  1  0.66486614  0.00000000  0.75000000  1
  Ba  Ba14  1  0.66486614  0.66486614  0.25000000  1
  Ba  Ba15  1  0.33513386  0.33513386  0.75000000  1
  Ba  Ba16  1  0.00000000  0.33513386  0.25000000  1
  Ba  Ba17  1  1.00000000  0.66486614  0.75000000  1
  Ge  Ge18  1  0.14481717  0.66155234  0.14924083  1
  Ge  Ge19  1  0.33844766  0.85518283  0.64924083  1
  Ge  Ge20  1  0.66155234  0.51673518  0.85075917  1
  Ge  Ge21  1  0.15484927  0.66641928  0.39126386  1
  Ge  Ge22  1  0.17780703  0.00360485  0.87267518  1
  Ge  Ge23  1  0.00360485  0.82579782  0.12732482  1
  Ge  Ge24  1  0.17420218  0.17780703  0.12732482  1
  Ge  Ge25  1  0.00360485  0.17780703  0.62732482  1
  Ge  Ge26  1  0.17780703  0.17420218  0.37267518  1
  Ge  Ge27  1  0.33333300  0.66666700  0.02223062  1
  Ge  Ge28  1  0.84515073  0.33358072  0.60873614  1
  Ge  Ge29  1  0.33358072  0.48842999  0.39126386  1
  Ge  Ge30  1  0.66641928  0.51157001  0.60873614  1
  Ge  Ge31  1  0.66641928  0.15484927  0.10873614  1
  Ge  Ge32  1  0.48842999  0.33358072  0.10873614  1
  Ge  Ge33  1  0.99639515  0.82219297  0.37267518  1
  Ge  Ge34  1  0.66666700  0.33333300  0.72794527  1
  Ge  Ge35  1  0.82219297  0.82579782  0.62732482  1
  Ge  Ge36  1  0.17420218  0.99639515  0.62732482  1
  Ge  Ge37  1  0.33844766  0.48326482  0.14924083  1
  Ge  Ge38  1  0.33333300  0.66666700  0.52223062  1
  Ge  Ge39  1  0.33358072  0.84515073  0.89126386  1
  Ge  Ge40  1  0.48326482  0.14481717  0.85075917  1
  Ge  Ge41  1  0.51673518  0.85518283  0.14924083  1
  Ge  Ge42  1  0.00000000  0.00000000  0.25000000  1
  Ge  Ge43  1  0.48326482  0.33844766  0.35075917  1
  Ge  Ge44  1  0.14481717  0.48326482  0.64924083  1
  Ge  Ge45  1  0.33333300  0.66666700  0.27205473  1
  Ge  Ge46  1  0.82579782  0.82219297  0.87267518  1
  Ge  Ge47  1  0.82219297  0.99639515  0.12732482  1
  Ge  Ge48  1  0.15484927  0.48842999  0.89126386  1
  Ge  Ge49  1  0.66666700  0.33333300  0.47776938  1
  Ge  Ge50  1  0.48842999  0.15484927  0.60873614  1
  Ge  Ge51  1  0.00000000  0.00000000  0.00000000  1
  Ge  Ge52  1  0.00000000  0.00000000  0.50000000  1
  Ge  Ge53  1  0.85518283  0.33844766  0.85075917  1
  Ge  Ge54  1  0.66666700  0.33333300  0.22794527  1
  Ge  Ge55  1  0.84515073  0.51157001  0.10873614  1
  Ge  Ge56  1  0.33333300  0.66666700  0.77205473  1
  Ge  Ge57  1  0.66666700  0.33333300  0.97776938  1
  Ge  Ge58  1  0.51157001  0.84515073  0.39126386  1
  Ge  Ge59  1  0.00000000  0.00000000  0.75000000  1
  Ge  Ge60  1  0.51157001  0.66641928  0.89126386  1
  Ge  Ge61  1  0.82579782  0.00360485  0.37267518  1
  Ge  Ge62  1  0.51673518  0.66155234  0.64924083  1
  Ge  Ge63  1  0.85518283  0.51673518  0.35075917  1
  Ge  Ge64  1  0.99639515  0.17420218  0.87267518  1
  Ge  Ge65  1  0.66155234  0.14481717  0.35075917  1
  O  O66  1  0.15152512  0.06763955  0.44142113  1
  O  O67  1  0.99117841  0.51561518  0.13591353  1
  O  O68  1  0.12067593  0.32548392  0.67251289  1
  O  O69  1  0.78296730  0.10723707  0.08452937  1
  O  O70  1  0.58960325  0.40664818  0.78259033  1
  O  O71  1  0.39509355  0.81882161  0.96725486  1
  O  O72  1  0.48438482  0.47556323  0.13591353  1
  O  O73  1  0.75695663  0.27352519  0.17090956  1
  O  O74  1  0.67573023  0.89276293  0.41547063  1
  O  O75  1  0.15152512  0.08388557  0.94142113  1
  O  O76  1  0.08388557  0.15152512  0.55857887  1
  O  O77  1  0.48438482  0.00882159  0.63591353  1
  O  O78  1  0.79519200  0.67451608  0.82748711  1
  O  O79  1  0.06763955  0.91611443  0.55857887  1
  O  O80  1  0.06763955  0.15152512  0.05857887  1
  O  O81  1  0.18117839  0.60490645  0.46725486  1
  O  O82  1  0.81704493  0.41039675  0.78259033  1
  O  O83  1  0.51328306  0.24078918  0.92363799  1
  O  O84  1  0.12067593  0.79519200  0.17251289  1
  O  O85  1  0.27352519  0.75695663  0.32909044  1
  O  O86  1  0.51328306  0.27249388  0.42363799  1
  O  O87  1  0.93676397  0.84888814  0.69193849  1
  O  O88  1  0.18295507  0.59335182  0.71740967  1
  O  O89  1  0.79519200  0.12067593  0.32748711  1
  O  O90  1  0.93676397  0.08787583  0.19193849  1
  O  O91  1  0.32548392  0.20480800  0.32748711  1
  O  O92  1  0.81882161  0.42372806  0.03274514  1
  O  O93  1  0.57627194  0.18117839  0.53274514  1
  O  O94  1  0.24078918  0.51328306  0.57636201  1
  O  O95  1  0.21703270  0.32426977  0.41547063  1
  O  O96  1  0.75695663  0.48343144  0.67090956  1
  O  O97  1  0.57627194  0.39509355  0.03274514  1
  O  O98  1  0.51561518  0.52443677  0.86408647  1
  O  O99  1  0.32426977  0.21703270  0.08452937  1
  O  O100  1  0.15111186  0.08787583  0.69193849  1
  O  O101  1  0.72750612  0.48671694  0.92363799  1
  O  O102  1  0.41039675  0.81704493  0.71740967  1
  O  O103  1  0.72750612  0.24078918  0.42363799  1
  O  O104  1  0.67573023  0.78296730  0.91547063  1
  O  O105  1  0.15111186  0.06323603  0.19193849  1
  O  O106  1  0.47556323  0.99117841  0.86408647  1
  O  O107  1  0.87932407  0.20480800  0.82748711  1
  O  O108  1  0.08388557  0.93236045  0.05857887  1
  O  O109  1  0.48343144  0.72647481  0.32909044  1
  O  O110  1  0.81704493  0.40664818  0.28259033  1
  O  O111  1  0.84847488  0.93236045  0.55857887  1
  O  O112  1  0.40664818  0.58960325  0.71740967  1
  O  O113  1  0.93236045  0.84847488  0.94142113  1
  O  O114  1  0.59335182  0.41039675  0.28259033  1
  O  O115  1  0.60490645  0.18117839  0.03274514  1
  O  O116  1  0.72647481  0.48343144  0.17090956  1
  O  O117  1  0.24304337  0.72647481  0.82909044  1
  O  O118  1  0.24304337  0.51656856  0.32909044  1
  O  O119  1  0.59335182  0.18295507  0.78259033  1
  O  O120  1  0.20480800  0.87932407  0.67251289  1
  O  O121  1  0.52443677  0.51561518  0.63591353  1
  O  O122  1  0.40664818  0.81704493  0.21740967  1
  O  O123  1  0.27249388  0.75921082  0.57636201  1
  O  O124  1  0.67451608  0.79519200  0.67251289  1
  O  O125  1  0.20480800  0.32548392  0.17251289  1
  O  O126  1  0.99117841  0.47556323  0.63591353  1
  O  O127  1  0.81882161  0.39509355  0.53274514  1
  O  O128  1  0.75921082  0.27249388  0.92363799  1
  O  O129  1  0.32426977  0.10723707  0.58452937  1
  O  O130  1  0.84888814  0.91212417  0.30806151  1
  O  O131  1  0.60490645  0.42372806  0.53274514  1
  O  O132  1  0.93236045  0.08388557  0.44142113  1
  O  O133  1  0.89276293  0.67573023  0.08452937  1
  O  O134  1  0.08787583  0.15111186  0.80806151  1
  O  O135  1  0.51656856  0.27352519  0.67090956  1
  O  O136  1  0.00882159  0.48438482  0.86408647  1
  O  O137  1  0.18117839  0.57627194  0.96725486  1
  O  O138  1  0.08787583  0.93676397  0.30806151  1
  O  O139  1  0.47556323  0.48438482  0.36408647  1
  O  O140  1  0.06323603  0.91212417  0.80806151  1
  O  O141  1  0.32548392  0.12067593  0.82748711  1
  O  O142  1  0.91611443  0.84847488  0.44142113  1
  O  O143  1  0.91212417  0.06323603  0.69193849  1
  O  O144  1  0.84847488  0.91611443  0.05857887  1
  O  O145  1  0.42372806  0.60490645  0.96725486  1
  O  O146  1  0.51561518  0.99117841  0.36408647  1
  O  O147  1  0.91212417  0.84888814  0.19193849  1
  O  O148  1  0.21703270  0.89276293  0.91547063  1
  O  O149  1  0.27249388  0.51328306  0.07636201  1
  O  O150  1  0.58960325  0.18295507  0.28259033  1
  O  O151  1  0.10723707  0.78296730  0.41547063  1
  O  O152  1  0.41039675  0.59335182  0.21740967  1
  O  O153  1  0.06323603  0.15111186  0.30806151  1
  O  O154  1  0.48343144  0.75695663  0.82909044  1
  O  O155  1  0.42372806  0.81882161  0.46725486  1
  O  O156  1  0.48671694  0.75921082  0.07636201  1
  O  O157  1  0.51656856  0.24304337  0.17090956  1
  O  O158  1  0.89276293  0.21703270  0.58452937  1
  O  O159  1  0.72647481  0.24304337  0.67090956  1
  O  O160  1  0.87932407  0.67451608  0.32748711  1
  O  O161  1  0.91611443  0.06763955  0.94142113  1
  O  O162  1  0.39509355  0.57627194  0.46725486  1
  O  O163  1  0.78296730  0.67573023  0.58452937  1
  O  O164  1  0.27352519  0.51656856  0.82909044  1
  O  O165  1  0.24078918  0.72750612  0.07636201  1
  O  O166  1  0.67451608  0.87932407  0.17251289  1
  O  O167  1  0.75921082  0.48671694  0.42363799  1
  O  O168  1  0.10723707  0.32426977  0.91547063  1
  O  O169  1  0.84888814  0.93676397  0.80806151  1
  O  O170  1  0.52443677  0.00882159  0.13591353  1
  O  O171  1  0.00882159  0.52443677  0.36408647  1
  O  O172  1  0.18295507  0.58960325  0.21740967  1
  O  O173  1  0.48671694  0.72750612  0.57636201  1
