# generated using pymatgen
data_Ag33(PbO3)14
_symmetry_space_group_name_H-M   'P 1'
_cell_length_a   42.17866555
_cell_length_b   10.44386107
_cell_length_c   8.88152522
_cell_angle_alpha   53.97754245
_cell_angle_beta   47.17377613
_cell_angle_gamma   30.07939922
_symmetry_Int_Tables_number   1
_chemical_formula_structural   Ag33(PbO3)14
_chemical_formula_sum   'Ag33 Pb14 O42'
_cell_volume   1438.15018623
_cell_formula_units_Z   1
loop_
 _symmetry_equiv_pos_site_id
 _symmetry_equiv_pos_as_xyz
  1  'x, y, z'
loop_
 _atom_site_type_symbol
 _atom_site_label
 _atom_site_symmetry_multiplicity
 _atom_site_fract_x
 _atom_site_fract_y
 _atom_site_fract_z
 _atom_site_occupancy
  Ag  Ag0  1  0.07061293  0.00252930  0.99894159  1
  Ag  Ag1  1  0.99864356  0.50264233  0.00175564  1
  Ag  Ag2  1  0.10912345  0.00043483  0.23572767  1
  Ag  Ag3  1  0.07139793  0.49989255  -0.00008389  1
  Ag  Ag4  1  0.21486078  0.99919244  0.99880473  1
  Ag  Ag5  1  0.14258802  0.49960921  0.00166466  1
  Ag  Ag6  1  0.25064210  0.00463812  0.23607855  1
  Ag  Ag7  1  0.21486613  0.49863129  0.99810096  1
  Ag  Ag8  1  0.35733152  0.99774279  0.99840057  1
  Ag  Ag9  1  0.03217358  0.00927858  0.76380242  1
  Ag  Ag10  1  0.28589491  0.49965192  0.99960044  1
  Ag  Ag11  1  0.39534541  0.99882473  0.23488894  1
  Ag  Ag12  1  0.35738943  0.50249029  0.99834511  1
  Ag  Ag13  1  0.49981160  0.00234593  0.00155448  1
  Ag  Ag14  1  0.17599502  0.00113536  0.76608861  1
  Ag  Ag15  1  0.53536579  0.00798869  0.23625136  1
  Ag  Ag16  1  0.49972998  0.49759697  0.00159364  1
  Ag  Ag17  1  0.64230074  0.00063883  0.00118596  1
  Ag  Ag18  1  0.32176473  0.99202375  0.76390580  1
  Ag  Ag19  1  0.57122398  0.50035684  0.00041674  1
  Ag  Ag20  1  0.68111358  0.99880601  0.23414654  1
  Ag  Ag21  1  0.64228701  0.50120060  0.00196741  1
  Ag  Ag22  1  0.78658235  0.99724497  0.00102948  1
  Ag  Ag23  1  0.46185803  0.00100343  0.76508453  1
  Ag  Ag24  1  0.71456673  0.50030360  0.99834057  1
  Ag  Ag25  1  0.82497675  0.99095608  0.23583856  1
  Ag  Ag26  1  0.78575091  0.49998357  0.00019859  1
  Ag  Ag27  1  0.92857646  0.00004938  0.99996737  1
  Ag  Ag28  1  0.60648008  0.99539084  0.76387364  1
  Ag  Ag29  1  0.85847828  0.49744702  0.99819436  1
  Ag  Ag30  1  0.96642265  0.99879138  0.23582100  1
  Ag  Ag31  1  0.74802494  0.99945924  0.76442032  1
  Ag  Ag32  1  0.89070501  0.00132286  0.76406766  1
  Pb  Pb33  1  0.06926409  0.33430443  0.50659718  1
  Pb  Pb34  1  0.07053600  0.66957926  0.49963757  1
  Pb  Pb35  1  0.21495832  0.33035207  0.49986229  1
  Pb  Pb36  1  0.21470583  0.66635461  0.49973191  1
  Pb  Pb37  1  0.35879564  0.33394223  0.49383266  1
  Pb  Pb38  1  0.35881047  0.66067364  0.49352810  1
  Pb  Pb39  1  0.49839776  0.33939859  0.50609038  1
  Pb  Pb40  1  0.49822155  0.66620058  0.50666774  1
  Pb  Pb41  1  0.64236575  0.33406013  0.50071616  1
  Pb  Pb42  1  0.64226723  0.66955698  0.49992397  1
  Pb  Pb43  1  0.78662822  0.33056255  0.49974864  1
  Pb  Pb44  1  0.78789218  0.66551382  0.49373008  1
  Pb  Pb45  1  0.92761263  0.33952374  0.49391073  1
  Pb  Pb46  1  0.92947673  0.66056736  0.50630861  1
  O  O47  1  0.00970041  0.62495645  0.30730540  1
  O  O48  1  0.13307738  0.00008882  0.69170672  1
  O  O49  1  0.00782950  0.62452028  0.69397734  1
  O  O50  1  0.13240419  0.37760649  0.31277785  1
  O  O51  1  0.00922904  0.00201508  0.30655559  1
  O  O52  1  0.13294831  0.37708982  0.69096636  1
  O  O53  1  0.15293987  0.62202751  0.30824925  1
  O  O54  1  0.27775831  0.99399438  0.68733098  1
  O  O55  1  0.15156459  0.62297003  0.69195245  1
  O  O56  1  0.27716172  0.37592938  0.30881846  1
  O  O57  1  0.15278613  0.99969975  0.30905340  1
  O  O58  1  0.27750339  0.37477674  0.68747522  1
  O  O59  1  0.29580264  0.62508239  0.30628553  1
  O  O60  1  0.41868080  0.00037459  0.69131814  1
  O  O61  1  0.29356557  0.62602558  0.69221861  1
  O  O62  1  0.42034422  0.37224546  0.31370754  1
  O  O63  1  0.29560506  0.99861349  0.30662826  1
  O  O64  1  0.41851679  0.37772537  0.69171734  1
  O  O65  1  0.43865765  0.62222649  0.30816112  1
  O  O66  1  0.56152861  0.00140824  0.69331666  1
  O  O67  1  0.43681760  0.62765217  0.68626677  1
  O  O68  1  0.56359154  0.37397272  0.30777339  1
  O  O69  1  0.43846592  -0.00025037  0.30863808  1
  O  O70  1  0.56133616  0.37489501  0.69372203  1
  O  O71  1  0.57959467  0.62528858  0.31261739  1
  O  O72  1  0.70436139  0.00030328  0.69094494  1
  O  O73  1  0.57999588  0.62401672  0.69111961  1
  O  O74  1  0.70559988  0.37691291  0.30803408  1
  O  O75  1  0.57937902  0.00600705  0.31273026  1
  O  O76  1  0.70425490  0.37779246  0.69168868  1
  O  O77  1  0.72415641  0.62299049  0.30912646  1
  O  O78  1  0.84788483  0.99808896  0.69336412  1
  O  O79  1  0.72472413  0.62237100  0.68730150  1
  O  O80  1  0.84930134  0.37553454  0.30601499  1
  O  O81  1  0.72405480  -0.00005974  0.30828948  1
  O  O82  1  0.84744458  0.37503462  0.69273139  1
  O  O83  1  0.86573941  0.62734838  0.31358576  1
  O  O84  1  0.98928391  0.00570457  0.68768150  1
  O  O85  1  0.86613731  0.62228788  0.69160471  1
  O  O86  1  0.99105461  0.37757877  0.30823329  1
  O  O87  1  0.86789035  0.99421791  0.31222764  1
  O  O88  1  0.99136840  0.37274206  0.68652169  1
