# generated using pymatgen
data_K2Ti(Si2O5)3
_symmetry_space_group_name_H-M   'P 1'
_cell_length_a   7.02983440
_cell_length_b   7.34102704
_cell_length_c   7.60844872
_cell_angle_alpha   99.11916345
_cell_angle_beta   105.95129308
_cell_angle_gamma   112.67380848
_symmetry_Int_Tables_number   1
_chemical_formula_structural   K2Ti(Si2O5)3
_chemical_formula_sum   'K2 Ti1 Si6 O15'
_cell_volume   332.51500250
_cell_formula_units_Z   1
loop_
 _symmetry_equiv_pos_site_id
 _symmetry_equiv_pos_as_xyz
  1  'x, y, z'
loop_
 _atom_site_type_symbol
 _atom_site_label
 _atom_site_symmetry_multiplicity
 _atom_site_fract_x
 _atom_site_fract_y
 _atom_site_fract_z
 _atom_site_occupancy
  O  O0  1  0.45376733  0.61251310  0.18301615  1
  O  O1  1  0.54623267  0.38748690  0.81698385  1
  O  O2  1  0.20689465  0.63979435  0.38952794  1
  O  O3  1  0.79310535  0.36020565  0.61047206  1
  O  O4  1  0.87772535  0.72749273  0.81387904  1
  O  O5  1  0.12227465  0.27250727  0.18612096  1
  O  O6  1  0.88432256  0.73610581  0.35193412  1
  O  O7  1  0.11567744  0.26389419  0.64806588  1
  O  O8  1  0.73982884  0.90188281  0.08330138  1
  O  O9  1  0.50000000  0.50000000  0.50000000  1
  O  O10  1  0.29776840  0.00971121  0.57768023  1
  O  O11  1  0.70223160  0.99028879  0.42231977  1
  O  O12  1  0.82942798  0.08774221  0.81139878  1
  O  O13  1  0.17057202  0.91225779  0.18860122  1
  O  O14  1  0.26017116  0.09811719  0.91669862  1
  Si  Si15  1  0.69975770  0.81381720  0.25780563  1
  Si  Si16  1  0.30024230  0.18618280  0.74219437  1
  Si  Si17  1  0.14674704  0.83225474  0.36922995  1
  Si  Si18  1  0.85325296  0.16774526  0.63077005  1
  Si  Si19  1  0.31691546  0.49761017  0.31188655  1
  Si  Si20  1  0.68308454  0.50238983  0.68811345  1
  K  K21  1  0.28553867  0.71414228  0.82082504  1
  K  K22  1  0.71446133  0.28585772  0.17917496  1
  Ti  Ti23  1  0.00000000  0.00000000  0.00000000  1
