# generated using pymatgen
data_Li2UBr6
_symmetry_space_group_name_H-M   'P 1'
_cell_length_a   6.95430662
_cell_length_b   6.95430674
_cell_length_c   26.96817724
_cell_angle_alpha   90.00000000
_cell_angle_beta   90.00000000
_cell_angle_gamma   119.99999942
_symmetry_Int_Tables_number   1
_chemical_formula_structural   Li2UBr6
_chemical_formula_sum   'Li8 U4 Br24'
_cell_volume   1129.50954649
_cell_formula_units_Z   4
loop_
 _symmetry_equiv_pos_site_id
 _symmetry_equiv_pos_as_xyz
  1  'x, y, z'
loop_
 _atom_site_type_symbol
 _atom_site_label
 _atom_site_symmetry_multiplicity
 _atom_site_fract_x
 _atom_site_fract_y
 _atom_site_fract_z
 _atom_site_occupancy
  Li  Li0  1  0.00000000  0.00000000  0.25000000  1
  Li  Li1  1  0.00000000  0.00000000  0.75000000  1
  Li  Li2  1  0.33333300  0.66666700  0.00153716  1
  Li  Li3  1  0.33333300  0.66666700  0.49846284  1
  Li  Li4  1  0.33333300  0.66666700  0.25000000  1
  Li  Li5  1  0.66666700  0.33333300  0.75000000  1
  Li  Li6  1  0.66666700  0.33333300  0.99846284  1
  Li  Li7  1  0.66666700  0.33333300  0.50153716  1
  U  U8  1  0.00000000  0.00000000  0.00000000  1
  U  U9  1  0.00000000  0.00000000  0.50000000  1
  U  U10  1  0.33333300  0.66666700  0.75000000  1
  U  U11  1  0.66666700  0.33333300  0.25000000  1
  Br  Br12  1  0.33356697  0.00003133  0.30769966  1
  Br  Br13  1  0.33353565  -0.00003133  0.80769966  1
  Br  Br14  1  0.99827834  0.33244019  0.05767265  1
  Br  Br15  1  0.00172166  0.33416185  0.55767265  1
  Br  Br16  1  -0.00003133  0.33353565  0.30769966  1
  Br  Br17  1  0.00003133  0.33356697  0.80769966  1
  Br  Br18  1  0.33356697  0.33353565  0.19230034  1
  Br  Br19  1  0.33353564  0.33356697  0.69230034  1
  Br  Br20  1  0.33416185  0.33244019  0.44232735  1
  Br  Br21  1  0.33244019  0.33416185  0.94232735  1
  Br  Br22  1  0.66755981  0.00172166  0.44232735  1
  Br  Br23  1  0.33416185  0.00172166  0.05767265  1
  Br  Br24  1  0.33244019  0.99827834  0.55767265  1
  Br  Br25  1  0.66755981  0.66583815  0.05767265  1
  Br  Br26  1  0.66583815  0.66755981  0.55767265  1
  Br  Br27  1  0.66646436  0.66643303  0.30769966  1
  Br  Br28  1  0.66643303  0.66646435  0.80769966  1
  Br  Br29  1  -0.00003133  0.66643303  0.19230034  1
  Br  Br30  1  0.00003133  0.66646435  0.69230034  1
  Br  Br31  1  0.99827834  0.66583815  0.44232735  1
  Br  Br32  1  0.00172166  0.66755981  0.94232735  1
  Br  Br33  1  0.66583815  0.99827834  0.94232735  1
  Br  Br34  1  0.66646435  0.00003133  0.19230034  1
  Br  Br35  1  0.66643303  -0.00003133  0.69230034  1
