# generated using pymatgen
data_Tl3In2Se5
_symmetry_space_group_name_H-M   'P 1'
_cell_length_a   6.79883889
_cell_length_b   6.79883865
_cell_length_c   67.88868626
_cell_angle_alpha   105.41667627
_cell_angle_beta   105.41667573
_cell_angle_gamma   117.97629907
_symmetry_Int_Tables_number   1
_chemical_formula_structural   Tl3In2Se5
_chemical_formula_sum   'Tl24 In16 Se40'
_cell_volume   2373.98579171
_cell_formula_units_Z   8
loop_
 _symmetry_equiv_pos_site_id
 _symmetry_equiv_pos_as_xyz
  1  'x, y, z'
loop_
 _atom_site_type_symbol
 _atom_site_label
 _atom_site_symmetry_multiplicity
 _atom_site_fract_x
 _atom_site_fract_y
 _atom_site_fract_z
 _atom_site_occupancy
  Tl  Tl0  1  0.25018208  0.25024028  0.90003300  1
  Tl  Tl1  1  0.24997234  0.25007219  0.80000788  1
  Tl  Tl2  1  0.75024028  0.75018208  0.90003300  1
  Tl  Tl3  1  0.24998103  0.24998103  0.70000000  1
  Tl  Tl4  1  0.75007219  0.74997234  0.80000788  1
  Tl  Tl5  1  0.24999343  0.24989358  0.59999212  1
  Tl  Tl6  1  0.74998103  0.74998103  0.70000000  1
  Tl  Tl7  1  0.74989358  0.74999343  0.59999212  1
  Tl  Tl8  1  0.24991031  0.24985212  0.49996700  1
  Tl  Tl9  1  0.24993793  0.74993793  0.35001922  1
  Tl  Tl10  1  0.24972616  0.25013964  0.39999162  1
  Tl  Tl11  1  0.74985212  0.74991031  0.49996700  1
  Tl  Tl12  1  0.24980783  0.74980783  0.25000178  1
  Tl  Tl13  1  0.24991442  0.24995417  0.29999119  1
  Tl  Tl14  1  0.75013964  0.74972616  0.39999162  1
  Tl  Tl15  1  0.24979001  0.74979001  0.14999822  1
  Tl  Tl16  1  0.25007947  0.25007947  0.20000000  1
  Tl  Tl17  1  0.74995417  0.74991442  0.29999119  1
  Tl  Tl18  1  0.24974571  0.74974571  0.04998078  1
  Tl  Tl19  1  0.25004231  0.25000256  0.10000881  1
  Tl  Tl20  1  0.75007947  0.75007947  0.20000000  1
  Tl  Tl21  1  0.25022340  0.24980993  0.00000838  1
  Tl  Tl22  1  0.75000256  0.75004231  0.10000881  1
  Tl  Tl23  1  0.74980993  0.75022340  0.00000838  1
  In  In24  1  0.24965792  0.74965792  0.94999587  1
  In  In25  1  0.24962674  0.74962674  0.84998314  1
  In  In26  1  0.24949038  0.74949038  0.74999024  1
  In  In27  1  0.75032728  0.25032728  0.95000349  1
  In  In28  1  0.24958795  0.74958795  0.65000976  1
  In  In29  1  0.75045446  0.25045446  0.85000879  1
  In  In30  1  0.24979534  0.74979534  0.55001686  1
  In  In31  1  0.75014758  0.25014758  0.74996582  1
  In  In32  1  0.24969919  0.74969919  0.45000413  1
  In  In33  1  0.75048934  0.25048934  0.65003418  1
  In  In34  1  0.75036659  0.25036659  0.54999121  1
  In  In35  1  0.75029234  0.25029234  0.44999651  1
  In  In36  1  0.75028360  0.25028360  0.34999783  1
  In  In37  1  0.75012564  0.25012564  0.25000633  1
  In  In38  1  0.75006238  0.25006238  0.14999367  1
  In  In39  1  0.75030534  0.25030534  0.05000217  1
  Se  Se40  1  0.17108972  0.32900889  0.94999586  1
  Se  Se41  1  0.32830570  0.82830570  0.91567328  1
  Se  Se42  1  0.17108855  0.32905302  0.85000522  1
  Se  Se43  1  0.32837176  0.82837176  0.81566229  1
  Se  Se44  1  0.67143179  0.17143179  0.98434852  1
  Se  Se45  1  0.82900889  0.67108972  0.94999586  1
  Se  Se46  1  0.17099544  0.32891340  0.74999527  1
  Se  Se47  1  0.32827777  0.82827777  0.71564850  1
  Se  Se48  1  0.67153535  0.17153535  0.88431949  1
  Se  Se49  1  0.82905302  0.67108855  0.85000522  1
  Se  Se50  1  0.17104271  0.32896068  0.65000473  1
  Se  Se51  1  0.32835840  0.82835840  0.61568305  1
  Se  Se52  1  0.67152786  0.17152786  0.78431695  1
  Se  Se53  1  0.82891340  0.67099544  0.74999527  1
  Se  Se54  1  0.17103635  0.32900082  0.54999478  1
  Se  Se55  1  0.32834050  0.82834050  0.51568051  1
  Se  Se56  1  0.67179273  0.17179273  0.68435150  1
  Se  Se57  1  0.82896068  0.67104271  0.65000473  1
  Se  Se58  1  0.17113111  0.32905029  0.45000414  1
  Se  Se59  1  0.32794661  0.82794661  0.41565148  1
  Se  Se60  1  0.67174886  0.17174886  0.58433771  1
  Se  Se61  1  0.82900082  0.67103635  0.54999478  1
  Se  Se62  1  0.16688795  0.31627121  0.35000065  1
  Se  Se63  1  0.33247312  0.83247312  0.31483404  1
  Se  Se64  1  0.67157293  0.17157293  0.48432672  1
  Se  Se65  1  0.82905029  0.67113111  0.45000414  1
  Se  Se66  1  0.16694802  0.31633216  0.24999868  1
  Se  Se67  1  0.33248391  0.83248391  0.21482684  1
  Se  Se68  1  0.68457387  0.18457387  0.38515951  1
  Se  Se69  1  0.81627121  0.66688795  0.35000065  1
  Se  Se70  1  0.16696117  0.31634531  0.15000132  1
  Se  Se71  1  0.33247016  0.83247016  0.11483150  1
  Se  Se72  1  0.68415512  0.18415512  0.28516850  1
  Se  Se73  1  0.81633216  0.66694802  0.24999868  1
  Se  Se74  1  0.16688148  0.31626474  0.04999935  1
  Se  Se75  1  0.33297881  0.83297881  0.01484049  1
  Se  Se76  1  0.68421549  0.18421549  0.18517316  1
  Se  Se77  1  0.81634531  0.66696117  0.15000132  1
  Se  Se78  1  0.68413276  0.18413276  0.08516596  1
  Se  Se79  1  0.81626474  0.66688148  0.04999935  1
