# generated using pymatgen
data_Nd10Si10N17ClO9
_symmetry_space_group_name_H-M   'P 1'
_cell_length_a   10.56706305
_cell_length_b   11.25625728
_cell_length_c   11.63613204
_cell_angle_alpha   89.96293659
_cell_angle_beta   90.03301098
_cell_angle_gamma   90.06458877
_symmetry_Int_Tables_number   1
_chemical_formula_structural   Nd10Si10N17ClO9
_chemical_formula_sum   'Nd20 Si20 N34 Cl2 O18'
_cell_volume   1384.06508155
_cell_formula_units_Z   2
loop_
 _symmetry_equiv_pos_site_id
 _symmetry_equiv_pos_as_xyz
  1  'x, y, z'
loop_
 _atom_site_type_symbol
 _atom_site_label
 _atom_site_symmetry_multiplicity
 _atom_site_fract_x
 _atom_site_fract_y
 _atom_site_fract_z
 _atom_site_occupancy
  Nd  Nd0  1  0.99185186  0.99892374  0.16950763  1
  Nd  Nd1  1  0.99215752  0.99899914  0.83047845  1
  Nd  Nd2  1  0.10928235  0.62977662  -0.00001857  1
  Nd  Nd3  1  0.13513163  0.88388477  0.50032872  1
  Nd  Nd4  1  0.13944025  0.39645622  0.24583383  1
  Nd  Nd5  1  0.13775403  0.39712422  0.75407278  1
  Nd  Nd6  1  0.35966336  0.90211888  0.24344662  1
  Nd  Nd7  1  0.36258998  0.89786141  0.75576012  1
  Nd  Nd8  1  0.36506131  0.38157753  0.49860691  1
  Nd  Nd9  1  0.37817701  0.12807044  0.00413627  1
  Nd  Nd10  1  0.49989286  0.50001613  0.17299470  1
  Nd  Nd11  1  0.50180987  0.50238173  0.82697153  1
  Nd  Nd12  1  0.63838116  0.87129407  0.99605069  1
  Nd  Nd13  1  0.62401218  0.61958028  0.50160564  1
  Nd  Nd14  1  0.64376006  0.10514946  0.23296592  1
  Nd  Nd15  1  0.64556301  0.10133686  0.76746553  1
  Nd  Nd16  1  0.85778663  0.60057200  0.22759595  1
  Nd  Nd17  1  0.85646952  0.60143161  0.77193277  1
  Nd  Nd18  1  0.87734965  0.12050556  0.49999744  1
  Nd  Nd19  1  0.87706621  0.37245996  -0.00002123  1
  Si  Si20  1  0.11561804  0.74444623  0.24655979  1
  Si  Si21  1  0.11574274  0.74438947  0.75375280  1
  Si  Si22  1  0.15117007  0.14249336  0.63678423  1
  Si  Si23  1  0.15129660  0.14251569  0.36372151  1
  Si  Si24  1  0.21513631  0.88825571  0.00004655  1
  Si  Si25  1  0.28573123  0.38970332  0.99988838  1
  Si  Si26  1  0.34835917  0.64344365  0.63524510  1
  Si  Si27  1  0.34777371  0.64474576  0.36455984  1
  Si  Si28  1  0.38610979  0.23790992  0.24439892  1
  Si  Si29  1  0.38498576  0.24349632  0.75499268  1
  Si  Si30  1  0.61519799  0.75635530  0.24579901  1
  Si  Si31  1  0.61440803  0.76215578  0.75489343  1
  Si  Si32  1  0.65168699  0.35476096  0.63496725  1
  Si  Si33  1  0.65111339  0.35596787  0.36523451  1
  Si  Si34  1  0.71749713  0.61087761  0.00006573  1
  Si  Si35  1  0.78754957  0.10786161  0.99993912  1
  Si  Si36  1  0.84860917  0.85406820  0.36541226  1
  Si  Si37  1  0.84846597  0.85411620  0.63426388  1
  Si  Si38  1  0.88523694  0.26268401  0.24504349  1
  Si  Si39  1  0.88513534  0.26263742  0.75479235  1
  N  N40  1  0.02266349  0.18986261  0.28437188  1
  N  N41  1  0.02319438  0.19053267  0.71593658  1
  N  N42  1  0.10304450  0.10939795  0.50038634  1
  N  N43  1  0.16932278  0.81578888  0.12190493  1
  N  N44  1  0.16952564  0.81485811  0.87875392  1
  N  N45  1  0.22798257  0.74621288  0.64762618  1
  N  N46  1  0.22659307  0.74663238  0.35350580  1
  N  N47  1  0.27268627  0.24524145  0.64832053  1
  N  N48  1  0.27192214  0.24574160  0.35168812  1
  N  N49  1  0.32963254  0.31822077  0.12258931  1
  N  N50  1  0.33026896  0.31564221  0.87841945  1
  N  N51  1  0.39695388  0.60879331  0.49962861  1
  N  N52  1  0.42082606  0.09841765  0.19840725  1
  N  N53  1  0.47479795  0.69412776  0.28409512  1
  N  N54  1  0.47627646  0.69148748  0.71437849  1
  N  N55  1  0.52466387  0.30887063  0.28260474  1
  N  N56  1  0.52583601  0.30603879  0.71848526  1
  N  N57  1  0.58183442  0.90189607  0.80114961  1
  N  N58  1  0.59869101  0.38937357  0.50034132  1
  N  N59  1  0.66393099  0.68184068  0.12196712  1
  N  N60  1  0.66468135  0.67943239  0.87701857  1
  N  N61  1  0.72883970  0.75012445  0.64730745  1
  N  N62  1  0.72783470  0.75091835  0.35270355  1
  N  N63  1  0.77092411  0.25022333  0.64625274  1
  N  N64  1  0.76968794  0.25052804  0.35271266  1
  N  N65  1  0.82824552  0.18367640  0.12304821  1
  N  N66  1  0.82885331  0.18270298  0.87639478  1
  N  N67  1  0.84533409  0.96540257  0.00025468  1
  N  N68  1  0.88000444  0.59446381  0.00106385  1
  N  N69  1  0.90157651  0.88830969  0.49965348  1
  N  N70  1  0.92067562  0.40243121  0.20132084  1
  N  N71  1  0.91989308  0.40250970  0.79868294  1
  N  N72  1  0.97400016  0.80552348  0.28219245  1
  N  N73  1  0.97467899  0.80597294  0.71742222  1
  Cl  Cl74  1  0.07831929  0.45137955  0.50027139  1
  Cl  Cl75  1  0.42465288  0.95059719  0.50013681  1
  O  O76  1  0.08664134  0.60526894  0.20298936  1
  O  O77  1  0.08610387  0.60517385  0.79699635  1
  O  O78  1  0.12845076  0.41329336  0.99863465  1
  O  O79  1  0.15573438  0.02695764  0.99964472  1
  O  O80  1  0.18106676  0.00713770  0.69069261  1
  O  O81  1  0.17873734  0.00562713  0.31164556  1
  O  O82  1  0.32041245  0.50966222  0.30846303  1
  O  O83  1  0.32043314  0.50812784  0.69095845  1
  O  O84  1  0.34835612  0.52701585  0.99897169  1
  O  O85  1  0.37223741  0.91089839  0.00051466  1
  O  O86  1  0.41694951  0.10486664  0.79842211  1
  O  O87  1  0.58515115  0.89517542  0.20195112  1
  O  O88  1  0.62405863  0.09579959  0.99940182  1
  O  O89  1  0.65054625  0.47330593  0.00094469  1
  O  O90  1  0.68106403  0.49345379  0.31344571  1
  O  O91  1  0.68077868  0.49200052  0.68729689  1
  O  O92  1  0.81586651  0.99027579  0.31300629  1
  O  O93  1  0.81853860  0.99178088  0.68495062  1
