# generated using pymatgen
data_Zn2H10N12O5
_symmetry_space_group_name_H-M   'P 1'
_cell_length_a   6.00492273
_cell_length_b   10.06713782
_cell_length_c   10.29787261
_cell_angle_alpha   91.41505851
_cell_angle_beta   90.00000000
_cell_angle_gamma   90.00000000
_symmetry_Int_Tables_number   1
_chemical_formula_structural   Zn2H10N12O5
_chemical_formula_sum   'Zn4 H20 N24 O10'
_cell_volume   622.34110596
_cell_formula_units_Z   2
loop_
 _symmetry_equiv_pos_site_id
 _symmetry_equiv_pos_as_xyz
  1  'x, y, z'
loop_
 _atom_site_type_symbol
 _atom_site_label
 _atom_site_symmetry_multiplicity
 _atom_site_fract_x
 _atom_site_fract_y
 _atom_site_fract_z
 _atom_site_occupancy
  Zn  Zn0  1  0.74751209  0.44783879  0.04961218  1
  Zn  Zn1  1  0.25248791  0.55216121  0.95038782  1
  Zn  Zn2  1  0.74751209  0.05216121  0.45038782  1
  Zn  Zn3  1  0.25248791  0.94783879  0.54961218  1
  H  H4  1  0.70346474  0.18683305  0.13489224  1
  H  H5  1  0.29653526  0.81316695  0.86510776  1
  H  H6  1  0.70346474  0.31316695  0.36510776  1
  H  H7  1  0.29653526  0.68683305  0.63489224  1
  H  H8  1  0.60481862  0.19434951  0.99324703  1
  H  H9  1  0.39518138  0.80565049  0.00675297  1
  H  H10  1  0.60481862  0.30565049  0.50675297  1
  H  H11  1  0.39518138  0.69434951  0.49324703  1
  H  H12  1  0.01242687  0.37114049  0.25394289  1
  H  H13  1  0.98757313  0.62885951  0.74605711  1
  H  H14  1  0.01242687  0.12885951  0.24605711  1
  H  H15  1  0.98757313  0.87114049  0.75394289  1
  H  H16  1  0.88091956  0.50162701  0.30335782  1
  H  H17  1  0.11908044  0.49837299  0.69664218  1
  H  H18  1  0.88091956  0.99837299  0.19664218  1
  H  H19  1  0.11908044  0.00162701  0.80335782  1
  H  H20  1  0.32919325  0.25110131  0.17484971  1
  H  H21  1  0.67080675  0.74889869  0.82515029  1
  H  H22  1  0.32919325  0.24889869  0.32515029  1
  H  H23  1  0.67080675  0.75110131  0.67484971  1
  N  N24  1  0.04847092  0.37595906  0.96510896  1
  N  N25  1  0.95152908  0.62404094  0.03489104  1
  N  N26  1  0.04847092  0.12404094  0.53489104  1
  N  N27  1  0.95152908  0.87595906  0.46510896  1
  N  N28  1  0.09858312  0.26459587  0.93072604  1
  N  N29  1  0.90141688  0.73540413  0.06927396  1
  N  N30  1  0.09858312  0.23540413  0.56927396  1
  N  N31  1  0.90141688  0.76459587  0.43072604  1
  N  N32  1  0.15101768  0.15741446  0.89931539  1
  N  N33  1  0.84898232  0.84258554  0.10068461  1
  N  N34  1  0.15101768  0.34258554  0.60068461  1
  N  N35  1  0.84898232  0.65741446  0.39931539  1
  N  N36  1  0.45493685  0.54123958  0.12110239  1
  N  N37  1  0.54506315  0.45876042  0.87889761  1
  N  N38  1  0.45493685  0.95876042  0.37889761  1
  N  N39  1  0.54506315  0.04123958  0.62110239  1
  N  N40  1  0.40166674  0.56812070  0.23161768  1
  N  N41  1  0.59833326  0.43187930  0.76838232  1
  N  N42  1  0.40166674  0.93187930  0.26838232  1
  N  N43  1  0.59833326  0.06812070  0.73161768  1
  N  N44  1  0.34757387  0.59266314  0.33773335  1
  N  N45  1  0.65242613  0.40733686  0.66226665  1
  N  N46  1  0.34757387  0.90733686  0.16226665  1
  N  N47  1  0.65242613  0.09266314  0.83773335  1
  O  O48  1  0.61102540  0.24333244  0.07784689  1
  O  O49  1  0.38897460  0.75666756  0.92215311  1
  O  O50  1  0.61102540  0.25666756  0.42215311  1
  O  O51  1  0.38897460  0.74333244  0.57784689  1
  O  O52  1  0.86335103  0.41488600  0.25641492  1
  O  O53  1  0.13664897  0.58511400  0.74358508  1
  O  O54  1  0.86335103  0.08511400  0.24358508  1
  O  O55  1  0.13664897  0.91488600  0.75641492  1
  O  O56  1  0.22687441  0.25000000  0.25000000  1
  O  O57  1  0.77312559  0.75000000  0.75000000  1
