# generated using pymatgen
data_KEr3F10
_symmetry_space_group_name_H-M   'P 1'
_cell_length_a   8.18344641
_cell_length_b   8.18344638
_cell_length_c   27.21649015
_cell_angle_alpha   89.93606968
_cell_angle_beta   98.71170153
_cell_angle_gamma   119.99846529
_symmetry_Int_Tables_number   1
_chemical_formula_structural   KEr3F10
_chemical_formula_sum   'K8 Er24 F80'
_cell_volume   1554.34158244
_cell_formula_units_Z   8
loop_
 _symmetry_equiv_pos_site_id
 _symmetry_equiv_pos_as_xyz
  1  'x, y, z'
loop_
 _atom_site_type_symbol
 _atom_site_label
 _atom_site_symmetry_multiplicity
 _atom_site_fract_x
 _atom_site_fract_y
 _atom_site_fract_z
 _atom_site_occupancy
  K  K0  1  0.15598034  0.34113142  0.49711176  1
  K  K1  1  0.49008750  0.50495423  0.99504173  1
  K  K2  1  0.91143186  0.21039211  0.12182397  1
  K  K3  1  0.90256064  0.71279403  0.61535468  1
  K  K4  1  0.65945507  0.08638226  0.74583733  1
  K  K5  1  0.65595444  0.58931391  0.24526835  1
  K  K6  1  0.40803469  0.96392316  0.37195785  1
  K  K7  1  0.07672785  0.79446843  0.87119628  1
  Er  Er8  1  0.91626079  0.97523517  0.36948467  1
  Er  Er9  1  0.40665540  0.21088436  0.61753976  1
  Er  Er10  1  0.00156074  0.99608217  0.99764291  1
  Er  Er11  1  0.64425367  0.58280035  0.74804404  1
  Er  Er12  1  0.39424950  0.45322388  0.36948467  1
  Er  Er13  1  0.48484421  0.99923553  0.99943495  1
  Er  Er14  1  0.91505173  0.45505138  0.37010312  1
  Er  Er15  1  0.39801592  0.72027156  0.11828748  1
  Er  Er16  1  0.56849549  0.30103605  0.86953154  1
  Er  Er17  1  0.91925933  0.72015146  0.11806297  1
  Er  Er18  1  0.15100220  0.58041663  0.24846487  1
  Er  Er19  1  0.65410165  0.32638735  0.49900795  1
  Er  Er20  1  0.16524369  0.10379037  0.74804404  1
  Er  Er21  1  0.56657993  0.78151192  0.86901853  1
  Er  Er22  1  0.39791152  0.19880365  0.11806297  1
  Er  Er23  1  0.66804824  0.09746267  0.24846487  1
  Er  Er24  1  0.00019942  0.51459074  0.99943495  1
  Er  Er25  1  0.89046351  0.20901385  0.61831828  1
  Er  Er26  1  0.14892034  0.09805339  0.24697373  1
  Er  Er27  1  0.16472621  0.58189030  0.74661651  1
  Er  Er28  1  0.65345791  0.84551610  0.49897400  1
  Er  Er29  1  0.08750661  0.30243860  0.86901853  1
  Er  Er30  1  0.17262060  0.84490630  0.49900795  1
  Er  Er31  1  0.40930442  0.72785476  0.61831828  1
  F  F32  1  0.27471404  0.07646118  0.68164103  1
  F  F33  1  0.27238492  0.73071608  0.68119850  1
  F  F34  1  0.60314054  0.73614270  0.68499524  1
  F  F35  1  0.95121189  0.90837935  0.18159314  1
  F  F36  1  0.06807218  0.56913656  0.08624152  1
  F  F37  1  0.44848376  0.48827099  0.59909262  1
  F  F38  1  0.60853593  0.90737562  0.18290105  1
  F  F39  1  0.20055088  0.13656887  0.33711975  1
  F  F40  1  0.11810693  0.48117710  0.59928403  1
  F  F41  1  0.49573149  0.73164684  0.78050158  1
  F  F42  1  0.89014260  0.53794790  0.76291816  1
  F  F43  1  0.12006570  0.47365391  0.93572905  1
  F  F44  1  0.45182292  0.81525954  0.26708246  1
  F  F45  1  0.78925041  0.81707365  0.93198871  1
  F  F46  1  0.80969061  0.16505034  0.53094696  1
  F  F47  1  0.11555102  0.82091547  0.26478120  1
  F  F48  1  0.05656679  0.28295127  0.01622775  1
  F  F49  1  0.23931938  0.59740686  0.83672624  1
  F  F50  1  0.60757523  0.23477141  0.18411856  1
  F  F51  1  0.27552544  0.57436513  0.18290105  1
  F  F52  1  0.72873377  0.28989062  0.01862439  1
  F  F53  1  0.11500560  0.97982641  0.43410286  1
  F  F54  1  0.89456410  0.87105061  0.76561471  1
  F  F55  1  0.51710496  0.01816934  0.08624152  1
  F  F56  1  0.09095199  0.30314264  0.39409463  1
  F  F57  1  0.94885254  0.08185470  0.68499524  1
  F  F58  1  0.84647283  0.35553073  0.85328628  1
  F  F59  1  0.95005653  0.56713754  0.51719408  1
  F  F60  1  0.69853060  0.88868557  0.58721617  1
  F  F61  1  0.42557823  0.46771378  0.89329201  1
  F  F62  1  0.44386573  0.14923018  0.26478120  1
  F  F63  1  0.25338221  0.88752673  0.14090894  1
  F  F64  1  0.61742335  0.39526997  0.35253001  1
  F  F65  1  0.95048243  0.40881358  0.68119850  1
  F  F66  1  0.67018015  0.43234616  0.10252631  1
  F  F67  1  0.45928629  0.15068229  0.93495997  1
  F  F68  1  0.45427645  0.31909726  0.43410286  1
  F  F69  1  0.49775555  0.00681345  0.85328628  1
  F  F70  1  0.78427769  0.47567368  0.93495997  1
  F  F71  1  0.49755346  0.28296522  0.78051868  1
  F  F72  1  0.14801804  0.82764994  0.97566798  1
  F  F73  1  0.22497026  0.87277556  0.76291816  1
  F  F74  1  0.75600338  0.13618378  0.33721357  1
  F  F75  1  0.04885474  0.28477009  0.78050158  1
  F  F76  1  0.82900609  0.02162951  0.85063560  1
  F  F77  1  0.60517985  0.40692699  0.68164103  1
  F  F78  1  0.30713718  0.41345116  0.28030406  1
  F  F79  1  0.67080840  0.76198090  0.10187690  1
  F  F80  1  0.36589662  0.72125635  0.53094696  1
  F  F81  1  0.78742161  0.31887287  0.43513517  1
  F  F82  1  0.24876457  0.88669661  0.58597579  1
  F  F83  1  0.33100591  0.14794017  0.03018291  1
  F  F84  1  0.86331985  0.41826597  0.28158582  1
  F  F85  1  0.69927918  0.33721122  0.58597579  1
  F  F86  1  0.33269734  0.69879008  0.03148742  1
  F  F87  1  0.62188571  0.57010952  0.51681614  1
  F  F88  1  0.33989600  0.43106850  0.10187690  1
  F  F89  1  0.27321379  0.23038125  0.18159314  1
  F  F90  1  0.45607420  0.64821934  0.43442234  1
  F  F91  1  0.20102979  0.58121019  0.33721357  1
  F  F92  1  0.94934715  0.57654333  0.18411856  1
  F  F93  1  0.23578347  0.15468880  0.83602227  1
  F  F94  1  0.11082163  0.15060886  0.59909262  1
  F  F95  1  0.30937602  0.41517285  0.72454887  1
  F  F96  1  0.95726005  0.73510667  0.35253001  1
  F  F97  1  0.68133348  0.60023880  0.83602227  1
  F  F98  1  0.46207514  0.81566335  0.93572905  1
  F  F99  1  0.97146360  0.25260293  0.22406653  1
  F  F100  1  0.78620300  0.97834814  0.43442234  1
  F  F101  1  0.88224274  0.69917700  0.03018291  1
  F  F102  1  0.94670662  0.89493043  0.51681614  1
  F  F103  1  0.11491506  0.14273831  0.93198871  1
  F  F104  1  0.36399423  0.16671158  0.53070581  1
  F  F105  1  0.47722381  0.99831219  0.47553600  1
  F  F106  1  0.86685290  0.97316688  0.28030406  1
  F  F107  1  0.58259574  0.05842773  0.64102347  1
  F  F108  1  0.62573799  0.72694936  0.35268735  1
  F  F109  1  0.73327647  0.95966095  0.01622775  1
  F  F110  1  0.11626230  0.64771356  0.43513517  1
  F  F111  1  0.06932352  0.01568897  0.08501249  1
