# generated using pymatgen
data_Sr2CoWO6
_symmetry_space_group_name_H-M   'P 1'
_cell_length_a   5.67886760
_cell_length_b   5.72288503
_cell_length_c   7.97493357
_cell_angle_alpha   89.90665129
_cell_angle_beta   90.00000000
_cell_angle_gamma   90.00000000
_symmetry_Int_Tables_number   1
_chemical_formula_structural   Sr2CoWO6
_chemical_formula_sum   'Sr4 Co2 W2 O12'
_cell_volume   259.18106077
_cell_formula_units_Z   2
loop_
 _symmetry_equiv_pos_site_id
 _symmetry_equiv_pos_as_xyz
  1  'x, y, z'
loop_
 _atom_site_type_symbol
 _atom_site_label
 _atom_site_symmetry_multiplicity
 _atom_site_fract_x
 _atom_site_fract_y
 _atom_site_fract_z
 _atom_site_occupancy
  Sr  Sr0  1  0.99124632  0.00386117  0.24861839  1
  Sr  Sr1  1  0.50875368  0.50386117  0.74861839  1
  Sr  Sr2  1  0.49124632  0.49613883  0.25138161  1
  Sr  Sr3  1  0.00875368  0.99613883  0.75138161  1
  Co  Co4  1  0.00000000  0.50000000  0.50000000  1
  Co  Co5  1  0.50000000  0.00000000  0.00000000  1
  W  W6  1  0.00000000  0.50000000  0.00000000  1
  W  W7  1  0.50000000  0.00000000  0.50000000  1
  O  O8  1  0.50387946  0.94008460  0.25781075  1
  O  O9  1  0.73149488  0.24776413  0.46871078  1
  O  O10  1  0.74906406  0.27049199  0.03203173  1
  O  O11  1  0.75093594  0.77049199  0.53203173  1
  O  O12  1  0.76850512  0.74776413  0.96871078  1
  O  O13  1  0.99612054  0.44008460  0.75781075  1
  O  O14  1  0.00387946  0.55991540  0.24218925  1
  O  O15  1  0.23149488  0.25223587  0.03128922  1
  O  O16  1  0.24906406  0.22950801  0.46796827  1
  O  O17  1  0.25093594  0.72950801  0.96796827  1
  O  O18  1  0.26850512  0.75223587  0.53128922  1
  O  O19  1  0.49612054  0.05991540  0.74218925  1
