# generated using pymatgen
data_Ca2NF
_symmetry_space_group_name_H-M   'P 1'
_cell_length_a   7.13219091
_cell_length_b   7.13219143
_cell_length_c   42.61327507
_cell_angle_alpha   60.09714771
_cell_angle_beta   60.09714535
_cell_angle_gamma   59.96218684
_symmetry_Int_Tables_number   1
_chemical_formula_structural   Ca2NF
_chemical_formula_sum   'Ca48 N24 F24'
_cell_volume   1534.57241376
_cell_formula_units_Z   24
loop_
 _symmetry_equiv_pos_site_id
 _symmetry_equiv_pos_as_xyz
  1  'x, y, z'
loop_
 _atom_site_type_symbol
 _atom_site_label
 _atom_site_symmetry_multiplicity
 _atom_site_fract_x
 _atom_site_fract_y
 _atom_site_fract_z
 _atom_site_occupancy
  Ca  Ca0  1  0.25985263  0.25985263  0.04219167  1
  Ca  Ca1  1  0.25082159  0.25082159  0.12231019  1
  Ca  Ca2  1  0.25852690  0.70073856  0.04568498  1
  Ca  Ca3  1  0.70073856  0.25852690  0.04568498  1
  Ca  Ca4  1  0.27817062  0.73014847  0.12623514  1
  Ca  Ca5  1  0.25815492  0.25815492  0.21153972  1
  Ca  Ca6  1  0.25976308  0.25976308  0.28693739  1
  Ca  Ca7  1  0.25768987  0.71557311  0.21179679  1
  Ca  Ca8  1  0.73014847  0.27817062  0.12623514  1
  Ca  Ca9  1  0.72533006  0.72533006  0.04892272  1
  Ca  Ca10  1  0.73126624  0.73126624  0.12478411  1
  Ca  Ca11  1  0.71557311  0.25768987  0.21179679  1
  Ca  Ca12  1  0.28308040  0.73857381  0.29020908  1
  Ca  Ca13  1  0.26211051  0.26211051  0.37644333  1
  Ca  Ca14  1  0.26242093  0.26242093  0.45229364  1
  Ca  Ca15  1  0.26133611  0.71705219  0.37662769  1
  Ca  Ca16  1  0.73857381  0.28308040  0.29020908  1
  Ca  Ca17  1  0.73767980  0.73767980  0.21419071  1
  Ca  Ca18  1  0.73795987  0.73795987  0.29019303  1
  Ca  Ca19  1  0.71705219  0.26133611  0.37662769  1
  Ca  Ca20  1  0.28458850  0.74030932  0.45595233  1
  Ca  Ca21  1  0.26258194  0.26258194  0.54292458  1
  Ca  Ca22  1  0.26230153  0.26230153  0.61902707  1
  Ca  Ca23  1  0.26180777  0.71703471  0.54308176  1
  Ca  Ca24  1  0.74030932  0.28458850  0.45595233  1
  Ca  Ca25  1  0.73909263  0.73909263  0.38026111  1
  Ca  Ca26  1  0.73946229  0.73946229  0.45612248  1
  Ca  Ca27  1  0.71703471  0.26180777  0.54308176  1
  Ca  Ca28  1  0.28457865  0.74022886  0.62260405  1
  Ca  Ca29  1  0.26239952  0.26239952  0.70967194  1
  Ca  Ca30  1  0.26288535  0.26288535  0.78556884  1
  Ca  Ca31  1  0.26169826  0.71716885  0.70971240  1
  Ca  Ca32  1  0.73932652  0.73932652  0.54684446  1
  Ca  Ca33  1  0.74022886  0.28457865  0.62260405  1
  Ca  Ca34  1  0.73950481  0.73950481  0.62279152  1
  Ca  Ca35  1  0.71716885  0.26169826  0.70971240  1
  Ca  Ca36  1  0.28443251  0.73947507  0.78915007  1
  Ca  Ca37  1  0.26143128  0.26143128  0.87679238  1
  Ca  Ca38  1  0.26812371  0.26812371  0.95249940  1
  Ca  Ca39  1  0.26220365  0.71955221  0.87570600  1
  Ca  Ca40  1  0.73947507  0.28443251  0.78915007  1
  Ca  Ca41  1  0.73931761  0.73931761  0.71357678  1
  Ca  Ca42  1  0.73925242  0.73925242  0.78952204  1
  Ca  Ca43  1  0.71955221  0.26220365  0.87570600  1
  Ca  Ca44  1  0.29267335  0.73770053  0.95377654  1
  Ca  Ca45  1  0.73770053  0.29267335  0.95377654  1
  Ca  Ca46  1  0.74453844  0.74453844  0.87924908  1
  Ca  Ca47  1  0.73950498  0.73950498  0.95731299  1
  N  N48  1  0.99651165  0.49461224  0.08341840  1
  N  N49  1  0.49461224  0.99651165  0.08341840  1
  N  N50  1  0.49315736  0.49315736  0.08494374  1
  N  N51  1  0.99701239  0.49948984  0.25075097  1
  N  N52  1  0.49948984  0.99701239  0.25075097  1
  N  N53  1  0.49711804  0.49711804  0.16850636  1
  N  N54  1  0.49881136  0.49881136  0.25101529  1
  N  N55  1  0.99937951  0.50036528  0.41664628  1
  N  N56  1  0.50036528  0.99937951  0.41664628  1
  N  N57  1  0.49862374  0.49862374  0.33408614  1
  N  N58  1  0.99984667  0.50012762  0.58332026  1
  N  N59  1  0.50032077  0.50032077  0.41666696  1
  N  N60  1  0.50012762  0.99984667  0.58332026  1
  N  N61  1  0.49984930  0.49984930  0.50005076  1
  N  N62  1  0.00014738  0.49948430  0.75007393  1
  N  N63  1  0.50011966  0.50011966  0.58329436  1
  N  N64  1  0.49948430  0.00014738  0.75007393  1
  N  N65  1  0.49980006  0.49980006  0.66672327  1
  N  N66  1  0.00309423  0.49832731  0.91710915  1
  N  N67  1  0.50012081  0.50012081  0.74984132  1
  N  N68  1  0.49832731  0.00309423  0.91710915  1
  N  N69  1  0.49983461  0.49983461  0.83300156  1
  N  N70  1  0.50509063  0.50509063  0.91512536  1
  N  N71  1  0.49912559  0.49912559  0.99975827  1
  F  F72  1  0.10065020  0.10065020  0.02271896  1
  F  F73  1  0.99218689  0.58430213  0.99421441  1
  F  F74  1  0.98578097  0.98578097  0.25709740  1
  F  F75  1  0.00782973  0.45740692  0.17133192  1
  F  F76  1  0.58430213  0.99218689  0.99421441  1
  F  F77  1  0.45740692  0.00782973  0.17133192  1
  F  F78  1  0.99656449  0.99656449  0.41841351  1
  F  F79  1  0.00047084  0.49250832  0.33440580  1
  F  F80  1  0.49250832  0.00047084  0.33440580  1
  F  F81  1  0.00585336  0.00585336  0.17103067  1
  F  F82  1  0.99911487  0.49661679  0.50081070  1
  F  F83  1  0.99686639  0.99686639  0.58494562  1
  F  F84  1  0.93174531  0.93174531  0.11622971  1
  F  F85  1  0.49661679  0.99911487  0.50081070  1
  F  F86  1  0.00075422  0.00075422  0.33440064  1
  F  F87  1  0.99726547  0.99726547  0.75136233  1
  F  F88  1  0.99890731  0.49732868  0.66751673  1
  F  F89  1  0.99910477  0.99910477  0.50080358  1
  F  F90  1  0.49732868  0.99890731  0.66751673  1
  F  F91  1  0.01400325  0.01400325  0.91111746  1
  F  F92  1  0.50381240  0.99657960  0.83376919  1
  F  F93  1  0.99907222  0.99907222  0.66758223  1
  F  F94  1  0.99547955  0.99547955  0.83483719  1
  F  F95  1  0.99657960  0.50381240  0.83376919  1
