# generated using pymatgen
data_BaNa2Al4(SiO4)4
_symmetry_space_group_name_H-M   'P 1'
_cell_length_a   8.65478435
_cell_length_b   10.07509698
_cell_length_c   10.73692116
_cell_angle_alpha   117.89181534
_cell_angle_beta   113.79636410
_cell_angle_gamma   90.01721631
_symmetry_Int_Tables_number   1
_chemical_formula_structural   BaNa2Al4(SiO4)4
_chemical_formula_sum   'Ba2 Na4 Al8 Si8 O32'
_cell_volume   736.14832832
_cell_formula_units_Z   2
loop_
 _symmetry_equiv_pos_site_id
 _symmetry_equiv_pos_as_xyz
  1  'x, y, z'
loop_
 _atom_site_type_symbol
 _atom_site_label
 _atom_site_symmetry_multiplicity
 _atom_site_fract_x
 _atom_site_fract_y
 _atom_site_fract_z
 _atom_site_occupancy
  Ba  Ba0  1  0.24830117  0.25005122  0.50026108  1
  Ba  Ba1  1  0.75296077  0.75000757  0.49995865  1
  Na  Na2  1  0.03579356  0.82258324  0.99705941  1
  Na  Na3  1  0.46118940  0.32501915  0.00135985  1
  Na  Na4  1  0.53700605  0.67518831  0.99805362  1
  Na  Na5  1  0.96259082  0.17668920  0.00221897  1
  Al  Al6  1  0.26645228  0.65266804  0.68045720  1
  Al  Al7  1  0.41243384  0.02875467  0.68257103  1
  Al  Al8  1  0.31415627  0.64795665  0.18766270  1
  Al  Al9  1  0.37372522  0.14662738  0.18621864  1
  Al  Al10  1  0.76691157  0.52697980  0.67995554  1
  Al  Al11  1  0.91318881  0.15323047  0.68253169  1
  Al  Al12  1  0.81207157  0.03862643  0.18519599  1
  Al  Al13  1  0.87357883  0.53822115  0.18362719  1
  Si  Si14  1  0.13757939  0.46600815  0.81509174  1
  Si  Si15  1  0.17509667  0.96575351  0.81423773  1
  Si  Si16  1  0.08048864  0.85324835  0.31646593  1
  Si  Si17  1  0.23782599  0.46468894  0.31679061  1
  Si  Si18  1  0.63748440  0.84764748  0.81276053  1
  Si  Si19  1  0.67321407  0.34692185  0.81204494  1
  Si  Si20  1  0.58116295  0.96346386  0.31652867  1
  Si  Si21  1  0.73813330  0.35224220  0.31626637  1
  O  O22  1  0.06948405  0.27802536  0.69466366  1
  O  O23  1  0.12251203  0.77782775  0.69249855  1
  O  O24  1  -0.00035314  0.97428396  0.25859464  1
  O  O25  1  0.24883075  0.52883213  0.75193958  1
  O  O26  1  0.04542448  0.44751134  0.18442851  1
  O  O27  1  0.33623573  0.05466732  0.81963984  1
  O  O28  1  0.24685469  0.52969755  0.49084678  1
  O  O29  1  0.24151248  0.96128817  0.49320169  1
  O  O30  1  0.14685694  0.74369921  0.18742984  1
  O  O31  1  0.47998563  0.76429166  0.81658462  1
  O  O32  1  0.25940970  0.28533037  0.25790563  1
  O  O33  1  0.49716398  0.22404924  0.75087139  1
  O  O34  1  0.21650468  0.00418767  0.99321150  1
  O  O35  1  0.38018325  0.57202362  0.31619001  1
  O  O36  1  0.27604740  0.50517095  0.99405843  1
  O  O37  1  0.56835870  0.91549432  0.69234163  1
  O  O38  1  0.43748885  0.06999239  0.31355034  1
  O  O39  1  0.62140446  0.41276776  0.68966939  1
  O  O40  1  0.50220421  0.78446414  0.25930447  1
  O  O41  1  0.74944639  0.72224425  0.75011255  1
  O  O42  1  0.54398491  0.23999490  0.18673389  1
  O  O43  1  0.83314521  0.26191197  0.81694514  1
  O  O44  1  0.74537989  0.03110060  0.49138311  1
  O  O45  1  0.75191461  0.46202881  0.49199685  1
  O  O46  1  0.64287618  0.94488944  0.18482398  1
  O  O47  1  0.97936009  0.55218033  0.81880060  1
  O  O48  1  0.76044452  0.47151416  0.25629444  1
  O  O49  1  -0.00059833  0.02740950  0.75189930  1
  O  O50  1  0.71607518  0.48818699  0.99074453  1
  O  O51  1  0.87885676  0.24276625  0.31333374  1
  O  O52  1  0.77531951  0.98783651  0.99189752  1
  O  O53  1  0.93634068  0.74175373  0.31078577  1
