# generated using pymatgen
data_KMnO2
_symmetry_space_group_name_H-M   'P 1'
_cell_length_a   6.41471236
_cell_length_b   6.41481603
_cell_length_c   7.02319502
_cell_angle_alpha   117.16613611
_cell_angle_beta   117.17755383
_cell_angle_gamma   89.99348166
_symmetry_Int_Tables_number   1
_chemical_formula_structural   KMnO2
_chemical_formula_sum   'K4 Mn4 O8'
_cell_volume   220.65762320
_cell_formula_units_Z   4
loop_
 _symmetry_equiv_pos_site_id
 _symmetry_equiv_pos_as_xyz
  1  'x, y, z'
loop_
 _atom_site_type_symbol
 _atom_site_label
 _atom_site_symmetry_multiplicity
 _atom_site_fract_x
 _atom_site_fract_y
 _atom_site_fract_z
 _atom_site_occupancy
  K  K0  1  0.99966510  0.99973451  0.99966874  1
  K  K1  1  0.49994957  0.99981183  0.99981635  1
  K  K2  1  0.49936842  0.49954504  0.49893543  1
  K  K3  1  0.49946202  0.99948569  0.49913515  1
  Mn  Mn4  1  0.99932762  0.49929427  0.99870064  1
  Mn  Mn5  1  0.00006061  0.00017824  0.50026469  1
  Mn  Mn6  1  0.99987677  0.50000847  0.49989383  1
  Mn  Mn7  1  0.49953793  0.49940964  0.99892767  1
  O  O8  1  0.18669740  0.74512533  0.49019133  1
  O  O9  1  0.75432398  0.69593991  0.00863677  1
  O  O10  1  0.75471986  0.31293437  0.00933840  1
  O  O11  1  0.80303202  0.74490417  0.48968413  1
  O  O12  1  0.24450359  0.30271302  0.98906207  1
  O  O13  1  0.81307893  0.25494232  0.50980546  1
  O  O14  1  0.19657903  0.25488727  0.50977590  1
  O  O15  1  0.24450415  0.68628393  0.98911146  1
