# generated using pymatgen
data_K10Zr3Cd(MoO4)12
_symmetry_space_group_name_H-M   'P 1'
_cell_length_a   14.29875572
_cell_length_b   14.29875520
_cell_length_c   14.29875548
_cell_angle_alpha   44.66522037
_cell_angle_beta   44.66522245
_cell_angle_gamma   44.66521946
_symmetry_Int_Tables_number   1
_chemical_formula_structural   K10Zr3Cd(MoO4)12
_chemical_formula_sum   'K10 Zr3 Cd1 Mo12 O48'
_cell_volume   1313.95345909
_cell_formula_units_Z   1
loop_
 _symmetry_equiv_pos_site_id
 _symmetry_equiv_pos_as_xyz
  1  'x, y, z'
loop_
 _atom_site_type_symbol
 _atom_site_label
 _atom_site_symmetry_multiplicity
 _atom_site_fract_x
 _atom_site_fract_y
 _atom_site_fract_z
 _atom_site_occupancy
  K  K0  1  0.10492107  0.10492107  0.10492107  1
  K  K1  1  0.39904346  0.39904346  0.39904346  1
  K  K2  1  0.12100480  0.49299732  0.88501789  1
  K  K3  1  0.49299732  0.88501789  0.12100480  1
  K  K4  1  0.88501789  0.12100480  0.49299732  1
  K  K5  1  0.60215251  0.60215251  0.60215251  1
  K  K6  1  0.38950239  0.99323952  0.61629972  1
  K  K7  1  0.61629972  0.38950239  0.99323952  1
  K  K8  1  0.99323952  0.61629972  0.38950239  1
  K  K9  1  0.89600736  0.89600736  0.89600736  1
  Zr  Zr10  1  0.99927817  0.99927817  0.99927817  1
  Zr  Zr11  1  0.24892180  0.24892180  0.24892180  1
  Zr  Zr12  1  0.75132261  0.75132261  0.75132261  1
  Cd  Cd13  1  0.49949461  0.49949461  0.49949461  1
  Mo  Mo14  1  0.01166000  0.36866886  0.77007331  1
  Mo  Mo15  1  0.36866886  0.77007331  0.01166000  1
  Mo  Mo16  1  0.12909389  0.73130517  0.48213765  1
  Mo  Mo17  1  0.77007331  0.01166000  0.36866886  1
  Mo  Mo18  1  0.48213765  0.12909389  0.73130517  1
  Mo  Mo19  1  0.73130517  0.48213765  0.12909389  1
  Mo  Mo20  1  0.26749419  0.87123159  0.51490341  1
  Mo  Mo21  1  0.51490341  0.26749419  0.87123159  1
  Mo  Mo22  1  0.22889977  0.63118980  0.98550426  1
  Mo  Mo23  1  0.87123159  0.51490341  0.26749419  1
  Mo  Mo24  1  0.63118980  0.98550426  0.22889977  1
  Mo  Mo25  1  0.98550426  0.22889977  0.63118980  1
  O  O26  1  0.05276075  0.35636203  0.24238538  1
  O  O27  1  0.24238538  0.05276075  0.35636203  1
  O  O28  1  0.35636203  0.24238538  0.05276075  1
  O  O29  1  0.14093090  0.25606681  0.45223086  1
  O  O30  1  0.04320698  0.07438774  0.78488701  1
  O  O31  1  0.07438774  0.78488701  0.04320698  1
  O  O32  1  0.25606681  0.45223086  0.14093090  1
  O  O33  1  0.45223086  0.14093090  0.25606681  1
  O  O34  1  0.13499747  0.34880285  0.60448564  1
  O  O35  1  0.78488701  0.04320698  0.07438774  1
  O  O36  1  0.34880285  0.60448564  0.13499747  1
  O  O37  1  0.12768379  0.68469558  0.39744302  1
  O  O38  1  0.09781351  0.36619826  0.81693400  1
  O  O39  1  0.60448564  0.13499747  0.34880285  1
  O  O40  1  0.39744302  0.12768379  0.68469558  1
  O  O41  1  0.36619826  0.81693400  0.09781351  1
  O  O42  1  0.15785455  0.89348740  0.35699250  1
  O  O43  1  0.68469558  0.39744302  0.12768379  1
  O  O44  1  0.26866792  0.57608116  0.54922820  1
  O  O45  1  0.35699250  0.15785455  0.89348740  1
  O  O46  1  0.81693400  0.09781351  0.36619826  1
  O  O47  1  0.54922820  0.26866792  0.57608116  1
  O  O48  1  0.10324783  0.84688243  0.63815511  1
  O  O49  1  0.57608116  0.54922820  0.26866792  1
  O  O50  1  0.89348740  0.35699250  0.15785455  1
  O  O51  1  0.42055378  0.73161346  0.44722549  1
  O  O52  1  0.44722549  0.42055378  0.73161346  1
  O  O53  1  0.18150308  0.63095486  0.90186457  1
  O  O54  1  0.63815511  0.10324783  0.84688243  1
  O  O55  1  0.73161346  0.44722549  0.42055378  1
  O  O56  1  0.31429019  0.86899373  0.60227632  1
  O  O57  1  0.84688243  0.63815511  0.10324783  1
  O  O58  1  0.63095486  0.90186457  0.18150308  1
  O  O59  1  0.60227632  0.31429019  0.86899373  1
  O  O60  1  0.39254129  0.65545290  0.86055675  1
  O  O61  1  0.90186457  0.18150308  0.63095486  1
  O  O62  1  0.86899373  0.60227632  0.31429019  1
  O  O63  1  0.65545290  0.86055675  0.39254129  1
  O  O64  1  0.21377659  0.92283311  0.95479550  1
  O  O65  1  0.86055675  0.39254129  0.65545290  1
  O  O66  1  0.54790714  0.74518782  0.85589169  1
  O  O67  1  0.74518782  0.85589169  0.54790714  1
  O  O68  1  0.92283311  0.95479550  0.21377659  1
  O  O69  1  0.95479550  0.21377659  0.92283311  1
  O  O70  1  0.85589169  0.54790714  0.74518782  1
  O  O71  1  0.64060971  0.94775478  0.75858244  1
  O  O72  1  0.75858244  0.64060971  0.94775478  1
  O  O73  1  0.94775478  0.75858244  0.64060971  1
