# generated using pymatgen
data_HoH9C5(NO4)2
_symmetry_space_group_name_H-M   'P 1'
_cell_length_a   6.76087371
_cell_length_b   8.60605571
_cell_length_c   9.81589884
_cell_angle_alpha   90.00000000
_cell_angle_beta   110.14418883
_cell_angle_gamma   90.00000000
_symmetry_Int_Tables_number   1
_chemical_formula_structural   HoH9C5(NO4)2
_chemical_formula_sum   'Ho2 H18 C10 N4 O16'
_cell_volume   536.19593124
_cell_formula_units_Z   2
loop_
 _symmetry_equiv_pos_site_id
 _symmetry_equiv_pos_as_xyz
  1  'x, y, z'
loop_
 _atom_site_type_symbol
 _atom_site_label
 _atom_site_symmetry_multiplicity
 _atom_site_fract_x
 _atom_site_fract_y
 _atom_site_fract_z
 _atom_site_occupancy
  Ho  Ho0  1  0.35767572  0.75000000  0.71535144  1
  Ho  Ho1  1  0.64232428  0.25000000  0.28464856  1
  H  H2  1  0.81425494  0.75000000  0.62850989  1
  H  H3  1  0.18574506  0.25000000  0.37149011  1
  H  H4  1  0.15460673  0.75000000  0.30921346  1
  H  H5  1  0.84539327  0.25000000  0.69078654  1
  H  H6  1  0.99798025  0.94233908  0.42183589  1
  H  H7  1  0.57614436  0.05766092  0.57816411  1
  H  H8  1  0.00201975  0.44233908  0.57816411  1
  H  H9  1  0.42385564  0.55766092  0.42183589  1
  H  H10  1  0.26660598  0.50000000  0.00000000  1
  H  H11  1  0.73339402  -0.00000000  1.00000000  1
  H  H12  1  0.85465198  0.67135554  0.01287152  1
  H  H13  1  0.84178046  0.32864446  0.98712848  1
  H  H14  1  0.14534802  0.17135554  0.98712848  1
  H  H15  1  0.15821954  0.82864446  0.01287152  1
  H  H16  1  0.85898242  0.60377555  0.18534074  1
  H  H17  1  0.67364169  0.39622445  0.81465926  1
  H  H18  1  0.14101758  0.10377555  0.81465926  1
  H  H19  1  0.32635831  0.89622445  0.18534074  1
  C  C20  1  0.87448201  0.75000000  0.74896403  1
  C  C21  1  0.12551799  0.25000000  0.25103597  1
  C  C22  1  0.09511865  0.75000000  0.19023729  1
  C  C23  1  0.90488135  0.25000000  0.80976271  1
  C  C24  1  0.01836707  0.02519930  0.51248050  1
  C  C25  1  0.50588657  0.97480070  0.48751950  1
  C  C26  1  0.98163293  0.52519930  0.48751950  1
  C  C27  1  0.49411343  0.47480070  0.51248050  1
  C  C28  1  0.43074512  0.50000000  0.00000000  1
  C  C29  1  0.56925488  -0.00000000  1.00000000  1
  N  N30  1  0.92564321  0.66735217  0.12382357  1
  N  N31  1  0.80181964  0.33264783  0.87617643  1
  N  N32  1  0.07435679  0.16735217  0.87617643  1
  N  N33  1  0.19818036  0.83264783  0.12382357  1
  O  O34  1  0.47004567  0.57372823  0.90101858  1
  O  O35  1  0.56902709  0.42627177  0.09898142  1
  O  O36  1  0.52995433  0.07372823  0.09898142  1
  O  O37  1  0.43097291  0.92627177  0.90101858  1
  O  O38  1  0.07153147  0.73509375  0.81320949  1
  O  O39  1  0.25832197  0.26490625  0.18679051  1
  O  O40  1  0.92846853  0.23509375  0.18679051  1
  O  O41  1  0.74167803  0.76490625  0.81320949  1
  O  O42  1  0.08373321  0.65187375  0.51597212  1
  O  O43  1  0.56776109  0.34812625  0.48402788  1
  O  O44  1  0.91626679  0.15187375  0.48402788  1
  O  O45  1  0.43223891  0.84812625  0.51597212  1
  O  O46  1  0.14129902  0.98566784  0.63715795  1
  O  O47  1  0.50414107  0.01433216  0.36284205  1
  O  O48  1  0.85870098  0.48566784  0.36284205  1
  O  O49  1  0.49585893  0.51433216  0.63715795  1
