# generated using pymatgen
data_BHO2
_symmetry_space_group_name_H-M   'P 1'
_cell_length_a   8.12298488
_cell_length_b   9.81677566
_cell_length_c   6.46626833
_cell_angle_alpha   90.00001080
_cell_angle_beta   90.00001983
_cell_angle_gamma   90.00000848
_symmetry_Int_Tables_number   1
_chemical_formula_structural   BHO2
_chemical_formula_sum   'B12 H12 O24'
_cell_volume   515.63006702
_cell_formula_units_Z   12
loop_
 _symmetry_equiv_pos_site_id
 _symmetry_equiv_pos_as_xyz
  1  'x, y, z'
loop_
 _atom_site_type_symbol
 _atom_site_label
 _atom_site_symmetry_multiplicity
 _atom_site_fract_x
 _atom_site_fract_y
 _atom_site_fract_z
 _atom_site_occupancy
  B  B0  1  0.49989930  0.67381554  0.24999997  1
  B  B1  1  0.00010057  0.17381550  0.25000000  1
  B  B2  1  0.50010083  0.32618441  0.75000000  1
  B  B3  1  0.99989939  0.82618467  0.74999997  1
  B  B4  1  0.49861703  0.91786508  0.25000004  1
  B  B5  1  0.00138291  0.41786507  0.24999998  1
  B  B6  1  0.50138302  0.08213494  0.74999997  1
  B  B7  1  0.99861711  0.58213495  0.74999996  1
  B  B8  1  0.24429051  0.79464231  0.24999991  1
  B  B9  1  0.25570923  0.29464219  0.25000010  1
  B  B10  1  0.75570958  0.20535768  0.75000000  1
  B  B11  1  0.74429085  0.70535780  0.75000001  1
  H  H12  1  0.52409995  0.47025678  0.25000002  1
  H  H13  1  0.97590008  0.97025689  0.25000001  1
  H  H14  1  0.47590007  0.52974318  0.75000002  1
  H  H15  1  0.02409991  0.02974321  0.75000002  1
  H  H16  1  0.69830440  0.04001957  0.25000002  1
  H  H17  1  0.80169585  0.54001964  0.24999994  1
  H  H18  1  0.30169560  0.95998044  0.74999999  1
  H  H19  1  0.19830416  0.45998044  0.75000003  1
  H  H20  1  0.02333863  0.70711987  0.25000002  1
  H  H21  1  0.47666139  0.20711971  0.25000002  1
  H  H22  1  0.97666139  0.29288015  0.74999999  1
  H  H23  1  0.52333862  0.79288029  0.75000000  1
  O  O24  1  0.58911688  0.55563194  0.24999987  1
  O  O25  1  0.91088312  0.05563203  0.24999998  1
  O  O26  1  0.41088330  0.44436812  0.75000012  1
  O  O27  1  0.08911694  0.94436791  0.74999993  1
  O  O28  1  0.58644855  0.79615007  0.25000001  1
  O  O29  1  0.91355134  0.29615014  0.25000006  1
  O  O30  1  0.41355152  0.20384994  0.75000007  1
  O  O31  1  0.08644855  0.70384983  0.74999990  1
  O  O32  1  0.57556343  0.04189745  0.24999993  1
  O  O33  1  0.92443659  0.54189762  0.25000004  1
  O  O34  1  0.42443657  0.95810242  0.75000007  1
  O  O35  1  0.07556335  0.45810250  0.75000001  1
  O  O36  1  0.33003387  0.67278980  0.24999991  1
  O  O37  1  0.16996627  0.17278989  0.25000005  1
  O  O38  1  0.66996612  0.32721018  0.74999993  1
  O  O39  1  0.83003350  0.82721000  0.75000017  1
  O  O40  1  0.32889426  0.91629069  0.24999997  1
  O  O41  1  0.17110610  0.41629074  0.24999993  1
  O  O42  1  0.67110581  0.08370932  0.74999998  1
  O  O43  1  0.82889374  0.58370927  0.75000000  1
  O  O44  1  0.07561640  0.79860238  0.25000000  1
  O  O45  1  0.42438396  0.29860221  0.25000001  1
  O  O46  1  0.92438356  0.20139758  0.74999993  1
  O  O47  1  0.57561586  0.70139767  0.75000009  1
