# generated using pymatgen
data_U3O8
_symmetry_space_group_name_H-M   'P 1'
_cell_length_a   4.16025141
_cell_length_b   7.01477328
_cell_length_c   6.78036184
_cell_angle_alpha   121.15038100
_cell_angle_beta   90.00000000
_cell_angle_gamma   90.00000000
_symmetry_Int_Tables_number   1
_chemical_formula_structural   U3O8
_chemical_formula_sum   'U3 O8'
_cell_volume   169.34202224
_cell_formula_units_Z   1
loop_
 _symmetry_equiv_pos_site_id
 _symmetry_equiv_pos_as_xyz
  1  'x, y, z'
loop_
 _atom_site_type_symbol
 _atom_site_label
 _atom_site_symmetry_multiplicity
 _atom_site_fract_x
 _atom_site_fract_y
 _atom_site_fract_z
 _atom_site_occupancy
  O  O0  1  0.99990753  0.33193211  0.29426287  1
  O  O1  1  0.99990753  0.66806789  0.70573713  1
  O  O2  1  0.00009247  0.03766923  0.70573713  1
  O  O3  1  0.00000000  0.50000000  0.00000000  1
  O  O4  1  0.50000000  0.00000000  0.00000000  1
  O  O5  1  0.50000000  0.31572720  0.63145441  1
  O  O6  1  0.50000000  0.68427280  0.36854559  1
  O  O7  1  0.00009247  0.96233077  0.29426287  1
  U  U8  1  0.00000000  0.68131262  0.36262523  1
  U  U9  1  0.00000000  0.31868738  0.63737477  1
  U  U10  1  0.00000000  0.00000000  0.00000000  1
