# generated using pymatgen
data_U(HO)8
_symmetry_space_group_name_H-M   'P 1'
_cell_length_a   7.86909325
_cell_length_b   7.86909325
_cell_length_c   8.58623835
_cell_angle_alpha   60.86418457
_cell_angle_beta   119.13581543
_cell_angle_gamma   128.48752599
_symmetry_Int_Tables_number   1
_chemical_formula_structural   U(HO)8
_chemical_formula_sum   'U2 H16 O16'
_cell_volume   350.11939287
_cell_formula_units_Z   2
loop_
 _symmetry_equiv_pos_site_id
 _symmetry_equiv_pos_as_xyz
  1  'x, y, z'
loop_
 _atom_site_type_symbol
 _atom_site_label
 _atom_site_symmetry_multiplicity
 _atom_site_fract_x
 _atom_site_fract_y
 _atom_site_fract_z
 _atom_site_occupancy
  U  U0  1  0.00000000  0.00000000  0.50000000  1
  U  U1  1  0.00000000  0.00000000  0.00000000  1
  H  H2  1  0.22718691  0.72129207  0.82141689  1
  H  H3  1  0.72129207  0.22718691  0.67858311  1
  H  H4  1  0.77281309  0.27870793  0.17858311  1
  H  H5  1  0.27870793  0.77281309  0.32141689  1
  H  H6  1  0.25307328  0.74655377  0.63546190  1
  H  H7  1  0.74655377  0.25307328  0.86453810  1
  H  H8  1  0.74692672  0.25344623  0.36453810  1
  H  H9  1  0.25344623  0.74692672  0.13546190  1
  H  H10  1  0.32682214  0.53517014  0.57118198  1
  H  H11  1  0.53517014  0.32682214  0.92881802  1
  H  H12  1  0.67317786  0.46482986  0.42881802  1
  H  H13  1  0.46482986  0.67317786  0.07118198  1
  H  H14  1  0.53905496  0.77289904  0.60144986  1
  H  H15  1  0.77289904  0.53905496  0.89855014  1
  H  H16  1  0.46094504  0.22710096  0.39855014  1
  H  H17  1  0.22710096  0.46094504  0.10144986  1
  O  O18  1  0.94758855  0.82558810  0.80561804  1
  O  O19  1  0.82558810  0.94758855  0.69438196  1
  O  O20  1  0.05241145  0.17441190  0.19438196  1
  O  O21  1  0.17441190  0.05241145  0.30561804  1
  O  O22  1  0.24992831  0.25543748  0.56675420  1
  O  O23  1  0.25543748  0.24992831  0.93324580  1
  O  O24  1  0.75007169  0.74456252  0.43324580  1
  O  O25  1  0.74456252  0.75007169  0.06675420  1
  O  O26  1  0.19867234  0.79129393  0.68361474  1
  O  O27  1  0.79129393  0.19867234  0.81638526  1
  O  O28  1  0.80132766  0.20870607  0.31638526  1
  O  O29  1  0.20870607  0.80132766  0.18361474  1
  O  O30  1  0.37208140  0.69193845  0.54991069  1
  O  O31  1  0.69193845  0.37208140  0.95008931  1
  O  O32  1  0.62791860  0.30806155  0.45008931  1
  O  O33  1  0.30806155  0.62791860  0.04991069  1
