# generated using pymatgen
data_Zr2H16SN3(O2F3)3
_symmetry_space_group_name_H-M   'P 1'
_cell_length_a   8.03980583
_cell_length_b   8.03980583
_cell_length_c   12.30338753
_cell_angle_alpha   69.18127384
_cell_angle_beta   110.81872616
_cell_angle_gamma   100.55558940
_symmetry_Int_Tables_number   1
_chemical_formula_structural   Zr2H16SN3(O2F3)3
_chemical_formula_sum   'Zr4 H32 S2 N6 O12 F18'
_cell_volume   693.34141703
_cell_formula_units_Z   2
loop_
 _symmetry_equiv_pos_site_id
 _symmetry_equiv_pos_as_xyz
  1  'x, y, z'
loop_
 _atom_site_type_symbol
 _atom_site_label
 _atom_site_symmetry_multiplicity
 _atom_site_fract_x
 _atom_site_fract_y
 _atom_site_fract_z
 _atom_site_occupancy
  Zr  Zr0  1  0.11607604  0.24346980  0.61144435  1
  Zr  Zr1  1  0.75653020  0.88392396  0.61144435  1
  Zr  Zr2  1  0.88392396  0.75653020  0.38855565  1
  Zr  Zr3  1  0.24346980  0.11607604  0.38855565  1
  H  H4  1  0.62948761  0.96705771  0.15138851  1
  H  H5  1  0.03294229  0.37051239  0.15138851  1
  H  H6  1  0.37051239  0.03294229  0.84861149  1
  H  H7  1  0.96705771  0.62948761  0.84861149  1
  H  H8  1  0.56365098  0.75445048  0.18331018  1
  H  H9  1  0.24554952  0.43634902  0.18331018  1
  H  H10  1  0.43634902  0.24554952  0.81668982  1
  H  H11  1  0.75445048  0.56365098  0.81668982  1
  H  H12  1  0.19178309  0.27612117  0.92315526  1
  H  H13  1  0.72387883  0.80821691  0.92315526  1
  H  H14  1  0.80821691  0.72387883  0.07684474  1
  H  H15  1  0.27612117  0.19178309  0.07684474  1
  H  H16  1  0.05236642  0.18571370  0.00595418  1
  H  H17  1  0.81428630  0.94763358  0.00595418  1
  H  H18  1  0.94763358  0.81428630  0.99404582  1
  H  H19  1  0.18571370  0.05236642  0.99404582  1
  H  H20  1  0.17224855  0.66554470  0.69208009  1
  H  H21  1  0.33445530  0.82775145  0.69208009  1
  H  H22  1  0.82775145  0.33445530  0.30791991  1
  H  H23  1  0.66554470  0.17224855  0.30791991  1
  H  H24  1  0.35821498  0.64178502  0.66718699  1
  H  H25  1  0.64178502  0.35821498  0.33281301  1
  H  H26  1  0.36545869  0.63454131  0.80838388  1
  H  H27  1  0.63454131  0.36545869  0.19161612  1
  H  H28  1  0.59599530  0.40400470  0.65962884  1
  H  H29  1  0.40400470  0.59599530  0.34037116  1
  H  H30  1  0.80607630  0.35687301  0.68031307  1
  H  H31  1  0.64312699  0.19392370  0.68031307  1
  H  H32  1  0.19392370  0.64312699  0.31968693  1
  H  H33  1  0.35687301  0.80607630  0.31968693  1
  H  H34  1  0.63920397  0.36079603  0.55014868  1
  H  H35  1  0.36079603  0.63920397  0.44985132  1
  S  S36  1  0.71168931  0.28831069  0.00151374  1
  S  S37  1  0.28831069  0.71168931  0.99848626  1
  N  N38  1  0.82289250  0.82289250  0.00000000  1
  N  N39  1  0.17710750  0.17710750  0.00000000  1
  N  N40  1  0.30902086  0.69097914  0.71583954  1
  N  N41  1  0.69097914  0.30902086  0.28416046  1
  N  N42  1  0.32917785  0.67082215  0.35623272  1
  N  N43  1  0.67082215  0.32917785  0.64376728  1
  O  O44  1  0.82272093  0.41490561  0.06664149  1
  O  O45  1  0.58509439  0.17727907  0.06664149  1
  O  O46  1  0.17727907  0.58509439  0.93335851  1
  O  O47  1  0.41490561  0.82272093  0.93335851  1
  O  O48  1  0.17235412  0.82764588  0.00839188  1
  O  O49  1  0.82764588  0.17235412  0.99160812  1
  O  O50  1  0.39412528  0.60587472  0.12692982  1
  O  O51  1  0.60587472  0.39412528  0.87307018  1
  O  O52  1  0.65757499  0.84394651  0.21045179  1
  O  O53  1  0.15605349  0.34242501  0.21045179  1
  O  O54  1  0.34242501  0.15605349  0.78954821  1
  O  O55  1  0.84394651  0.65757499  0.78954821  1
  F  F56  1  0.96853076  0.03146924  0.29797150  1
  F  F57  1  0.03146924  0.96853076  0.70202850  1
  F  F58  1  0.16921297  0.83078703  0.46366966  1
  F  F59  1  0.83078703  0.16921297  0.53633034  1
  F  F60  1  0.95738133  0.68350139  0.27065763  1
  F  F61  1  0.31649861  0.04261867  0.27065763  1
  F  F62  1  0.04261867  0.31649861  0.72934237  1
  F  F63  1  0.68350139  0.95738133  0.72934237  1
  F  F64  1  0.93075278  0.73046465  0.58242825  1
  F  F65  1  0.26953535  0.06924722  0.58242825  1
  F  F66  1  0.06924722  0.26953535  0.41757175  1
  F  F67  1  0.73046465  0.93075278  0.41757175  1
  F  F68  1  0.67780941  0.57535103  0.40142873  1
  F  F69  1  0.42464897  0.32219059  0.40142873  1
  F  F70  1  0.32219059  0.42464897  0.59857127  1
  F  F71  1  0.57535103  0.67780941  0.59857127  1
  F  F72  1  0.00000000  0.50000000  0.50000000  1
  F  F73  1  0.50000000  0.00000000  0.50000000  1
