# generated using pymatgen
data_HPbClO
_symmetry_space_group_name_H-M   'P 1'
_cell_length_a   9.95751722
_cell_length_b   4.06968694
_cell_length_c   7.18535500
_cell_angle_alpha   90.00000000
_cell_angle_beta   90.00000000
_cell_angle_gamma   90.00000000
_symmetry_Int_Tables_number   1
_chemical_formula_structural   HPbClO
_chemical_formula_sum   'H4 Pb4 Cl4 O4'
_cell_volume   291.17916640
_cell_formula_units_Z   4
loop_
 _symmetry_equiv_pos_site_id
 _symmetry_equiv_pos_as_xyz
  1  'x, y, z'
loop_
 _atom_site_type_symbol
 _atom_site_label
 _atom_site_symmetry_multiplicity
 _atom_site_fract_x
 _atom_site_fract_y
 _atom_site_fract_z
 _atom_site_occupancy
  H  H0  1  0.38736554  0.25000000  0.71940809  1
  H  H1  1  0.11263446  0.25000000  0.21940809  1
  H  H2  1  0.61263446  0.75000000  0.28059191  1
  H  H3  1  0.88736554  0.75000000  0.78059191  1
  Pb  Pb4  1  0.41095721  0.25000000  0.29845834  1
  Pb  Pb5  1  0.08904279  0.25000000  0.79845834  1
  Pb  Pb6  1  0.58904279  0.75000000  0.70154166  1
  Pb  Pb7  1  0.91095721  0.75000000  0.20154166  1
  Cl  Cl8  1  0.67796533  0.25000000  0.05885601  1
  Cl  Cl9  1  0.82203467  0.25000000  0.55885601  1
  Cl  Cl10  1  0.32203467  0.75000000  0.94114399  1
  Cl  Cl11  1  0.17796533  0.75000000  0.44114399  1
  O  O12  1  0.46123314  0.25000000  0.63007092  1
  O  O13  1  0.03876686  0.25000000  0.13007092  1
  O  O14  1  0.53876686  0.75000000  0.36992908  1
  O  O15  1  0.96123314  0.75000000  0.86992908  1
