# generated using pymatgen
data_Ba3Li2Mo4P6(ClO14)2
_symmetry_space_group_name_H-M   'P 1'
_cell_length_a   9.33358678
_cell_length_b   15.93138686
_cell_length_c   18.40249898
_cell_angle_alpha   90.00000000
_cell_angle_beta   90.00000000
_cell_angle_gamma   90.00000000
_symmetry_Int_Tables_number   1
_chemical_formula_structural   Ba3Li2Mo4P6(ClO14)2
_chemical_formula_sum   'Ba12 Li8 Mo16 P24 Cl8 O112'
_cell_volume   2736.39605560
_cell_formula_units_Z   4
loop_
 _symmetry_equiv_pos_site_id
 _symmetry_equiv_pos_as_xyz
  1  'x, y, z'
loop_
 _atom_site_type_symbol
 _atom_site_label
 _atom_site_symmetry_multiplicity
 _atom_site_fract_x
 _atom_site_fract_y
 _atom_site_fract_z
 _atom_site_occupancy
  Ba  Ba0  1  0.99254851  0.55250867  0.33201232  1
  Ba  Ba1  1  0.92401885  0.03339455  0.43457217  1
  Ba  Ba2  1  0.57598115  0.96660545  0.93457217  1
  Ba  Ba3  1  0.00745149  0.05250867  0.16798768  1
  Ba  Ba4  1  0.50745149  0.44749133  0.83201232  1
  Ba  Ba5  1  0.42401885  0.46660545  0.56542783  1
  Ba  Ba6  1  0.56030666  0.51019934  0.09226269  1
  Ba  Ba7  1  0.49254851  0.94749133  0.66798768  1
  Ba  Ba8  1  0.43969334  0.01019934  0.40773731  1
  Ba  Ba9  1  0.07598115  0.53339455  0.06542783  1
  Ba  Ba10  1  0.06030666  0.98980066  0.90773731  1
  Ba  Ba11  1  0.93969334  0.48980066  0.59226269  1
  Li  Li12  1  0.35106833  0.94752962  0.21802050  1
  Li  Li13  1  0.85106833  0.55247038  0.78197950  1
  Li  Li14  1  0.14893167  0.05247038  0.71802050  1
  Li  Li15  1  0.57925742  0.08820008  0.13263463  1
  Li  Li16  1  0.64893167  0.44752962  0.28197950  1
  Li  Li17  1  0.42074258  0.58820008  0.36736537  1
  Li  Li18  1  0.07925742  0.41179992  0.86736537  1
  Li  Li19  1  0.92074258  0.91179992  0.63263463  1
  Mo  Mo20  1  0.28456074  0.72036249  0.24869096  1
  Mo  Mo21  1  0.78586511  0.80691525  0.25137422  1
  Mo  Mo22  1  0.21543926  0.27963751  0.74869096  1
  Mo  Mo23  1  0.28298661  0.79479507  0.00122663  1
  Mo  Mo24  1  0.78456074  0.77963751  0.75130904  1
  Mo  Mo25  1  0.71482113  0.29458194  0.99864970  1
  Mo  Mo26  1  0.71701339  0.29479507  0.49877337  1
  Mo  Mo27  1  0.21482113  0.20541806  0.00135030  1
  Mo  Mo28  1  0.21701339  0.20520493  0.50122663  1
  Mo  Mo29  1  0.78298661  0.70520493  0.99877337  1
  Mo  Mo30  1  0.21413489  0.30691525  0.24862578  1
  Mo  Mo31  1  0.71413489  0.19308475  0.75137422  1
  Mo  Mo32  1  0.28517887  0.79458194  0.50135030  1
  Mo  Mo33  1  0.78517887  0.70541806  0.49864970  1
  Mo  Mo34  1  0.71543926  0.22036249  0.25130904  1
  Mo  Mo35  1  0.28586511  0.69308475  0.74862578  1
  P  P36  1  0.18763818  0.99514606  0.55777695  1
  P  P37  1  0.02915233  0.77444541  0.37686301  1
  P  P38  1  0.46160519  0.24638499  0.37459214  1
  P  P39  1  0.68763818  0.50485394  0.44222305  1
  P  P40  1  0.81236182  0.49514606  0.94222305  1
  P  P41  1  0.46425262  0.24116748  0.62553269  1
  P  P42  1  0.46723985  0.27090682  0.12468671  1
  P  P43  1  0.17856270  0.49157984  0.73095250  1
  P  P44  1  0.96425262  0.25883252  0.37446731  1
  P  P45  1  0.32143730  0.50842016  0.23095250  1
  P  P46  1  0.52915233  0.72555459  0.62313699  1
  P  P47  1  0.03839481  0.75361501  0.87459214  1
  P  P48  1  0.67856270  0.00842016  0.26904750  1
  P  P49  1  0.47084767  0.22555459  0.87686301  1
  P  P50  1  0.96723985  0.22909318  0.87531329  1
  P  P51  1  0.03574738  0.75883252  0.12553269  1
  P  P52  1  0.31236182  0.00485394  0.05777695  1
  P  P53  1  0.53276015  0.77090682  0.37531329  1
  P  P54  1  0.03276015  0.72909318  0.62468671  1
  P  P55  1  0.53574738  0.74116748  0.87446731  1
  P  P56  1  0.82143730  0.99157984  0.76904750  1
  P  P57  1  0.97084767  0.27444541  0.12313699  1
  P  P58  1  0.53839481  0.74638499  0.12540786  1
  P  P59  1  0.96160519  0.25361501  0.62540786  1
  Cl  Cl60  1  0.83773219  0.50594936  0.18779849  1
  Cl  Cl61  1  0.16226781  0.00594936  0.31220151  1
  Cl  Cl62  1  0.83604426  0.00391973  0.03550011  1
  Cl  Cl63  1  0.66395574  0.99608027  0.53550011  1
  Cl  Cl64  1  0.33604426  0.49608027  0.96449989  1
  Cl  Cl65  1  0.33773219  0.99405064  0.81220151  1
  Cl  Cl66  1  0.16395574  0.50391973  0.46449989  1
  Cl  Cl67  1  0.66226781  0.49405064  0.68779849  1
  O  O68  1  0.45041570  0.68431088  0.82282225  1
  O  O69  1  0.43901365  0.80103997  0.92014559  1
  O  O70  1  0.30239395  0.69071454  0.47974361  1
  O  O71  1  0.79686810  0.98024877  0.85067711  1
  O  O72  1  0.87468359  0.31687813  0.57768544  1
  O  O73  1  0.94521260  0.70594576  0.41968266  1
  O  O74  1  0.70313190  0.01975123  0.35067711  1
  O  O75  1  0.56619028  0.20840271  0.16641545  1
  O  O76  1  0.44098796  0.83090108  0.42329708  1
  O  O77  1  0.12763218  0.82643806  0.42689165  1
  O  O78  1  0.62468828  0.68263774  0.92327469  1
  O  O79  1  0.25955159  0.68827349  0.00673649  1
  O  O80  1  0.86495706  0.19736269  0.33142612  1
  O  O81  1  0.63981521  0.80352173  0.16834520  1
  O  O82  1  0.47941866  0.49569872  0.24840810  1
  O  O83  1  0.62531641  0.68312187  0.07768544  1
  O  O84  1  0.53133965  0.53337834  0.44227037  1
  O  O85  1  0.21904965  0.43900078  0.26144355  1
  O  O86  1  0.19785163  0.20083086  0.23219137  1
  O  O87  1  0.87531172  0.31736226  0.42327469  1
  O  O88  1  0.05478740  0.20594576  0.08031734  1
  O  O89  1  0.94098796  0.66909892  0.57670292  1
  O  O90  1  0.56098635  0.30103997  0.57985441  1
  O  O91  1  0.29132750  0.92663066  0.52438999  1
  O  O92  1  0.69401133  0.32709258  0.26027403  1
  O  O93  1  0.29886374  0.92919966  0.00145311  1
  O  O94  1  0.44415575  0.80361347  0.07746653  1
  O  O95  1  0.13504294  0.69736269  0.16857388  1
  O  O96  1  0.07231215  0.33569514  0.16251754  1
  O  O97  1  0.12468828  0.81736226  0.07672531  1
  O  O98  1  0.79886374  0.57080034  0.99854689  1
  O  O99  1  0.79132750  0.57336934  0.47561001  1
  O  O100  1  0.69785163  0.29916914  0.76780863  1
  O  O101  1  0.57231215  0.16430486  0.83748246  1
  O  O102  1  0.78095035  0.93900078  0.23855645  1
  O  O103  1  0.86018479  0.19647827  0.66834520  1
  O  O104  1  0.06619028  0.29159729  0.83358455  1
  O  O105  1  0.80598867  0.67290742  0.76027403  1
  O  O106  1  0.88247814  0.17295483  0.82287576  1
  O  O107  1  0.92768785  0.83569514  0.33748246  1
  O  O108  1  0.37531172  0.18263774  0.57672531  1
  O  O109  1  0.43380972  0.70840271  0.33358455  1
  O  O110  1  0.44521260  0.79405424  0.58031734  1
  O  O111  1  0.61784762  0.77895836  0.67800107  1
  O  O112  1  0.12531641  0.81687813  0.92231456  1
  O  O113  1  0.05901204  0.16909892  0.92329708  1
  O  O114  1  0.52058134  0.99569872  0.25159190  1
  O  O115  1  0.05584425  0.19638653  0.57746653  1
  O  O116  1  0.13981521  0.69647827  0.83165480  1
  O  O117  1  0.97941866  0.00430128  0.75159190  1
  O  O118  1  0.24443558  0.01841368  0.63270397  1
  O  O119  1  0.29686810  0.51975123  0.14932289  1
  O  O120  1  0.11752186  0.67295483  0.67712424  1
  O  O121  1  0.93380972  0.79159729  0.66641545  1
  O  O122  1  0.71904965  0.06099922  0.73855645  1
  O  O123  1  0.75556442  0.51841368  0.86729603  1
  O  O124  1  0.42768785  0.66430486  0.66251754  1
  O  O125  1  0.74443558  0.48158632  0.36729603  1
  O  O126  1  0.62763218  0.67356194  0.57310835  1
  O  O127  1  0.94543632  0.80972988  0.82414469  1
  O  O128  1  0.72971245  0.09006639  0.22588903  1
  O  O129  1  0.20113626  0.07080034  0.50145311  1
  O  O130  1  0.20313190  0.48024877  0.64932289  1
  O  O131  1  0.87236782  0.32643806  0.07310835  1
  O  O132  1  0.24044841  0.31172651  0.50673649  1
  O  O133  1  0.70867250  0.42663066  0.97561001  1
  O  O134  1  0.22971245  0.40993361  0.77411097  1
  O  O135  1  0.63504294  0.80263731  0.83142612  1
  O  O136  1  0.03133965  0.96662166  0.55772963  1
  O  O137  1  0.38247814  0.32704517  0.17712424  1
  O  O138  1  0.30214837  0.79916914  0.73219137  1
  O  O139  1  0.36495706  0.30263731  0.66857388  1
  O  O140  1  0.55584425  0.30361347  0.42253347  1
  O  O141  1  0.46866035  0.03337834  0.05772963  1
  O  O142  1  0.80214837  0.70083086  0.26780863  1
  O  O143  1  0.11784762  0.72104164  0.32199893  1
  O  O144  1  0.13158382  0.78544670  0.57904230  1
  O  O145  1  0.27028755  0.59006639  0.27411097  1
  O  O146  1  0.02058134  0.50430128  0.74840810  1
  O  O147  1  0.37468359  0.18312187  0.42231456  1
  O  O148  1  0.94415575  0.69638653  0.92253347  1
  O  O149  1  0.55901204  0.33090108  0.07670292  1
  O  O150  1  0.86841618  0.28544670  0.92095770  1
  O  O151  1  0.05456368  0.30972988  0.67585531  1
  O  O152  1  0.20867250  0.07336934  0.02438999  1
  O  O153  1  0.28095035  0.56099922  0.76144355  1
  O  O154  1  0.80239395  0.80928546  0.52025639  1
  O  O155  1  0.63158382  0.71455330  0.42095770  1
  O  O156  1  0.44543632  0.69027012  0.17585531  1
  O  O157  1  0.36018479  0.30352173  0.33165480  1
  O  O158  1  0.70113626  0.42919966  0.49854689  1
  O  O159  1  0.55456368  0.19027012  0.32414469  1
  O  O160  1  0.19401133  0.17290742  0.73972597  1
  O  O161  1  0.37236782  0.17356194  0.92689165  1
  O  O162  1  0.77028755  0.90993361  0.72588903  1
  O  O163  1  0.69760605  0.19071454  0.02025639  1
  O  O164  1  0.30598867  0.82709258  0.23972597  1
  O  O165  1  0.19760605  0.30928546  0.97974361  1
  O  O166  1  0.88215238  0.22104164  0.17800107  1
  O  O167  1  0.25556442  0.98158632  0.13270397  1
  O  O168  1  0.04958430  0.31568912  0.32282225  1
  O  O169  1  0.36841618  0.21455330  0.07904230  1
  O  O170  1  0.75955159  0.81172651  0.99326351  1
  O  O171  1  0.06098635  0.19896003  0.42014559  1
  O  O172  1  0.96866035  0.46662166  0.94227037  1
  O  O173  1  0.38215238  0.27895836  0.82199893  1
  O  O174  1  0.74044841  0.18827349  0.49326351  1
  O  O175  1  0.54958430  0.18431088  0.67717775  1
  O  O176  1  0.93901365  0.69896003  0.07985441  1
  O  O177  1  0.61752186  0.82704517  0.32287576  1
  O  O178  1  0.55478740  0.29405424  0.91968266  1
  O  O179  1  0.95041570  0.81568912  0.17717775  1
