# generated using pymatgen
data_MgH2(SeO3)2
_symmetry_space_group_name_H-M   'P 1'
_cell_length_a   9.26458426
_cell_length_b   5.32655469
_cell_length_c   5.68938134
_cell_angle_alpha   90.00000000
_cell_angle_beta   90.83906341
_cell_angle_gamma   90.00000000
_symmetry_Int_Tables_number   1
_chemical_formula_structural   MgH2(SeO3)2
_chemical_formula_sum   'Mg2 H4 Se4 O12'
_cell_volume   280.73127559
_cell_formula_units_Z   2
loop_
 _symmetry_equiv_pos_site_id
 _symmetry_equiv_pos_as_xyz
  1  'x, y, z'
loop_
 _atom_site_type_symbol
 _atom_site_label
 _atom_site_symmetry_multiplicity
 _atom_site_fract_x
 _atom_site_fract_y
 _atom_site_fract_z
 _atom_site_occupancy
  Mg  Mg0  1  0.50000000  0.50000000  0.50000000  1
  Mg  Mg1  1  0.00000000  0.00000000  0.00000000  1
  H  H2  1  0.47158542  0.95457294  0.77017012  1
  H  H3  1  0.97158542  0.54542706  0.27017012  1
  H  H4  1  0.52841458  0.04542706  0.22982988  1
  H  H5  1  0.02841458  0.45457294  0.72982988  1
  Se  Se6  1  0.33516690  0.68021594  0.01842416  1
  Se  Se7  1  0.83516690  0.81978406  0.51842416  1
  Se  Se8  1  0.66483310  0.31978406  0.98157584  1
  Se  Se9  1  0.16483310  0.18021594  0.48157584  1
  O  O10  1  0.21709113  0.91749650  0.04701148  1
  O  O11  1  0.71709113  0.58250350  0.54701148  1
  O  O12  1  0.78290887  0.08250350  0.95298852  1
  O  O13  1  0.28290887  0.41749650  0.45298852  1
  O  O14  1  0.46920585  0.75317089  0.21905585  1
  O  O15  1  0.96920585  0.74682911  0.71905585  1
  O  O16  1  0.53079415  0.24682911  0.78094415  1
  O  O17  1  0.03079415  0.25317089  0.28094415  1
  O  O18  1  0.43004052  0.77890644  0.74883560  1
  O  O19  1  0.93004052  0.72109356  0.24883560  1
  O  O20  1  0.56995948  0.22109356  0.25116440  1
  O  O21  1  0.06995948  0.27890644  0.75116440  1
