# generated using pymatgen
data_SmCoSe2ClO6
_symmetry_space_group_name_H-M   'P 1'
_cell_length_a   7.24712284
_cell_length_b   9.03875492
_cell_length_c   12.10237517
_cell_angle_alpha   97.49894255
_cell_angle_beta   105.53335612
_cell_angle_gamma   107.96437726
_symmetry_Int_Tables_number   1
_chemical_formula_structural   SmCoSe2ClO6
_chemical_formula_sum   'Sm4 Co4 Se8 Cl4 O24'
_cell_volume   706.65887198
_cell_formula_units_Z   4
loop_
 _symmetry_equiv_pos_site_id
 _symmetry_equiv_pos_as_xyz
  1  'x, y, z'
loop_
 _atom_site_type_symbol
 _atom_site_label
 _atom_site_symmetry_multiplicity
 _atom_site_fract_x
 _atom_site_fract_y
 _atom_site_fract_z
 _atom_site_occupancy
  Sm  Sm0  1  0.16694929  0.38140420  0.43476767  1
  Sm  Sm1  1  0.18215100  0.90250472  0.93636358  1
  Sm  Sm2  1  0.81784900  0.09749528  0.06363642  1
  Sm  Sm3  1  0.83305071  0.61859580  0.56523233  1
  Co  Co4  1  0.09490848  0.09832681  0.65224862  1
  Co  Co5  1  0.90509152  0.90167319  0.34775138  1
  Co  Co6  1  0.07901678  0.61551370  0.15558641  1
  Co  Co7  1  0.92098322  0.38448630  0.84441359  1
  Se  Se8  1  0.48104782  0.25304583  0.92238430  1
  Se  Se9  1  0.24311502  0.01398607  0.25046207  1
  Se  Se10  1  0.51895218  0.74695417  0.07761570  1
  Se  Se11  1  0.53638860  0.26725608  0.59050935  1
  Se  Se12  1  0.73348672  0.39599782  0.25776923  1
  Se  Se13  1  0.75688498  0.98601393  0.74953793  1
  Se  Se14  1  0.46361140  0.73274392  0.40949065  1
  Se  Se15  1  0.26651328  0.60400218  0.74223077  1
  Cl  Cl16  1  0.87178963  0.62325954  0.94963135  1
  Cl  Cl17  1  0.84095535  0.11004392  0.46773005  1
  Cl  Cl18  1  0.12821037  0.37674046  0.05036865  1
  Cl  Cl19  1  0.15904465  0.88995608  0.53226995  1
  O  O20  1  0.86881617  0.88618338  0.67163831  1
  O  O21  1  0.31139155  0.28123182  0.61239590  1
  O  O22  1  0.47196893  0.64034861  0.52639038  1
  O  O23  1  0.27855824  0.09608884  0.81722100  1
  O  O24  1  0.90298015  0.50306964  0.39801114  1
  O  O25  1  0.52803107  0.35965139  0.47360962  1
  O  O26  1  0.12307026  0.72632827  0.75767761  1
  O  O27  1  0.11158647  0.01674140  0.10776286  1
  O  O28  1  0.10143896  0.82723918  0.26342575  1
  O  O29  1  0.88841353  0.98325860  0.89223714  1
  O  O30  1  0.68860845  0.71876818  0.38760410  1
  O  O31  1  0.69071516  0.22175125  0.89355717  1
  O  O32  1  0.51377609  0.84890951  0.96454324  1
  O  O33  1  0.89856104  0.17276082  0.73657425  1
  O  O34  1  0.72144176  0.90391116  0.18277900  1
  O  O35  1  0.09701985  0.49693036  0.60198886  1
  O  O36  1  0.73088993  0.43031563  0.69510933  1
  O  O37  1  0.87692974  0.27367173  0.24232239  1
  O  O38  1  0.26911007  0.56968437  0.30489067  1
  O  O39  1  0.30928484  0.77824875  0.10644283  1
  O  O40  1  0.79088804  0.51442384  0.16422930  1
  O  O41  1  0.48622391  0.15109049  0.03545676  1
  O  O42  1  0.13118383  0.11381662  0.32836169  1
  O  O43  1  0.20911196  0.48557616  0.83577070  1
