# generated using pymatgen
data_Sr3Bi2Se6O19
_symmetry_space_group_name_H-M   'P 1'
_cell_length_a   7.18188369
_cell_length_b   7.35961489
_cell_length_c   17.72412199
_cell_angle_alpha   90.00000000
_cell_angle_beta   90.00000000
_cell_angle_gamma   91.89181953
_symmetry_Int_Tables_number   1
_chemical_formula_structural   Sr3Bi2Se6O19
_chemical_formula_sum   'Sr6 Bi4 Se12 O38'
_cell_volume   936.31376031
_cell_formula_units_Z   2
loop_
 _symmetry_equiv_pos_site_id
 _symmetry_equiv_pos_as_xyz
  1  'x, y, z'
loop_
 _atom_site_type_symbol
 _atom_site_label
 _atom_site_symmetry_multiplicity
 _atom_site_fract_x
 _atom_site_fract_y
 _atom_site_fract_z
 _atom_site_occupancy
  Sr  Sr0  1  0.40383346  0.06386934  0.10631757  1
  Sr  Sr1  1  0.59616654  0.93613066  0.60631757  1
  Sr  Sr2  1  0.59616654  0.93613066  0.89368243  1
  Sr  Sr3  1  0.40383346  0.06386934  0.39368243  1
  Sr  Sr4  1  0.64057707  0.66475628  0.25000000  1
  Sr  Sr5  1  0.35942293  0.33524372  0.75000000  1
  Bi  Bi6  1  0.90412828  0.33821502  0.08373974  1
  Bi  Bi7  1  0.09587172  0.66178498  0.58373974  1
  Bi  Bi8  1  0.09587172  0.66178498  0.91626026  1
  Bi  Bi9  1  0.90412828  0.33821502  0.41626026  1
  Se  Se10  1  0.61732350  0.39219714  0.93045322  1
  Se  Se11  1  0.38267650  0.60780286  0.43045322  1
  Se  Se12  1  0.38267650  0.60780286  0.06954678  1
  Se  Se13  1  0.61732350  0.39219714  0.56954678  1
  Se  Se14  1  0.17229094  0.39111890  0.25000000  1
  Se  Se15  1  0.82770906  0.60888110  0.75000000  1
  Se  Se16  1  0.68710687  0.19008203  0.25000000  1
  Se  Se17  1  0.31289313  0.80991797  0.75000000  1
  Se  Se18  1  0.91036787  0.84426231  0.08099889  1
  Se  Se19  1  0.08963213  0.15573769  0.58099889  1
  Se  Se20  1  0.08963213  0.15573769  0.91900111  1
  Se  Se21  1  0.91036787  0.84426231  0.41900111  1
  O  O22  1  0.85756467  0.43745232  0.95318770  1
  O  O23  1  0.14243533  0.56254768  0.45318770  1
  O  O24  1  0.14243533  0.56254768  0.04681230  1
  O  O25  1  0.85756467  0.43745232  0.54681230  1
  O  O26  1  0.59024342  0.21661893  0.99430282  1
  O  O27  1  0.40975658  0.78338107  0.49430282  1
  O  O28  1  0.40975658  0.78338107  0.00569718  1
  O  O29  1  0.59024342  0.21661893  0.50569718  1
  O  O30  1  0.63122962  0.27881710  0.84743345  1
  O  O31  1  0.36877038  0.72118290  0.34743345  1
  O  O32  1  0.36877038  0.72118290  0.15256655  1
  O  O33  1  0.63122962  0.27881710  0.65256655  1
  O  O34  1  0.96175324  0.49440749  0.25000000  1
  O  O35  1  0.03824676  0.50559251  0.75000000  1
  O  O36  1  0.13994446  0.24663892  0.17182469  1
  O  O37  1  0.86005554  0.75336108  0.67182469  1
  O  O38  1  0.86005554  0.75336108  0.82817531  1
  O  O39  1  0.13994446  0.24663892  0.32817531  1
  O  O40  1  0.51718385  0.01991003  0.25000000  1
  O  O41  1  0.48281615  0.98008997  0.75000000  1
  O  O42  1  0.61209832  0.32444578  0.17504779  1
  O  O43  1  0.38790168  0.67555422  0.67504779  1
  O  O44  1  0.38790168  0.67555422  0.82495221  1
  O  O45  1  0.61209832  0.32444578  0.32495221  1
  O  O46  1  0.76941406  0.02104483  0.10502101  1
  O  O47  1  0.23058594  0.97895517  0.60502101  1
  O  O48  1  0.23058594  0.97895517  0.89497899  1
  O  O49  1  0.76941406  0.02104483  0.39497899  1
  O  O50  1  0.77570587  0.65888362  0.10985887  1
  O  O51  1  0.22429413  0.34111638  0.60985887  1
  O  O52  1  0.22429413  0.34111638  0.89014113  1
  O  O53  1  0.77570587  0.65888362  0.39014113  1
  O  O54  1  0.87890692  0.83511828  0.98204099  1
  O  O55  1  0.12109308  0.16488172  0.48204099  1
  O  O56  1  0.12109308  0.16488172  0.01795901  1
  O  O57  1  0.87890692  0.83511828  0.51795901  1
  O  O58  1  0.96843095  0.85154454  0.25000000  1
  O  O59  1  0.03156905  0.14845546  0.75000000  1
