# generated using pymatgen
data_PH9(NO2)2
_symmetry_space_group_name_H-M   'P 1'
_cell_length_a   11.09757339
_cell_length_b   6.71584999
_cell_length_c   8.10134957
_cell_angle_alpha   90.00000000
_cell_angle_beta   113.62319296
_cell_angle_gamma   90.00000000
_symmetry_Int_Tables_number   1
_chemical_formula_structural   PH9(NO2)2
_chemical_formula_sum   'P4 H36 N8 O16'
_cell_volume   553.19335527
_cell_formula_units_Z   4
loop_
 _symmetry_equiv_pos_site_id
 _symmetry_equiv_pos_as_xyz
  1  'x, y, z'
loop_
 _atom_site_type_symbol
 _atom_site_label
 _atom_site_symmetry_multiplicity
 _atom_site_fract_x
 _atom_site_fract_y
 _atom_site_fract_z
 _atom_site_occupancy
  P  P0  1  0.24912183  0.60904601  0.93216522  1
  P  P1  1  0.75087817  0.10904601  0.56783478  1
  P  P2  1  0.75087817  0.39095399  0.06783478  1
  P  P3  1  0.24912183  0.89095399  0.43216522  1
  H  H4  1  0.17831246  0.63213068  0.62825519  1
  H  H5  1  0.82168754  0.13213068  0.87174481  1
  H  H6  1  0.82168754  0.36786932  0.37174481  1
  H  H7  1  0.17831246  0.86786932  0.12825519  1
  H  H8  1  0.52274063  0.33489131  0.60992195  1
  H  H9  1  0.47725937  0.83489131  0.89007805  1
  H  H10  1  0.47725937  0.66510869  0.39007805  1
  H  H11  1  0.52274063  0.16510869  0.10992195  1
  H  H12  1  0.41575423  0.52073083  0.61152169  1
  H  H13  1  0.58424577  0.02073083  0.88847831  1
  H  H14  1  0.58424577  0.47926917  0.38847831  1
  H  H15  1  0.41575423  0.97926917  0.11152169  1
  H  H16  1  0.50213819  0.37954901  0.79992386  1
  H  H17  1  0.49786181  0.87954901  0.70007614  1
  H  H18  1  0.49786181  0.62045099  0.20007614  1
  H  H19  1  0.50213819  0.12045099  0.29992386  1
  H  H20  1  0.37760864  0.27309950  0.62002049  1
  H  H21  1  0.62239136  0.77309950  0.87997951  1
  H  H22  1  0.62239136  0.72690050  0.37997951  1
  H  H23  1  0.37760864  0.22690050  0.12002049  1
  H  H24  1  0.17605877  0.10019259  0.67899228  1
  H  H25  1  0.82394123  0.60019259  0.82100772  1
  H  H26  1  0.82394123  0.89980741  0.32100772  1
  H  H27  1  0.17605877  0.39980741  0.17899228  1
  H  H28  1  0.12465054  0.97698533  0.82606293  1
  H  H29  1  0.87534946  0.47698533  0.67393707  1
  H  H30  1  0.87534946  0.02301467  0.17393707  1
  H  H31  1  0.12465054  0.52301467  0.32606293  1
  H  H32  1  0.16864904  0.22263370  0.85696251  1
  H  H33  1  0.83135096  0.72263370  0.64303749  1
  H  H34  1  0.83135096  0.77736630  0.14303749  1
  H  H35  1  0.16864904  0.27736630  0.35696251  1
  H  H36  1  0.02653294  0.15691207  0.68349033  1
  H  H37  1  0.97346706  0.65691207  0.81650967  1
  H  H38  1  0.97346706  0.84308793  0.31650967  1
  H  H39  1  0.02653294  0.34308793  0.18349033  1
  N  N40  1  0.45316030  0.38034586  0.65983923  1
  N  N41  1  0.54683970  0.88034586  0.84016077  1
  N  N42  1  0.54683970  0.61965414  0.34016077  1
  N  N43  1  0.45316030  0.11965414  0.15983923  1
  N  N44  1  0.12346345  0.11279761  0.76179103  1
  N  N45  1  0.87653655  0.61279761  0.73820897  1
  N  N46  1  0.87653655  0.88720239  0.23820897  1
  N  N47  1  0.12346345  0.38720239  0.26179103  1
  O  O48  1  0.20451795  0.53012029  0.72926036  1
  O  O49  1  0.79548205  0.03012029  0.77073964  1
  O  O50  1  0.79548205  0.46987971  0.27073964  1
  O  O51  1  0.20451795  0.96987971  0.22926036  1
  O  O52  1  0.26378230  0.41563354  0.04149059  1
  O  O53  1  0.73621770  0.91563354  0.45850941  1
  O  O54  1  0.73621770  0.58436646  0.95850941  1
  O  O55  1  0.26378230  0.08436646  0.54149059  1
  O  O56  1  0.37880534  0.72704337  0.98912915  1
  O  O57  1  0.62119466  0.22704337  0.51087085  1
  O  O58  1  0.62119466  0.27295663  0.01087085  1
  O  O59  1  0.37880534  0.77295663  0.48912915  1
  O  O60  1  0.13741416  0.74265094  0.94064447  1
  O  O61  1  0.86258584  0.24265094  0.55935553  1
  O  O62  1  0.86258584  0.25734906  0.05935553  1
  O  O63  1  0.13741416  0.75734906  0.44064447  1
