# generated using pymatgen
data_LiMnO2
_symmetry_space_group_name_H-M   'P 1'
_cell_length_a   5.76152769
_cell_length_b   5.76149295
_cell_length_c   31.05654494
_cell_angle_alpha   117.63396298
_cell_angle_beta   117.62431034
_cell_angle_gamma   89.99975122
_symmetry_Int_Tables_number   1
_chemical_formula_structural   LiMnO2
_chemical_formula_sum   'Li20 Mn20 O40'
_cell_volume   778.24712429
_cell_formula_units_Z   20
loop_
 _symmetry_equiv_pos_site_id
 _symmetry_equiv_pos_as_xyz
  1  'x, y, z'
loop_
 _atom_site_type_symbol
 _atom_site_label
 _atom_site_symmetry_multiplicity
 _atom_site_fract_x
 _atom_site_fract_y
 _atom_site_fract_z
 _atom_site_occupancy
  Li  Li0  1  0.99290918  0.98695468  0.89342965  1
  Li  Li1  1  0.99171488  0.99153668  0.79445324  1
  Li  Li2  1  0.99228624  0.48530208  0.79468970  1
  Li  Li3  1  0.99783776  0.98936482  0.69529689  1
  Li  Li4  1  0.48568863  0.98768121  0.89371485  1
  Li  Li5  1  0.00134968  0.99430512  0.59670903  1
  Li  Li6  1  0.00060507  0.48995896  0.59640214  1
  Li  Li7  1  0.98976353  0.99174587  0.99303989  1
  Li  Li8  1  0.49376813  0.99038226  0.69571765  1
  Li  Li9  1  0.99978778  0.99264573  0.39466181  1
  Li  Li10  1  0.99953020  0.48555995  0.39454850  1
  Li  Li11  1  0.00267911  0.98622970  0.49389523  1
  Li  Li12  1  0.51192321  0.00035606  0.49956712  1
  Li  Li13  1  0.99752419  0.99407713  0.19412415  1
  Li  Li14  1  0.99709395  0.48665801  0.19397104  1
  Li  Li15  1  0.00070563  0.98653007  0.29299267  1
  Li  Li16  1  0.49720522  0.99105781  0.29480574  1
  Li  Li17  1  0.99630980  0.98547061  0.09193958  1
  Li  Li18  1  0.50202090  0.99807440  0.09700731  1
  Li  Li19  1  0.99139481  0.48556179  0.99364746  1
  Mn  Mn20  1  0.99941636  0.49661242  0.89733069  1
  Mn  Mn21  1  0.00264634  0.49680243  0.69821925  1
  Mn  Mn22  1  0.49827404  0.49621112  0.89715792  1
  Mn  Mn23  1  0.49978356  0.99632244  0.79762869  1
  Mn  Mn24  1  0.49971904  0.49590615  0.79760500  1
  Mn  Mn25  1  0.00771861  0.49828900  0.49868001  1
  Mn  Mn26  1  0.50213446  0.49642687  0.69806733  1
  Mn  Mn27  1  0.50492602  0.49738954  0.59851286  1
  Mn  Mn28  1  0.50498834  0.99739651  0.59853664  1
  Mn  Mn29  1  0.00805589  0.49904161  0.29798994  1
  Mn  Mn30  1  0.50685593  0.49751004  0.49838420  1
  Mn  Mn31  1  0.50762359  0.49815521  0.39825732  1
  Mn  Mn32  1  0.50772323  0.99840308  0.39827785  1
  Mn  Mn33  1  0.00283327  0.49855503  0.09727632  1
  Mn  Mn34  1  0.50672497  0.49830406  0.29769632  1
  Mn  Mn35  1  0.50485820  0.49862765  0.19747895  1
  Mn  Mn36  1  0.50481010  0.99889059  0.19745203  1
  Mn  Mn37  1  0.50174097  0.49800615  0.09706767  1
  Mn  Mn38  1  0.49948710  0.49733321  0.99713769  1
  Mn  Mn39  1  0.49944722  0.99773676  0.99711100  1
  O  O40  1  0.26904198  0.74810623  0.99732636  1
  O  O41  1  0.25084918  0.26708624  0.89802565  1
  O  O42  1  0.25050314  0.72947921  0.89789030  1
  O  O43  1  0.27104776  0.74862077  0.79862299  1
  O  O44  1  0.27044729  0.24807276  0.79839955  1
  O  O45  1  0.73309080  0.74968745  0.99794183  1
  O  O46  1  0.25406650  0.26723539  0.69889022  1
  O  O47  1  0.25417747  0.72975808  0.69893265  1
  O  O48  1  0.75086181  0.26731146  0.89809620  1
  O  O49  1  0.75078621  0.72977652  0.89806501  1
  O  O50  1  0.27678037  0.75039313  0.59974497  1
  O  O51  1  0.27795910  0.25132893  0.60010882  1
  O  O52  1  0.73372319  0.74889344  0.79873109  1
  O  O53  1  0.73252869  0.24773080  0.79826564  1
  O  O54  1  0.26127141  0.27055035  0.50008995  1
  O  O55  1  0.26142907  0.73318551  0.50015730  1
  O  O56  1  0.75548619  0.26838056  0.69933224  1
  O  O57  1  0.75548900  0.73074124  0.69933641  1
  O  O58  1  0.27621498  0.74768178  0.39803835  1
  O  O59  1  0.28044892  0.25227423  0.39987648  1
  O  O60  1  0.73956551  0.75056178  0.59980757  1
  O  O61  1  0.73774232  0.24856317  0.59899765  1
  O  O62  1  0.25992673  0.26963057  0.29883562  1
  O  O63  1  0.26022104  0.73279833  0.29896231  1
  O  O64  1  0.75962329  0.26872471  0.49938793  1
  O  O65  1  0.75965219  0.73141958  0.49939714  1
  O  O66  1  0.27567141  0.75095031  0.19832054  1
  O  O67  1  0.27795828  0.25292829  0.19911875  1
  O  O68  1  0.74154817  0.75041286  0.39913992  1
  O  O69  1  0.74232679  0.25148648  0.39956294  1
  O  O70  1  0.25573231  0.27056905  0.09853993  1
  O  O71  1  0.25529567  0.73260250  0.09836726  1
  O  O72  1  0.75890522  0.26868492  0.29839190  1
  O  O73  1  0.75915117  0.73159101  0.29849095  1
  O  O74  1  0.27103182  0.25034587  0.99822981  1
  O  O75  1  0.73838301  0.75086997  0.19829365  1
  O  O76  1  0.73705702  0.24942061  0.19771720  1
  O  O77  1  0.75445736  0.26907663  0.09799751  1
  O  O78  1  0.75431437  0.73158018  0.09794524  1
  O  O79  1  0.73336814  0.25011631  0.99814283  1
