# generated using pymatgen
data_Cs3Mg3In(PO3)12
_symmetry_space_group_name_H-M   'P 1'
_cell_length_a   9.67616699
_cell_length_b   9.65273921
_cell_length_c   11.19965106
_cell_angle_alpha   101.39561620
_cell_angle_beta   105.81886621
_cell_angle_gamma   117.11641830
_symmetry_Int_Tables_number   1
_chemical_formula_structural   Cs3Mg3In(PO3)12
_chemical_formula_sum   'Cs3 Mg3 In1 P12 O36'
_cell_volume   830.15562539
_cell_formula_units_Z   1
loop_
 _symmetry_equiv_pos_site_id
 _symmetry_equiv_pos_as_xyz
  1  'x, y, z'
loop_
 _atom_site_type_symbol
 _atom_site_label
 _atom_site_symmetry_multiplicity
 _atom_site_fract_x
 _atom_site_fract_y
 _atom_site_fract_z
 _atom_site_occupancy
  Cs  Cs0  1  0.21404509  0.21155316  0.00508319  1
  Cs  Cs1  1  0.49394622  0.00431959  0.49842709  1
  Cs  Cs2  1  0.78672969  0.79247764  0.00123501  1
  Mg  Mg3  1  0.32478997  0.75099953  0.07678213  1
  Mg  Mg4  1  0.20178326  0.20412171  0.40589162  1
  Mg  Mg5  1  0.67654941  0.24898823  0.92436635  1
  In  In6  1  0.79704002  0.79430290  0.59192819  1
  P  P7  1  0.07016076  0.76370873  0.83192644  1
  P  P8  1  0.03306335  0.57929701  0.19544508  1
  P  P9  1  0.03028892  0.20048111  0.63262804  1
  P  P10  1  0.38511741  0.83818247  0.80365514  1
  P  P11  1  0.43100546  0.60237096  0.63197922  1
  P  P12  1  0.39774821  0.32862832  0.72839823  1
  P  P13  1  0.60124538  0.66843110  0.26749462  1
  P  P14  1  0.56247869  0.39060255  0.36577126  1
  P  P15  1  0.61583983  0.16088984  0.19613486  1
  P  P16  1  0.97508573  0.80404776  0.36517622  1
  P  P17  1  0.96775649  0.41936204  0.80395649  1
  P  P18  1  0.93348996  0.23562868  0.17124819  1
  O  O19  1  0.16016921  0.82141309  0.98030635  1
  O  O20  1  0.09362879  0.94755624  0.33862144  1
  O  O21  1  0.19990295  0.81816720  0.76268858  1
  O  O22  1  0.12602103  0.49697165  0.92991471  1
  O  O23  1  0.00129389  0.35008223  0.67575837  1
  O  O24  1  0.05033383  0.43647044  0.24015239  1
  O  O25  1  0.02839448  0.17317470  0.49667573  1
  O  O26  1  0.43134075  0.80406443  0.92883521  1
  O  O27  1  0.20614731  0.70641119  0.20876483  1
  O  O28  1  0.50068743  0.99726928  0.79113149  1
  O  O29  1  0.32514061  0.67595497  0.67456300  1
  O  O30  1  0.21937496  0.27202093  0.74476803  1
  O  O31  1  0.04555546  0.17234552  0.21974376  1
  O  O32  1  0.32316038  0.46953950  0.49541057  1
  O  O33  1  0.46703152  0.52318663  0.74390337  1
  O  O34  1  0.60450497  0.75431677  0.66430723  1
  O  O35  1  0.36236486  0.22739458  0.59131829  1
  O  O36  1  0.51516902  0.33507263  0.85158700  1
  O  O37  1  0.48473378  0.66105042  0.14396908  1
  O  O38  1  0.63094635  0.77298094  0.40285123  1
  O  O39  1  0.39071938  0.24635171  0.33731793  1
  O  O40  1  0.53379044  0.47780609  0.25744687  1
  O  O41  1  0.67606137  0.52464720  0.50425538  1
  O  O42  1  0.95746131  0.82997644  0.78619440  1
  O  O43  1  0.78124671  0.72865642  0.25686020  1
  O  O44  1  0.67235724  0.32227515  0.32495862  1
  O  O45  1  0.49965617  0.00112372  0.20822642  1
  O  O46  1  0.79483768  0.29238059  0.79041269  1
  O  O47  1  0.56809628  0.19506054  0.07092009  1
  O  O48  1  0.97809282  0.82787716  0.50330852  1
  O  O49  1  0.94996500  0.56442974  0.76110168  1
  O  O50  1  0.99967364  0.65161223  0.32323308  1
  O  O51  1  0.87487104  0.50307478  0.06942496  1
  O  O52  1  0.80066467  0.18330189  0.23900860  1
  O  O53  1  0.90724603  0.05853723  0.66234270  1
  O  O54  1  0.84119477  0.17905242  0.02218988  1
