# generated using pymatgen
data_Sr5(CoO3)4
_symmetry_space_group_name_H-M   'P 1'
_cell_length_a   9.56500372
_cell_length_b   9.56500390
_cell_length_c   20.23545053
_cell_angle_alpha   90.00000000
_cell_angle_beta   90.00000000
_cell_angle_gamma   119.99999937
_symmetry_Int_Tables_number   1
_chemical_formula_structural   Sr5(CoO3)4
_chemical_formula_sum   'Sr30 Co24 O72'
_cell_volume   1603.29636318
_cell_formula_units_Z   6
loop_
 _symmetry_equiv_pos_site_id
 _symmetry_equiv_pos_as_xyz
  1  'x, y, z'
loop_
 _atom_site_type_symbol
 _atom_site_label
 _atom_site_symmetry_multiplicity
 _atom_site_fract_x
 _atom_site_fract_y
 _atom_site_fract_z
 _atom_site_occupancy
  Sr  Sr0  1  0.33215176  0.33217326  0.79853888  1
  Sr  Sr1  1  0.36438026  0.00268045  0.49817101  1
  Sr  Sr2  1  0.02738268  0.69321993  0.20004233  1
  Sr  Sr3  1  0.66782674  0.66784824  0.29853888  1
  Sr  Sr4  1  0.02738268  0.33416274  0.70004233  1
  Sr  Sr5  1  0.30678007  0.97261732  0.70004233  1
  Sr  Sr6  1  0.36438026  0.36169981  0.99817101  1
  Sr  Sr7  1  0.66782674  -0.00002150  0.79853888  1
  Sr  Sr8  1  0.63830019  0.63561974  0.49817101  1
  Sr  Sr9  1  0.33014199  0.99434123  0.09830736  1
  Sr  Sr10  1  0.97005959  0.66457058  0.40005048  1
  Sr  Sr11  1  0.33542942  0.02994041  0.90005048  1
  Sr  Sr12  1  0.00002150  0.33217326  0.29853888  1
  Sr  Sr13  1  0.66583726  0.97261732  0.20004233  1
  Sr  Sr14  1  -0.00268045  0.63561974  0.99817101  1
  Sr  Sr15  1  0.00565877  0.33580076  0.09830736  1
  Sr  Sr16  1  0.97005959  0.30548902  0.90005048  1
  Sr  Sr17  1  0.33014199  0.33580076  0.59830736  1
  Sr  Sr18  1  0.66419924  0.99434123  0.59830736  1
  Sr  Sr19  1  0.66583726  0.69321993  0.70004233  1
  Sr  Sr20  1  0.33542942  0.30548902  0.40005048  1
  Sr  Sr21  1  0.00565877  0.66985801  0.59830736  1
  Sr  Sr22  1  0.00002150  0.66784824  0.79853888  1
  Sr  Sr23  1  0.69451098  0.66457058  0.90005048  1
  Sr  Sr24  1  0.33215176  -0.00002150  0.29853888  1
  Sr  Sr25  1  0.30678007  0.33416274  0.20004233  1
  Sr  Sr26  1  -0.00268045  0.36169981  0.49817101  1
  Sr  Sr27  1  0.66419924  0.66985801  0.09830736  1
  Sr  Sr28  1  0.69451098  0.02994041  0.40005048  1
  Sr  Sr29  1  0.63830019  0.00268045  0.99817101  1
  Co  Co30  1  0.33333300  0.66666700  0.02801087  1
  Co  Co31  1  0.33333300  0.66666700  0.52801087  1
  Co  Co32  1  0.33333300  0.66666700  0.89906040  1
  Co  Co33  1  0.00000000  0.00000000  0.12655482  1
  Co  Co34  1  0.66666700  0.33333300  0.44962289  1
  Co  Co35  1  0.66666700  0.33333300  0.32634620  1
  Co  Co36  1  0.66666700  0.33333300  0.07323286  1
  Co  Co37  1  0.66666700  0.33333300  0.94962289  1
  Co  Co38  1  0.33333300  0.66666700  0.64952335  1
  Co  Co39  1  0.33333300  0.66666700  0.77205786  1
  Co  Co40  1  0.66666700  0.33333300  0.69962164  1
  Co  Co41  1  0.66666700  0.33333300  0.82634620  1
  Co  Co42  1  0.33333300  0.66666700  0.14952335  1
  Co  Co43  1  0.33333300  0.66666700  0.27205786  1
  Co  Co44  1  0.00000000  0.00000000  0.99868081  1
  Co  Co45  1  0.00000000  0.00000000  0.24864670  1
  Co  Co46  1  0.00000000  0.00000000  0.62655482  1
  Co  Co47  1  0.66666700  0.33333300  0.57323286  1
  Co  Co48  1  0.00000000  0.00000000  0.49868081  1
  Co  Co49  1  0.66666700  0.33333300  0.19962164  1
  Co  Co50  1  0.00000000  0.00000000  0.86994652  1
  Co  Co51  1  0.33333300  0.66666700  0.39906040  1
  Co  Co52  1  0.00000000  0.00000000  0.74864670  1
  Co  Co53  1  0.00000000  0.00000000  0.36994652  1
  O  O54  1  0.15029030  0.99346393  0.42932204  1
  O  O55  1  0.00653607  0.15682637  0.42932204  1
  O  O56  1  0.32578103  0.50916435  0.46999944  1
  O  O57  1  0.81008612  0.48916694  0.26721786  1
  O  O58  1  0.00057827  0.15353926  0.80640491  1
  O  O59  1  0.84690473  0.99789550  0.06726946  1
  O  O60  1  0.48777963  0.67120032  0.82985441  1
  O  O61  1  0.48381679  0.82622787  0.70882783  1
  O  O62  1  0.15029030  0.15682637  0.92932204  1
  O  O63  1  0.99255828  0.15291682  0.18993794  1
  O  O64  1  0.82923759  0.34697259  0.38923702  1
  O  O65  1  0.49083565  0.67421897  0.96999944  1
  O  O66  1  0.48381679  0.65758892  0.20882783  1
  O  O67  1  0.49083565  0.81661668  0.46999944  1
  O  O68  1  0.18178615  0.51459134  0.59069638  1
  O  O69  1  0.84708318  0.00744172  0.68993794  1
  O  O70  1  0.48540866  0.81821385  0.09069638  1
  O  O71  1  0.15296099  0.15353926  0.30640491  1
  O  O72  1  0.65358171  0.17729848  0.13232180  1
  O  O73  1  0.51083306  0.32091919  0.26721786  1
  O  O74  1  0.16035854  0.00744172  0.18993794  1
  O  O75  1  0.84646074  0.84703901  0.80640491  1
  O  O76  1  0.18342068  0.51222037  0.82985441  1
  O  O77  1  0.00210450  0.15309527  0.56726946  1
  O  O78  1  0.17377213  0.65758892  0.70882783  1
  O  O79  1  0.52371677  0.34641829  0.13232180  1
  O  O80  1  0.67908081  0.18991388  0.26721786  1
  O  O81  1  0.51773500  0.17076241  0.38923702  1
  O  O82  1  0.67908081  0.48916694  0.76721786  1
  O  O83  1  0.81530155  0.49566255  0.51003255  1
  O  O84  1  0.34241108  0.82622787  0.20882783  1
  O  O85  1  0.48777963  0.81657932  0.32985441  1
  O  O86  1  0.33280519  0.81821385  0.59069638  1
  O  O87  1  0.82270152  0.34641829  0.63232180  1
  O  O88  1  0.51773500  0.34697259  0.88923702  1
  O  O89  1  0.84708318  0.83964146  0.18993794  1
  O  O90  1  0.15296099  -0.00057827  0.80640491  1
  O  O91  1  0.15099076  0.15309527  0.06726946  1
  O  O92  1  0.17377213  0.51618321  0.20882783  1
  O  O93  1  0.65302741  0.48226500  0.38923702  1
  O  O94  1  0.52371677  0.17729848  0.63232180  1
  O  O95  1  0.65302741  0.17076241  0.88923702  1
  O  O96  1  0.00653607  0.84970970  0.92932204  1
  O  O97  1  0.84690473  0.84900924  0.56726946  1
  O  O98  1  0.68036100  0.49566255  0.01003255  1
  O  O99  1  0.84646074  -0.00057827  0.30640491  1
  O  O100  1  0.50433745  0.31963900  0.51003255  1
  O  O101  1  0.99255828  0.83964146  0.68993794  1
  O  O102  1  0.81530155  0.31963900  0.01003255  1
  O  O103  1  0.82270152  0.47628323  0.13232180  1
  O  O104  1  0.65358171  0.47628323  0.63232180  1
  O  O105  1  0.33280519  0.51459134  0.09069638  1
  O  O106  1  0.18338332  0.67421897  0.46999944  1
  O  O107  1  0.68036100  0.18469845  0.51003255  1
  O  O108  1  0.00210450  0.84900924  0.06726946  1
  O  O109  1  0.18338332  0.50916435  0.96999944  1
  O  O110  1  0.51083306  0.18991388  0.76721786  1
  O  O111  1  0.84317363  0.99346393  0.92932204  1
  O  O112  1  0.81008612  0.32091919  0.76721786  1
  O  O113  1  0.34241108  0.51618321  0.70882783  1
  O  O114  1  0.00057827  0.84703901  0.30640491  1
  O  O115  1  0.18178615  0.66719481  0.09069638  1
  O  O116  1  0.15099076  0.99789550  0.56726946  1
  O  O117  1  0.50433745  0.18469845  0.01003255  1
  O  O118  1  0.16035854  0.15291682  0.68993794  1
  O  O119  1  0.18342068  0.67120032  0.32985441  1
  O  O120  1  0.84317363  0.84970970  0.42932204  1
  O  O121  1  0.48540866  0.66719481  0.59069638  1
  O  O122  1  0.82923759  0.48226500  0.88923702  1
  O  O123  1  0.32879968  0.51222037  0.32985441  1
  O  O124  1  0.32879968  0.81657932  0.82985441  1
  O  O125  1  0.32578103  0.81661668  0.96999944  1
