# generated using pymatgen
data_SmZrF7
_symmetry_space_group_name_H-M   'P 1'
_cell_length_a   5.91887875
_cell_length_b   6.22291793
_cell_length_c   8.45211617
_cell_angle_alpha   102.88665545
_cell_angle_beta   90.00000000
_cell_angle_gamma   90.00000000
_symmetry_Int_Tables_number   1
_chemical_formula_structural   SmZrF7
_chemical_formula_sum   'Sm2 Zr2 F14'
_cell_volume   303.47321078
_cell_formula_units_Z   2
loop_
 _symmetry_equiv_pos_site_id
 _symmetry_equiv_pos_as_xyz
  1  'x, y, z'
loop_
 _atom_site_type_symbol
 _atom_site_label
 _atom_site_symmetry_multiplicity
 _atom_site_fract_x
 _atom_site_fract_y
 _atom_site_fract_z
 _atom_site_occupancy
  F  F0  1  0.44488043  0.96171678  0.98286939  1
  F  F1  1  0.94488043  0.03828322  0.01713061  1
  F  F2  1  0.48142922  0.55670189  0.73566672  1
  F  F3  1  0.98142922  0.44329811  0.26433328  1
  F  F4  1  0.73797362  0.73354309  0.52137512  1
  F  F5  1  0.23797362  0.26645691  0.47862488  1
  F  F6  1  0.00829152  0.56247716  0.74576661  1
  F  F7  1  0.50829152  0.43752284  0.25423339  1
  F  F8  1  0.50860232  0.09889288  0.70877254  1
  F  F9  1  0.00860232  0.90110712  0.29122746  1
  F  F10  1  0.50516990  0.92626018  0.29108545  1
  F  F11  1  0.00516990  0.07373982  0.70891455  1
  F  F12  1  0.74760303  0.64194309  0.02890449  1
  F  F13  1  0.24760303  0.35805691  0.97109551  1
  Zr  Zr14  1  0.24372832  0.31487906  0.72514470  1
  Zr  Zr15  1  0.74372832  0.68512094  0.27485530  1
  Sm  Sm16  1  0.23678164  0.15363095  0.18814679  1
  Sm  Sm17  1  0.73678164  0.84636905  0.81185321  1
