# generated using pymatgen
data_B9H11
_symmetry_space_group_name_H-M   'P 1'
_cell_length_a   9.30113638
_cell_length_b   13.40866359
_cell_length_c   12.74658868
_cell_angle_alpha   90.00000000
_cell_angle_beta   109.67547845
_cell_angle_gamma   90.00000000
_symmetry_Int_Tables_number   1
_chemical_formula_structural   B9H11
_chemical_formula_sum   'B72 H88'
_cell_volume   1496.88598476
_cell_formula_units_Z   8
loop_
 _symmetry_equiv_pos_site_id
 _symmetry_equiv_pos_as_xyz
  1  'x, y, z'
loop_
 _atom_site_type_symbol
 _atom_site_label
 _atom_site_symmetry_multiplicity
 _atom_site_fract_x
 _atom_site_fract_y
 _atom_site_fract_z
 _atom_site_occupancy
  B  B0  1  0.54513401  0.27222460  0.73334525  1
  B  B1  1  0.45486599  0.77222460  0.76665475  1
  B  B2  1  0.45486599  0.72777540  0.26665475  1
  B  B3  1  0.54513401  0.22777540  0.23334525  1
  B  B4  1  0.37965453  0.22114754  0.63169668  1
  B  B5  1  0.62034547  0.72114754  0.86830332  1
  B  B6  1  0.62034547  0.77885246  0.36830332  1
  B  B7  1  0.37965453  0.27885246  0.13169668  1
  B  B8  1  0.54945006  0.14980466  0.68035656  1
  B  B9  1  0.45054994  0.64980466  0.81964344  1
  B  B10  1  0.45054994  0.85019534  0.31964344  1
  B  B11  1  0.54945006  0.35019534  0.18035656  1
  B  B12  1  0.71845009  0.21969330  0.72862936  1
  B  B13  1  0.28154991  0.71969330  0.77137064  1
  B  B14  1  0.28154991  0.78030670  0.27137064  1
  B  B15  1  0.71845009  0.28030670  0.22862936  1
  B  B16  1  0.43731122  0.34646429  0.62271085  1
  B  B17  1  0.56268878  0.84646429  0.87728915  1
  B  B18  1  0.56268878  0.65353571  0.37728915  1
  B  B19  1  0.43731122  0.15353571  0.12271085  1
  B  B20  1  0.35558945  0.27121678  0.50275844  1
  B  B21  1  0.64441055  0.77121678  0.99724156  1
  B  B22  1  0.64441055  0.72878322  0.49724156  1
  B  B23  1  0.35558945  0.22878322  0.00275844  1
  B  B24  1  0.44990828  0.15351666  0.53663190  1
  B  B25  1  0.55009172  0.65351666  0.96336810  1
  B  B26  1  0.55009172  0.84648334  0.46336810  1
  B  B27  1  0.44990828  0.34648334  0.03663190  1
  B  B28  1  0.67230356  0.14907982  0.60198949  1
  B  B29  1  0.32769644  0.64907982  0.89801051  1
  B  B30  1  0.32769644  0.85092018  0.39801051  1
  B  B31  1  0.67230356  0.35092018  0.10198949  1
  B  B32  1  0.76475231  0.26810934  0.61834913  1
  B  B33  1  0.23524769  0.76810934  0.88165087  1
  B  B34  1  0.23524769  0.73189066  0.38165087  1
  B  B35  1  0.76475231  0.23189066  0.11834913  1
  B  B36  1  0.66389662  0.34904099  0.68442548  1
  B  B37  1  0.33610338  0.84904099  0.81557452  1
  B  B38  1  0.33610338  0.65095901  0.31557452  1
  B  B39  1  0.66389662  0.15095901  0.18442548  1
  B  B40  1  0.72399231  0.47346711  0.67382718  1
  B  B41  1  0.27600769  0.97346711  0.82617282  1
  B  B42  1  0.27600769  0.52653289  0.32617282  1
  B  B43  1  0.72399231  0.02653289  0.17382718  1
  B  B44  1  0.91350301  0.50431701  0.76147645  1
  B  B45  1  0.08649699  0.00431701  0.73852355  1
  B  B46  1  0.08649699  0.49568299  0.23852355  1
  B  B47  1  0.91350301  0.99568299  0.26147645  1
  B  B48  1  0.87950217  0.46712114  0.62207903  1
  B  B49  1  0.12049783  0.96712114  0.87792097  1
  B  B50  1  0.12049783  0.53287886  0.37792097  1
  B  B51  1  0.87950217  0.03287886  0.12207903  1
  B  B52  1  0.72126202  0.38780954  0.56641809  1
  B  B53  1  0.27873798  0.88780954  0.93358191  1
  B  B54  1  0.27873798  0.61219046  0.43358191  1
  B  B55  1  0.72126202  0.11219046  0.06641809  1
  B  B56  1  0.79065919  0.43045192  0.81103571  1
  B  B57  1  0.20934081  0.93045192  0.68896429  1
  B  B58  1  0.20934081  0.56954808  0.18896429  1
  B  B59  1  0.79065919  0.06954808  0.31103571  1
  B  B60  1  0.98969241  0.40897142  0.85258911  1
  B  B61  1  0.01030759  0.90897142  0.64741089  1
  B  B62  1  0.01030759  0.59102858  0.14741089  1
  B  B63  1  0.98969241  0.09102858  0.35258911  1
  B  B64  1  0.03621722  0.41584426  0.72757343  1
  B  B65  1  0.96378278  0.91584426  0.77242657  1
  B  B66  1  0.96378278  0.58415574  0.27242657  1
  B  B67  1  0.03621722  0.08415574  0.22757343  1
  B  B68  1  0.91254186  0.34220876  0.59607816  1
  B  B69  1  0.08745814  0.84220876  0.90392184  1
  B  B70  1  0.08745814  0.65779124  0.40392184  1
  B  B71  1  0.91254186  0.15779124  0.09607816  1
  H  H72  1  0.53664439  0.29214828  0.82248696  1
  H  H73  1  0.46335561  0.79214828  0.67751304  1
  H  H74  1  0.46335561  0.70785172  0.17751304  1
  H  H75  1  0.53664439  0.20785172  0.32248696  1
  H  H76  1  0.27384963  0.19865955  0.65978765  1
  H  H77  1  0.72615037  0.69865955  0.84021235  1
  H  H78  1  0.72615037  0.80134045  0.34021235  1
  H  H79  1  0.27384963  0.30134045  0.15978765  1
  H  H80  1  0.54735067  0.07237895  0.72612100  1
  H  H81  1  0.45264933  0.57237895  0.77387900  1
  H  H82  1  0.45264933  0.92762105  0.27387900  1
  H  H83  1  0.54735067  0.42762105  0.22612100  1
  H  H84  1  0.81527656  0.19566797  0.81320013  1
  H  H85  1  0.18472344  0.69566797  0.68679987  1
  H  H86  1  0.18472344  0.80433203  0.18679987  1
  H  H87  1  0.81527656  0.30433203  0.31320013  1
  H  H88  1  0.37375236  0.41951416  0.63791542  1
  H  H89  1  0.62624764  0.91951416  0.86208458  1
  H  H90  1  0.62624764  0.58048584  0.36208458  1
  H  H91  1  0.37375236  0.08048584  0.13791542  1
  H  H92  1  0.24263363  0.28771281  0.42579871  1
  H  H93  1  0.75736637  0.78771281  0.07420129  1
  H  H94  1  0.75736637  0.71228719  0.57420129  1
  H  H95  1  0.24263363  0.21228719  0.92579871  1
  H  H96  1  0.39388327  0.08196359  0.48293752  1
  H  H97  1  0.60611673  0.58196359  0.01706248  1
  H  H98  1  0.60611673  0.91803641  0.51706248  1
  H  H99  1  0.39388327  0.41803641  0.98293752  1
  H  H100  1  0.73631509  0.07454512  0.59350284  1
  H  H101  1  0.26368491  0.57454512  0.90649716  1
  H  H102  1  0.26368491  0.92545488  0.40649716  1
  H  H103  1  0.73631509  0.42545488  0.09350284  1
  H  H104  1  0.68800823  0.21151190  0.52721931  1
  H  H105  1  0.31199177  0.71151190  0.97278069  1
  H  H106  1  0.31199177  0.78848810  0.47278069  1
  H  H107  1  0.68800823  0.28848810  0.02721931  1
  H  H108  1  0.92055993  0.26092120  0.65523955  1
  H  H109  1  0.07944007  0.76092120  0.84476045  1
  H  H110  1  0.07944007  0.73907880  0.34476045  1
  H  H111  1  0.92055993  0.23907880  0.15523955  1
  H  H112  1  0.62875919  0.53707126  0.65313435  1
  H  H113  1  0.37124081  0.03707126  0.84686565  1
  H  H114  1  0.37124081  0.46292874  0.34686565  1
  H  H115  1  0.62875919  0.96292874  0.15313435  1
  H  H116  1  0.94873747  0.58846955  0.78966032  1
  H  H117  1  0.05126253  0.08846955  0.71033968  1
  H  H118  1  0.05126253  0.41153045  0.21033968  1
  H  H119  1  0.94873747  0.91153045  0.28966032  1
  H  H120  1  0.90949375  0.52351354  0.55977881  1
  H  H121  1  0.09050625  0.02351354  0.94022119  1
  H  H122  1  0.09050625  0.47648646  0.44022119  1
  H  H123  1  0.90949375  0.97648646  0.05977881  1
  H  H124  1  0.63467308  0.39989272  0.47420338  1
  H  H125  1  0.36532692  0.89989272  0.02579662  1
  H  H126  1  0.36532692  0.60010728  0.52579662  1
  H  H127  1  0.63467308  0.10010728  0.97420338  1
  H  H128  1  0.73525623  0.45510099  0.87886381  1
  H  H129  1  0.26474377  0.95510099  0.62113619  1
  H  H130  1  0.26474377  0.54489901  0.12113619  1
  H  H131  1  0.73525623  0.04489901  0.37886381  1
  H  H132  1  0.07728715  0.41197066  0.94539544  1
  H  H133  1  0.92271285  0.91197066  0.55460456  1
  H  H134  1  0.92271285  0.58802934  0.05460456  1
  H  H135  1  0.07728715  0.08802934  0.44539544  1
  H  H136  1  0.16549497  0.43111949  0.73460123  1
  H  H137  1  0.83450503  0.93111949  0.76539877  1
  H  H138  1  0.83450503  0.56888051  0.26539877  1
  H  H139  1  0.16549497  0.06888051  0.23460123  1
  H  H140  1  0.96550272  0.32190137  0.52598063  1
  H  H141  1  0.03449728  0.82190137  0.97401937  1
  H  H142  1  0.03449728  0.67809863  0.47401937  1
  H  H143  1  0.96550272  0.17809863  0.02598063  1
  H  H144  1  0.43928251  0.35420112  0.51929133  1
  H  H145  1  0.56071749  0.85420112  0.98070867  1
  H  H146  1  0.56071749  0.64579888  0.48070867  1
  H  H147  1  0.43928251  0.14579888  0.01929133  1
  H  H148  1  0.45014069  0.22207083  0.46136145  1
  H  H149  1  0.54985931  0.72207083  0.03863855  1
  H  H150  1  0.54985931  0.77792917  0.53863855  1
  H  H151  1  0.45014069  0.27792917  0.96136145  1
  H  H152  1  0.87549585  0.35081911  0.85465835  1
  H  H153  1  0.12450415  0.85081911  0.64534165  1
  H  H154  1  0.12450415  0.64918089  0.14534165  1
  H  H155  1  0.87549585  0.14918089  0.35465835  1
  H  H156  1  0.04084123  0.34081122  0.79696330  1
  H  H157  1  0.95915877  0.84081122  0.70303670  1
  H  H158  1  0.95915877  0.65918878  0.20303670  1
  H  H159  1  0.04084123  0.15918878  0.29696330  1
