# generated using pymatgen
data_Ca2YFe4SbO12
_symmetry_space_group_name_H-M   'P 1'
_cell_length_a   10.98281409
_cell_length_b   11.01475487
_cell_length_c   10.97387242
_cell_angle_alpha   109.55242685
_cell_angle_beta   109.38311396
_cell_angle_gamma   109.48496994
_symmetry_Int_Tables_number   1
_chemical_formula_structural   Ca2YFe4SbO12
_chemical_formula_sum   'Ca8 Y4 Fe16 Sb4 O48'
_cell_volume   1021.85447296
_cell_formula_units_Z   4
loop_
 _symmetry_equiv_pos_site_id
 _symmetry_equiv_pos_as_xyz
  1  'x, y, z'
loop_
 _atom_site_type_symbol
 _atom_site_label
 _atom_site_symmetry_multiplicity
 _atom_site_fract_x
 _atom_site_fract_y
 _atom_site_fract_z
 _atom_site_occupancy
  Ca  Ca0  1  0.25791680  0.87983085  0.62974383  1
  Ca  Ca1  1  0.13428198  0.37386135  0.75502938  1
  Ca  Ca2  1  0.12058689  0.24179300  0.36589140  1
  Ca  Ca3  1  0.24815590  0.36882759  0.11919816  1
  Ca  Ca4  1  0.75184410  0.63117241  0.88080184  1
  Ca  Ca5  1  0.87941311  0.75820700  0.63410860  1
  Ca  Ca6  1  0.86571802  0.62613865  0.24497062  1
  Ca  Ca7  1  0.74208320  0.12016915  0.37025617  1
  Y  Y8  1  0.38653998  0.75471649  0.12452249  1
  Y  Y9  1  0.62897304  0.88384498  0.75945375  1
  Y  Y10  1  0.61346002  0.24528351  0.87547751  1
  Y  Y11  1  0.37102696  0.11615502  0.24054625  1
  Fe  Fe12  1  0.12438204  0.75484336  0.87806496  1
  Fe  Fe13  1  0.12657134  0.87559824  0.24919968  1
  Fe  Fe14  1  0.25531794  0.12882373  0.87935709  1
  Fe  Fe15  1  0.37491972  0.62853774  0.75561149  1
  Fe  Fe16  1  0.25562433  0.62986787  0.37899874  1
  Fe  Fe17  1  0.00000000  0.00000000  0.00000000  1
  Fe  Fe18  1  0.50000000  0.00000000  0.50000000  1
  Fe  Fe19  1  0.37626860  0.24910510  0.62542978  1
  Fe  Fe20  1  0.62373140  0.75089490  0.37457022  1
  Fe  Fe21  1  0.50000000  0.50000000  0.00000000  1
  Fe  Fe22  1  0.62508028  0.37146226  0.24438851  1
  Fe  Fe23  1  0.74468206  0.87117627  0.12064291  1
  Fe  Fe24  1  0.74437567  0.37013213  0.62100126  1
  Fe  Fe25  1  0.50000000  0.00000000  0.00000000  1
  Fe  Fe26  1  0.87342866  0.12440176  0.75080032  1
  Fe  Fe27  1  0.87561796  0.24515664  0.12193504  1
  Sb  Sb28  1  0.00000000  0.00000000  0.50000000  1
  Sb  Sb29  1  0.00000000  0.50000000  0.50000000  1
  Sb  Sb30  1  0.50000000  0.50000000  0.50000000  1
  Sb  Sb31  1  0.00000000  0.50000000  0.00000000  1
  O  O32  1  0.09644675  0.97861012  0.67681864  1
  O  O33  1  0.12340408  0.60088539  0.92591919  1
  O  O34  1  0.02331230  0.32590139  0.90393599  1
  O  O35  1  0.08195793  0.69945005  0.67672557  1
  O  O36  1  0.08092412  0.88175723  0.40405604  1
  O  O37  1  0.09614376  0.61716902  0.41809720  1
  O  O38  1  0.17648067  0.47806891  0.59634641  1
  O  O39  1  0.42601716  0.82443265  0.79964028  1
  O  O40  1  0.29829737  0.32244198  0.91891034  1
  O  O41  1  0.37795753  0.58743914  0.90896750  1
  O  O42  1  0.17559309  0.19862880  0.57827858  1
  O  O43  1  0.32323477  0.91911075  0.29297218  1
  O  O44  1  0.02500604  0.20218493  0.12056789  1
  O  O45  1  0.20130520  0.58423185  0.17678114  1
  O  O46  1  0.40907125  0.82271542  0.52921224  1
  O  O47  1  0.30280738  0.47822089  0.38130073  1
  O  O48  1  0.32328501  0.90329758  0.03019545  1
  O  O49  1  0.12787457  0.02592677  0.20407094  1
  O  O50  1  0.52272798  0.62224354  0.69837376  1
  O  O51  1  0.40892410  0.08491896  0.87904246  1
  O  O52  1  0.52515139  0.39921499  0.82117302  1
  O  O53  1  0.38145641  0.29954275  0.47397825  1
  O  O54  1  0.57538704  0.89952092  0.37344206  1
  O  O55  1  0.20963696  0.11935170  0.02975097  1
  O  O56  1  0.79036304  0.88064830  0.97024903  1
  O  O57  1  0.42461296  0.10047908  0.62655794  1
  O  O58  1  0.61854359  0.70045725  0.52602175  1
  O  O59  1  0.47484861  0.60078501  0.17882698  1
  O  O60  1  0.59107590  0.91508104  0.12095754  1
  O  O61  1  0.47727202  0.37775646  0.30162624  1
  O  O62  1  0.87212543  0.97407323  0.79592906  1
  O  O63  1  0.67671499  0.09670242  0.96980455  1
  O  O64  1  0.69719262  0.52177911  0.61869927  1
  O  O65  1  0.59092875  0.17728458  0.47078776  1
  O  O66  1  0.79869480  0.41576815  0.82321886  1
  O  O67  1  0.97499396  0.79781507  0.87943211  1
  O  O68  1  0.67676523  0.08088925  0.70702782  1
  O  O69  1  0.82440691  0.80137120  0.42172142  1
  O  O70  1  0.62204247  0.41256086  0.09103250  1
  O  O71  1  0.70170263  0.67755802  0.08108966  1
  O  O72  1  0.57398284  0.17556735  0.20035972  1
  O  O73  1  0.82351933  0.52193109  0.40365359  1
  O  O74  1  0.90385624  0.38283098  0.58190280  1
  O  O75  1  0.91907588  0.11824277  0.59594396  1
  O  O76  1  0.91804207  0.30054995  0.32327443  1
  O  O77  1  0.97668770  0.67409861  0.09606401  1
  O  O78  1  0.87659592  0.39911461  0.07408081  1
  O  O79  1  0.90355325  0.02138988  0.32318136  1
