# generated using pymatgen
data_K2MnH8(SO6)2
_symmetry_space_group_name_H-M   'P 1'
_cell_length_a   9.69709246
_cell_length_b   10.10172389
_cell_length_c   12.09148385
_cell_angle_alpha   95.51621445
_cell_angle_beta   90.00000000
_cell_angle_gamma   90.00000000
_symmetry_Int_Tables_number   1
_chemical_formula_structural   K2MnH8(SO6)2
_chemical_formula_sum   'K8 Mn4 H32 S8 O48'
_cell_volume   1178.96457701
_cell_formula_units_Z   4
loop_
 _symmetry_equiv_pos_site_id
 _symmetry_equiv_pos_as_xyz
  1  'x, y, z'
loop_
 _atom_site_type_symbol
 _atom_site_label
 _atom_site_symmetry_multiplicity
 _atom_site_fract_x
 _atom_site_fract_y
 _atom_site_fract_z
 _atom_site_occupancy
  K  K0  1  0.26810224  0.23999706  0.17016091  1
  K  K1  1  0.76810224  0.76000294  0.32983909  1
  K  K2  1  0.73189776  0.76000294  0.82983909  1
  K  K3  1  0.23189776  0.23999706  0.67016091  1
  K  K4  1  0.74142367  0.25893150  0.16898295  1
  K  K5  1  0.24142367  0.74106850  0.33101705  1
  K  K6  1  0.25857633  0.74106850  0.83101705  1
  K  K7  1  0.75857633  0.25893150  0.66898295  1
  Mn  Mn8  1  0.00000000  0.00000000  0.00000000  1
  Mn  Mn9  1  0.50000000  0.00000000  0.50000000  1
  Mn  Mn10  1  0.50000000  0.50000000  0.00000000  1
  Mn  Mn11  1  0.00000000  0.50000000  0.50000000  1
  S  S12  1  0.50501390  0.95266893  0.20354125  1
  S  S13  1  0.00501390  0.04733107  0.29645875  1
  S  S14  1  0.49498610  0.04733107  0.79645875  1
  S  S15  1  0.99498610  0.95266893  0.70354125  1
  S  S16  1  0.99264374  0.52266398  0.20743214  1
  S  S17  1  0.49264374  0.47733602  0.29256786  1
  S  S18  1  0.00735626  0.47733602  0.79256786  1
  S  S19  1  0.50735626  0.52266398  0.70743214  1
  O  O20  1  0.37321370  0.11627014  0.85434537  1
  O  O21  1  0.87321370  0.88372986  0.64565463  1
  O  O22  1  0.62678630  0.88372986  0.14565463  1
  O  O23  1  0.12678630  0.11627014  0.35434537  1
  O  O24  1  0.37415172  0.88716387  0.15852968  1
  O  O25  1  0.87415172  0.11283613  0.34147032  1
  O  O26  1  0.62584828  0.11283613  0.84147032  1
  O  O27  1  0.12584828  0.88716387  0.65852968  1
  O  O28  1  0.08843178  0.60674861  0.14611492  1
  O  O29  1  0.58843178  0.39325139  0.35388508  1
  O  O30  1  0.91156822  0.39325139  0.85388508  1
  O  O31  1  0.41156822  0.60674861  0.64611492  1
  O  O32  1  0.84713751  0.54809995  0.17647983  1
  O  O33  1  0.34713751  0.45190005  0.32352017  1
  O  O34  1  0.15286249  0.45190005  0.82352017  1
  O  O35  1  0.65286249  0.54809995  0.67647983  1
  O  O36  1  0.01522087  0.06718822  0.17630790  1
  O  O37  1  0.51522087  0.93281178  0.32369210  1
  O  O38  1  0.98477913  0.93281178  0.82369210  1
  O  O39  1  0.48477913  0.06718822  0.67630790  1
  O  O40  1  0.50504824  0.09448287  0.18490149  1
  O  O41  1  0.00504824  0.90551713  0.31509851  1
  O  O42  1  0.49495176  0.90551713  0.81509851  1
  O  O43  1  0.99495176  0.09448287  0.68490149  1
  O  O44  1  0.51089694  0.43650255  0.17073052  1
  O  O45  1  0.01089694  0.56349745  0.32926948  1
  O  O46  1  0.48910306  0.56349745  0.82926948  1
  O  O47  1  0.98910306  0.43650255  0.67073052  1
  O  O48  1  0.02495774  0.37919683  0.18222824  1
  O  O49  1  0.52495774  0.62080317  0.31777176  1
  O  O50  1  0.97504226  0.62080317  0.81777176  1
  O  O51  1  0.47504226  0.37919683  0.68222824  1
  O  O52  1  0.33396216  0.35446013  0.96497407  1
  O  O53  1  0.83396216  0.64553987  0.53502593  1
  O  O54  1  0.66603784  0.64553987  0.03502593  1
  O  O55  1  0.16603784  0.35446013  0.46497407  1
  O  O56  1  0.33442451  0.64823901  0.04464435  1
  O  O57  1  0.83442451  0.35176099  0.45535565  1
  O  O58  1  0.66557549  0.35176099  0.95535565  1
  O  O59  1  0.16557549  0.64823901  0.54464435  1
  O  O60  1  0.22685883  0.98173312  0.99270489  1
  O  O61  1  0.72685883  0.01826688  0.50729511  1
  O  O62  1  0.77314117  0.01826688  0.00729511  1
  O  O63  1  0.27314117  0.98173312  0.49270489  1
  O  O64  1  0.98524830  0.78298198  0.01360301  1
  O  O65  1  0.48524830  0.21701802  0.48639699  1
  O  O66  1  0.01475170  0.21701802  0.98639699  1
  O  O67  1  0.51475170  0.78298198  0.51360301  1
  H  H68  1  0.25791115  0.39130787  0.92161898  1
  H  H69  1  0.75791115  0.60869213  0.57838102  1
  H  H70  1  0.74208885  0.60869213  0.07838102  1
  H  H71  1  0.24208885  0.39130787  0.42161898  1
  H  H72  1  0.35890671  0.26841366  0.92155283  1
  H  H73  1  0.85890671  0.73158634  0.57844717  1
  H  H74  1  0.64109329  0.73158634  0.07844717  1
  H  H75  1  0.14109329  0.26841366  0.42155283  1
  H  H76  1  0.24878496  0.61702209  0.07901206  1
  H  H77  1  0.74878496  0.38297791  0.42098794  1
  H  H78  1  0.75121504  0.38297791  0.92098794  1
  H  H79  1  0.25121504  0.61702209  0.57901206  1
  H  H80  1  0.35900723  0.73394676  0.08847753  1
  H  H81  1  0.85900723  0.26605324  0.41152247  1
  H  H82  1  0.64099277  0.26605324  0.91152247  1
  H  H83  1  0.14099277  0.73394676  0.58847753  1
  H  H84  1  0.28579859  0.03082910  0.94238986  1
  H  H85  1  0.78579859  0.96917090  0.55761014  1
  H  H86  1  0.71420141  0.96917090  0.05761014  1
  H  H87  1  0.21420141  0.03082910  0.44238986  1
  H  H88  1  0.28535250  0.95226108  0.05345791  1
  H  H89  1  0.78535250  0.04773892  0.44654209  1
  H  H90  1  0.71464750  0.04773892  0.94654209  1
  H  H91  1  0.21464750  0.95226108  0.55345791  1
  H  H92  1  0.01642540  0.72848808  0.07321006  1
  H  H93  1  0.51642540  0.27151192  0.42678994  1
  H  H94  1  0.98357460  0.27151192  0.92678994  1
  H  H95  1  0.48357460  0.72848808  0.57321006  1
  H  H96  1  0.98446959  0.72022400  0.94518305  1
  H  H97  1  0.48446959  0.27977600  0.55481695  1
  H  H98  1  0.01553041  0.27977600  0.05481695  1
  H  H99  1  0.51553041  0.72022400  0.44518305  1
