# generated using pymatgen
data_MnSb2H8(SN)4
_symmetry_space_group_name_H-M   'P 1'
_cell_length_a   4.54927509
_cell_length_b   9.97509809
_cell_length_c   12.50443333
_cell_angle_alpha   95.06161989
_cell_angle_beta   89.99999996
_cell_angle_gamma   103.18121256
_symmetry_Int_Tables_number   1
_chemical_formula_structural   MnSb2H8(SN)4
_chemical_formula_sum   'Mn2 Sb4 H16 S8 N8'
_cell_volume   550.22151660
_cell_formula_units_Z   2
loop_
 _symmetry_equiv_pos_site_id
 _symmetry_equiv_pos_as_xyz
  1  'x, y, z'
loop_
 _atom_site_type_symbol
 _atom_site_label
 _atom_site_symmetry_multiplicity
 _atom_site_fract_x
 _atom_site_fract_y
 _atom_site_fract_z
 _atom_site_occupancy
  Mn  Mn0  1  0.00000000  0.00000000  0.50000000  1
  Mn  Mn1  1  0.00000000  0.00000000  -0.00000000  1
  Sb  Sb2  1  0.06986758  0.39471056  0.64563089  1
  Sb  Sb3  1  0.67515703  0.60528944  0.85436911  1
  Sb  Sb4  1  0.93013242  0.60528944  0.35436911  1
  Sb  Sb5  1  0.32484297  0.39471056  0.14563089  1
  H  H6  1  0.33865365  0.79264800  0.50897772  1
  H  H7  1  0.54600565  0.20735200  0.99102228  1
  H  H8  1  0.66134635  0.20735200  0.49102228  1
  H  H9  1  0.45399435  0.79264800  0.00897772  1
  H  H10  1  0.18121358  0.80958312  0.62738755  1
  H  H11  1  0.37163047  0.19041688  0.87261245  1
  H  H12  1  0.81878642  0.19041688  0.37261245  1
  H  H13  1  0.62836953  0.80958312  0.12738755  1
  H  H14  1  0.41474967  0.98017906  0.34347971  1
  H  H15  1  0.43457060  0.01982094  0.15652029  1
  H  H16  1  0.58525033  0.01982094  0.65652029  1
  H  H17  1  0.56542940  0.98017906  0.84347971  1
  H  H18  1  0.33551779  0.13382917  0.33366543  1
  H  H19  1  0.20168862  0.86617083  0.16633457  1
  H  H20  1  0.66448221  0.86617083  0.66633457  1
  H  H21  1  0.79831138  0.13382917  0.83366543  1
  S  S22  1  0.96997920  0.41562276  0.83955173  1
  S  S23  1  0.55435644  0.58437724  0.66044827  1
  S  S24  1  0.03002080  0.58437724  0.16044827  1
  S  S25  1  0.44564356  0.41562276  0.33955173  1
  S  S26  1  0.24681760  0.18359412  0.64963781  1
  S  S27  1  0.06322348  0.81640588  0.85036219  1
  S  S28  1  0.75318240  0.81640588  0.35036219  1
  S  S29  1  0.93677652  0.18359412  0.14963781  1
  N  N30  1  0.39790598  0.07062360  0.38637393  1
  N  N31  1  0.32728238  0.92937640  0.11362607  1
  N  N32  1  0.60209402  0.92937640  0.61362607  1
  N  N33  1  0.67271762  0.07062360  0.88637393  1
  N  N34  1  0.30415427  0.86417720  0.56940391  1
  N  N35  1  0.43997707  0.13582280  0.93059609  1
  N  N36  1  0.69584573  0.13582280  0.43059609  1
  N  N37  1  0.56002293  0.86417720  0.06940391  1
