# generated using pymatgen
data_CsRb2SiF7
_symmetry_space_group_name_H-M   'P 1'
_cell_length_a   5.95924697
_cell_length_b   8.24068833
_cell_length_c   8.24068833
_cell_angle_alpha   90.00000000
_cell_angle_beta   90.00000000
_cell_angle_gamma   90.00000000
_symmetry_Int_Tables_number   1
_chemical_formula_structural   CsRb2SiF7
_chemical_formula_sum   'Cs2 Rb4 Si2 F14'
_cell_volume   404.68616967
_cell_formula_units_Z   2
loop_
 _symmetry_equiv_pos_site_id
 _symmetry_equiv_pos_as_xyz
  1  'x, y, z'
loop_
 _atom_site_type_symbol
 _atom_site_label
 _atom_site_symmetry_multiplicity
 _atom_site_fract_x
 _atom_site_fract_y
 _atom_site_fract_z
 _atom_site_occupancy
  F  F0  1  0.79367383  0.89612030  0.39612030  1
  F  F1  1  0.79367383  0.10387970  0.60387970  1
  F  F2  1  0.79367383  0.39612030  0.10387970  1
  F  F3  1  0.79367383  0.60387970  0.89612030  1
  F  F4  1  0.20632617  0.89612030  0.39612030  1
  F  F5  1  0.20632617  0.60387970  0.89612030  1
  F  F6  1  0.20632617  0.39612030  0.10387970  1
  F  F7  1  0.20632617  0.10387970  0.60387970  1
  F  F8  1  0.50000000  0.00000000  0.00000000  1
  F  F9  1  0.50000000  0.50000000  0.50000000  1
  F  F10  1  0.00000000  0.35273344  0.85273344  1
  F  F11  1  0.00000000  0.14726656  0.35273344  1
  F  F12  1  0.00000000  0.85273344  0.64726656  1
  F  F13  1  0.00000000  0.64726656  0.14726656  1
  Si  Si14  1  0.00000000  0.50000000  0.00000000  1
  Si  Si15  1  0.00000000  0.00000000  0.50000000  1
  Rb  Rb16  1  0.50000000  0.69569420  0.19569420  1
  Rb  Rb17  1  0.50000000  0.30430580  0.80430580  1
  Rb  Rb18  1  0.50000000  0.80430580  0.69569420  1
  Rb  Rb19  1  0.50000000  0.19569420  0.30430580  1
  Cs  Cs20  1  0.00000000  0.50000000  0.50000000  1
  Cs  Cs21  1  0.00000000  0.00000000  0.00000000  1
