# generated using pymatgen
data_NaFePO4
_symmetry_space_group_name_H-M   'P 1'
_cell_length_a   5.05010879
_cell_length_b   6.29273322
_cell_length_c   10.48393154
_cell_angle_alpha   90.00000000
_cell_angle_beta   90.00000000
_cell_angle_gamma   90.00000000
_symmetry_Int_Tables_number   1
_chemical_formula_structural   NaFePO4
_chemical_formula_sum   'Na4 Fe4 P4 O16'
_cell_volume   333.16872776
_cell_formula_units_Z   4
loop_
 _symmetry_equiv_pos_site_id
 _symmetry_equiv_pos_as_xyz
  1  'x, y, z'
loop_
 _atom_site_type_symbol
 _atom_site_label
 _atom_site_symmetry_multiplicity
 _atom_site_fract_x
 _atom_site_fract_y
 _atom_site_fract_z
 _atom_site_occupancy
  Na  Na0  1  0.00000000  0.00000000  0.00000000  1
  Na  Na1  1  0.50000100  0.00000000  0.50000000  1
  Na  Na2  1  0.00000000  0.49999900  0.00000000  1
  Na  Na3  1  0.50000100  0.49999900  0.50000000  1
  Fe  Fe4  1  0.02222583  0.75000000  0.71585599  1
  Fe  Fe5  1  0.47777317  0.75000000  0.21585499  1
  Fe  Fe6  1  0.97777317  0.25000000  0.28414401  1
  Fe  Fe7  1  0.52222683  0.25000000  0.78414401  1
  P  P8  1  0.56572657  0.75000000  0.89482627  1
  P  P9  1  0.93427343  0.75000000  0.39482527  1
  P  P10  1  0.43427443  0.25000000  0.10517373  1
  P  P11  1  0.06572557  0.25000000  0.60517373  1
  O  O12  1  0.73901447  0.25000000  0.11186215  1
  O  O13  1  0.19565182  0.44609095  0.67449503  1
  O  O14  1  0.69565182  0.55390905  0.82550497  1
  O  O15  1  0.80434818  0.94608995  0.32550497  1
  O  O16  1  0.30434918  0.05391005  0.17449503  1
  O  O17  1  0.80434818  0.55390905  0.32550497  1
  O  O18  1  0.30434918  0.44609095  0.17449503  1
  O  O19  1  0.19565182  0.05391005  0.67449503  1
  O  O20  1  0.26098553  0.75000000  0.88813885  1
  O  O21  1  0.76098553  0.25000000  0.61186115  1
  O  O22  1  0.69565182  0.94608995  0.82550497  1
  O  O23  1  0.23901547  0.75000000  0.38813885  1
  O  O24  1  0.66432112  0.75000000  0.03550543  1
  O  O25  1  0.33567788  0.25000000  0.96449357  1
  O  O26  1  0.16432112  0.25000000  0.46449457  1
  O  O27  1  0.83567888  0.75000000  0.53550643  1
