# generated using pymatgen
data_Rb3LiZn2(MoO4)4
_symmetry_space_group_name_H-M   'P 1'
_cell_length_a   10.49608570
_cell_length_b   10.49609716
_cell_length_c   10.49608544
_cell_angle_alpha   109.30697537
_cell_angle_beta   109.30691144
_cell_angle_gamma   109.80023699
_symmetry_Int_Tables_number   1
_chemical_formula_structural   Rb3LiZn2(MoO4)4
_chemical_formula_sum   'Rb6 Li2 Zn4 Mo8 O32'
_cell_volume   890.12324373
_cell_formula_units_Z   2
loop_
 _symmetry_equiv_pos_site_id
 _symmetry_equiv_pos_as_xyz
  1  'x, y, z'
loop_
 _atom_site_type_symbol
 _atom_site_label
 _atom_site_symmetry_multiplicity
 _atom_site_fract_x
 _atom_site_fract_y
 _atom_site_fract_z
 _atom_site_occupancy
  Rb  Rb0  1  0.12499861  0.87500009  0.24999856  1
  Rb  Rb1  1  0.37499847  0.62499991  0.74999852  1
  Rb  Rb2  1  0.24999636  0.12671106  0.87671053  1
  Rb  Rb3  1  0.62671506  0.75000000  0.37671506  1
  Rb  Rb4  1  0.74999947  0.37328894  0.62328530  1
  Rb  Rb5  1  0.87328779  0.25000000  0.12328779  1
  Li  Li6  1  0.62499995  0.37499994  0.24999996  1
  Li  Li7  1  0.87500002  0.12500006  0.75000001  1
  Zn  Zn8  1  0.12536153  0.75000000  0.87536153  1
  Zn  Zn9  1  0.25000008  0.62536101  0.37536125  1
  Zn  Zn10  1  0.37463914  0.25000000  0.62463914  1
  Zn  Zn11  1  0.75000025  0.87463899  0.12463908  1
  Mo  Mo12  1  0.99888949  0.71429319  0.49972437  1
  Mo  Mo13  1  0.99916523  0.21456821  0.50027641  1
  Mo  Mo14  1  0.21429296  0.49888966  0.99972503  1
  Mo  Mo15  1  0.28570820  0.28543179  0.28459702  1
  Mo  Mo16  1  0.50111101  0.00083590  0.71540260  1
  Mo  Mo17  1  0.78543117  0.78570681  0.78459630  1
  Mo  Mo18  1  0.50083537  0.00111034  0.21540330  1
  Mo  Mo19  1  0.71456670  0.49916410  0.00027511  1
  O  O20  1  0.99922432  0.88152947  0.49916500  1
  O  O21  1  0.13207159  0.77265402  0.69963567  1
  O  O22  1  0.07537540  0.30368922  0.93356110  1
  O  O23  1  0.13962278  0.56651996  0.86693055  1
  O  O24  1  0.00005934  0.38236497  0.50083533  1
  O  O25  1  0.06652003  0.63962329  0.36693032  1
  O  O26  1  0.19958959  0.27269269  0.63306977  1
  O  O27  1  0.30041058  0.93348004  0.07310281  1
  O  O28  1  0.22734536  0.42698129  0.35941765  1
  O  O29  1  0.43347969  0.80041005  0.57310324  1
  O  O30  1  0.27265379  0.63207082  0.19963620  1
  O  O31  1  0.11847036  0.11763503  0.11769437  1
  O  O32  1  0.72730702  0.86037671  0.92689674  1
  O  O33  1  0.36792849  0.06756444  0.64058275  1
  O  O34  1  0.36037708  0.22730731  0.42689690  1
  O  O35  1  0.57301831  0.43243556  0.80036405  1
  O  O36  1  0.50077664  0.99994083  0.88230621  1
  O  O37  1  0.61763554  0.61847053  0.61769485  1
  O  O38  1  0.38152935  0.49922431  0.99916452  1
  O  O39  1  0.42462474  0.35818553  0.22831372  1
  O  O40  1  0.56756538  0.86792918  0.14058297  1
  O  O41  1  0.85818537  0.92462437  0.72831412  1
  O  O42  1  0.49994021  0.00077569  0.38230504  1
  O  O43  1  0.69631105  0.12987179  0.77168652  1
  O  O44  1  0.92698164  0.72734598  0.85941757  1
  O  O45  1  0.80368976  0.57537563  0.43356101  1
  O  O46  1  0.62987189  0.19631078  0.27168618  1
  O  O47  1  0.64181473  0.37012821  0.06643927  1
  O  O48  1  0.77269319  0.69958995  0.13306964  1
  O  O49  1  0.87012819  0.14181447  0.56643921  1
  O  O50  1  0.88236538  0.50005917  0.00083581  1
  O  O51  1  0.93243636  0.07301871  0.30036407  1
