# generated using pymatgen
data_Mn5P4(HO2)10
_symmetry_space_group_name_H-M   'P 1'
_cell_length_a   9.25563360
_cell_length_b   9.61450368
_cell_length_c   10.05432741
_cell_angle_alpha   95.65245657
_cell_angle_beta   117.40524734
_cell_angle_gamma   90.00000000
_symmetry_Int_Tables_number   1
_chemical_formula_structural   Mn5P4(HO2)10
_chemical_formula_sum   'Mn10 P8 H20 O40'
_cell_volume   789.40284477
_cell_formula_units_Z   2
loop_
 _symmetry_equiv_pos_site_id
 _symmetry_equiv_pos_as_xyz
  1  'x, y, z'
loop_
 _atom_site_type_symbol
 _atom_site_label
 _atom_site_symmetry_multiplicity
 _atom_site_fract_x
 _atom_site_fract_y
 _atom_site_fract_z
 _atom_site_occupancy
  Mn  Mn0  1  0.60335999  0.75000000  0.00000000  1
  Mn  Mn1  1  0.39664001  0.25000000  0.00000000  1
  Mn  Mn2  1  0.29737302  0.63469417  0.65080940  1
  Mn  Mn3  1  0.64656362  0.86530583  0.34919060  1
  Mn  Mn4  1  0.70262698  0.36530583  0.34919060  1
  Mn  Mn5  1  0.35343638  0.13469417  0.65080940  1
  Mn  Mn6  1  0.72723602  0.18476799  0.63489779  1
  Mn  Mn7  1  0.09233823  0.31523201  0.36510221  1
  Mn  Mn8  1  0.27276398  0.81523201  0.36510221  1
  Mn  Mn9  1  0.90766177  0.68476799  0.63489779  1
  P  P10  1  0.23764046  0.91014240  0.83198414  1
  P  P11  1  0.40565633  0.58985760  0.16801586  1
  P  P12  1  0.76235954  0.08985760  0.16801586  1
  P  P13  1  0.59434367  0.41014240  0.83198414  1
  P  P14  1  0.07886388  0.37133398  0.67873181  1
  P  P15  1  0.40013207  0.12866602  0.32126819  1
  P  P16  1  0.92113612  0.62866602  0.32126819  1
  P  P17  1  0.59986793  0.87133398  0.67873181  1
  H  H18  1  0.41327192  0.41212159  0.53033735  1
  H  H19  1  0.88293457  0.08787841  0.46966265  1
  H  H20  1  0.58672808  0.58787841  0.46966265  1
  H  H21  1  0.11706543  0.91212159  0.53033735  1
  H  H22  1  0.33460122  0.52218511  0.40739964  1
  H  H23  1  0.92720158  0.97781489  0.59260036  1
  H  H24  1  0.66539878  0.47781489  0.59260036  1
  H  H25  1  0.07279842  0.02218511  0.40739964  1
  H  H26  1  0.02439630  0.21970958  0.86372710  1
  H  H27  1  0.16066920  0.28029042  0.13627290  1
  H  H28  1  0.97560370  0.78029042  0.13627290  1
  H  H29  1  0.83933080  0.71970958  0.86372710  1
  H  H30  1  0.92417415  0.13758678  0.93384702  1
  H  H31  1  0.99032713  0.36241322  0.06615298  1
  H  H32  1  0.07582585  0.86241322  0.06615298  1
  H  H33  1  0.00967287  0.63758678  0.93384702  1
  H  H34  1  0.24965403  0.00840697  0.04436983  1
  H  H35  1  0.20528420  0.49159303  0.95563017  1
  H  H36  1  0.75034597  0.99159303  0.95563017  1
  H  H37  1  0.79471580  0.50840697  0.04436983  1
  O  O38  1  0.35543644  0.79310900  0.84422318  1
  O  O39  1  0.51121326  0.70689100  0.15577682  1
  O  O40  1  0.64456356  0.20689100  0.15577682  1
  O  O41  1  0.48878674  0.29310900  0.84422318  1
  O  O42  1  0.30891236  0.05530880  0.83135227  1
  O  O43  1  0.47756009  0.44469120  0.16864773  1
  O  O44  1  0.69108764  0.94469120  0.16864773  1
  O  O45  1  0.52243991  0.55530880  0.83135227  1
  O  O46  1  0.07531288  0.86842032  0.68759512  1
  O  O47  1  0.38771776  0.63157968  0.31240488  1
  O  O48  1  0.92468712  0.13157968  0.31240488  1
  O  O49  1  0.61228224  0.36842032  0.68759512  1
  O  O50  1  0.20227631  0.91896110  0.97316731  1
  O  O51  1  0.22910900  0.58103890  0.02683269  1
  O  O52  1  0.79772369  0.08103890  0.02683269  1
  O  O53  1  0.77089100  0.41896110  0.97316731  1
  O  O54  1  0.10022285  0.53188626  0.67217270  1
  O  O55  1  0.42805015  0.96811374  0.32782730  1
  O  O56  1  0.89977715  0.46811374  0.32782730  1
  O  O57  1  0.57194985  0.03188626  0.67217270  1
  O  O58  1  0.89538671  0.32543446  0.59726885  1
  O  O59  1  0.29811785  0.17456554  0.40273115  1
  O  O60  1  0.10461329  0.67456554  0.40273115  1
  O  O61  1  0.70188215  0.82543446  0.59726885  1
  O  O62  1  0.15821573  0.34234479  0.84850952  1
  O  O63  1  0.30970621  0.15765521  0.15149048  1
  O  O64  1  0.84178427  0.65765521  0.15149048  1
  O  O65  1  0.69029379  0.84234479  0.84850952  1
  O  O66  1  0.16547309  0.28876375  0.59706265  1
  O  O67  1  0.56841044  0.21123625  0.40293735  1
  O  O68  1  0.83452691  0.71123625  0.40293735  1
  O  O69  1  0.43158956  0.78876375  0.59706265  1
  O  O70  1  0.31893119  0.47133329  0.48282849  1
  O  O71  1  0.83610270  0.02866671  0.51717151  1
  O  O72  1  0.68106881  0.52866671  0.51717151  1
  O  O73  1  0.16389730  0.97133329  0.48282849  1
  O  O74  1  0.93377763  0.15139871  0.84257326  1
  O  O75  1  0.09120437  0.34860129  0.15742674  1
  O  O76  1  0.06622237  0.84860129  0.15742674  1
  O  O77  1  0.90879563  0.65139871  0.84257326  1
