# generated using pymatgen
data_Sr20Fe3Co7(MoO6)10
_symmetry_space_group_name_H-M   'P 1'
_cell_length_a   11.29041270
_cell_length_b   28.19413657
_cell_length_c   9.78366361
_cell_angle_alpha   30.16554475
_cell_angle_beta   106.76368846
_cell_angle_gamma   89.99853013
_symmetry_Int_Tables_number   1
_chemical_formula_structural   Sr20Fe3Co7(MoO6)10
_chemical_formula_sum   'Sr20 Fe3 Co7 Mo10 O60'
_cell_volume   1281.45828623
_cell_formula_units_Z   1
loop_
 _symmetry_equiv_pos_site_id
 _symmetry_equiv_pos_as_xyz
  1  'x, y, z'
loop_
 _atom_site_type_symbol
 _atom_site_label
 _atom_site_symmetry_multiplicity
 _atom_site_fract_x
 _atom_site_fract_y
 _atom_site_fract_z
 _atom_site_occupancy
  Sr  Sr0  1  0.12028852  0.15120656  0.49438328  1
  Sr  Sr1  1  0.12684738  0.35045553  0.50202037  1
  Sr  Sr2  1  0.12653091  0.54777026  0.50518493  1
  Sr  Sr3  1  0.12292148  0.75115011  0.49802786  1
  Sr  Sr4  1  0.12415394  0.94972222  0.50023476  1
  Sr  Sr5  1  0.37846689  0.05101051  0.49938544  1
  Sr  Sr6  1  0.37424316  0.25144066  0.49232280  1
  Sr  Sr7  1  0.37926483  0.44778802  0.50993261  1
  Sr  Sr8  1  0.37666594  0.64926789  0.50142401  1
  Sr  Sr9  1  0.37346564  0.85026576  0.49854690  1
  Sr  Sr10  1  0.62776700  0.15041875  0.49621456  1
  Sr  Sr11  1  0.62599402  0.34996708  0.50519717  1
  Sr  Sr12  1  0.62584794  0.54615344  0.50574632  1
  Sr  Sr13  1  0.62597030  0.74986283  0.49809226  1
  Sr  Sr14  1  0.62519114  0.95005118  0.50546632  1
  Sr  Sr15  1  0.87095245  0.05255205  0.49931585  1
  Sr  Sr16  1  0.87293011  0.24924506  0.49450799  1
  Sr  Sr17  1  0.87354003  0.44841977  0.50491681  1
  Sr  Sr18  1  0.87365554  0.65282452  0.49449925  1
  Sr  Sr19  1  0.87524140  0.85078734  0.49425169  1
  Fe  Fe20  1  0.00121619  0.20075616  0.00038293  1
  Fe  Fe21  1  -0.00012128  0.59967243  0.00149320  1
  Fe  Fe22  1  0.49930458  0.00056097  0.99708022  1
  Co  Co23  1  0.99908106  0.00062931  0.99791307  1
  Co  Co24  1  0.00114665  0.39963191  0.00112258  1
  Co  Co25  1  0.99893675  0.80022477  0.99814596  1
  Co  Co26  1  0.49963421  0.19946750  0.00160097  1
  Co  Co27  1  0.50026346  0.39901344  0.00268282  1
  Co  Co28  1  0.50095815  0.59943761  0.00160051  1
  Co  Co29  1  0.50005068  0.80115774  0.99773414  1
  Mo  Mo30  1  0.24963020  0.09995560  0.00009895  1
  Mo  Mo31  1  0.24999174  0.30050554  -0.00039654  1
  Mo  Mo32  1  0.25072246  0.50010675  -0.00059009  1
  Mo  Mo33  1  0.25087512  0.70056530  0.00044876  1
  Mo  Mo34  1  0.25042511  0.89829253  0.00353412  1
  Mo  Mo35  1  0.75029853  0.09999354  0.00115574  1
  Mo  Mo36  1  0.74874648  0.30069612  0.99837628  1
  Mo  Mo37  1  0.74902041  0.50005455  0.99725807  1
  Mo  Mo38  1  0.74919314  0.69987122  0.00085367  1
  Mo  Mo39  1  0.75110140  0.89974528  0.00016549  1
  O  O40  1  0.12834881  0.04560043  0.51208759  1
  O  O41  1  0.12940594  0.24435962  0.51785871  1
  O  O42  1  0.12237437  0.45263567  0.49167424  1
  O  O43  1  0.12710469  0.64516732  0.51517034  1
  O  O44  1  0.13042788  0.84598356  0.51677073  1
  O  O45  1  0.10834193  0.14114665  0.99938574  1
  O  O46  1  0.11136474  0.33952209  0.00139344  1
  O  O47  1  0.10822149  0.54281716  0.99699010  1
  O  O48  1  0.11085065  0.74089386  -0.00011711  1
  O  O49  1  0.11546613  0.94059904  0.00149901  1
  O  O50  1  0.14847081  0.04406137  0.00235634  1
  O  O51  1  0.14275876  0.24101460  0.99969964  1
  O  O52  1  0.14673528  0.44461153  0.00038749  1
  O  O53  1  0.14573872  0.64459185  0.99885408  1
  O  O54  1  0.15041455  0.84337962  0.00319135  1
  O  O55  1  0.37722908  0.14744501  0.50852370  1
  O  O56  1  0.36889075  0.35496425  0.48255719  1
  O  O57  1  0.37202844  0.75430051  0.48556599  1
  O  O58  1  0.37113751  0.55674250  0.48066239  1
  O  O59  1  0.36926196  0.95507293  0.48113245  1
  O  O60  1  0.35146406  0.35828628  0.99853474  1
  O  O61  1  0.34876525  0.55632046  0.99771122  1
  O  O62  1  0.35128743  0.15509366  0.99877517  1
  O  O63  1  0.35252820  0.75623368  -0.00031549  1
  O  O64  1  0.35530706  0.95562135  0.00268067  1
  O  O65  1  0.38367232  0.25928478  0.99716569  1
  O  O66  1  0.39172262  0.05683140  0.00444051  1
  O  O67  1  0.38605586  0.66026147  0.99573147  1
  O  O68  1  0.38909625  0.46050443  0.99845078  1
  O  O69  1  0.38830334  0.86011282  0.99902447  1
  O  O70  1  0.62447254  0.04866185  0.50417541  1
  O  O71  1  0.63091775  0.24450956  0.52089929  1
  O  O72  1  0.62582253  0.45082205  0.49829460  1
  O  O73  1  0.62828335  0.64419123  0.51740471  1
  O  O74  1  0.62670853  0.84843198  0.50526717  1
  O  O75  1  0.61275175  0.14098046  0.99946826  1
  O  O76  1  0.61270232  0.54185105  0.99765697  1
  O  O77  1  0.61018911  0.74076350  0.99662339  1
  O  O78  1  0.60697029  0.34198413  0.99954141  1
  O  O79  1  0.61111162  0.93916403  0.00966210  1
  O  O80  1  0.64652739  0.04292636  0.00356875  1
  O  O81  1  0.64509415  0.24645627  0.99420524  1
  O  O82  1  0.64877502  0.44420149  0.00107228  1
  O  O83  1  0.64887091  0.64679586  0.99232083  1
  O  O84  1  0.64325654  0.84285271  0.00200217  1
  O  O85  1  0.87694374  0.15162297  0.49664413  1
  O  O86  1  0.87148842  0.35245665  0.48889798  1
  O  O87  1  0.87143432  0.55540061  0.48136093  1
  O  O88  1  0.87640622  0.74703156  0.50948318  1
  O  O89  1  0.87177355  0.95501084  0.48587983  1
  O  O90  1  0.85623066  0.15547470  0.00298216  1
  O  O91  1  0.85595950  0.35551466  0.99746202  1
  O  O92  1  0.85432531  0.55524996  0.00221084  1
  O  O93  1  0.85009054  0.75661038  0.99410242  1
  O  O94  1  0.85735719  0.95496654  0.00585419  1
  O  O95  1  0.88820615  0.05830493  0.00504977  1
  O  O96  1  0.89414565  0.25676910  0.99814168  1
  O  O97  1  0.88911854  0.45967143  0.00039780  1
  O  O98  1  0.88990909  0.65939725  0.99634060  1
  O  O99  1  0.89096879  0.85776817  0.00485521  1
