# generated using pymatgen
data_Rb3TmO3
_symmetry_space_group_name_H-M   'P 1'
_cell_length_a   11.71309098
_cell_length_b   7.36131071
_cell_length_c   7.96150265
_cell_angle_alpha   90.00000000
_cell_angle_beta   94.24887983
_cell_angle_gamma   90.00000000
_symmetry_Int_Tables_number   1
_chemical_formula_structural   Rb3TmO3
_chemical_formula_sum   'Rb12 Tm4 O12'
_cell_volume   684.58356092
_cell_formula_units_Z   4
loop_
 _symmetry_equiv_pos_site_id
 _symmetry_equiv_pos_as_xyz
  1  'x, y, z'
loop_
 _atom_site_type_symbol
 _atom_site_label
 _atom_site_symmetry_multiplicity
 _atom_site_fract_x
 _atom_site_fract_y
 _atom_site_fract_z
 _atom_site_occupancy
  Rb  Rb0  1  0.07892696  0.33124772  0.64196890  1
  Rb  Rb1  1  0.15500056  0.62077875  0.06723877  1
  Rb  Rb2  1  0.19244152  0.80414463  0.62493652  1
  Rb  Rb3  1  0.30755848  0.30414463  0.37506348  1
  Rb  Rb4  1  0.34499944  0.12077875  0.93276123  1
  Rb  Rb5  1  0.42107304  0.83124772  0.35803110  1
  Rb  Rb6  1  0.57892696  0.16875228  0.64196890  1
  Rb  Rb7  1  0.65500056  0.87922125  0.06723877  1
  Rb  Rb8  1  0.69244152  0.69585537  0.62493652  1
  Rb  Rb9  1  0.80755848  0.19585537  0.37506348  1
  Rb  Rb10  1  0.84499944  0.37922125  0.93276123  1
  Rb  Rb11  1  0.92107304  0.66875228  0.35803110  1
  Tm  Tm12  1  0.06655936  0.08756599  0.16000992  1
  Tm  Tm13  1  0.43344064  0.58756599  0.83999008  1
  Tm  Tm14  1  0.56655936  0.41243401  0.16000992  1
  Tm  Tm15  1  0.93344064  0.91243401  0.83999008  1
  O  O16  1  0.04295267  0.35160438  0.25177410  1
  O  O17  1  0.09474067  0.05079945  0.89464710  1
  O  O18  1  0.18794446  0.94102846  0.30873086  1
  O  O19  1  0.31205554  0.44102846  0.69126914  1
  O  O20  1  0.40525933  0.55079945  0.10535290  1
  O  O21  1  0.45704733  0.85160438  0.74822590  1
  O  O22  1  0.54295267  0.14839562  0.25177410  1
  O  O23  1  0.59474067  0.44920055  0.89464710  1
  O  O24  1  0.68794446  0.55897154  0.30873086  1
  O  O25  1  0.81205554  0.05897154  0.69126914  1
  O  O26  1  0.90525933  0.94920055  0.10535290  1
  O  O27  1  0.95704733  0.64839562  0.74822590  1
