# generated using pymatgen
data_SnP2O7
_symmetry_space_group_name_H-M   'P 1'
_cell_length_a   12.71794401
_cell_length_b   5.17490277
_cell_length_c   8.74975813
_cell_angle_alpha   89.99998260
_cell_angle_beta   102.71050194
_cell_angle_gamma   90.00000477
_symmetry_Int_Tables_number   1
_chemical_formula_structural   SnP2O7
_chemical_formula_sum   'Sn4 P8 O28'
_cell_volume   561.74582938
_cell_formula_units_Z   4
loop_
 _symmetry_equiv_pos_site_id
 _symmetry_equiv_pos_as_xyz
  1  'x, y, z'
loop_
 _atom_site_type_symbol
 _atom_site_label
 _atom_site_symmetry_multiplicity
 _atom_site_fract_x
 _atom_site_fract_y
 _atom_site_fract_z
 _atom_site_occupancy
  Sn  Sn0  1  0.02597553  0.25428243  0.26127536  1
  Sn  Sn1  1  0.52597553  0.24571657  0.76127536  1
  Sn  Sn2  1  0.47402447  0.75428343  0.23872464  1
  Sn  Sn3  1  0.97402447  0.74571757  0.73872464  1
  P  P4  1  0.11751038  0.25139066  0.92624878  1
  P  P5  1  0.13948893  0.75757020  0.46936395  1
  P  P6  1  0.38248962  0.75139066  0.57375022  1
  P  P7  1  0.36051107  0.25757020  0.03063605  1
  P  P8  1  0.63948893  0.74242980  0.96936395  1
  P  P9  1  0.61751038  0.24860934  0.42624978  1
  P  P10  1  0.86051107  0.24242980  0.53063605  1
  P  P11  1  0.88248962  0.74860934  0.07375122  1
  O  O12  1  0.06190148  0.08151077  0.79006096  1
  O  O13  1  0.08798810  0.53716353  0.89624562  1
  O  O14  1  0.06519425  0.68764805  0.57622354  1
  O  O15  1  0.13714073  0.04170006  0.41853835  1
  O  O16  1  0.10479796  0.15984239  0.08715155  1
  O  O17  1  0.12422835  0.57076785  0.32930450  1
  O  O18  1  0.24219048  0.21705543  0.92323672  1
  O  O19  1  0.25780952  0.71705543  0.57676328  1
  O  O20  1  0.37577165  0.07076785  0.17069550  1
  O  O21  1  0.43480575  0.18764805  0.92377646  1
  O  O22  1  0.41201190  0.03716353  0.60375438  1
  O  O23  1  0.39520204  0.65984239  0.41284845  1
  O  O24  1  0.43809852  0.58151077  0.70993904  1
  O  O25  1  0.36285927  0.54170006  0.08146165  1
  O  O26  1  0.63714073  0.45829994  0.91853835  1
  O  O27  1  0.56190148  0.41848923  0.29006096  1
  O  O28  1  0.60479796  0.34015761  0.58715155  1
  O  O29  1  0.58798810  0.96283647  0.39624562  1
  O  O30  1  0.56519425  0.81235195  0.07622354  1
  O  O31  1  0.62422835  0.92923215  0.82930450  1
  O  O32  1  0.74219048  0.28294457  0.42323672  1
  O  O33  1  0.75780952  0.78294457  0.07676328  1
  O  O34  1  0.87577165  0.42923215  0.67069550  1
  O  O35  1  0.89520204  0.84015761  0.91284845  1
  O  O36  1  0.86285927  0.95829994  0.58146165  1
  O  O37  1  0.93480575  0.31235195  0.42377646  1
  O  O38  1  0.91201190  0.46283647  0.10375438  1
  O  O39  1  0.93809852  0.91848923  0.20993904  1
