# generated using pymatgen
data_Nb3Tl3O10
_symmetry_space_group_name_H-M   'P 1'
_cell_length_a   7.59314010
_cell_length_b   7.59231625
_cell_length_c   17.14503170
_cell_angle_alpha   102.79870061
_cell_angle_beta   102.77580432
_cell_angle_gamma   89.96214751
_symmetry_Int_Tables_number   1
_chemical_formula_structural   Nb3Tl3O10
_chemical_formula_sum   'Nb12 Tl12 O40'
_cell_volume   938.76884970
_cell_formula_units_Z   4
loop_
 _symmetry_equiv_pos_site_id
 _symmetry_equiv_pos_as_xyz
  1  'x, y, z'
loop_
 _atom_site_type_symbol
 _atom_site_label
 _atom_site_symmetry_multiplicity
 _atom_site_fract_x
 _atom_site_fract_y
 _atom_site_fract_z
 _atom_site_occupancy
  Nb  Nb0  1  0.49880953  0.99910986  0.99964654  1
  Nb  Nb1  1  0.00245079  0.99784300  0.00005959  1
  Nb  Nb2  1  0.82995656  0.33233221  0.16487987  1
  Nb  Nb3  1  0.83409459  0.83497149  0.16693902  1
  Nb  Nb4  1  0.17004708  0.66253139  0.33138609  1
  Nb  Nb5  1  0.66976283  0.66560517  0.33287703  1
  Nb  Nb6  1  0.50094523  0.50192688  0.50085468  1
  Nb  Nb7  1  0.49884698  0.99718426  0.49948018  1
  Nb  Nb8  1  0.83302067  0.33198187  0.66602364  1
  Nb  Nb9  1  0.33412752  0.33168512  0.66665328  1
  Nb  Nb10  1  0.16687530  0.66807362  0.83169323  1
  Nb  Nb11  1  0.16495100  0.16709561  0.83298974  1
  Tl  Tl12  1  0.51438372  0.49878279  0.99580387  1
  Tl  Tl13  1  0.98478968  0.49772833  0.99864725  1
  Tl  Tl14  1  0.33401336  0.83288100  0.16696925  1
  Tl  Tl15  1  0.32994727  0.33304711  0.16621142  1
  Tl  Tl16  1  0.68258487  0.16986095  0.33690546  1
  Tl  Tl17  1  0.15486121  0.16570191  0.33671623  1
  Tl  Tl18  1  0.00186094  0.48554840  0.49750233  1
  Tl  Tl19  1  0.99807263  0.01682529  0.49832356  1
  Tl  Tl20  1  0.33532346  0.83040167  0.66610623  1
  Tl  Tl21  1  0.83401631  0.83439344  0.66637219  1
  Tl  Tl22  1  0.66561695  0.18470001  0.83531194  1
  Tl  Tl23  1  0.67143266  0.65481212  0.83561383  1
  O  O24  1  0.27241479  0.02701630  0.04672332  1
  O  O25  1  0.30307373  0.55039260  0.10087863  1
  O  O26  1  0.98264581  0.23188096  0.08446345  1
  O  O27  1  0.98822045  0.85310082  0.08550048  1
  O  O28  1  0.59741513  0.23208192  0.08589316  1
  O  O29  1  0.60048186  0.85543486  0.08542868  1
  O  O30  1  0.81128460  0.56415160  0.12834133  1
  O  O31  1  0.85163857  0.10281735  0.20512087  1
  O  O32  1  0.06883901  0.43520260  0.24760637  1
  O  O33  1  0.68432021  0.43593540  0.24941418  1
  O  O34  1  0.68524870  0.81348582  0.24939613  1
  O  O35  1  0.06775552  0.81343153  0.24818013  1
  O  O36  1  0.36888223  0.11626766  0.23188725  1
  O  O37  1  0.39408106  0.64466426  0.28522373  1
  O  O38  1  0.93571650  0.68415237  0.36848401  1
  O  O39  1  0.63776065  0.88822012  0.41727058  1
  O  O40  1  0.27785456  0.88749546  0.41719644  1
  O  O41  1  0.63700865  0.52744197  0.41650562  1
  O  O42  1  0.27742486  0.52729099  0.41657841  1
  O  O43  1  0.48208619  0.23339360  0.46621426  1
  O  O44  1  0.52272351  0.77401257  0.54799855  1
  O  O45  1  0.35287394  0.48868391  0.58610761  1
  O  O46  1  0.35280340  0.10062409  0.58533882  1
  O  O47  1  0.73114809  0.48657648  0.58571428  1
  O  O48  1  0.05123582  0.79884291  0.60147097  1
  O  O49  1  0.73117864  0.09928566  0.58567861  1
  O  O50  1  0.06356002  0.31482212  0.62804630  1
  O  O51  1  0.60218008  0.35339798  0.70492985  1
  O  O52  1  0.93678445  0.56436072  0.74919613  1
  O  O53  1  0.31345854  0.56696400  0.74874261  1
  O  O54  1  0.61829196  0.86697685  0.73223606  1
  O  O55  1  0.93552207  0.17891152  0.74764709  1
  O  O56  1  0.31235478  0.18181123  0.74820601  1
  O  O57  1  0.14520773  0.89180873  0.78654119  1
  O  O58  1  0.18303618  0.43286880  0.86839069  1
  O  O59  1  0.02729726  0.77676553  0.91681146  1
  O  O60  1  0.38816985  0.77670906  0.91807495  1
  O  O61  1  0.02617009  0.13607716  0.91554597  1
  O  O62  1  0.38853453  0.13825276  0.91628676  1
  O  O63  1  0.73224986  0.98330821  0.96544064  1
