# generated using pymatgen
data_Y5Tm11O24
_symmetry_space_group_name_H-M   'P 1'
_cell_length_a   9.13139573
_cell_length_b   9.13673877
_cell_length_c   9.13139712
_cell_angle_alpha   109.47341833
_cell_angle_beta   109.44746843
_cell_angle_gamma   109.46908651
_symmetry_Int_Tables_number   1
_chemical_formula_structural   Y5Tm11O24
_chemical_formula_sum   'Y5 Tm11 O24'
_cell_volume   586.63854434
_cell_formula_units_Z   1
loop_
 _symmetry_equiv_pos_site_id
 _symmetry_equiv_pos_as_xyz
  1  'x, y, z'
loop_
 _atom_site_type_symbol
 _atom_site_label
 _atom_site_symmetry_multiplicity
 _atom_site_fract_x
 _atom_site_fract_y
 _atom_site_fract_z
 _atom_site_occupancy
  Y  Y0  1  0.49901167  0.99946003  0.99951017  1
  Y  Y1  1  0.96794384  0.24999777  0.21794166  1
  Y  Y2  1  0.50137603  0.50108787  0.50114810  1
  Y  Y3  1  0.00005916  0.99890962  0.50028952  1
  Y  Y4  1  0.00004834  0.50053856  0.99954986  1
  Tm  Tm5  1  0.71650763  0.46740839  0.24995650  1
  Tm  Tm6  1  0.78254380  0.03259390  0.74909901  1
  Tm  Tm7  1  0.74947745  0.28273145  0.53308129  1
  Tm  Tm8  1  0.74968658  0.78144956  0.03242165  1
  Tm  Tm9  1  0.53278685  0.75000343  0.28278729  1
  Tm  Tm10  1  0.46727481  0.24999967  0.71727031  1
  Tm  Tm11  1  0.25097718  0.71855537  0.46823542  1
  Tm  Tm12  1  0.25035139  0.21726367  0.96674326  1
  Tm  Tm13  1  0.28334819  0.53321012  0.75119852  1
  Tm  Tm14  1  0.21799092  0.96678972  0.25013677  1
  Tm  Tm15  1  0.03256607  0.75000292  0.78257032  1
  O  O16  1  0.75812100  0.03167325  0.48823107  1
  O  O17  1  0.73820755  0.22987744  0.27315134  1
  O  O18  1  0.26912483  0.01165696  0.04292167  1
  O  O19  1  0.96915043  0.51512686  0.24323295  1
  O  O20  1  0.46835255  0.22670611  0.45706843  1
  O  O21  1  0.76865177  0.72623571  0.25794388  1
  O  O22  1  0.04327362  0.27012341  0.00832811  1
  O  O23  1  0.45655772  0.46832635  0.22644776  1
  O  O24  1  0.72637410  0.25782806  0.76965638  1
  O  O25  1  0.77374978  0.54336039  0.53161878  1
  O  O26  1  0.01180497  0.03958376  0.26964705  1
  O  O27  1  0.48828117  0.75790147  0.03151707  1
  O  O28  1  0.23006240  0.46041619  0.47222068  1
  O  O29  1  0.98825709  0.95663956  0.73039153  1
  O  O30  1  0.27361682  0.74209887  0.23038163  1
  O  O31  1  0.51182985  0.24217205  0.96854890  1
  O  O32  1  0.54353916  0.53106472  0.77412706  1
  O  O33  1  0.95705756  0.73033317  0.98787361  1
  O  O34  1  0.23036152  0.27329320  0.74164653  1
  O  O35  1  0.53170755  0.77376335  0.54241619  1
  O  O36  1  0.03126372  0.48834281  0.75746678  1
  O  O37  1  0.72810464  0.98487227  0.95402268  1
  O  O38  1  0.24306201  0.96893558  0.51247463  1
  O  O39  1  0.25753826  0.76966641  0.72672365  1
