# generated using pymatgen
data_La3GaO6
_symmetry_space_group_name_H-M   'P 1'
_cell_length_a   7.59705364
_cell_length_b   7.59705364
_cell_length_c   5.70720482
_cell_angle_alpha   90.00000000
_cell_angle_beta   90.00000000
_cell_angle_gamma   77.11163468
_symmetry_Int_Tables_number   1
_chemical_formula_structural   La3GaO6
_chemical_formula_sum   'La6 Ga2 O12'
_cell_volume   321.09405454
_cell_formula_units_Z   2
loop_
 _symmetry_equiv_pos_site_id
 _symmetry_equiv_pos_as_xyz
  1  'x, y, z'
loop_
 _atom_site_type_symbol
 _atom_site_label
 _atom_site_symmetry_multiplicity
 _atom_site_fract_x
 _atom_site_fract_y
 _atom_site_fract_z
 _atom_site_occupancy
  La  La0  1  0.30032644  0.91346575  0.46714990  1
  La  La1  1  0.08653425  0.69967356  0.96714990  1
  La  La2  1  0.39569791  0.39569791  0.42709712  1
  La  La3  1  0.60430209  0.60430209  0.92709712  1
  La  La4  1  0.91346575  0.30032644  0.46714990  1
  La  La5  1  0.69967356  0.08653425  0.96714990  1
  Ga  Ga6  1  0.19364197  0.19364197  0.00436176  1
  Ga  Ga7  1  0.80635803  0.80635803  0.50436176  1
  O  O8  1  0.35408412  0.67354190  0.19963116  1
  O  O9  1  0.32645810  0.64591588  0.69963116  1
  O  O10  1  0.58570291  0.88929910  0.66991800  1
  O  O11  1  0.11070090  0.41429709  0.16991800  1
  O  O12  1  0.04618215  0.04618215  0.12881276  1
  O  O13  1  0.21482044  0.21482044  0.68027722  1
  O  O14  1  0.78517956  0.78517956  0.18027722  1
  O  O15  1  0.95381785  0.95381785  0.62881276  1
  O  O16  1  0.88929910  0.58570291  0.66991800  1
  O  O17  1  0.41429709  0.11070090  0.16991800  1
  O  O18  1  0.67354190  0.35408412  0.19963116  1
  O  O19  1  0.64591588  0.32645810  0.69963116  1
