# generated using pymatgen
data_Ca4Bi6O13
_symmetry_space_group_name_H-M   'P 1'
_cell_length_a   9.30454748
_cell_length_b   9.44623487
_cell_length_c   9.44623487
_cell_angle_alpha   100.99064369
_cell_angle_beta   78.15041381
_cell_angle_gamma   78.15041381
_symmetry_Int_Tables_number   1
_chemical_formula_structural   Ca4Bi6O13
_chemical_formula_sum   'Ca8 Bi12 O26'
_cell_volume   771.39969141
_cell_formula_units_Z   2
loop_
 _symmetry_equiv_pos_site_id
 _symmetry_equiv_pos_as_xyz
  1  'x, y, z'
loop_
 _atom_site_type_symbol
 _atom_site_label
 _atom_site_symmetry_multiplicity
 _atom_site_fract_x
 _atom_site_fract_y
 _atom_site_fract_z
 _atom_site_occupancy
  Ca  Ca0  1  0.57027085  0.19883913  0.45106102  1
  Ca  Ca1  1  0.57044392  0.45138441  0.19773006  1
  Ca  Ca2  1  0.42980918  0.23657022  0.98373113  1
  Ca  Ca3  1  0.42980918  0.48373113  0.73657022  1
  Ca  Ca4  1  0.42954142  0.73626011  0.48309153  1
  Ca  Ca5  1  0.42954142  0.98309153  0.23626011  1
  Ca  Ca6  1  0.57027085  0.95106102  0.69883913  1
  Ca  Ca7  1  0.57044392  0.69773006  0.95138441  1
  Bi  Bi8  1  0.77331409  0.05365007  0.05341758  1
  Bi  Bi9  1  0.00097219  0.36746985  0.13909683  1
  Bi  Bi10  1  0.99914300  0.13968557  0.36802667  1
  Bi  Bi11  1  0.22203632  0.18871295  0.68871295  1
  Bi  Bi12  1  0.22288799  0.68662830  0.18662830  1
  Bi  Bi13  1  0.22665543  0.44036441  0.44005199  1
  Bi  Bi14  1  0.77713963  0.29821735  0.79821735  1
  Bi  Bi15  1  0.77813075  0.79995167  0.29995167  1
  Bi  Bi16  1  0.77331409  0.55341758  0.55365007  1
  Bi  Bi17  1  0.99914300  0.86802667  0.63968557  1
  Bi  Bi18  1  0.00097219  0.63909683  0.86746985  1
  Bi  Bi19  1  0.22665543  0.94005199  0.94036441  1
  O  O20  1  0.01622184  0.55612378  0.05612378  1
  O  O21  1  0.55758208  0.18145693  0.18206369  1
  O  O22  1  0.30164395  0.19065347  0.44617350  1
  O  O23  1  0.30448343  0.44490288  0.19144306  1
  O  O24  1  0.82123391  0.30071630  0.06271178  1
  O  O25  1  0.82014815  0.06501104  0.29788697  1
  O  O26  1  0.98374867  0.06412444  0.56412444  1
  O  O27  1  0.44249486  0.46061112  0.46024500  1
  O  O28  1  0.43595779  0.21591961  0.71591961  1
  O  O29  1  0.43749870  0.71511524  0.21511524  1
  O  O30  1  0.69515844  0.34366420  0.59738011  1
  O  O31  1  0.69843131  0.59737184  0.34181623  1
  O  O32  1  0.69843131  0.84181623  0.09737184  1
  O  O33  1  0.69515844  0.09738011  0.84366420  1
  O  O34  1  0.17986157  0.20789280  0.97473986  1
  O  O35  1  0.17870918  0.71135631  0.47328490  1
  O  O36  1  0.17870918  0.97328490  0.21135631  1
  O  O37  1  0.17986157  0.47473986  0.70789280  1
  O  O38  1  0.55758208  0.68206369  0.68145693  1
  O  O39  1  0.56407621  0.93435047  0.43435047  1
  O  O40  1  0.56250825  0.43362566  0.93362566  1
  O  O41  1  0.30448343  0.69144306  0.94490288  1
  O  O42  1  0.30164395  0.94617350  0.69065347  1
  O  O43  1  0.82014815  0.79788697  0.56501104  1
  O  O44  1  0.82123391  0.56271178  0.80071630  1
  O  O45  1  0.44249486  0.96024500  0.96061112  1
