# generated using pymatgen
data_LiTi2(PO4)3
_symmetry_space_group_name_H-M   'P 1'
_cell_length_a   11.99911939
_cell_length_b   8.63991431
_cell_length_c   8.71758359
_cell_angle_alpha   90.08910259
_cell_angle_beta   90.05258458
_cell_angle_gamma   89.94654206
_symmetry_Int_Tables_number   1
_chemical_formula_structural   LiTi2(PO4)3
_chemical_formula_sum   'Li4 Ti8 P12 O48'
_cell_volume   903.76191078
_cell_formula_units_Z   4
loop_
 _symmetry_equiv_pos_site_id
 _symmetry_equiv_pos_as_xyz
  1  'x, y, z'
loop_
 _atom_site_type_symbol
 _atom_site_label
 _atom_site_symmetry_multiplicity
 _atom_site_fract_x
 _atom_site_fract_y
 _atom_site_fract_z
 _atom_site_occupancy
  Li  Li0  1  0.18240338  0.71369551  0.72814050  1
  Li  Li1  1  0.31663654  0.21153263  0.73123365  1
  Li  Li2  1  0.68370965  0.78888373  0.27012313  1
  Li  Li3  1  0.81655359  0.28843333  0.27083513  1
  Ti  Ti4  1  0.11605935  0.24697816  0.53126697  1
  Ti  Ti5  1  0.12099788  0.75176160  0.04804655  1
  Ti  Ti6  1  0.37903465  0.25243111  0.04891364  1
  Ti  Ti7  1  0.38419355  0.74715540  0.53094599  1
  Ti  Ti8  1  0.62111865  0.74805822  0.95171005  1
  Ti  Ti9  1  0.61631396  0.25203263  0.46937752  1
  Ti  Ti10  1  0.88428250  0.75271103  0.46922408  1
  Ti  Ti11  1  0.87886546  0.24855223  0.95223769  1
  P  P12  1  0.00166917  0.96146116  0.75158423  1
  P  P13  1  0.14477488  0.60279747  0.39522970  1
  P  P14  1  0.14459177  0.39274938  0.89402901  1
  P  P15  1  0.35509898  0.89272106  0.89455159  1
  P  P16  1  0.35564827  0.10332819  0.39716791  1
  P  P17  1  0.49874909  0.46060091  0.75111916  1
  P  P18  1  0.50272685  0.53943858  0.24904035  1
  P  P19  1  0.64473981  0.10729910  0.10546455  1
  P  P20  1  0.64476053  0.89569922  0.60387826  1
  P  P21  1  0.85575170  0.39648253  0.60391214  1
  P  P22  1  0.85552300  0.60730035  0.10518758  1
  P  P23  1  0.99763122  0.03894392  0.25002378  1
  O  O24  1  0.02526392  0.65795863  0.43287524  1
  O  O25  1  0.02595110  0.33834873  0.93228511  1
  O  O26  1  0.07265491  0.93772621  0.14687235  1
  O  O27  1  0.07541835  0.06446668  0.65006623  1
  O  O28  1  0.07877425  0.85275626  0.84321095  1
  O  O29  1  0.07540337  0.13919285  0.35129292  1
  O  O30  1  0.15413224  0.57131262  0.90048032  1
  O  O31  1  0.15566160  0.42682288  0.41002502  1
  O  O32  1  0.17394440  0.65197438  0.23001123  1
  O  O33  1  0.17715411  0.33869647  0.73003765  1
  O  O34  1  0.22308142  0.67955516  0.51479109  1
  O  O35  1  0.22844805  0.32154328  0.00894048  1
  O  O36  1  0.27738496  0.17956736  0.51713882  1
  O  O37  1  0.27200948  0.82010563  0.00947767  1
  O  O38  1  0.32221048  0.84060859  0.72983775  1
  O  O39  1  0.32692997  0.15513802  0.23235568  1
  O  O40  1  0.34372268  0.92733684  0.41006943  1
  O  O41  1  0.34465279  0.07123802  0.90364004  1
  O  O42  1  0.42559754  0.64078239  0.35055904  1
  O  O43  1  0.42227301  0.35025656  0.84155098  1
  O  O44  1  0.42489748  0.56425494  0.64965989  1
  O  O45  1  0.42721279  0.44059446  0.14413856  1
  O  O46  1  0.47426297  0.83951389  0.93137566  1
  O  O47  1  0.47541684  0.15614309  0.43550766  1
  O  O48  1  0.52560628  0.16074152  0.06808494  1
  O  O49  1  0.52486540  0.84361028  0.56605981  1
  O  O50  1  0.57409983  0.55992319  0.85535633  1
  O  O51  1  0.57596927  0.43508074  0.35059845  1
  O  O52  1  0.57963670  0.64907223  0.15891936  1
  O  O53  1  0.57623821  0.35970479  0.64951795  1
  O  O54  1  0.65490341  0.92899044  0.09764960  1
  O  O55  1  0.65734865  0.07165891  0.58923179  1
  O  O56  1  0.67726868  0.16005867  0.27009711  1
  O  O57  1  0.67394751  0.84554608  0.76868218  1
  O  O58  1  0.72258342  0.81774450  0.48414376  1
  O  O59  1  0.72803735  0.17939355  0.99067841  1
  O  O60  1  0.77744239  0.31935864  0.48463640  1
  O  O61  1  0.77238616  0.67907732  0.99019438  1
  O  O62  1  0.82709087  0.34667066  0.76905880  1
  O  O63  1  0.82350097  0.66112588  0.26964489  1
  O  O64  1  0.84422897  0.57263069  0.58932044  1
  O  O65  1  0.84505411  0.42873903  0.09844151  1
  O  O66  1  0.92541083  0.85854338  0.65019798  1
  O  O67  1  0.92294807  0.93685670  0.35170188  1
  O  O68  1  0.92183121  0.14934070  0.15858977  1
  O  O69  1  0.92537067  0.06051563  0.85471403  1
  O  O70  1  0.97537602  0.34354981  0.56579742  1
  O  O71  1  0.97488989  0.65898929  0.06747589  1
