# generated using pymatgen
data_Al2CoCl8
_symmetry_space_group_name_H-M   'P 1'
_cell_length_a   8.05772604
_cell_length_b   8.05772622
_cell_length_c   11.65856336
_cell_angle_alpha   87.11215967
_cell_angle_beta   92.88783972
_cell_angle_gamma   120.23761637
_symmetry_Int_Tables_number   1
_chemical_formula_structural   Al2CoCl8
_chemical_formula_sum   'Al4 Co2 Cl16'
_cell_volume   652.86206767
_cell_formula_units_Z   2
loop_
 _symmetry_equiv_pos_site_id
 _symmetry_equiv_pos_as_xyz
  1  'x, y, z'
loop_
 _atom_site_type_symbol
 _atom_site_label
 _atom_site_symmetry_multiplicity
 _atom_site_fract_x
 _atom_site_fract_y
 _atom_site_fract_z
 _atom_site_occupancy
  Al  Al0  1  0.16135168  0.32332002  0.94469875  1
  Al  Al1  1  0.32332002  0.16135168  0.55530125  1
  Al  Al2  1  0.67667998  0.83864832  0.44469875  1
  Al  Al3  1  0.83864832  0.67667998  0.05530125  1
  Co  Co4  1  0.99812401  0.99812401  0.25000000  1
  Co  Co5  1  0.00187599  0.00187599  0.75000000  1
  Cl  Cl6  1  0.16173113  0.87580365  0.63777389  1
  Cl  Cl7  1  0.12419635  0.83826887  0.13777389  1
  Cl  Cl8  1  0.31023477  0.61662648  0.89826582  1
  Cl  Cl9  1  0.15966151  0.28537851  0.61830999  1
  Cl  Cl10  1  0.14659561  0.29987695  0.13225955  1
  Cl  Cl11  1  0.38337352  0.68976523  0.39826582  1
  Cl  Cl12  1  0.28537851  0.15966151  0.88169001  1
  Cl  Cl13  1  0.29987695  0.14659561  0.36774045  1
  Cl  Cl14  1  0.70012305  0.85340439  0.63225955  1
  Cl  Cl15  1  0.71462149  0.84033849  0.11830999  1
  Cl  Cl16  1  0.61662648  0.31023477  0.60173418  1
  Cl  Cl17  1  0.85340439  0.70012305  0.86774045  1
  Cl  Cl18  1  0.84033849  0.71462149  0.38169001  1
  Cl  Cl19  1  0.68976523  0.38337352  0.10173418  1
  Cl  Cl20  1  0.87580365  0.16173113  0.86222611  1
  Cl  Cl21  1  0.83826887  0.12419635  0.36222611  1
