# generated using pymatgen
data_B8PH24RhC7
_symmetry_space_group_name_H-M   'P 1'
_cell_length_a   11.15923974
_cell_length_b   12.57848490
_cell_length_c   13.91394641
_cell_angle_alpha   67.68579695
_cell_angle_beta   68.11802681
_cell_angle_gamma   74.91730745
_symmetry_Int_Tables_number   1
_chemical_formula_structural   B8PH24RhC7
_chemical_formula_sum   'B32 P4 H96 Rh4 C28'
_cell_volume   1660.51714840
_cell_formula_units_Z   4
loop_
 _symmetry_equiv_pos_site_id
 _symmetry_equiv_pos_as_xyz
  1  'x, y, z'
loop_
 _atom_site_type_symbol
 _atom_site_label
 _atom_site_symmetry_multiplicity
 _atom_site_fract_x
 _atom_site_fract_y
 _atom_site_fract_z
 _atom_site_occupancy
  B  B0  1  0.40633689  0.25646335  0.81346695  1
  B  B1  1  0.59366311  0.74353665  0.18653305  1
  B  B2  1  0.51376114  0.18666526  0.91710773  1
  B  B3  1  0.48623886  0.81333474  0.08289227  1
  B  B4  1  0.45346769  0.31821197  0.95697627  1
  B  B5  1  0.54653231  0.68178803  0.04302373  1
  B  B6  1  0.35645207  0.37968089  0.86356893  1
  B  B7  1  0.64354793  0.62031911  0.13643107  1
  B  B8  1  0.61356305  0.29728787  0.86876692  1
  B  B9  1  0.38643695  0.70271213  0.13123308  1
  B  B10  1  0.50505860  0.43185417  0.83199424  1
  B  B11  1  0.49494140  0.56814583  0.16800576  1
  B  B12  1  0.47342687  0.38861157  0.73224444  1
  B  B13  1  0.52657313  0.61138843  0.26775556  1
  B  B14  1  0.63099046  0.38696192  0.73386241  1
  B  B15  1  0.36900954  0.61303808  0.26613759  1
  B  B16  1  0.02380576  0.13384748  0.81331763  1
  B  B17  1  0.97619424  0.86615252  0.18668237  1
  B  B18  1  0.85422782  0.06086467  0.89301395  1
  B  B19  1  0.14577218  0.93913533  0.10698605  1
  B  B20  1  0.92491293  0.96534187  0.80728849  1
  B  B21  1  0.07508707  0.03465813  0.19271151  1
  B  B22  1  0.07462792  0.03115327  0.73792880  1
  B  B23  1  0.92537208  0.96884673  0.26207120  1
  B  B24  1  0.80317581  0.08463767  0.77901273  1
  B  B25  1  0.19682419  0.91536233  0.22098727  1
  B  B26  1  0.95445448  0.06437742  0.67153964  1
  B  B27  1  0.04554552  0.93562258  0.32846036  1
  B  B28  1  0.02224143  0.18054046  0.67565133  1
  B  B29  1  0.97775857  0.81945954  0.32434867  1
  B  B30  1  0.86549229  0.19785307  0.66544081  1
  B  B31  1  0.13450771  0.80214693  0.33455919  1
  P  P32  1  0.56788301  0.16557920  0.61474672  1
  P  P33  1  0.43211699  0.83442080  0.38525328  1
  P  P34  1  0.92501284  0.39543470  0.81079663  1
  P  P35  1  0.07498716  0.60456530  0.18920337  1
  H  H36  1  0.28375578  0.20497529  0.00416135  1
  H  H37  1  0.71624422  0.79502471  0.99583865  1
  H  H38  1  0.33684232  0.21814553  0.79048525  1
  H  H39  1  0.66315768  0.78185447  0.20951475  1
  H  H40  1  0.54025643  0.09002530  0.97184708  1
  H  H41  1  0.45974357  0.90997470  0.02815292  1
  H  H42  1  0.43242771  0.32918696  0.04364472  1
  H  H43  1  0.56757229  0.67081304  0.95635528  1
  H  H44  1  0.25478281  0.44239267  0.87407256  1
  H  H45  1  0.74521719  0.55760733  0.12592744  1
  H  H46  1  0.70022036  0.27743112  0.91465000  1
  H  H47  1  0.29977964  0.72256888  0.08535000  1
  H  H48  1  0.50453521  0.52743814  0.83167617  1
  H  H49  1  0.49546479  0.47256186  0.16832383  1
  H  H50  1  0.44714589  0.45134858  0.65084096  1
  H  H51  1  0.55285411  0.54865142  0.34915904  1
  H  H52  1  0.71519930  0.44018769  0.66305527  1
  H  H53  1  0.28480070  0.55981231  0.33694473  1
  H  H54  1  0.67092079  0.07524615  0.47354308  1
  H  H55  1  0.32907921  0.92475385  0.52645692  1
  H  H56  1  0.77893020  0.06346880  0.54416088  1
  H  H57  1  0.22106980  0.93653120  0.45583912  1
  H  H58  1  0.80457526  0.27802541  0.44237074  1
  H  H59  1  0.19542474  0.72197459  0.55762926  1
  H  H60  1  0.85630831  0.19169778  0.35481174  1
  H  H61  1  0.14369169  0.80830222  0.64518826  1
  H  H62  1  0.70431833  0.28329555  0.36664647  1
  H  H63  1  0.29568167  0.71670445  0.63335353  1
  H  H64  1  0.45858663  0.02452616  0.61599157  1
  H  H65  1  0.54141337  0.97547384  0.38400843  1
  H  H66  1  0.38782187  0.06192497  0.73756184  1
  H  H67  1  0.61217813  0.93807503  0.26243816  1
  H  H68  1  0.57014894  0.93364785  0.81009347  1
  H  H69  1  0.42985106  0.06635215  0.18990653  1
  H  H70  1  0.49578786  0.85398607  0.77234775  1
  H  H71  1  0.50421214  0.14601393  0.22765225  1
  H  H72  1  0.64865129  0.89978673  0.68600140  1
  H  H73  1  0.35134871  0.10021327  0.31399860  1
  H  H74  1  0.50755159  0.35408386  0.49810727  1
  H  H75  1  0.49244841  0.64591614  0.50189273  1
  H  H76  1  0.37103725  0.29659928  0.60247903  1
  H  H77  1  0.62896275  0.70340072  0.39752097  1
  H  H78  1  0.36577017  0.17153894  0.49977174  1
  H  H79  1  0.63422983  0.82846106  0.50022826  1
  H  H80  1  0.37008397  0.31758847  0.41462895  1
  H  H81  1  0.62991603  0.68241153  0.58537105  1
  H  H82  1  0.51303265  0.21643360  0.39744869  1
  H  H83  1  0.48696735  0.78356640  0.60255131  1
  H  H84  1  0.04562050  0.93650862  0.92916983  1
  H  H85  1  0.95437950  0.06349138  0.07083017  1
  H  H86  1  0.09601207  0.16249456  0.84181550  1
  H  H87  1  0.90398793  0.83750544  0.15818450  1
  H  H88  1  0.78380628  0.03938665  0.98522957  1
  H  H89  1  0.21619372  0.96061335  0.01477043  1
  H  H90  1  0.91157104  0.86668435  0.82924556  1
  H  H91  1  0.08842896  0.13331565  0.17075444  1
  H  H92  1  0.18230769  0.98494898  0.70373954  1
  H  H93  1  0.81769231  0.01505102  0.29626046  1
  H  H94  1  0.69232779  0.06139144  0.79524910  1
  H  H95  1  0.30767221  0.93860856  0.20475090  1
  H  H96  1  0.97334408  0.03220861  0.59560004  1
  H  H97  1  0.02665592  0.96779139  0.40439996  1
  H  H98  1  0.09763021  0.24098239  0.60179214  1
  H  H99  1  0.90236979  0.75901761  0.39820786  1
  H  H100  1  0.81645648  0.26733128  0.59718865  1
  H  H101  1  0.18354352  0.73266872  0.40281135  1
  H  H102  1  0.15348461  0.34729212  0.72690572  1
  H  H103  1  0.84651539  0.65270788  0.27309428  1
  H  H104  1  0.11870623  0.48310480  0.74782414  1
  H  H105  1  0.88129377  0.51689520  0.25217586  1
  H  H106  1  0.03359118  0.57655857  0.58545115  1
  H  H107  1  0.96640882  0.42344143  0.41454885  1
  H  H108  1  0.19353616  0.50339519  0.54657767  1
  H  H109  1  0.80646384  0.49660481  0.45342233  1
  H  H110  1  0.05846526  0.43904801  0.56726736  1
  H  H111  1  0.94153474  0.56095199  0.43273264  1
  H  H112  1  0.98723093  0.42852089  0.94352958  1
  H  H113  1  0.01276907  0.57147911  0.05647042  1
  H  H114  1  0.02711227  0.28151072  0.94900819  1
  H  H115  1  0.97288773  0.71848928  0.05099181  1
  H  H116  1  0.79200778  0.24986978  0.04987136  1
  H  H117  1  0.20799222  0.75013022  0.95012864  1
  H  H118  1  0.85042921  0.30743341  0.11958321  1
  H  H119  1  0.14957079  0.69256659  0.88041679  1
  H  H120  1  0.74703970  0.39866983  0.04125584  1
  H  H121  1  0.25296030  0.60133017  0.95874416  1
  H  H122  1  0.72537609  0.52266132  0.85492194  1
  H  H123  1  0.27462391  0.47733868  0.14507806  1
  H  H124  1  0.80751579  0.56375483  0.71458863  1
  H  H125  1  0.19248421  0.43624517  0.28541137  1
  H  H126  1  0.96801946  0.65248022  0.74425828  1
  H  H127  1  0.03198054  0.34751978  0.25574172  1
  H  H128  1  0.80464181  0.71487886  0.79117621  1
  H  H129  1  0.19535819  0.28512114  0.20882379  1
  H  H130  1  0.88139762  0.61297884  0.88627899  1
  H  H131  1  0.11860238  0.38702116  0.11372101  1
  Rh  Rh132  1  0.61973879  0.22174395  0.73917917  1
  Rh  Rh133  1  0.38026121  0.77825605  0.26082083  1
  Rh  Rh134  1  0.84150993  0.24810196  0.79700431  1
  Rh  Rh135  1  0.15849007  0.75189804  0.20299569  1
  C  C136  1  0.36563962  0.24582957  0.94083826  1
  C  C137  1  0.63436038  0.75417043  0.05916174  1
  C  C138  1  0.70720064  0.12433286  0.50543072  1
  C  C139  1  0.29279936  0.87566714  0.49456928  1
  C  C140  1  0.77108567  0.22552511  0.41228817  1
  C  C141  1  0.22891433  0.77447489  0.58771183  1
  C  C142  1  0.48129544  0.03717495  0.68114187  1
  C  C143  1  0.51870456  0.96282505  0.31885813  1
  C  C144  1  0.55378025  0.92537364  0.74036768  1
  C  C145  1  0.44621975  0.07462636  0.25963232  1
  C  C146  1  0.45998473  0.27531686  0.54016836  1
  C  C147  1  0.54001527  0.72468314  0.45983164  1
  C  C148  1  0.42611004  0.24207324  0.45898524  1
  C  C149  1  0.57388996  0.75792676  0.54101476  1
  C  C150  1  0.00136616  0.99874904  0.86820853  1
  C  C151  1  0.99863384  0.00125096  0.13179147  1
  C  C152  1  0.08719341  0.42960110  0.71713254  1
  C  C153  1  0.91280659  0.57039890  0.28286746  1
  C  C154  1  0.09276372  0.49056433  0.59770205  1
  C  C155  1  0.90723628  0.50943567  0.40229795  1
  C  C156  1  0.94852611  0.35543523  0.94533896  1
  C  C157  1  0.05147389  0.64456477  0.05466104  1
  C  C158  1  0.82744081  0.32652083  0.04399037  1
  C  C159  1  0.17255919  0.67347917  0.95600963  1
  C  C160  1  0.82174024  0.53798658  0.79485565  1
  C  C161  1  0.17825976  0.46201342  0.20514435  1
  C  C162  1  0.87274631  0.63405101  0.80477449  1
  C  C163  1  0.12725369  0.36594899  0.19522551  1
