# generated using pymatgen
data_Li2V3CoO8
_symmetry_space_group_name_H-M   'P 1'
_cell_length_a   8.43632049
_cell_length_b   8.39220035
_cell_length_c   8.40377276
_cell_angle_alpha   90.05831605
_cell_angle_beta   90.01007159
_cell_angle_gamma   90.00069645
_symmetry_Int_Tables_number   1
_chemical_formula_structural   Li2V3CoO8
_chemical_formula_sum   'Li8 V12 Co4 O32'
_cell_volume   594.98084220
_cell_formula_units_Z   4
loop_
 _symmetry_equiv_pos_site_id
 _symmetry_equiv_pos_as_xyz
  1  'x, y, z'
loop_
 _atom_site_type_symbol
 _atom_site_label
 _atom_site_symmetry_multiplicity
 _atom_site_fract_x
 _atom_site_fract_y
 _atom_site_fract_z
 _atom_site_occupancy
  Li  Li0  1  0.12509457  0.87459205  0.37498543  1
  Li  Li1  1  0.25260729  0.75246491  0.74734367  1
  Li  Li2  1  0.25061239  0.24915630  0.25177895  1
  Li  Li3  1  0.37434059  0.12606833  0.87528495  1
  Li  Li4  1  0.62681349  0.62501450  0.62561650  1
  Li  Li5  1  0.74971745  0.74886641  0.24961179  1
  Li  Li6  1  0.74901999  0.24849169  0.74933810  1
  Li  Li7  1  0.87182973  0.37492619  0.12810934  1
  V  V8  1  0.12065224  0.62883400  0.12464537  1
  V  V9  1  0.12665470  0.37875631  0.88111733  1
  V  V10  1  0.12314153  0.12289180  0.62492024  1
  V  V11  1  0.37774122  0.87805126  0.12107706  1
  V  V12  1  0.37771146  0.62391534  0.37683302  1
  V  V13  1  0.37840492  0.37822673  0.62484876  1
  V  V14  1  0.62320798  0.87281894  0.87509049  1
  V  V15  1  0.62278811  0.12319737  0.12087342  1
  V  V16  1  0.62314690  0.37729636  0.37752579  1
  V  V17  1  0.87743872  0.61718940  0.87655023  1
  V  V18  1  0.87863298  0.87446696  0.62111009  1
  V  V19  1  0.87795868  0.12275109  0.37655963  1
  Co  Co20  1  0.99763712  0.50026364  0.49911438  1
  Co  Co21  1  0.50101794  0.49821328  0.00092542  1
  Co  Co22  1  0.49903517  0.99989660  0.50035285  1
  Co  Co23  1  0.99834634  0.00101554  0.00050428  1
  O  O24  1  0.10460333  0.13421544  0.39935602  1
  O  O25  1  0.10199967  0.89388080  0.63123453  1
  O  O26  1  0.11375726  0.61634540  0.88360701  1
  O  O27  1  0.13383249  0.39434967  0.09881503  1
  O  O28  1  0.12105960  0.14305068  0.85689385  1
  O  O29  1  0.13439321  0.36788410  0.64199745  1
  O  O30  1  0.14386504  0.61768814  0.35564660  1
  O  O31  1  0.14290635  0.85822026  0.12004897  1
  O  O32  1  0.35454368  0.14355971  0.61809642  1
  O  O33  1  0.36262127  0.37702512  0.85622634  1
  O  O34  1  0.36366413  0.63549808  0.13514587  1
  O  O35  1  0.37939444  0.85590114  0.35748353  1
  O  O36  1  0.36852455  0.60233248  0.60553453  1
  O  O37  1  0.38560163  0.38491580  0.38519422  1
  O  O38  1  0.39738605  0.10455633  0.13476349  1
  O  O39  1  0.39453780  0.86896402  0.89718378  1
  O  O40  1  0.60500727  0.36606063  0.60193546  1
  O  O41  1  0.60121537  0.60510239  0.36662679  1
  O  O42  1  0.61375880  0.88432844  0.11484173  1
  O  O43  1  0.63437150  0.10145988  0.89681432  1
  O  O44  1  0.62151720  0.35603315  0.14156220  1
  O  O45  1  0.63613860  0.13534707  0.36308304  1
  O  O46  1  0.64312506  0.88332257  0.64498400  1
  O  O47  1  0.64188138  0.64368323  0.87893938  1
  O  O48  1  0.85515335  0.35813802  0.37957861  1
  O  O49  1  0.85944008  0.12128437  0.14420855  1
  O  O50  1  0.86627388  0.85863937  0.86458388  1
  O  O51  1  0.87548390  0.64467177  0.63567110  1
  O  O52  1  0.86628216  0.89810500  0.39409072  1
  O  O53  1  0.88611853  0.11507134  0.61534846  1
  O  O54  1  0.88971911  0.40041715  0.86821364  1
  O  O55  1  0.89827180  0.63266246  0.10825542  1
