# generated using pymatgen
data_CeTh9O20
_symmetry_space_group_name_H-M   'P 1'
_cell_length_a   7.92382859
_cell_length_b   6.86409037
_cell_length_c   8.85943397
_cell_angle_alpha   97.42291006
_cell_angle_beta   77.07674374
_cell_angle_gamma   73.22591525
_symmetry_Int_Tables_number   1
_chemical_formula_structural   CeTh9O20
_chemical_formula_sum   'Ce1 Th9 O20'
_cell_volume   439.87715113
_cell_formula_units_Z   1
loop_
 _symmetry_equiv_pos_site_id
 _symmetry_equiv_pos_as_xyz
  1  'x, y, z'
loop_
 _atom_site_type_symbol
 _atom_site_label
 _atom_site_symmetry_multiplicity
 _atom_site_fract_x
 _atom_site_fract_y
 _atom_site_fract_z
 _atom_site_occupancy
  Ce  Ce0  1  0.09999900  0.20000000  0.40000000  1
  Th  Th1  1  0.70088765  0.39949797  0.79891919  1
  Th  Th2  1  0.19995190  0.39948807  0.79888218  1
  Th  Th3  1  0.90077744  0.79974870  0.59938419  1
  Th  Th4  1  0.39925178  0.80114044  0.59967933  1
  Th  Th5  1  0.60000000  0.20000000  0.40000000  1
  Th  Th6  1  0.49911335  0.00050203  0.00108081  1
  Th  Th7  1  0.00004710  0.00051193  0.00111782  1
  Th  Th8  1  0.29922156  0.60025230  0.20061581  1
  Th  Th9  1  0.80074922  0.59885956  0.20032067  1
  O  O10  1  0.27500291  0.04986041  0.84985378  1
  O  O11  1  0.92499809  0.35013959  0.95014522  1
  O  O12  1  0.42488836  0.35005682  0.95018254  1
  O  O13  1  0.77511164  0.04994418  0.84981746  1
  O  O14  1  0.12500862  0.74976701  0.74974764  1
  O  O15  1  0.62518267  0.74997127  0.74979279  1
  O  O16  1  0.97636744  0.44764352  0.64749271  1
  O  O17  1  0.82765623  0.15023019  0.54835557  1
  O  O18  1  0.47503872  0.44949905  0.64972578  1
  O  O19  1  0.32297292  0.15035223  0.54854395  1
  O  O20  1  0.02578832  0.54687066  0.35057539  1
  O  O21  1  0.52492865  0.54966858  0.34989213  1
  O  O22  1  0.37234277  0.24976981  0.25164443  1
  O  O23  1  0.67507135  0.85033142  0.45010787  1
  O  O24  1  0.17421268  0.85312934  0.44942461  1
  O  O25  1  0.87702708  0.24964777  0.25145505  1
  O  O26  1  0.07499138  0.65023399  0.05025136  1
  O  O27  1  0.57481733  0.65002873  0.05020721  1
  O  O28  1  0.72496228  0.95050095  0.15027422  1
  O  O29  1  0.22363356  0.95235548  0.15250729  1
