# generated using pymatgen
data_Li4Mn3V(PO4)4
_symmetry_space_group_name_H-M   'P 1'
_cell_length_a   4.78989459
_cell_length_b   10.55919677
_cell_length_c   6.17036847
_cell_angle_alpha   90.00000000
_cell_angle_beta   90.00000000
_cell_angle_gamma   90.02801229
_symmetry_Int_Tables_number   1
_chemical_formula_structural   Li4Mn3V(PO4)4
_chemical_formula_sum   'Li4 Mn3 V1 P4 O16'
_cell_volume   312.08140065
_cell_formula_units_Z   1
loop_
 _symmetry_equiv_pos_site_id
 _symmetry_equiv_pos_as_xyz
  1  'x, y, z'
loop_
 _atom_site_type_symbol
 _atom_site_label
 _atom_site_symmetry_multiplicity
 _atom_site_fract_x
 _atom_site_fract_y
 _atom_site_fract_z
 _atom_site_occupancy
  Li  Li0  1  0.00017054  0.99965155  0.99922738  1
  Li  Li1  1  0.00017054  0.99965155  0.50077262  1
  Li  Li2  1  0.50062000  0.49915803  0.49900404  1
  Li  Li3  1  0.50062000  0.49915803  0.00099596  1
  Mn  Mn4  1  0.02813756  0.71828530  0.75000000  1
  Mn  Mn5  1  0.47343705  0.22039441  0.75000000  1
  Mn  Mn6  1  0.52768484  0.78029286  0.25000000  1
  V  V7  1  0.97803473  0.27688745  0.25000000  1
  P  P8  1  0.08938714  0.59080243  0.25000000  1
  P  P9  1  0.40973384  0.09334282  0.25000000  1
  P  P10  1  0.58999499  0.90828990  0.75000000  1
  P  P11  1  0.90938720  0.40816424  0.75000000  1
  O  O12  1  0.20976758  0.45410611  0.25000000  1
  O  O13  1  0.22340713  0.66049160  0.04970267  1
  O  O14  1  0.22340713  0.66049160  0.45029733  1
  O  O15  1  0.23066135  0.40402795  0.75000000  1
  O  O16  1  0.26929740  0.90423423  0.75000000  1
  O  O17  1  0.27437913  0.16255858  0.04940065  1
  O  O18  1  0.27437913  0.16255858  0.45059935  1
  O  O19  1  0.28980931  0.95647122  0.25000000  1
  O  O20  1  0.71140153  0.04518263  0.75000000  1
  O  O21  1  0.72321659  0.83924458  0.54931594  1
  O  O22  1  0.72321659  0.83924458  0.95068406  1
  O  O23  1  0.73021888  0.09746080  0.25000000  1
  O  O24  1  0.76879177  0.59631381  0.25000000  1
  O  O25  1  0.77630559  0.33930615  0.54896076  1
  O  O26  1  0.77630559  0.33930615  0.95103924  1
  O  O27  1  0.78805788  0.54492388  0.75000000  1
