# generated using pymatgen
data_V3O5F
_symmetry_space_group_name_H-M   'P 1'
_cell_length_a   4.62487553
_cell_length_b   13.81927594
_cell_length_c   3.04317790
_cell_angle_alpha   90.00001385
_cell_angle_beta   90.00001515
_cell_angle_gamma   89.96287691
_symmetry_Int_Tables_number   1
_chemical_formula_structural   V3O5F
_chemical_formula_sum   'V6 O10 F2'
_cell_volume   194.49685719
_cell_formula_units_Z   2
loop_
 _symmetry_equiv_pos_site_id
 _symmetry_equiv_pos_as_xyz
  1  'x, y, z'
loop_
 _atom_site_type_symbol
 _atom_site_label
 _atom_site_symmetry_multiplicity
 _atom_site_fract_x
 _atom_site_fract_y
 _atom_site_fract_z
 _atom_site_occupancy
  V  V0  1  0.96820292  0.00125147  0.00000317  1
  V  V1  1  0.03975223  0.34367099  0.99999956  1
  V  V2  1  0.03182182  0.65865306  0.99999966  1
  V  V3  1  0.46832874  0.15861913  0.50000026  1
  V  V4  1  0.53212818  0.50122921  0.49999505  1
  V  V5  1  0.46019471  0.84379970  0.50000558  1
  O  O6  1  0.20152459  0.26484104  0.49999872  1
  O  O7  1  0.21438738  0.60066508  0.49999914  1
  O  O8  1  0.18700829  0.93337529  0.50000100  1
  O  O9  1  0.28563616  0.10073803  -0.00000003  1
  O  O10  1  0.29833653  0.76482787  0.00000146  1
  O  O11  1  0.31318851  0.43342575  0.99999780  1
  O  O12  1  0.72956007  0.57042892  0.99999665  1
  O  O13  1  0.68087233  0.89492926  0.00000361  1
  O  O14  1  0.77069818  0.07037820  0.49999985  1
  O  O15  1  0.81864064  0.39485411  0.49999889  1
  F  F16  1  0.69050755  0.23209381  0.99999985  1
  F  F17  1  0.80921118  0.73221908  0.49999979  1
