# generated using pymatgen
data_Fe(PO3)3
_symmetry_space_group_name_H-M   'P 1'
_cell_length_a   9.95154796
_cell_length_b   10.99601890
_cell_length_c   6.37030604
_cell_angle_alpha   90.00000000
_cell_angle_beta   90.00000000
_cell_angle_gamma   90.00000000
_symmetry_Int_Tables_number   1
_chemical_formula_structural   Fe(PO3)3
_chemical_formula_sum   'Fe4 P12 O36'
_cell_volume   697.08608738
_cell_formula_units_Z   4
loop_
 _symmetry_equiv_pos_site_id
 _symmetry_equiv_pos_as_xyz
  1  'x, y, z'
loop_
 _atom_site_type_symbol
 _atom_site_label
 _atom_site_symmetry_multiplicity
 _atom_site_fract_x
 _atom_site_fract_y
 _atom_site_fract_z
 _atom_site_occupancy
  Fe  Fe0  1  0.00000000  0.00000000  0.00000000  1
  Fe  Fe1  1  0.00000000  0.50000000  0.50000000  1
  Fe  Fe2  1  0.50000000  0.50000000  0.00000000  1
  Fe  Fe3  1  0.50000000  0.00000000  0.50000000  1
  P  P4  1  0.08133552  0.75000000  0.75000000  1
  P  P5  1  0.21064507  0.86607183  0.36276534  1
  P  P6  1  0.21064507  0.63392817  0.13723466  1
  P  P7  1  0.28935493  0.13392817  0.86276534  1
  P  P8  1  0.28935493  0.36607183  0.63723466  1
  P  P9  1  0.41866448  0.25000000  0.25000000  1
  P  P10  1  0.58133552  0.75000000  0.75000000  1
  P  P11  1  0.71064507  0.63392817  0.36276534  1
  P  P12  1  0.71064507  0.86607183  0.13723466  1
  P  P13  1  0.78935493  0.13392817  0.63723466  1
  P  P14  1  0.78935493  0.36607183  0.86276534  1
  P  P15  1  0.91866448  0.25000000  0.25000000  1
  O  O16  1  0.00310156  0.15335551  0.15012669  1
  O  O17  1  0.00310156  0.34664449  0.34987331  1
  O  O18  1  0.08219749  0.59731219  0.24273227  1
  O  O19  1  0.08219749  0.90268781  0.25726773  1
  O  O20  1  0.18365537  0.46286602  0.61406521  1
  O  O21  1  0.18365537  0.03713398  0.88593479  1
  O  O22  1  0.18534540  0.80993952  0.59210200  1
  O  O23  1  0.18534540  0.69006048  0.90789800  1
  O  O24  1  0.22046810  0.25000000  0.75000000  1
  O  O25  1  0.27953190  0.75000000  0.25000000  1
  O  O26  1  0.31465460  0.19006048  0.09210200  1
  O  O27  1  0.31465460  0.30993952  0.40789800  1
  O  O28  1  0.31634463  0.53713398  0.11406521  1
  O  O29  1  0.31634463  0.96286602  0.38593479  1
  O  O30  1  0.41780251  0.09731219  0.75726773  1
  O  O31  1  0.41780251  0.40268781  0.74273227  1
  O  O32  1  0.49689844  0.65335551  0.84987331  1
  O  O33  1  0.49689844  0.84664449  0.65012669  1
  O  O34  1  0.50310156  0.15335551  0.34987331  1
  O  O35  1  0.50310156  0.34664449  0.15012669  1
  O  O36  1  0.58219749  0.59731219  0.25726773  1
  O  O37  1  0.58219749  0.90268781  0.24273227  1
  O  O38  1  0.68365537  0.03713398  0.61406521  1
  O  O39  1  0.68365537  0.46286602  0.88593479  1
  O  O40  1  0.68534540  0.69006048  0.59210200  1
  O  O41  1  0.68534540  0.80993952  0.90789800  1
  O  O42  1  0.72046810  0.25000000  0.75000000  1
  O  O43  1  0.77953190  0.75000000  0.25000000  1
  O  O44  1  0.81465460  0.19006048  0.40789800  1
  O  O45  1  0.81465460  0.30993952  0.09210200  1
  O  O46  1  0.81634463  0.53713398  0.38593479  1
  O  O47  1  0.81634463  0.96286602  0.11406521  1
  O  O48  1  0.91780251  0.09731219  0.74273227  1
  O  O49  1  0.91780251  0.40268781  0.75726773  1
  O  O50  1  0.99689844  0.65335551  0.65012669  1
  O  O51  1  0.99689844  0.84664449  0.84987331  1
