# generated using pymatgen
data_Li3MnF6
_symmetry_space_group_name_H-M   'P 1'
_cell_length_a   8.56539346
_cell_length_b   8.56539346
_cell_length_c   10.39441786
_cell_angle_alpha   83.53445995
_cell_angle_beta   96.46554005
_cell_angle_gamma   118.80811563
_symmetry_Int_Tables_number   1
_chemical_formula_structural   Li3MnF6
_chemical_formula_sum   'Li18 Mn6 F36'
_cell_volume   662.47394123
_cell_formula_units_Z   6
loop_
 _symmetry_equiv_pos_site_id
 _symmetry_equiv_pos_as_xyz
  1  'x, y, z'
loop_
 _atom_site_type_symbol
 _atom_site_label
 _atom_site_symmetry_multiplicity
 _atom_site_fract_x
 _atom_site_fract_y
 _atom_site_fract_z
 _atom_site_occupancy
  Li  Li0  1  0.05739354  0.65882741  0.93057510  1
  Li  Li1  1  0.34117259  0.94260646  0.43057510  1
  Li  Li2  1  0.52425074  0.85809473  0.95153030  1
  Li  Li3  1  0.14190527  0.47574926  0.45153030  1
  Li  Li4  1  0.00795969  0.28590175  0.72231222  1
  Li  Li5  1  0.71409825  0.99204031  0.22231222  1
  Li  Li6  1  0.32910655  0.37999233  0.96704329  1
  Li  Li7  1  0.62000767  0.67089345  0.46704329  1
  Li  Li8  1  0.80227522  0.80227522  0.75000000  1
  Li  Li9  1  0.19772478  0.19772478  0.25000000  1
  Li  Li10  1  0.37999233  0.32910655  0.53295671  1
  Li  Li11  1  0.67089345  0.62000767  0.03295671  1
  Li  Li12  1  0.28590175  0.00795969  0.77768778  1
  Li  Li13  1  0.99204031  0.71409825  0.27768778  1
  Li  Li14  1  0.85809473  0.52425074  0.54846970  1
  Li  Li15  1  0.47574926  0.14190527  0.04846970  1
  Li  Li16  1  0.65882741  0.05739354  0.56942490  1
  Li  Li17  1  0.94260646  0.34117259  0.06942490  1
  Mn  Mn18  1  0.33664944  0.66653913  0.70309368  1
  Mn  Mn19  1  0.33346087  0.66335056  0.20309368  1
  Mn  Mn20  1  0.00000000  0.00000000  0.50000000  1
  Mn  Mn21  1  0.00000000  0.00000000  0.00000000  1
  Mn  Mn22  1  0.66653913  0.33664944  0.79690632  1
  Mn  Mn23  1  0.66335056  0.33346087  0.29690632  1
  F  F24  1  0.06628494  0.92532900  0.66367566  1
  F  F25  1  0.07467100  0.93371506  0.16367566  1
  F  F26  1  0.26784522  0.78277771  0.84569943  1
  F  F27  1  0.41390454  0.89361178  0.60764158  1
  F  F28  1  0.21722229  0.73215478  0.34569943  1
  F  F29  1  0.10874895  0.57422829  0.61106552  1
  F  F30  1  0.10638822  0.58609546  0.10764158  1
  F  F31  1  0.42577171  0.89125105  0.11106552  1
  F  F32  1  0.24118272  0.44428153  0.80271429  1
  F  F33  1  0.55995762  0.75341695  0.80072547  1
  F  F34  1  0.55571847  0.75881728  0.30271429  1
  F  F35  1  0.24658305  0.44004238  0.30072547  1
  F  F36  1  0.40032983  0.56160234  0.55482152  1
  F  F37  1  0.08572057  0.23668798  0.56021950  1
  F  F38  1  0.74709929  0.89331796  0.57011003  1
  F  F39  1  0.43839766  0.59967017  0.05482152  1
  F  F40  1  0.76331202  0.91427943  0.06021950  1
  F  F41  1  0.10668204  0.25290071  0.07011003  1
  F  F42  1  0.89331796  0.74709929  0.92988997  1
  F  F43  1  0.23668798  0.08572057  0.93978050  1
  F  F44  1  0.56160234  0.40032983  0.94517848  1
  F  F45  1  0.25290071  0.10668204  0.42988997  1
  F  F46  1  0.91427943  0.76331202  0.43978050  1
  F  F47  1  0.59967017  0.43839766  0.44517848  1
  F  F48  1  0.75341695  0.55995762  0.69927453  1
  F  F49  1  0.44428153  0.24118272  0.69728571  1
  F  F50  1  0.44004238  0.24658305  0.19927453  1
  F  F51  1  0.75881728  0.55571847  0.19728571  1
  F  F52  1  0.57422829  0.10874895  0.88893448  1
  F  F53  1  0.89361178  0.41390454  0.89235842  1
  F  F54  1  0.89125105  0.42577171  0.38893448  1
  F  F55  1  0.78277771  0.26784522  0.65430057  1
  F  F56  1  0.58609546  0.10638822  0.39235842  1
  F  F57  1  0.73215478  0.21722229  0.15430057  1
  F  F58  1  0.92532900  0.06628494  0.83632434  1
  F  F59  1  0.93371506  0.07467100  0.33632434  1
