# generated using pymatgen
data_Fe2H4O2F5
_symmetry_space_group_name_H-M   'P 1'
_cell_length_a   6.57882068
_cell_length_b   7.51706929
_cell_length_c   7.51706929
_cell_angle_alpha   119.15324116
_cell_angle_beta   115.95035001
_cell_angle_gamma   64.04964999
_symmetry_Int_Tables_number   1
_chemical_formula_structural   Fe2H4O2F5
_chemical_formula_sum   'Fe4 H8 O4 F10'
_cell_volume   279.74362232
_cell_formula_units_Z   2
loop_
 _symmetry_equiv_pos_site_id
 _symmetry_equiv_pos_as_xyz
  1  'x, y, z'
loop_
 _atom_site_type_symbol
 _atom_site_label
 _atom_site_symmetry_multiplicity
 _atom_site_fract_x
 _atom_site_fract_y
 _atom_site_fract_z
 _atom_site_occupancy
  Fe  Fe0  1  0.00000000  0.00000000  0.00000000  1
  Fe  Fe1  1  0.50000000  0.50000000  0.50000000  1
  Fe  Fe2  1  0.50000000  0.50000000  0.00000000  1
  Fe  Fe3  1  0.50000000  0.00000000  0.50000000  1
  H  H4  1  0.29064290  0.19225483  0.01512461  1
  H  H5  1  0.70935710  0.01512461  0.19225483  1
  H  H6  1  0.96777411  0.30774517  0.48487539  1
  H  H7  1  0.03222589  0.48487539  0.30774517  1
  H  H8  1  0.96777411  0.51512461  0.69225483  1
  H  H9  1  0.03222589  0.69225483  0.51512461  1
  H  H10  1  0.29064290  0.98487539  0.80774517  1
  H  H11  1  0.70935710  0.80774517  0.98487539  1
  O  O12  1  0.76483669  0.93579254  0.06420746  1
  O  O13  1  0.86357824  0.43579254  0.56420746  1
  O  O14  1  0.13642176  0.56420746  0.43579254  1
  O  O15  1  0.23516331  0.06420746  0.93579254  1
  F  F16  1  0.82707946  0.33393081  0.08337344  1
  F  F17  1  0.17292054  0.08337344  0.33393081  1
  F  F18  1  0.42236317  0.41662656  0.16606919  1
  F  F19  1  0.57763683  0.16606919  0.41662656  1
  F  F20  1  0.58466902  0.75000000  0.25000000  1
  F  F21  1  0.41533098  0.25000000  0.75000000  1
  F  F22  1  0.42236317  0.83393081  0.58337344  1
  F  F23  1  0.57763683  0.58337344  0.83393081  1
  F  F24  1  0.82707946  0.91662656  0.66606919  1
  F  F25  1  0.17292054  0.66606919  0.91662656  1
