# generated using pymatgen
data_V2GaO5
_symmetry_space_group_name_H-M   'P 1'
_cell_length_a   9.14512882
_cell_length_b   6.12841663
_cell_length_c   9.96120973
_cell_angle_alpha   107.95640699
_cell_angle_beta   101.04589562
_cell_angle_gamma   80.44821189
_symmetry_Int_Tables_number   1
_chemical_formula_structural   V2GaO5
_chemical_formula_sum   'V12 Ga6 O30'
_cell_volume   517.81983225
_cell_formula_units_Z   6
loop_
 _symmetry_equiv_pos_site_id
 _symmetry_equiv_pos_as_xyz
  1  'x, y, z'
loop_
 _atom_site_type_symbol
 _atom_site_label
 _atom_site_symmetry_multiplicity
 _atom_site_fract_x
 _atom_site_fract_y
 _atom_site_fract_z
 _atom_site_occupancy
  V  V0  1  0.02571080  0.41674539  0.34692083  1
  V  V1  1  0.03123459  0.91589857  0.34677652  1
  V  V2  1  0.00000000  0.00000000  0.00000000  1
  V  V3  1  0.00000000  0.50000000  0.00000000  1
  V  V4  1  0.38073795  0.59287708  0.38650821  1
  V  V5  1  0.35467150  0.18628685  0.05167153  1
  V  V6  1  0.35474148  0.68790699  0.05144210  1
  V  V7  1  0.64532850  0.81371315  0.94832847  1
  V  V8  1  0.64525852  0.31209301  0.94855790  1
  V  V9  1  0.61926205  0.40712292  0.61349179  1
  V  V10  1  0.97428920  0.58325461  0.65307917  1
  V  V11  1  0.96876541  0.08410143  0.65322348  1
  Ga  Ga12  1  0.31150504  0.78427003  0.72174454  1
  Ga  Ga13  1  0.31201139  0.28210958  0.72208381  1
  Ga  Ga14  1  0.37780750  0.09938388  0.38764947  1
  Ga  Ga15  1  0.62219250  0.90061612  0.61235053  1
  Ga  Ga16  1  0.68798861  0.71789042  0.27791619  1
  Ga  Ga17  1  0.68849496  0.21572997  0.27825546  1
  O  O18  1  0.00033994  0.76047806  0.49948218  1
  O  O19  1  0.99966006  0.23952194  0.50051782  1
  O  O20  1  0.02196164  0.60721796  0.21321400  1
  O  O21  1  0.02260527  0.09526500  0.21317105  1
  O  O22  1  0.20281281  0.54737011  0.69644781  1
  O  O23  1  0.20029569  0.04792746  0.69606182  1
  O  O24  1  0.15504461  0.71598484  0.00946408  1
  O  O25  1  0.15516824  0.21637790  0.01035911  1
  O  O26  1  0.23706705  0.88849534  0.38858251  1
  O  O27  1  0.24660688  0.38216180  0.39158260  1
  O  O28  1  0.40104328  0.85918857  0.91802403  1
  O  O29  1  0.40122976  0.35843595  0.91808670  1
  O  O30  1  0.37427973  0.99560095  0.17997978  1
  O  O31  1  0.37635883  0.49668100  0.17901374  1
  O  O32  1  0.45775403  0.69130476  0.60199716  1
  O  O33  1  0.45867981  0.18162448  0.60121862  1
  O  O34  1  0.54132019  0.81837552  0.39878138  1
  O  O35  1  0.54224597  0.30869524  0.39800284  1
  O  O36  1  0.62364117  0.50331900  0.82098626  1
  O  O37  1  0.62572027  0.00439905  0.82002022  1
  O  O38  1  0.59895672  0.14081143  0.08197597  1
  O  O39  1  0.59877024  0.64156405  0.08191330  1
  O  O40  1  0.76293295  0.11150466  0.61141749  1
  O  O41  1  0.75339312  0.61783820  0.60841740  1
  O  O42  1  0.84495539  0.28401516  0.99053592  1
  O  O43  1  0.84483176  0.78362210  0.98964089  1
  O  O44  1  0.79970431  0.95207254  0.30393818  1
  O  O45  1  0.79718719  0.45262989  0.30355219  1
  O  O46  1  0.97803836  0.39278204  0.78678600  1
  O  O47  1  0.97739473  0.90473500  0.78682895  1
