# generated using pymatgen
data_Y11Tm5O24
_symmetry_space_group_name_H-M   'P 1'
_cell_length_a   9.19847086
_cell_length_b   9.19807398
_cell_length_c   9.20802828
_cell_angle_alpha   109.50298372
_cell_angle_beta   109.47718340
_cell_angle_gamma   109.45670978
_symmetry_Int_Tables_number   1
_chemical_formula_structural   Y11Tm5O24
_chemical_formula_sum   'Y11 Tm5 O24'
_cell_volume   599.56013119
_cell_formula_units_Z   1
loop_
 _symmetry_equiv_pos_site_id
 _symmetry_equiv_pos_as_xyz
  1  'x, y, z'
loop_
 _atom_site_type_symbol
 _atom_site_label
 _atom_site_symmetry_multiplicity
 _atom_site_fract_x
 _atom_site_fract_y
 _atom_site_fract_z
 _atom_site_occupancy
  Y  Y0  1  0.96795634  0.25025995  0.21769557  1
  Y  Y1  1  0.49809074  0.99989501  0.00050787  1
  Y  Y2  1  0.78456949  0.03232434  0.75047325  1
  Y  Y3  1  0.75098214  0.28401698  0.53267685  1
  Y  Y4  1  0.75030115  0.78130280  0.03211635  1
  Y  Y5  1  0.00161852  0.50126963  0.00002363  1
  Y  Y6  1  0.53122842  0.74775241  0.28076557  1
  Y  Y7  1  0.49918394  0.49850091  0.49867594  1
  Y  Y8  1  0.46663219  0.25048517  0.71797864  1
  Y  Y9  1  0.00107555  0.99937429  0.50079351  1
  Y  Y10  1  0.24821641  0.71747657  0.46797059  1
  Tm  Tm11  1  0.71607854  0.46631537  0.25024163  1
  Tm  Tm12  1  0.25061438  0.21631909  0.96725895  1
  Tm  Tm13  1  0.28234006  0.53290586  0.75043809  1
  Tm  Tm14  1  0.21684641  0.96740364  0.24875041  1
  Tm  Tm15  1  0.03418315  0.75063765  0.78368780  1
  O  O16  1  0.76109111  0.03094916  0.48790348  1
  O  O17  1  0.73841673  0.23029722  0.27041487  1
  O  O18  1  0.96504190  0.51045659  0.23827090  1
  O  O19  1  0.26856163  0.01115483  0.04268402  1
  O  O20  1  0.46595673  0.22598214  0.45393873  1
  O  O21  1  0.77138032  0.72547469  0.26029997  1
  O  O22  1  0.45690864  0.46458761  0.22675669  1
  O  O23  1  0.04716150  0.27285453  0.01223710  1
  O  O24  1  0.01386235  0.04164310  0.27141991  1
  O  O25  1  0.72995658  0.26126372  0.77246474  1
  O  O26  1  0.77419219  0.54610842  0.53178109  1
  O  O27  1  0.48581938  0.75699585  0.02811039  1
  O  O28  1  0.22851404  0.45776699  0.47237189  1
  O  O29  1  0.27083744  0.74334211  0.22912159  1
  O  O30  1  0.51024273  0.24135228  0.97107738  1
  O  O31  1  0.99321784  0.95737195  0.73090704  1
  O  O32  1  0.54012809  0.53116252  0.76966759  1
  O  O33  1  0.95982243  0.73035059  0.98733498  1
  O  O34  1  0.53084398  0.77004609  0.54180824  1
  O  O35  1  0.22827257  0.27428598  0.74365207  1
  O  O36  1  0.03469541  0.49211453  0.76106020  1
  O  O37  1  0.72787011  0.98898843  0.95753540  1
  O  O38  1  0.23939604  0.96910448  0.50925778  1
  O  O39  1  0.25789185  0.77010855  0.72986928  1
