# generated using pymatgen
data_V2F7
_symmetry_space_group_name_H-M   'P 1'
_cell_length_a   6.95031638
_cell_length_b   7.44735955
_cell_length_c   7.44735984
_cell_angle_alpha   60.13099281
_cell_angle_beta   62.18426069
_cell_angle_gamma   62.18425949
_symmetry_Int_Tables_number   1
_chemical_formula_structural   V2F7
_chemical_formula_sum   'V4 F14'
_cell_volume   281.52959846
_cell_formula_units_Z   2
loop_
 _symmetry_equiv_pos_site_id
 _symmetry_equiv_pos_as_xyz
  1  'x, y, z'
loop_
 _atom_site_type_symbol
 _atom_site_label
 _atom_site_symmetry_multiplicity
 _atom_site_fract_x
 _atom_site_fract_y
 _atom_site_fract_z
 _atom_site_occupancy
  V  V0  1  0.50000000  0.50000000  0.00000000  1
  V  V1  1  0.50000000  0.00000000  0.50000000  1
  V  V2  1  0.50000000  0.00000000  0.00000000  1
  V  V3  1  0.00000000  0.50000000  0.50000000  1
  F  F4  1  0.79402733  0.94847607  0.94847607  1
  F  F5  1  0.81763794  0.43560247  0.80727772  1
  F  F6  1  0.81763794  0.80727772  0.43560247  1
  F  F7  1  0.80902153  0.44847607  0.44847607  1
  F  F8  1  0.40841304  0.75000000  0.75000000  1
  F  F9  1  0.43948187  0.93560247  0.30727772  1
  F  F10  1  0.43948187  0.30727772  0.93560247  1
  F  F11  1  0.56051813  0.69272228  0.06439753  1
  F  F12  1  0.56051813  0.06439753  0.69272228  1
  F  F13  1  0.59158696  0.25000000  0.25000000  1
  F  F14  1  0.19097847  0.55152393  0.55152393  1
  F  F15  1  0.18236206  0.19272228  0.56439753  1
  F  F16  1  0.18236206  0.56439753  0.19272228  1
  F  F17  1  0.20597267  0.05152393  0.05152393  1
