# generated using pymatgen
data_V4(OF3)3
_symmetry_space_group_name_H-M   'P 1'
_cell_length_a   5.22781588
_cell_length_b   5.41142112
_cell_length_c   17.48344028
_cell_angle_alpha   90.64655256
_cell_angle_beta   98.39521892
_cell_angle_gamma   61.23523975
_symmetry_Int_Tables_number   1
_chemical_formula_structural   V4(OF3)3
_chemical_formula_sum   'V8 O6 F18'
_cell_volume   427.93328002
_cell_formula_units_Z   2
loop_
 _symmetry_equiv_pos_site_id
 _symmetry_equiv_pos_as_xyz
  1  'x, y, z'
loop_
 _atom_site_type_symbol
 _atom_site_label
 _atom_site_symmetry_multiplicity
 _atom_site_fract_x
 _atom_site_fract_y
 _atom_site_fract_z
 _atom_site_occupancy
  V  V0  1  0.75156152  0.62231370  0.12513664  1
  V  V1  1  0.74923994  0.14318767  0.62575071  1
  V  V2  1  0.45658784  0.26239236  0.24939572  1
  V  V3  1  0.50606306  0.72156466  0.74628821  1
  V  V4  1  0.24748213  0.89566877  0.37262617  1
  V  V5  1  0.28072033  0.37973364  0.87228804  1
  V  V6  1  0.04468720  0.98055128  0.00161643  1
  V  V7  1  0.99030852  0.49712396  0.50691020  1
  O  O8  1  0.92187915  0.34519576  0.57905043  1
  O  O9  1  0.40166299  0.79820791  0.04079194  1
  O  O10  1  0.54458526  0.45720976  0.68835649  1
  O  O11  1  0.38991643  0.07570419  0.33327616  1
  O  O12  1  0.41998349  0.56486604  0.83414401  1
  O  O13  1  0.10073738  0.44937420  0.20848100  1
  F  F14  1  0.91238173  0.84838959  0.08544494  1
  F  F15  1  0.96538668  0.32141267  0.05817193  1
  F  F16  1  0.97380567  0.81669720  0.56414070  1
  F  F17  1  0.53209699  0.92774951  0.18948612  1
  F  F18  1  0.89738527  0.03389531  0.29164734  1
  F  F19  1  0.92795481  0.53680065  0.79035283  1
  F  F20  1  0.59318236  0.39738390  0.16568445  1
  F  F21  1  0.57004754  0.92863615  0.66496810  1
  F  F22  1  0.56769382  0.72861635  0.46208754  1
  F  F23  1  0.46450377  0.55428304  0.31612705  1
  F  F24  1  0.42391629  0.29258496  0.53744852  1
  F  F25  1  0.59667999  0.19374160  0.96047974  1
  F  F26  1  0.07857827  0.67303810  0.41871588  1
  F  F27  1  0.07680127  0.96341148  0.71288127  1
  F  F28  1  0.47215838  0.04449241  0.81244610  1
  F  F29  1  0.04159666  0.67696521  0.93824456  1
  F  F30  1  0.01302460  0.20277847  0.43537299  1
  F  F31  1  0.08739268  0.16603250  0.91218879  1
