# generated using pymatgen
data_Na5V12O32
_symmetry_space_group_name_H-M   'P 1'
_cell_length_a   7.29658893
_cell_length_b   8.31898438
_cell_length_c   12.37662328
_cell_angle_alpha   105.92837977
_cell_angle_beta   90.00000000
_cell_angle_gamma   116.01143155
_symmetry_Int_Tables_number   1
_chemical_formula_structural   Na5V12O32
_chemical_formula_sum   'Na5 V12 O32'
_cell_volume   642.91603699
_cell_formula_units_Z   1
loop_
 _symmetry_equiv_pos_site_id
 _symmetry_equiv_pos_as_xyz
  1  'x, y, z'
loop_
 _atom_site_type_symbol
 _atom_site_label
 _atom_site_symmetry_multiplicity
 _atom_site_fract_x
 _atom_site_fract_y
 _atom_site_fract_z
 _atom_site_occupancy
  Na  Na0  1  0.62511622  0.50023245  0.68133759  1
  Na  Na1  1  0.12443941  0.49887983  0.68355077  1
  Na  Na2  1  0.87746004  0.50165500  0.31891134  1
  Na  Na3  1  0.37419496  0.50165500  0.31891134  1
  Na  Na4  1  0.65947318  0.56894535  0.05097205  1
  V  V5  1  0.40618745  0.06237390  0.80615483  1
  V  V6  1  0.90824098  0.06648297  0.80784019  1
  V  V7  1  0.69660324  0.14266849  0.46200055  1
  V  V8  1  0.19606525  0.14266849  0.46200055  1
  V  V9  1  0.46766557  0.18533113  0.08033814  1
  V  V10  1  0.97011246  0.19022491  0.07996089  1
  V  V11  1  0.52817250  0.80846536  0.91812694  1
  V  V12  1  0.03029186  0.80846536  0.91812694  1
  V  V13  1  0.80416647  0.85833294  0.53970660  1
  V  V14  1  0.30422740  0.85845479  0.53897144  1
  V  V15  1  0.59478321  0.94063498  0.19460409  1
  V  V16  1  0.09585277  0.94063498  0.19460409  1
  O  O17  1  0.62749425  0.00462815  0.82648604  1
  O  O18  1  0.12713390  0.00462815  0.82648604  1
  O  O19  1  0.50110665  0.25221230  0.95382785  1
  O  O20  1  0.00035189  0.25070478  0.95208962  1
  O  O21  1  0.90682357  0.06364814  0.46322444  1
  O  O22  1  0.40654430  0.06308860  0.46250045  1
  O  O23  1  0.97789993  0.20579985  0.72840115  1
  O  O24  1  0.47867500  0.20735000  0.73035696  1
  O  O25  1  0.21196028  0.17509956  0.32773267  1
  O  O26  1  0.71313928  0.17509956  0.32773267  1
  O  O27  1  0.30292770  0.35593938  0.55372339  1
  O  O28  1  0.80301068  0.35593938  0.55372339  1
  O  O29  1  0.68273742  0.11591007  0.07294107  1
  O  O30  1  0.18317264  0.11591007  0.07294107  1
  O  O31  1  0.92569120  0.60486341  0.81677999  1
  O  O32  1  0.42917221  0.60486341  0.81677999  1
  O  O33  1  0.57216191  0.39432482  0.18017799  1
  O  O34  1  0.07124071  0.39248042  0.18235539  1
  O  O35  1  0.31775532  0.88551164  0.92591367  1
  O  O36  1  0.81540274  0.88080448  0.92690943  1
  O  O37  1  0.69731650  0.64463299  0.44805481  1
  O  O38  1  0.19735332  0.64470764  0.44765840  1
  O  O39  1  0.78826038  0.82651976  0.67391531  1
  O  O40  1  0.28835908  0.82671817  0.67383556  1
  O  O41  1  0.52507907  0.79195960  0.26868910  1
  O  O42  1  0.01688053  0.79195960  0.26868910  1
  O  O43  1  0.59329993  0.93714104  0.53788293  1
  O  O44  1  0.09384111  0.93714104  0.53788293  1
  O  O45  1  -0.00002708  0.74806335  0.04563125  1
  O  O46  1  0.49809044  0.74806335  0.04563125  1
  O  O47  1  0.37385753  0.99771507  0.17334463  1
  O  O48  1  0.87173365  0.99346631  0.17175115  1
