# generated using pymatgen
data_Na3FeO4
_symmetry_space_group_name_H-M   'P 1'
_cell_length_a   8.43448484
_cell_length_b   8.43448484
_cell_length_c   5.73575312
_cell_angle_alpha   77.16610741
_cell_angle_beta   102.83389259
_cell_angle_gamma   81.13065472
_symmetry_Int_Tables_number   1
_chemical_formula_structural   Na3FeO4
_chemical_formula_sum   'Na12 Fe4 O16'
_cell_volume   378.91811006
_cell_formula_units_Z   4
loop_
 _symmetry_equiv_pos_site_id
 _symmetry_equiv_pos_as_xyz
  1  'x, y, z'
loop_
 _atom_site_type_symbol
 _atom_site_label
 _atom_site_symmetry_multiplicity
 _atom_site_fract_x
 _atom_site_fract_y
 _atom_site_fract_z
 _atom_site_occupancy
  Na  Na0  1  0.36428383  0.88050234  0.51552686  1
  Na  Na1  1  0.11949766  0.63571617  0.51552686  1
  Na  Na2  1  0.00000000  0.50000000  0.00000000  1
  Na  Na3  1  0.00000000  0.00000000  0.50000000  1
  Na  Na4  1  0.25669654  0.25669654  0.50000000  1
  Na  Na5  1  0.50000000  0.50000000  0.50000000  1
  Na  Na6  1  0.74330346  0.74330346  0.50000000  1
  Na  Na7  1  0.37557063  0.37557063  0.00000000  1
  Na  Na8  1  0.62442937  0.62442937  0.00000000  1
  Na  Na9  1  0.63571617  0.11949766  0.48447314  1
  Na  Na10  1  0.88050234  0.36428383  0.48447314  1
  Na  Na11  1  0.50000000  0.00000000  0.00000000  1
  Fe  Fe12  1  0.24960459  0.75039541  0.02938164  1
  Fe  Fe13  1  0.12401713  0.12401713  0.00000000  1
  Fe  Fe14  1  0.87598287  0.87598287  0.00000000  1
  Fe  Fe15  1  0.75039541  0.24960459  0.97061836  1
  O  O16  1  0.01177003  0.77128142  0.82248755  1
  O  O17  1  0.22871858  0.98822997  0.82248755  1
  O  O18  1  0.10930493  0.89069507  0.19133288  1
  O  O19  1  0.33531253  0.66468747  0.80806296  1
  O  O20  1  0.68223982  0.87519897  0.78132670  1
  O  O21  1  0.12480103  0.31776018  0.78132670  1
  O  O22  1  0.45303911  0.75425184  0.22840374  1
  O  O23  1  0.24574816  0.54696089  0.22840374  1
  O  O24  1  0.54696089  0.24574816  0.77159626  1
  O  O25  1  0.75425184  0.45303911  0.77159626  1
  O  O26  1  0.31776018  0.12480103  0.21867330  1
  O  O27  1  0.87519897  0.68223982  0.21867330  1
  O  O28  1  0.66468747  0.33531253  0.19193704  1
  O  O29  1  0.89069507  0.10930493  0.80866712  1
  O  O30  1  0.77128142  0.01177003  0.17751245  1
  O  O31  1  0.98822997  0.22871858  0.17751245  1
