# generated using pymatgen
data_LiVF5
_symmetry_space_group_name_H-M   'P 1'
_cell_length_a   7.53517887
_cell_length_b   5.30026574
_cell_length_c   5.30027027
_cell_angle_alpha   74.21869770
_cell_angle_beta   80.02002082
_cell_angle_gamma   109.72059664
_symmetry_Int_Tables_number   1
_chemical_formula_structural   LiVF5
_chemical_formula_sum   'Li2 V2 F10'
_cell_volume   183.36457326
_cell_formula_units_Z   2
loop_
 _symmetry_equiv_pos_site_id
 _symmetry_equiv_pos_as_xyz
  1  'x, y, z'
loop_
 _atom_site_type_symbol
 _atom_site_label
 _atom_site_symmetry_multiplicity
 _atom_site_fract_x
 _atom_site_fract_y
 _atom_site_fract_z
 _atom_site_occupancy
  Li  Li0  1  0.24901911  0.76869938  0.47879692  1
  Li  Li1  1  0.74829901  0.23392386  0.51418488  1
  V  V2  1  0.99852589  0.99841207  0.99861052  1
  V  V3  1  0.49851848  0.49885006  0.00045294  1
  F  F4  1  0.04095054  0.77033099  0.30133275  1
  F  F5  1  0.45689376  0.15432294  0.26931579  1
  F  F6  1  0.37345247  0.58527088  0.27022600  1
  F  F7  1  0.24741151  0.32602760  0.92504071  1
  F  F8  1  0.12644974  0.85869131  0.78445461  1
  F  F9  1  0.87075615  0.13737844  0.21310977  1
  F  F10  1  0.75006343  0.66955846  0.07426616  1
  F  F11  1  0.62233077  0.41115519  0.73027884  1
  F  F12  1  0.54150601  0.84530387  0.73254577  1
  F  F13  1  0.95491314  0.22468295  0.69670234  1
