# generated using pymatgen
data_MgTi5O10
_symmetry_space_group_name_H-M   'P 1'
_cell_length_a   5.26818886
_cell_length_b   7.55524092
_cell_length_c   10.06509604
_cell_angle_alpha   90.00000000
_cell_angle_beta   90.00000000
_cell_angle_gamma   109.37090816
_symmetry_Int_Tables_number   1
_chemical_formula_structural   MgTi5O10
_chemical_formula_sum   'Mg2 Ti10 O20'
_cell_volume   377.93698397
_cell_formula_units_Z   2
loop_
 _symmetry_equiv_pos_site_id
 _symmetry_equiv_pos_as_xyz
  1  'x, y, z'
loop_
 _atom_site_type_symbol
 _atom_site_label
 _atom_site_symmetry_multiplicity
 _atom_site_fract_x
 _atom_site_fract_y
 _atom_site_fract_z
 _atom_site_occupancy
  Mg  Mg0  1  0.29148641  0.90296501  0.75000000  1
  Mg  Mg1  1  0.20851359  0.59703499  0.25000000  1
  Ti  Ti2  1  0.20494981  0.92890622  0.43883649  1
  Ti  Ti3  1  0.20494981  0.92890622  0.06116351  1
  Ti  Ti4  1  0.29505019  0.57109378  0.93883649  1
  Ti  Ti5  1  0.29505019  0.57109378  0.56116351  1
  Ti  Ti6  1  0.70393762  0.43362606  0.43600840  1
  Ti  Ti7  1  0.70393762  0.43362606  0.06399160  1
  Ti  Ti8  1  0.79417885  0.40383668  0.75000000  1
  Ti  Ti9  1  0.70582115  0.09616332  0.25000000  1
  Ti  Ti10  1  0.79606238  0.06637394  0.56399160  1
  Ti  Ti11  1  0.79606238  0.06637394  0.93600840  1
  O  O12  1  0.06758923  0.97829288  0.61210576  1
  O  O13  1  0.06758923  0.97829288  0.88789424  1
  O  O14  1  0.03106480  0.65433901  0.06777013  1
  O  O15  1  0.03106480  0.65433901  0.43222987  1
  O  O16  1  0.34641902  0.89344920  0.25000000  1
  O  O17  1  0.15358098  0.60655080  0.75000000  1
  O  O18  1  0.46893520  0.84566099  0.56777013  1
  O  O19  1  0.46893520  0.84566099  0.93222987  1
  O  O20  1  0.43241077  0.52170712  0.38789424  1
  O  O21  1  0.43241077  0.52170712  0.11210576  1
  O  O22  1  0.57290477  0.47487015  0.61906315  1
  O  O23  1  0.57290477  0.47487015  0.88093685  1
  O  O24  1  0.53540333  0.15654702  0.06971449  1
  O  O25  1  0.53540333  0.15654702  0.43028551  1
  O  O26  1  0.83414439  0.37804332  0.25000000  1
  O  O27  1  0.66585561  0.12195668  0.75000000  1
  O  O28  1  0.96459667  0.34345298  0.93028551  1
  O  O29  1  0.96459667  0.34345298  0.56971449  1
  O  O30  1  0.92709523  0.02512985  0.38093685  1
  O  O31  1  0.92709523  0.02512985  0.11906315  1
