# generated using pymatgen
data_CrP3H16C3NO12
_symmetry_space_group_name_H-M   'P 1'
_cell_length_a   9.41961626
_cell_length_b   10.02562136
_cell_length_c   16.41241213
_cell_angle_alpha   90.00000000
_cell_angle_beta   90.00000000
_cell_angle_gamma   116.61807209
_symmetry_Int_Tables_number   1
_chemical_formula_structural   CrP3H16C3NO12
_chemical_formula_sum   'Cr4 P12 H64 C12 N4 O48'
_cell_volume   1385.67294704
_cell_formula_units_Z   4
loop_
 _symmetry_equiv_pos_site_id
 _symmetry_equiv_pos_as_xyz
  1  'x, y, z'
loop_
 _atom_site_type_symbol
 _atom_site_label
 _atom_site_symmetry_multiplicity
 _atom_site_fract_x
 _atom_site_fract_y
 _atom_site_fract_z
 _atom_site_occupancy
  Cr  Cr0  1  0.96613072  0.33522353  0.20912139  1
  Cr  Cr1  1  0.03386928  0.16477647  0.70912139  1
  Cr  Cr2  1  0.03386928  0.66477647  0.79087861  1
  Cr  Cr3  1  0.96613072  0.83522353  0.29087861  1
  P  P4  1  0.95987732  0.12339852  0.37807283  1
  P  P5  1  0.04012268  0.37660148  0.87807283  1
  P  P6  1  0.04012268  0.87660148  0.62192717  1
  P  P7  1  0.95987732  0.62339852  0.12192717  1
  P  P8  1  0.33106106  0.50645800  0.28276339  1
  P  P9  1  0.66893894  0.99354200  0.78276339  1
  P  P10  1  0.66893894  0.49354200  0.71723661  1
  P  P11  1  0.33106106  0.00645800  0.21723661  1
  P  P12  1  0.55134378  0.28067432  0.46415799  1
  P  P13  1  0.44865622  0.21932568  0.96415799  1
  P  P14  1  0.44865622  0.71932568  0.53584201  1
  P  P15  1  0.55134378  0.78067432  0.03584201  1
  H  H16  1  0.09363310  0.37801754  0.42514580  1
  H  H17  1  0.90636690  0.12198246  0.92514580  1
  H  H18  1  0.90636690  0.62198246  0.57485420  1
  H  H19  1  0.09363310  0.87801754  0.07485420  1
  H  H20  1  0.09045675  0.24995972  0.50114302  1
  H  H21  1  0.90954325  0.25004028  0.00114302  1
  H  H22  1  0.90954325  0.75004028  0.49885698  1
  H  H23  1  0.09045675  0.74995972  0.99885698  1
  H  H24  1  0.44815750  0.35011766  0.32500865  1
  H  H25  1  0.55184250  0.14988234  0.82500865  1
  H  H26  1  0.55184250  0.64988234  0.67499135  1
  H  H27  1  0.44815750  0.85011766  0.17499135  1
  H  H28  1  0.24641969  0.23691567  0.29868215  1
  H  H29  1  0.75358031  0.26308433  0.79868215  1
  H  H30  1  0.75358031  0.76308433  0.70131785  1
  H  H31  1  0.24641969  0.73691567  0.20131785  1
  H  H32  1  0.29092772  0.20175959  0.52400077  1
  H  H33  1  0.70907228  0.29824041  0.02400077  1
  H  H34  1  0.70907228  0.79824041  0.47599923  1
  H  H35  1  0.29092772  0.70175959  0.97599923  1
  H  H36  1  0.27233978  0.10505772  0.43121996  1
  H  H37  1  0.72766022  0.39494228  0.93121996  1
  H  H38  1  0.72766022  0.89494228  0.56878004  1
  H  H39  1  0.27233978  0.60505772  0.06878004  1
  H  H40  1  0.71616995  0.33282163  0.32271766  1
  H  H41  1  0.28383005  0.16717837  0.82271766  1
  H  H42  1  0.28383005  0.66717837  0.67728234  1
  H  H43  1  0.71616995  0.83282163  0.17728234  1
  H  H44  1  0.79433395  0.49045949  0.27525290  1
  H  H45  1  0.20566605  0.00954051  0.77525290  1
  H  H46  1  0.20566605  0.50954051  0.72474710  1
  H  H47  1  0.79433395  0.99045949  0.22474710  1
  H  H48  1  0.64759784  0.17189043  0.16585812  1
  H  H49  1  0.35240216  0.32810957  0.66585812  1
  H  H50  1  0.35240216  0.82810957  0.83414188  1
  H  H51  1  0.64759784  0.67189043  0.33414188  1
  H  H52  1  0.09912183  0.13204304  0.15676871  1
  H  H53  1  0.90087817  0.36795696  0.65676871  1
  H  H54  1  0.90087817  0.86795696  0.84323129  1
  H  H55  1  0.09912183  0.63204304  0.34323129  1
  H  H56  1  0.72548433  0.09174255  0.11111211  1
  H  H57  1  0.27451567  0.40825745  0.61111211  1
  H  H58  1  0.27451567  0.90825745  0.88888789  1
  H  H59  1  0.72548433  0.59174255  0.38888789  1
  H  H60  1  0.18205628  0.26820437  0.09884611  1
  H  H61  1  0.81794372  0.23179563  0.59884611  1
  H  H62  1  0.81794372  0.73179563  0.90115389  1
  H  H63  1  0.18205628  0.76820437  0.40115389  1
  H  H64  1  0.73625063  0.13121474  0.41592222  1
  H  H65  1  0.26374937  0.36878526  0.91592222  1
  H  H66  1  0.26374937  0.86878526  0.58407778  1
  H  H67  1  0.73625063  0.63121474  0.08407778  1
  H  H68  1  0.47404385  0.57716381  0.16439489  1
  H  H69  1  0.52595615  0.92283619  0.66439489  1
  H  H70  1  0.52595615  0.42283619  0.83560511  1
  H  H71  1  0.47404385  0.07716381  0.33560511  1
  H  H72  1  0.34601709  0.42375594  0.45037937  1
  H  H73  1  0.65398291  0.07624406  0.95037937  1
  H  H74  1  0.65398291  0.57624406  0.54962063  1
  H  H75  1  0.34601709  0.92375594  0.04962063  1
  H  H76  1  0.56858065  0.26943786  0.59778261  1
  H  H77  1  0.43141935  0.23056214  0.09778261  1
  H  H78  1  0.43141935  0.73056214  0.40221739  1
  H  H79  1  0.56858065  0.76943786  0.90221739  1
  C  C80  1  0.11126220  0.27858228  0.43631898  1
  C  C81  1  0.88873780  0.22141772  0.93631898  1
  C  C82  1  0.88873780  0.72141772  0.56368102  1
  C  C83  1  0.11126220  0.77858228  0.06368102  1
  C  C84  1  0.32731277  0.33903580  0.33072458  1
  C  C85  1  0.67268723  0.16096420  0.83072458  1
  C  C86  1  0.67268723  0.66096420  0.66927542  1
  C  C87  1  0.32731277  0.83903580  0.16927542  1
  C  C88  1  0.33389309  0.21400584  0.46099660  1
  C  C89  1  0.66610691  0.28599416  0.96099660  1
  C  C90  1  0.66610691  0.78599416  0.53900340  1
  C  C91  1  0.33389309  0.71400584  0.03900340  1
  N  N92  1  0.28438234  0.32103544  0.41973278  1
  N  N93  1  0.71561766  0.17896456  0.91973278  1
  N  N94  1  0.71561766  0.67896456  0.58026722  1
  N  N95  1  0.28438234  0.82103544  0.08026722  1
  O  O96  1  0.93902075  0.17423407  0.29412536  1
  O  O97  1  0.06097925  0.32576593  0.79412536  1
  O  O98  1  0.06097925  0.82576593  0.70587464  1
  O  O99  1  0.93902075  0.67423407  0.20587464  1
  O  O100  1  0.75052672  0.17174316  0.15200898  1
  O  O101  1  0.24947328  0.32825684  0.65200898  1
  O  O102  1  0.24947328  0.82825684  0.84799102  1
  O  O103  1  0.75052672  0.67174316  0.34799102  1
  O  O104  1  0.78233263  0.38845890  0.27590392  1
  O  O105  1  0.21766737  0.11154110  0.77590392  1
  O  O106  1  0.21766737  0.61154110  0.72409608  1
  O  O107  1  0.78233263  0.88845890  0.22409608  1
  O  O108  1  0.08044211  0.20613773  0.12514361  1
  O  O109  1  0.91955789  0.29386227  0.62514361  1
  O  O110  1  0.91955789  0.79386227  0.87485639  1
  O  O111  1  0.08044211  0.70613773  0.37485639  1
  O  O112  1  0.00033320  0.49309563  0.11927788  1
  O  O113  1  0.99966680  0.00690437  0.61927788  1
  O  O114  1  0.99966680  0.50690437  0.88072212  1
  O  O115  1  0.00033320  0.99309563  0.38072212  1
  O  O116  1  0.16353508  0.49389509  0.27903598  1
  O  O117  1  0.83646492  0.00610491  0.77903598  1
  O  O118  1  0.83646492  0.50610491  0.72096402  1
  O  O119  1  0.16353508  0.99389509  0.22096402  1
  O  O120  1  0.58039219  0.21571815  0.54685379  1
  O  O121  1  0.41960781  0.28428185  0.04685379  1
  O  O122  1  0.41960781  0.78428185  0.45314621  1
  O  O123  1  0.58039219  0.71571815  0.95314621  1
  O  O124  1  0.62881382  0.45021039  0.46334776  1
  O  O125  1  0.37118618  0.04978961  0.96334776  1
  O  O126  1  0.37118618  0.54978961  0.53665224  1
  O  O127  1  0.62881382  0.95021039  0.03665224  1
  O  O128  1  0.59936667  0.20536769  0.39521961  1
  O  O129  1  0.40063333  0.29463231  0.89521961  1
  O  O130  1  0.40063333  0.79463231  0.60478039  1
  O  O131  1  0.59936667  0.70536769  0.10478039  1
  O  O132  1  0.80746335  0.08637645  0.43301949  1
  O  O133  1  0.19253665  0.41362355  0.93301949  1
  O  O134  1  0.19253665  0.91362355  0.56698051  1
  O  O135  1  0.80746335  0.58637645  0.06698051  1
  O  O136  1  0.39031728  0.48911150  0.19521195  1
  O  O137  1  0.60968272  0.01088850  0.69521195  1
  O  O138  1  0.60968272  0.51088850  0.80478805  1
  O  O139  1  0.39031728  0.98911150  0.30478805  1
  O  O140  1  0.45090665  0.64199118  0.32853532  1
  O  O141  1  0.54909335  0.85800882  0.82853532  1
  O  O142  1  0.54909335  0.35800882  0.67146468  1
  O  O143  1  0.45090665  0.14199118  0.17146468  1
