# generated using pymatgen
data_Li2VFeP2(HO5)2
_symmetry_space_group_name_H-M   'P 1'
_cell_length_a   5.44240135
_cell_length_b   14.48130266
_cell_length_c   7.50872776
_cell_angle_alpha   95.21348131
_cell_angle_beta   69.27636220
_cell_angle_gamma   87.40815684
_symmetry_Int_Tables_number   1
_chemical_formula_structural   Li2VFeP2(HO5)2
_chemical_formula_sum   'Li6 V3 Fe3 P6 H6 O30'
_cell_volume   549.30119162
_cell_formula_units_Z   3
loop_
 _symmetry_equiv_pos_site_id
 _symmetry_equiv_pos_as_xyz
  1  'x, y, z'
loop_
 _atom_site_type_symbol
 _atom_site_label
 _atom_site_symmetry_multiplicity
 _atom_site_fract_x
 _atom_site_fract_y
 _atom_site_fract_z
 _atom_site_occupancy
  Li  Li0  1  0.73416452  0.69271331  0.86834120  1
  Li  Li1  1  0.93406067  0.64127069  0.46431899  1
  Li  Li2  1  0.59955604  0.97463911  0.79735977  1
  Li  Li3  1  0.40012187  0.02566503  0.20269178  1
  Li  Li4  1  0.06666909  0.35856999  0.53636921  1
  Li  Li5  1  0.26603284  0.30710776  0.13114031  1
  V  V6  1  0.66622598  0.33360108  0.33437046  1
  V  V7  1  0.00036895  0.49945506  -0.00000257  1
  V  V8  1  0.99979334  0.00020246  0.99958929  1
  Fe  Fe9  1  0.66630027  0.83383777  0.33358429  1
  Fe  Fe10  1  0.33347288  0.66623179  0.66600662  1
  Fe  Fe11  1  0.33341619  0.16675948  0.66663832  1
  P  P12  1  0.98058170  0.14792746  0.38056359  1
  P  P13  1  0.68663159  0.18572910  0.95310791  1
  P  P14  1  0.64818762  0.48133652  0.71429603  1
  P  P15  1  0.35338407  0.51855660  0.28697391  1
  P  P16  1  0.31314145  0.81448962  0.04621707  1
  P  P17  1  0.01806916  0.85224048  0.61936022  1
  H  H18  1  0.95516037  0.32568780  0.98625053  1
  H  H19  1  0.71378882  0.00755643  0.34538360  1
  H  H20  1  0.62056185  0.65972701  0.32031251  1
  H  H21  1  0.37917830  0.34087308  0.67907239  1
  H  H22  1  0.28648344  0.99233182  0.65454075  1
  H  H23  1  0.04444579  0.67316180  0.01313611  1
  O  O24  1  0.91716378  0.90073901  0.82754708  1
  O  O25  1  0.95842691  0.21869130  0.83825853  1
  O  O26  1  0.86272953  0.45008094  0.79203293  1
  O  O27  1  0.80283784  0.88293147  0.54039494  1
  O  O28  1  0.70454655  0.07782180  0.95737713  1
  O  O29  1  0.96362868  0.25576433  0.37464326  1
  O  O30  1  0.63201296  0.58901811  0.70911669  1
  O  O31  1  0.74787809  0.43229556  0.50643441  1
  O  O32  1  0.95129798  0.37189961  0.09388405  1
  O  O33  1  0.70859157  0.11509443  0.49561962  1
  O  O34  1  0.71383397  0.96168262  0.23826751  1
  O  O35  1  0.41045687  0.76585759  0.83725520  1
  O  O36  1  0.47024507  0.21502421  0.87468587  1
  O  O37  1  0.62141635  0.70468154  0.42812181  1
  O  O38  1  0.37575658  0.44888987  0.82869009  1
  O  O39  1  0.62561908  0.55058611  0.17222125  1
  O  O40  1  0.37991776  0.29472683  0.57259616  1
  O  O41  1  0.52978776  0.78527013  0.12439641  1
  O  O42  1  0.58625605  0.23388303  0.16158447  1
  O  O43  1  0.28573845  0.03855255  0.76124715  1
  O  O44  1  0.29072532  0.88486838  0.50426969  1
  O  O45  1  0.04780030  0.62791910  0.90416465  1
  O  O46  1  0.25591758  0.56776366  0.49544810  1
  O  O47  1  0.36922968  0.41066785  0.29237062  1
  O  O48  1  0.03476174  0.74461853  0.62451093  1
  O  O49  1  0.29556183  0.92247596  0.04209921  1
  O  O50  1  0.19622538  0.11849974  0.45965500  1
  O  O51  1  0.13854270  0.54845059  0.20906363  1
  O  O52  1  0.04139081  0.78185067  0.16210348  1
  O  O53  1  0.08190804  0.09972524  0.17231986  1
