# generated using pymatgen
data_La(ClO4)3
_symmetry_space_group_name_H-M   'P 1'
_cell_length_a   9.55596237
_cell_length_b   9.55614262
_cell_length_c   5.96292236
_cell_angle_alpha   90.00000000
_cell_angle_beta   90.00000000
_cell_angle_gamma   120.00094664
_symmetry_Int_Tables_number   1
_chemical_formula_structural   La(ClO4)3
_chemical_formula_sum   'La2 Cl6 O24'
_cell_volume   471.56623038
_cell_formula_units_Z   2
loop_
 _symmetry_equiv_pos_site_id
 _symmetry_equiv_pos_as_xyz
  1  'x, y, z'
loop_
 _atom_site_type_symbol
 _atom_site_label
 _atom_site_symmetry_multiplicity
 _atom_site_fract_x
 _atom_site_fract_y
 _atom_site_fract_z
 _atom_site_occupancy
  La  La0  1  0.33335124  0.66667537  0.75000000  1
  La  La1  1  0.66666898  0.33333265  0.25000000  1
  Cl  Cl2  1  0.09159921  0.71004315  0.25000000  1
  Cl  Cl3  1  0.28997638  0.38157552  0.25000000  1
  Cl  Cl4  1  0.61844932  0.90840293  0.25000000  1
  Cl  Cl5  1  0.38155903  0.09159647  0.75000000  1
  Cl  Cl6  1  0.71003682  0.61842691  0.75000000  1
  Cl  Cl7  1  0.90840263  0.28995650  0.75000000  1
  O  O8  1  0.01946361  0.80875163  0.25000000  1
  O  O9  1  0.02912810  0.46373811  0.75000000  1
  O  O10  1  0.19497234  0.74326471  0.05119468  1
  O  O11  1  0.19497234  0.74326471  0.44880532  1
  O  O12  1  0.43461467  0.97087651  0.75000000  1
  O  O13  1  0.25674148  0.45171299  0.44880446  1
  O  O14  1  0.25674148  0.45171299  0.05119554  1
  O  O15  1  0.19124241  0.21071667  0.25000000  1
  O  O16  1  0.54829939  0.80502625  0.05119440  1
  O  O17  1  0.54829939  0.80502625  0.44880560  1
  O  O18  1  0.21069970  0.01945477  0.75000000  1
  O  O19  1  0.46373835  0.43461578  0.25000000  1
  O  O20  1  0.53626259  0.56538270  0.75000000  1
  O  O21  1  0.78930387  0.98054849  0.25000000  1
  O  O22  1  0.45171133  0.19497309  0.55118851  1
  O  O23  1  0.45171133  0.19497309  0.94881149  1
  O  O24  1  0.80875416  0.78928239  0.75000000  1
  O  O25  1  0.74326484  0.54829000  0.94880390  1
  O  O26  1  0.74326484  0.54829000  0.55119610  1
  O  O27  1  0.56538415  0.02911559  0.25000000  1
  O  O28  1  0.80503454  0.25673447  0.94880273  1
  O  O29  1  0.80503454  0.25673447  0.55119727  1
  O  O30  1  0.97087880  0.53626192  0.25000000  1
  O  O31  1  0.98053915  0.19124491  0.75000000  1
