# generated using pymatgen
data_PtC2S2(O4F)2
_symmetry_space_group_name_H-M   'P 1'
_cell_length_a   7.71836378
_cell_length_b   9.20316634
_cell_length_c   15.31355389
_cell_angle_alpha   90.00000000
_cell_angle_beta   90.00000000
_cell_angle_gamma   90.83044871
_symmetry_Int_Tables_number   1
_chemical_formula_structural   PtC2S2(O4F)2
_chemical_formula_sum   'Pt4 C8 S8 O32 F8'
_cell_volume   1087.65932331
_cell_formula_units_Z   4
loop_
 _symmetry_equiv_pos_site_id
 _symmetry_equiv_pos_as_xyz
  1  'x, y, z'
loop_
 _atom_site_type_symbol
 _atom_site_label
 _atom_site_symmetry_multiplicity
 _atom_site_fract_x
 _atom_site_fract_y
 _atom_site_fract_z
 _atom_site_occupancy
  Pt  Pt0  1  0.96950731  0.69666174  0.36177691  1
  Pt  Pt1  1  0.46950731  0.19666174  0.13822309  1
  Pt  Pt2  1  0.03049269  0.30333826  0.63822309  1
  Pt  Pt3  1  0.53049269  0.80333826  0.86177691  1
  C  C4  1  0.19604671  0.75088828  0.39524531  1
  C  C5  1  0.69604671  0.25088828  0.10475469  1
  C  C6  1  0.80395329  0.24911172  0.60475469  1
  C  C7  1  0.30395329  0.74911172  0.89524531  1
  C  C8  1  0.05293027  0.59190696  0.26494554  1
  C  C9  1  0.55293027  0.09190696  0.23505446  1
  C  C10  1  0.94706973  0.40809304  0.73505446  1
  C  C11  1  0.44706973  0.90809304  0.76494554  1
  S  S12  1  0.63333425  0.50105694  0.32152687  1
  S  S13  1  0.13333425  0.00105694  0.17847313  1
  S  S14  1  0.36666575  0.49894306  0.67847313  1
  S  S15  1  0.86666575  0.99894306  0.82152687  1
  S  S16  1  0.86926117  0.77644318  0.55736575  1
  S  S17  1  0.36926117  0.27644318  0.94263425  1
  S  S18  1  0.13073883  0.22355682  0.44263425  1
  S  S19  1  0.63073883  0.72355682  0.05736575  1
  O  O20  1  0.33228857  0.78140783  0.41847062  1
  O  O21  1  0.83228857  0.28140783  0.08152938  1
  O  O22  1  0.66771143  0.21859217  0.58152938  1
  O  O23  1  0.16771143  0.71859217  0.91847062  1
  O  O24  1  0.10249249  0.52853881  0.20628475  1
  O  O25  1  0.60249249  0.02853881  0.29371525  1
  O  O26  1  0.89750751  0.47146119  0.79371525  1
  O  O27  1  0.39750751  0.97146119  0.70628475  1
  O  O28  1  0.71740562  0.65123590  0.33036757  1
  O  O29  1  0.21740562  0.15123590  0.16963243  1
  O  O30  1  0.28259438  0.34876410  0.66963243  1
  O  O31  1  0.78259438  0.84876410  0.83036757  1
  O  O32  1  0.74408754  0.39560901  0.28175974  1
  O  O33  1  0.24408754  0.89560901  0.21824026  1
  O  O34  1  0.25591246  0.60439099  0.71824026  1
  O  O35  1  0.75591246  0.10439099  0.78175974  1
  O  O36  1  0.45807443  0.51630961  0.29314100  1
  O  O37  1  0.95807443  0.01630961  0.20685900  1
  O  O38  1  0.54192557  0.48369039  0.70685900  1
  O  O39  1  0.04192557  0.98369039  0.79314100  1
  O  O40  1  0.86673984  0.81733549  0.46058725  1
  O  O41  1  0.36673984  0.31733549  0.03941275  1
  O  O42  1  0.13326016  0.18266451  0.53941275  1
  O  O43  1  0.63326016  0.68266451  0.96058725  1
  O  O44  1  0.86638727  0.62261691  0.57194847  1
  O  O45  1  0.36638727  0.12261691  0.92805153  1
  O  O46  1  0.13361273  0.37738309  0.42805153  1
  O  O47  1  0.63361273  0.87738309  0.07194847  1
  O  O48  1  0.75628500  0.87081770  0.60392351  1
  O  O49  1  0.25628500  0.37081770  0.89607649  1
  O  O50  1  0.24371500  0.12918230  0.39607649  1
  O  O51  1  0.74371500  0.62918230  0.10392351  1
  F  F52  1  0.62110264  0.45393681  0.42226340  1
  F  F53  1  0.12110264  0.95393681  0.07773660  1
  F  F54  1  0.37889736  0.54606319  0.57773660  1
  F  F55  1  0.87889736  0.04606319  0.92226340  1
  F  F56  1  0.06249321  0.82909562  0.58377788  1
  F  F57  1  0.56249321  0.32909562  0.91622212  1
  F  F58  1  0.93750679  0.17090438  0.41622212  1
  F  F59  1  0.43750679  0.67090438  0.08377788  1
