# generated using pymatgen
data_BaTa4O11
_symmetry_space_group_name_H-M   'P 1'
_cell_length_a   6.36954454
_cell_length_b   6.36958802
_cell_length_c   12.59168798
_cell_angle_alpha   90.00055678
_cell_angle_beta   89.99987661
_cell_angle_gamma   120.00192896
_symmetry_Int_Tables_number   1
_chemical_formula_structural   BaTa4O11
_chemical_formula_sum   'Ba2 Ta8 O22'
_cell_volume   442.41094789
_cell_formula_units_Z   2
loop_
 _symmetry_equiv_pos_site_id
 _symmetry_equiv_pos_as_xyz
  1  'x, y, z'
loop_
 _atom_site_type_symbol
 _atom_site_label
 _atom_site_symmetry_multiplicity
 _atom_site_fract_x
 _atom_site_fract_y
 _atom_site_fract_z
 _atom_site_occupancy
  Ba  Ba0  1  0.33325341  0.66661725  0.75000022  1
  Ba  Ba1  1  0.66662688  0.33337375  0.24999155  1
  Ta  Ta2  1  0.00001093  0.64609793  0.50000013  1
  Ta  Ta3  1  0.99997379  0.35390816  0.99999381  1
  Ta  Ta4  1  0.33332642  0.66663467  0.25000398  1
  Ta  Ta5  1  0.35387886  0.35388012  0.50000022  1
  Ta  Ta6  1  0.64609966  0.64611546  0.00000573  1
  Ta  Ta7  1  0.35389658  0.00000479  0.00000422  1
  Ta  Ta8  1  0.66667070  0.33336513  0.75000349  1
  Ta  Ta9  1  0.64607751  -0.00000306  0.50000435  1
  O  O10  1  0.00000154  0.75834282  0.00000182  1
  O  O11  1  0.07268034  0.63856870  0.34796204  1
  O  O12  1  0.07270330  0.43408175  0.15202554  1
  O  O13  1  0.99997839  0.24165895  0.49999465  1
  O  O14  1  0.36138050  0.92727183  0.15204436  1
  O  O15  1  0.33333475  0.66667085  0.53310575  1
  O  O16  1  0.33333118  0.66665968  0.96689463  1
  O  O17  1  0.56587411  0.92726810  0.34796156  1
  O  O18  1  0.24163385  0.24164029  0.99999803  1
  O  O19  1  0.36141087  0.43405680  0.34795865  1
  O  O20  1  0.43411875  0.36144331  0.65203498  1
  O  O21  1  0.24168061  0.00000064  0.49999958  1
  O  O22  1  0.56590124  0.63852128  0.15204876  1
  O  O23  1  0.63861864  0.56592226  0.84797196  1
  O  O24  1  0.75834931  0.75836041  0.50000431  1
  O  O25  1  0.43413212  0.07272994  0.84796006  1
  O  O26  1  0.66664561  0.33332550  0.03310409  1
  O  O27  1  0.66665601  0.33334186  0.46689203  1
  O  O28  1  0.63862357  0.07273333  0.65203913  1
  O  O29  1  0.92735688  0.56594625  0.65203859  1
  O  O30  1  0.75830650  0.00000214  0.99999971  1
  O  O31  1  0.92736621  0.36146110  0.84795405  1
