# generated using pymatgen
data_Na3Mn2P2(CO7)2
_symmetry_space_group_name_H-M   'P 1'
_cell_length_a   9.01675165
_cell_length_b   8.42109091
_cell_length_c   8.42509278
_cell_angle_alpha   103.45031897
_cell_angle_beta   89.87291073
_cell_angle_gamma   87.84767709
_symmetry_Int_Tables_number   1
_chemical_formula_structural   Na3Mn2P2(CO7)2
_chemical_formula_sum   'Na6 Mn4 P4 C4 O28'
_cell_volume   621.69993882
_cell_formula_units_Z   2
loop_
 _symmetry_equiv_pos_site_id
 _symmetry_equiv_pos_as_xyz
  1  'x, y, z'
loop_
 _atom_site_type_symbol
 _atom_site_label
 _atom_site_symmetry_multiplicity
 _atom_site_fract_x
 _atom_site_fract_y
 _atom_site_fract_z
 _atom_site_occupancy
  Na  Na0  1  0.75511046  0.40222669  0.36472331  1
  Na  Na1  1  0.75888613  0.12145682  0.63353207  1
  Na  Na2  1  0.76443327  0.87499085  0.87848783  1
  Na  Na3  1  0.24488954  0.09777331  0.13527669  1
  Na  Na4  1  0.24111387  0.37854318  0.86646793  1
  Na  Na5  1  0.23556673  0.62500915  0.62151217  1
  Mn  Mn6  1  0.65614239  0.48147804  0.73922966  1
  Mn  Mn7  1  0.64850973  0.97924974  0.23445559  1
  Mn  Mn8  1  0.35149027  0.52075026  0.26554441  1
  Mn  Mn9  1  0.34385761  0.01852196  0.76077034  1
  P  P10  1  0.56999615  0.25638600  0.02102311  1
  P  P11  1  0.57441285  0.77149776  0.51163873  1
  P  P12  1  0.43000385  0.24361400  0.47897689  1
  P  P13  1  0.42558715  0.72850224  0.98836127  1
  C  C14  1  0.91752241  0.01164043  0.26062347  1
  C  C15  1  0.92412081  0.50795374  0.75913010  1
  C  C16  1  0.08247759  0.48835957  0.23937653  1
  C  C17  1  0.07587919  0.99204626  0.74086990  1
  O  O18  1  0.94849536  0.46821862  0.22598316  1
  O  O19  1  0.93852109  0.97884564  0.73644874  1
  O  O20  1  0.85687476  0.39271180  0.65246555  1
  O  O21  1  0.85343364  0.89717770  0.15244242  1
  O  O22  1  0.81422185  0.10657027  0.35632095  1
  O  O23  1  0.82832157  0.60460174  0.85675141  1
  O  O24  1  0.66507703  0.12344599  0.08225577  1
  O  O25  1  0.67839363  0.64715365  0.56711428  1
  O  O26  1  0.66508368  0.30573593  0.89138176  1
  O  O27  1  0.66337234  0.84542746  0.38991588  1
  O  O28  1  0.53385218  0.40310163  0.17030291  1
  O  O29  1  0.58021767  0.31228622  0.54872925  1
  O  O30  1  0.57135235  0.80542483  0.06120536  1
  O  O31  1  0.53232373  0.91424663  0.66359042  1
  O  O32  1  0.46614782  0.09689837  0.32969709  1
  O  O33  1  0.41978233  0.18771378  0.95127075  1
  O  O34  1  0.42864765  0.69457517  0.43879464  1
  O  O35  1  0.46767627  0.58575337  0.83640958  1
  O  O36  1  0.33491632  0.19426407  0.60861824  1
  O  O37  1  0.33492297  0.37655401  0.41774423  1
  O  O38  1  0.33662766  0.65457254  0.11008412  1
  O  O39  1  0.32160637  0.85284635  0.93288572  1
  O  O40  1  0.18577815  0.39342973  0.14367905  1
  O  O41  1  0.17167843  0.89539826  0.64324859  1
  O  O42  1  0.14312524  0.10728820  0.84753445  1
  O  O43  1  0.14656636  0.60282230  0.34755758  1
  O  O44  1  0.05150464  0.03178138  0.27401684  1
  O  O45  1  0.06147891  0.52115436  0.76355126  1
