# generated using pymatgen
data_Li2VCrP2(HO5)2
_symmetry_space_group_name_H-M   'P 1'
_cell_length_a   5.40501919
_cell_length_b   7.35395052
_cell_length_c   5.16858354
_cell_angle_alpha   108.60582676
_cell_angle_beta   97.88337917
_cell_angle_gamma   106.18687974
_symmetry_Int_Tables_number   1
_chemical_formula_structural   Li2VCrP2(HO5)2
_chemical_formula_sum   'Li2 V1 Cr1 P2 H2 O10'
_cell_volume   181.12487054
_cell_formula_units_Z   1
loop_
 _symmetry_equiv_pos_site_id
 _symmetry_equiv_pos_as_xyz
  1  'x, y, z'
loop_
 _atom_site_type_symbol
 _atom_site_label
 _atom_site_symmetry_multiplicity
 _atom_site_fract_x
 _atom_site_fract_y
 _atom_site_fract_z
 _atom_site_occupancy
  Li  Li0  1  0.39734664  0.82231819  0.74587602  1
  Li  Li1  1  0.60265336  0.17768181  0.25412398  1
  V  V2  1  0.00000000  0.00000000  0.00000000  1
  Cr  Cr3  1  0.00000000  0.50000000  0.00000000  1
  P  P4  1  0.36242033  0.23407734  0.67847611  1
  P  P5  1  0.63757967  0.76592266  0.32152389  1
  H  H6  1  0.05796670  0.34062890  0.36007594  1
  H  H7  1  0.94203330  0.65937110  0.63992406  1
  O  O8  1  0.04741085  0.72258858  0.83858070  1
  O  O9  1  0.20333946  0.38174494  0.72726436  1
  O  O10  1  0.34229265  0.65770885  0.30393339  1
  O  O11  1  0.25500920  0.07450098  0.37295813  1
  O  O12  1  0.34053564  0.11993620  0.88793382  1
  O  O13  1  0.65946436  0.88006380  0.11206618  1
  O  O14  1  0.74499080  0.92549902  0.62704187  1
  O  O15  1  0.65770735  0.34229115  0.69606661  1
  O  O16  1  0.79666054  0.61825506  0.27273564  1
  O  O17  1  0.95258915  0.27741142  0.16141930  1
