# generated using pymatgen
data_Li3Fe3CoO8
_symmetry_space_group_name_H-M   'P 1'
_cell_length_a   5.94459895
_cell_length_b   5.91350552
_cell_length_c   5.91350565
_cell_angle_alpha   59.99999816
_cell_angle_beta   60.17287303
_cell_angle_gamma   89.99999685
_symmetry_Int_Tables_number   1
_chemical_formula_structural   Li3Fe3CoO8
_chemical_formula_sum   'Li3 Fe3 Co1 O8'
_cell_volume   147.37623496
_cell_formula_units_Z   1
loop_
 _symmetry_equiv_pos_site_id
 _symmetry_equiv_pos_as_xyz
  1  'x, y, z'
loop_
 _atom_site_type_symbol
 _atom_site_label
 _atom_site_symmetry_multiplicity
 _atom_site_fract_x
 _atom_site_fract_y
 _atom_site_fract_z
 _atom_site_occupancy
  Li  Li0  1  0.50000000  0.00000000  0.00000000  1
  Li  Li1  1  0.50000000  0.00000000  0.50000000  1
  Li  Li2  1  0.50000000  0.50000000  0.50000000  1
  Fe  Fe3  1  0.00000000  0.00000000  0.50000000  1
  Fe  Fe4  1  0.00000000  0.50000000  0.00000000  1
  Fe  Fe5  1  0.00000000  0.50000000  0.50000000  1
  Co  Co6  1  0.00000000  0.00000000  0.00000000  1
  O  O7  1  0.21546412  0.22753161  0.01206749  1
  O  O8  1  0.21546412  0.22753161  0.54493778  1
  O  O9  1  0.21546412  0.76040090  0.01206749  1
  O  O10  1  0.22834277  0.74278126  0.51443848  1
  O  O11  1  0.77165723  0.25721974  0.48556152  1
  O  O12  1  0.78453688  0.23959910  0.98793251  1
  O  O13  1  0.78453688  0.77246839  0.45506222  1
  O  O14  1  0.78453688  0.77246839  0.98793251  1
