# generated using pymatgen
data_Li2FeNi(PO4)2
_symmetry_space_group_name_H-M   'P 1'
_cell_length_a   10.23608800
_cell_length_b   6.00375813
_cell_length_c   4.73638536
_cell_angle_alpha   90.00000000
_cell_angle_beta   89.51907704
_cell_angle_gamma   90.00000000
_symmetry_Int_Tables_number   1
_chemical_formula_structural   Li2FeNi(PO4)2
_chemical_formula_sum   'Li4 Fe2 Ni2 P4 O16'
_cell_volume   291.06429248
_cell_formula_units_Z   2
loop_
 _symmetry_equiv_pos_site_id
 _symmetry_equiv_pos_as_xyz
  1  'x, y, z'
loop_
 _atom_site_type_symbol
 _atom_site_label
 _atom_site_symmetry_multiplicity
 _atom_site_fract_x
 _atom_site_fract_y
 _atom_site_fract_z
 _atom_site_occupancy
  Li  Li0  1  0.00000000  0.00000000  0.00000000  1
  Li  Li1  1  0.00000000  0.50000000  0.00000000  1
  Li  Li2  1  0.50000000  0.00000000  0.50000000  1
  Li  Li3  1  0.50000000  0.50000000  0.50000000  1
  Fe  Fe4  1  0.27717793  0.25000000  0.97561917  1
  Fe  Fe5  1  0.72282207  0.75000000  0.02438083  1
  Ni  Ni6  1  0.22169691  0.75000000  0.48305734  1
  Ni  Ni7  1  0.77830309  0.25000000  0.51694266  1
  P  P8  1  0.09149405  0.25000000  0.41788028  1
  P  P9  1  0.40445022  0.75000000  0.91817317  1
  P  P10  1  0.59554978  0.25000000  0.08182683  1
  P  P11  1  0.90850595  0.75000000  0.58211972  1
  O  O12  1  0.04913423  0.75000000  0.70481432  1
  O  O13  1  0.09374782  0.25000000  0.74211597  1
  O  O14  1  0.16352372  0.04332471  0.28254753  1
  O  O15  1  0.16352372  0.45667529  0.28254753  1
  O  O16  1  0.33253430  0.54563847  0.78058712  1
  O  O17  1  0.33253430  0.95436153  0.78058712  1
  O  O18  1  0.39978157  0.75000000  0.24291289  1
  O  O19  1  0.45518815  0.25000000  0.20611323  1
  O  O20  1  0.54481185  0.75000000  0.79388677  1
  O  O21  1  0.60021843  0.25000000  0.75708711  1
  O  O22  1  0.66746570  0.04563847  0.21941288  1
  O  O23  1  0.66746570  0.45436153  0.21941288  1
  O  O24  1  0.83647628  0.54332471  0.71745247  1
  O  O25  1  0.83647628  0.95667529  0.71745247  1
  O  O26  1  0.90625218  0.75000000  0.25788403  1
  O  O27  1  0.95086577  0.25000000  0.29518568  1
