# generated using pymatgen
data_Na5Mn2P2(CO7)2
_symmetry_space_group_name_H-M   'P 1'
_cell_length_a   9.01377730
_cell_length_b   8.46246820
_cell_length_c   8.48063155
_cell_angle_alpha   103.23119215
_cell_angle_beta   89.34313097
_cell_angle_gamma   89.37686753
_symmetry_Int_Tables_number   1
_chemical_formula_structural   Na5Mn2P2(CO7)2
_chemical_formula_sum   'Na10 Mn4 P4 C4 O28'
_cell_volume   629.61836869
_cell_formula_units_Z   2
loop_
 _symmetry_equiv_pos_site_id
 _symmetry_equiv_pos_as_xyz
  1  'x, y, z'
loop_
 _atom_site_type_symbol
 _atom_site_label
 _atom_site_symmetry_multiplicity
 _atom_site_fract_x
 _atom_site_fract_y
 _atom_site_fract_z
 _atom_site_occupancy
  Na  Na0  1  0.92033184  0.24130415  0.99125931  1
  Na  Na1  1  0.76614994  0.38696284  0.38914299  1
  Na  Na2  1  0.76156556  0.11452160  0.61273697  1
  Na  Na3  1  0.74711772  0.63465113  0.14463816  1
  Na  Na4  1  0.74410664  0.87042214  0.86256344  1
  Na  Na5  1  0.25589336  0.12957786  0.13743656  1
  Na  Na6  1  0.25288228  0.36534887  0.85536184  1
  Na  Na7  1  0.23385006  0.61303716  0.61085701  1
  Na  Na8  1  0.23843444  0.88547840  0.38726303  1
  Na  Na9  1  0.07966816  0.75869585  0.00874069  1
  Mn  Mn10  1  0.64362674  0.48407789  0.73506773  1
  Mn  Mn11  1  0.64243267  0.98598705  0.23467109  1
  Mn  Mn12  1  0.35637326  0.51592211  0.26493227  1
  Mn  Mn13  1  0.35756733  0.01401295  0.76532891  1
  P  P14  1  0.58115285  0.27594535  0.02482028  1
  P  P15  1  0.57691507  0.77280623  0.52361715  1
  P  P16  1  0.42308493  0.22719377  0.47638285  1
  P  P17  1  0.41884715  0.72405465  0.97517972  1
  C  C18  1  0.93305309  0.00544967  0.25235458  1
  C  C19  1  0.93206403  0.51674974  0.76939503  1
  C  C20  1  0.06793597  0.48325026  0.23060497  1
  C  C21  1  0.06694691  0.99455033  0.74764542  1
  O  O22  1  0.92639603  0.47984295  0.22353633  1
  O  O23  1  0.92493345  0.99908908  0.75550538  1
  O  O24  1  0.86138220  0.40834043  0.66060982  1
  O  O25  1  0.85936322  0.89818816  0.14558661  1
  O  O26  1  0.85523987  0.11027639  0.35621270  1
  O  O27  1  0.84985116  0.61929368  0.87243757  1
  O  O28  1  0.67733182  0.14536938  0.07842453  1
  O  O29  1  0.66638790  0.63630000  0.57830165  1
  O  O30  1  0.67619626  0.33130672  0.89231455  1
  O  O31  1  0.66690514  0.82572517  0.38921644  1
  O  O32  1  0.55690096  0.42596793  0.17309502  1
  O  O33  1  0.57934172  0.28572127  0.53641674  1
  O  O34  1  0.57075494  0.78934272  0.03832651  1
  O  O35  1  0.55919519  0.92053664  0.67258933  1
  O  O36  1  0.44080481  0.07946336  0.32741067  1
  O  O37  1  0.42924506  0.21065728  0.96167349  1
  O  O38  1  0.42065828  0.71427873  0.46358326  1
  O  O39  1  0.44309904  0.57403207  0.82690498  1
  O  O40  1  0.33309486  0.17427483  0.61078356  1
  O  O41  1  0.33361210  0.36370000  0.42169835  1
  O  O42  1  0.32380374  0.66869328  0.10768545  1
  O  O43  1  0.32266818  0.85463062  0.92157547  1
  O  O44  1  0.15014884  0.38070632  0.12756243  1
  O  O45  1  0.14476013  0.88972361  0.64378730  1
  O  O46  1  0.14063678  0.10181184  0.85441339  1
  O  O47  1  0.13861780  0.59165957  0.33939018  1
  O  O48  1  0.07506655  0.00091092  0.24449462  1
  O  O49  1  0.07360397  0.52015705  0.77646367  1
