# generated using pymatgen
data_Na3Mn2P2(CO7)2
_symmetry_space_group_name_H-M   'P 1'
_cell_length_a   8.38495297
_cell_length_b   8.43076483
_cell_length_c   10.57871453
_cell_angle_alpha   70.19350879
_cell_angle_beta   107.97038940
_cell_angle_gamma   76.78946059
_symmetry_Int_Tables_number   1
_chemical_formula_structural   Na3Mn2P2(CO7)2
_chemical_formula_sum   'Na6 Mn4 P4 C4 O28'
_cell_volume   621.18566289
_cell_formula_units_Z   2
loop_
 _symmetry_equiv_pos_site_id
 _symmetry_equiv_pos_as_xyz
  1  'x, y, z'
loop_
 _atom_site_type_symbol
 _atom_site_label
 _atom_site_symmetry_multiplicity
 _atom_site_fract_x
 _atom_site_fract_y
 _atom_site_fract_z
 _atom_site_occupancy
  Na  Na0  1  0.01115514  0.02445257  0.75195899  1
  Na  Na1  1  0.50546847  0.49203798  0.76863142  1
  Na  Na2  1  0.74622702  0.74105195  0.76234763  1
  Na  Na3  1  0.75377298  0.75894805  0.23765237  1
  Na  Na4  1  0.48884486  0.47554743  0.24804101  1
  Na  Na5  1  0.99453153  0.00796302  0.23136858  1
  Mn  Mn6  1  0.58515885  0.15639789  0.65222322  1
  Mn  Mn7  1  0.09103852  0.65407741  0.65153744  1
  Mn  Mn8  1  0.91484115  0.34360211  0.34777678  1
  Mn  Mn9  1  0.40896148  0.84592259  0.34846256  1
  P  P10  1  0.77136996  0.48665602  0.57264858  1
  P  P11  1  0.26751981  0.96904322  0.57208507  1
  P  P12  1  0.72863004  0.01334398  0.42735142  1
  P  P13  1  0.23248019  0.53095678  0.42791493  1
  C  C14  1  0.70221639  0.04739116  0.92100012  1
  C  C15  1  0.19818796  0.55216192  0.91981136  1
  C  C16  1  0.79778361  0.45260884  0.07899988  1
  C  C17  1  0.30181204  0.94783808  0.08018864  1
  O  O18  1  0.24722963  0.99433310  0.94642467  1
  O  O19  1  0.73160380  0.51114185  0.94148828  1
  O  O20  1  0.27399499  0.46946447  0.85567456  1
  O  O21  1  0.77388422  0.96805563  0.85191418  1
  O  O22  1  0.55684954  0.19205438  0.82735423  1
  O  O23  1  0.05031283  0.69818124  0.81648933  1
  O  O24  1  0.93945802  0.51310196  0.66361564  1
  O  O25  1  0.76827853  0.30836608  0.67359394  1
  O  O26  1  0.44513196  0.97230457  0.66615948  1
  O  O27  1  0.25028047  0.79231203  0.67000006  1
  O  O28  1  0.73048828  0.01116078  0.57501961  1
  O  O29  1  0.09958515  0.13475518  0.53110017  1
  O  O30  1  0.59823060  0.64860376  0.53593807  1
  O  O31  1  0.23598893  0.53093107  0.57556243  1
  O  O32  1  0.76951172  0.48883922  0.42498039  1
  O  O33  1  0.90176940  0.85139624  0.46406193  1
  O  O34  1  0.40041485  0.36524482  0.46889983  1
  O  O35  1  0.26401107  0.96906893  0.42443757  1
  O  O36  1  0.56054198  0.98689804  0.33638436  1
  O  O37  1  0.73172147  0.19163392  0.32640606  1
  O  O38  1  0.05486804  0.52769543  0.33384052  1
  O  O39  1  0.24971953  0.70768797  0.32999994  1
  O  O40  1  0.94315046  0.30794562  0.17264577  1
  O  O41  1  0.44968717  0.80181876  0.18351067  1
  O  O42  1  0.72611578  0.53194437  0.14808582  1
  O  O43  1  0.22600501  0.03053553  0.14432544  1
  O  O44  1  0.76839620  0.98885815  0.05851172  1
  O  O45  1  0.25277037  0.50566690  0.05357533  1
