# generated using pymatgen
data_Li6ScFe5(SiO3)12
_symmetry_space_group_name_H-M   'P 1'
_cell_length_a   6.60866798
_cell_length_b   11.05702122
_cell_length_c   9.52815384
_cell_angle_alpha   77.32023261
_cell_angle_beta   102.79413199
_cell_angle_gamma   100.69708379
_symmetry_Int_Tables_number   1
_chemical_formula_structural   Li6ScFe5(SiO3)12
_chemical_formula_sum   'Li6 Sc1 Fe5 Si12 O36'
_cell_volume   655.49383412
_cell_formula_units_Z   1
loop_
 _symmetry_equiv_pos_site_id
 _symmetry_equiv_pos_as_xyz
  1  'x, y, z'
loop_
 _atom_site_type_symbol
 _atom_site_label
 _atom_site_symmetry_multiplicity
 _atom_site_fract_x
 _atom_site_fract_y
 _atom_site_fract_z
 _atom_site_occupancy
  Li  Li0  1  0.74353913  0.33528431  0.07921961  1
  Li  Li1  1  0.74284538  0.66843537  0.41060745  1
  Li  Li2  1  0.25661772  0.99785718  0.25469882  1
  Li  Li3  1  0.74269388  0.00319387  0.74626362  1
  Li  Li4  1  0.25662674  0.33099853  0.58749677  1
  Li  Li5  1  0.25899943  0.66374751  0.92256415  1
  Sc  Sc6  1  0.89983099  0.78358438  0.68283308  1
  Fe  Fe7  1  0.89694079  0.11794243  0.01459080  1
  Fe  Fe8  1  0.89669075  0.45059184  0.34851755  1
  Fe  Fe9  1  0.10315926  0.21602149  0.31840367  1
  Fe  Fe10  1  0.10337792  0.54714940  0.65175509  1
  Fe  Fe11  1  0.10439834  0.88327317  0.98702786  1
  Si  Si12  1  0.79301030  0.61561087  0.00314195  1
  Si  Si13  1  0.61386392  0.84240345  0.04810581  1
  Si  Si14  1  0.79235664  0.95050028  0.33167360  1
  Si  Si15  1  0.61473673  0.17564311  0.38248218  1
  Si  Si16  1  0.38509808  0.49101154  0.28397493  1
  Si  Si17  1  0.79262578  0.28237681  0.66841285  1
  Si  Si18  1  0.20709496  0.71709278  0.33209993  1
  Si  Si19  1  0.61394556  0.50685104  0.71604019  1
  Si  Si20  1  0.38373280  0.82481405  0.61725211  1
  Si  Si21  1  0.20783727  0.05262524  0.66570555  1
  Si  Si22  1  0.38599154  0.15815130  0.95073431  1
  Si  Si23  1  0.20681044  0.38385245  0.99841492  1
  O  O24  1  0.88753481  0.51424995  0.14136036  1
  O  O25  1  0.64344613  0.69691652  0.05132461  1
  O  O26  1  0.96886919  0.05078095  0.24935552  1
  O  O27  1  0.62516057  0.14676892  0.03566919  1
  O  O28  1  0.64323133  0.86431127  0.21694055  1
  O  O29  1  0.79754584  0.27320421  0.30393639  1
  O  O30  1  0.88993036  0.85022341  0.46832756  1
  O  O31  1  0.35365392  0.47026302  0.11424386  1
  O  O32  1  0.96890608  0.38184873  0.58513800  1
  O  O33  1  0.62456256  0.47982090  0.36815864  1
  O  O34  1  0.20341129  0.06061786  0.02963457  1
  O  O35  1  0.35582052  0.63615148  0.28239376  1
  O  O36  1  0.64450395  0.03074480  0.38367327  1
  O  O37  1  0.79529185  0.60173442  0.63497713  1
  O  O38  1  0.11176491  0.81815212  0.19370059  1
  O  O39  1  0.37514790  0.18678381  0.29815071  1
  O  O40  1  0.03062643  0.28425628  0.08156822  1
  O  O41  1  0.35391951  0.80354185  0.44777760  1
  O  O42  1  0.64605827  0.19610727  0.55222031  1
  O  O43  1  0.97215815  0.71497063  0.92376379  1
  O  O44  1  0.62062207  0.81488186  0.70378682  1
  O  O45  1  0.88891785  0.18225333  0.80741097  1
  O  O46  1  0.20228104  0.39353341  0.36272726  1
  O  O47  1  0.35125173  0.96976813  0.61429356  1
  O  O48  1  0.64273463  0.36153839  0.71892919  1
  O  O49  1  0.79777659  0.93990392  0.97055517  1
  O  O50  1  0.37480627  0.51854025  0.63141815  1
  O  O51  1  0.03082145  0.61712073  0.41493020  1
  O  O52  1  0.64739471  0.53054707  0.88504776  1
  O  O53  1  0.11167844  0.15239488  0.52596526  1
  O  O54  1  0.20544514  0.72442144  0.69635488  1
  O  O55  1  0.35715160  0.13855918  0.78087691  1
  O  O56  1  0.37438968  0.85321811  0.96377337  1
  O  O57  1  0.03314091  0.95543182  0.75097644  1
  O  O58  1  0.35591629  0.30311005  0.94903210  1
  O  O59  1  0.11130369  0.48431563  0.85958755  1
