# generated using pymatgen
data_Li4Mn3Cr(PO4)4
_symmetry_space_group_name_H-M   'P 1'
_cell_length_a   4.79138602
_cell_length_b   10.47440026
_cell_length_c   6.22609108
_cell_angle_alpha   90.00000000
_cell_angle_beta   90.00000000
_cell_angle_gamma   90.97185232
_symmetry_Int_Tables_number   1
_chemical_formula_structural   Li4Mn3Cr(PO4)4
_chemical_formula_sum   'Li4 Mn3 Cr1 P4 O16'
_cell_volume   312.42322978
_cell_formula_units_Z   1
loop_
 _symmetry_equiv_pos_site_id
 _symmetry_equiv_pos_as_xyz
  1  'x, y, z'
loop_
 _atom_site_type_symbol
 _atom_site_label
 _atom_site_symmetry_multiplicity
 _atom_site_fract_x
 _atom_site_fract_y
 _atom_site_fract_z
 _atom_site_occupancy
  Li  Li0  1  0.00299311  0.00147869  0.99934501  1
  Li  Li1  1  0.00299311  0.00147869  0.50065499  1
  Li  Li2  1  0.49962053  0.49893169  0.50122086  1
  Li  Li3  1  0.49962053  0.49893169  0.99877914  1
  Mn  Mn4  1  0.02971551  0.71915830  0.75000000  1
  Mn  Mn5  1  0.46980693  0.21793808  0.75000000  1
  Mn  Mn6  1  0.52933160  0.78149655  0.25000000  1
  Cr  Cr7  1  0.95177665  0.28404818  0.25000000  1
  P  P8  1  0.08591696  0.58996853  0.25000000  1
  P  P9  1  0.41133674  0.09516847  0.25000000  1
  P  P10  1  0.59227180  0.90760819  0.75000000  1
  P  P11  1  0.91187805  0.40813115  0.75000000  1
  O  O12  1  0.19673835  0.45072994  0.25000000  1
  O  O13  1  0.22281995  0.65873675  0.05099534  1
  O  O14  1  0.22281995  0.65873675  0.44900466  1
  O  O15  1  0.23324236  0.40589832  0.75000000  1
  O  O16  1  0.27063866  0.90242518  0.75000000  1
  O  O17  1  0.28153717  0.16063264  0.04848308  1
  O  O18  1  0.28153717  0.16063264  0.45151692  1
  O  O19  1  0.29590863  0.95509577  0.25000000  1
  O  O20  1  0.71600863  0.04571567  0.75000000  1
  O  O21  1  0.72281331  0.83837278  0.55059125  1
  O  O22  1  0.72281331  0.83837278  0.94940875  1
  O  O23  1  0.73486558  0.10401140  0.25000000  1
  O  O24  1  0.76485622  0.59524007  0.25000000  1
  O  O25  1  0.77780423  0.33793108  0.55219393  1
  O  O26  1  0.77780423  0.33793108  0.94780607  1
  O  O27  1  0.79052975  0.54519696  0.75000000  1
