# generated using pymatgen
data_Li24Mn11CrO36
_symmetry_space_group_name_H-M   'P 1'
_cell_length_a   5.00806911
_cell_length_b   13.01255290
_cell_length_c   10.55935688
_cell_angle_alpha   67.25612639
_cell_angle_beta   85.22150413
_cell_angle_gamma   97.17888483
_symmetry_Int_Tables_number   1
_chemical_formula_structural   Li24Mn11CrO36
_chemical_formula_sum   'Li24 Mn11 Cr1 O36'
_cell_volume   623.09941880
_cell_formula_units_Z   1
loop_
 _symmetry_equiv_pos_site_id
 _symmetry_equiv_pos_as_xyz
  1  'x, y, z'
loop_
 _atom_site_type_symbol
 _atom_site_label
 _atom_site_symmetry_multiplicity
 _atom_site_fract_x
 _atom_site_fract_y
 _atom_site_fract_z
 _atom_site_occupancy
  Li  Li0  1  0.78152829  0.05851249  0.94170220  1
  Li  Li1  1  0.66695784  0.08352406  0.66652532  1
  Li  Li2  1  0.88336814  0.27431998  0.72535334  1
  Li  Li3  1  0.33364554  0.16670632  0.83305968  1
  Li  Li4  1  0.55789439  0.10789318  0.39237935  1
  Li  Li5  1  0.00006217  0.25004964  0.99988963  1
  Li  Li6  1  0.99968379  0.00022792  0.49998215  1
  Li  Li7  1  0.77745218  0.55812884  0.94125956  1
  Li  Li8  1  0.44941603  0.39180562  0.60929808  1
  Li  Li9  1  0.66671391  0.58345428  0.66658066  1
  Li  Li10  1  0.66759221  0.33331043  0.16627178  1
  Li  Li11  1  0.10861636  0.22436979  0.27450492  1
  Li  Li12  1  0.88923677  0.77525827  0.72529303  1
  Li  Li13  1  0.33336276  0.66671682  0.83326142  1
  Li  Li14  1  0.33384143  0.41765361  0.33232796  1
  Li  Li15  1  0.55274162  0.60823477  0.39130852  1
  Li  Li16  1  0.99913558  0.50028212  0.50015513  1
  Li  Li17  1  0.22238004  0.44187057  0.05858127  1
  Li  Li18  1  0.44359369  0.89162930  0.60811588  1
  Li  Li19  1  0.66668518  0.83338973  0.16664322  1
  Li  Li20  1  0.11419809  0.72519495  0.27542613  1
  Li  Li21  1  0.33336117  0.91674609  0.33327293  1
  Li  Li22  1  0.99999778  0.74997122  0.00001930  1
  Li  Li23  1  0.21918023  0.94155219  0.05793422  1
  Mn  Mn24  1  0.88899139  0.02795257  0.22204733  1
  Mn  Mn25  1  0.55560435  0.36127400  0.88874401  1
  Mn  Mn26  1  0.77809793  0.30528646  0.44448876  1
  Mn  Mn27  1  0.44429983  0.13856323  0.11144800  1
  Mn  Mn28  1  0.11100206  0.47192504  0.77808666  1
  Mn  Mn29  1  0.88902509  0.52811682  0.22189572  1
  Mn  Mn30  1  0.55566866  0.86139398  0.88855769  1
  Mn  Mn31  1  0.77758335  0.80521310  0.44476201  1
  Mn  Mn32  1  0.22231045  0.69460421  0.55536912  1
  Mn  Mn33  1  0.44437982  0.63873442  0.11127148  1
  Mn  Mn34  1  0.11084593  0.97199091  0.77826279  1
  Cr  Cr35  1  0.22434037  0.19685894  0.55315883  1
  O  O36  1  0.42815889  0.00163694  0.86046073  1
  O  O37  1  0.64296767  0.21196691  0.92416619  1
  O  O38  1  0.89880446  0.16514901  0.47098111  1
  O  O39  1  0.30672799  0.04533135  0.59087343  1
  O  O40  1  0.88030802  0.40626590  0.95579984  1
  O  O41  1  0.02494119  0.12102118  0.74302739  1
  O  O42  1  0.55404213  0.24120027  0.62249430  1
  O  O43  1  0.78645873  0.42712040  0.71091951  1
  O  O44  1  0.76130739  0.16845840  0.19359456  1
  O  O45  1  0.23860842  0.33155570  0.80628964  1
  O  O46  1  0.21377555  0.07297180  0.28916889  1
  O  O47  1  0.45232875  0.25931839  0.37869798  1
  O  O48  1  0.42817860  0.50173472  0.86040206  1
  O  O49  1  0.97765570  0.37892632  0.25710581  1
  O  O50  1  0.11956022  0.09364392  0.04438608  1
  O  O51  1  0.68928686  0.45487408  0.40904771  1
  O  O52  1  0.09447633  0.33362816  0.52833592  1
  O  O53  1  0.64290177  0.71181718  0.92417645  1
  O  O54  1  0.35698704  0.28800912  0.07607126  1
  O  O55  1  0.90522117  0.66481132  0.47306682  1
  O  O56  1  0.30960056  0.54517921  0.59071763  1
  O  O57  1  0.88024772  0.90610191  0.95597721  1
  O  O58  1  0.02363527  0.62130440  0.74269729  1
  O  O59  1  0.57181024  0.49795430  0.13985531  1
  O  O60  1  0.54697126  0.73958981  0.62240800  1
  O  O61  1  0.78602590  0.92695254  0.71103401  1
  O  O62  1  0.76138190  0.66842497  0.19357315  1
  O  O63  1  0.23851490  0.83141100  0.80647494  1
  O  O64  1  0.21356981  0.57270529  0.28943773  1
  O  O65  1  0.45279400  0.76026675  0.37758152  1
  O  O66  1  0.97637453  0.87861286  0.25739507  1
  O  O67  1  0.11971512  0.59375428  0.04430988  1
  O  O68  1  0.69020837  0.95451801  0.40934650  1
  O  O69  1  0.09475547  0.83500667  0.52700378  1
  O  O70  1  0.35693982  0.78784755  0.07615638  1
  O  O71  1  0.57196283  0.99821354  0.13972784  1
