# generated using pymatgen
data_Li2CrFeO4
_symmetry_space_group_name_H-M   'P 1'
_cell_length_a   5.17754635
_cell_length_b   5.95293586
_cell_length_c   7.86960181
_cell_angle_alpha   100.85911414
_cell_angle_beta   83.66283682
_cell_angle_gamma   73.16624841
_symmetry_Int_Tables_number   1
_chemical_formula_structural   Li2CrFeO4
_chemical_formula_sum   'Li6 Cr3 Fe3 O12'
_cell_volume   224.46563359
_cell_formula_units_Z   3
loop_
 _symmetry_equiv_pos_site_id
 _symmetry_equiv_pos_as_xyz
  1  'x, y, z'
loop_
 _atom_site_type_symbol
 _atom_site_label
 _atom_site_symmetry_multiplicity
 _atom_site_fract_x
 _atom_site_fract_y
 _atom_site_fract_z
 _atom_site_occupancy
  Li  Li0  1  0.00009309  0.00096904  0.99836279  1
  Li  Li1  1  0.99987492  0.16577533  0.66831138  1
  Li  Li2  1  0.99803815  0.33435556  0.33407492  1
  Li  Li3  1  0.00199847  0.49811140  0.00008073  1
  Li  Li4  1  0.99799203  0.66854855  0.66666148  1
  Li  Li5  1  0.00202000  0.83231615  0.33258626  1
  Cr  Cr6  1  0.50099142  0.41790168  0.16683263  1
  Cr  Cr7  1  0.49998123  0.58334155  0.83327923  1
  Cr  Cr8  1  0.49899942  0.74876292  0.49981982  1
  Fe  Fe9  1  0.50000028  0.08333640  0.83334047  1
  Fe  Fe10  1  0.50024900  0.24870646  0.50001971  1
  Fe  Fe11  1  0.49977642  0.91794575  0.16663571  1
  O  O12  1  0.27111502  0.03500014  0.41576094  1
  O  O13  1  0.27262626  0.37054205  0.74881412  1
  O  O14  1  0.72890057  0.13166007  0.25091680  1
  O  O15  1  0.27244371  0.20584150  0.08250303  1
  O  O16  1  0.72765977  0.30009367  0.91977812  1
  O  O17  1  0.27465473  0.53604531  0.41287275  1
  O  O18  1  0.72527284  0.46529139  0.58621505  1
  O  O19  1  0.27231772  0.86656016  0.74687549  1
  O  O20  1  0.72734925  0.79610300  0.91783084  1
  O  O21  1  0.27473614  0.70136073  0.08044306  1
  O  O22  1  0.72534485  0.63061971  0.25381588  1
  O  O23  1  0.72756271  0.96081147  0.58416779  1
