# generated using pymatgen
data_LiV2BO5
_symmetry_space_group_name_H-M   'P 1'
_cell_length_a   9.31492282
_cell_length_b   12.40150316
_cell_length_c   3.05861262
_cell_angle_alpha   90.00002992
_cell_angle_beta   90.00002589
_cell_angle_gamma   89.99971310
_symmetry_Int_Tables_number   1
_chemical_formula_structural   LiV2BO5
_chemical_formula_sum   'Li4 V8 B4 O20'
_cell_volume   353.32800823
_cell_formula_units_Z   4
loop_
 _symmetry_equiv_pos_site_id
 _symmetry_equiv_pos_as_xyz
  1  'x, y, z'
loop_
 _atom_site_type_symbol
 _atom_site_label
 _atom_site_symmetry_multiplicity
 _atom_site_fract_x
 _atom_site_fract_y
 _atom_site_fract_z
 _atom_site_occupancy
  Li  Li0  1  0.00003982  0.00002070  0.00000131  1
  Li  Li1  1  0.00001951  0.49999118  0.50000055  1
  Li  Li2  1  0.49996896  0.50003293  0.00000088  1
  Li  Li3  1  0.49992610  0.99992269  0.50000137  1
  V  V4  1  0.00214337  0.28392668  0.00000128  1
  V  V5  1  0.24035942  0.10876355  0.50000243  1
  V  V6  1  0.25963207  0.60875098  0.49999948  1
  V  V7  1  0.49784534  0.78389776  0.99999648  1
  V  V8  1  0.50217408  0.21607526  0.00000187  1
  V  V9  1  0.74035466  0.39125207  0.50000161  1
  V  V10  1  0.75966541  0.89124652  0.49999895  1
  V  V11  1  0.99784605  0.71608284  0.99999964  1
  B  B12  1  0.22390578  0.86164433  0.49999897  1
  B  B13  1  0.27609562  0.36168999  0.50000034  1
  B  B14  1  0.72392491  0.63835410  0.49999715  1
  B  B15  1  0.77613273  0.13833672  0.50000079  1
  O  O16  1  0.11068073  0.15108326  0.00000238  1
  O  O17  1  0.11862316  0.58102788  0.99999943  1
  O  O18  1  0.12536128  0.35236088  0.50000091  1
  O  O19  1  0.14513408  0.76290684  0.49999842  1
  O  O20  1  0.15384523  0.95612549  0.50000243  1
  O  O21  1  0.34611037  0.45607909  0.49999987  1
  O  O22  1  0.35488033  0.26287784  0.50000245  1
  O  O23  1  0.37461841  0.85236386  0.49999494  1
  O  O24  1  0.38136612  0.08102104  0.00000185  1
  O  O25  1  0.38932222  0.65107439  0.99999934  1
  O  O26  1  0.61067308  0.34892118  0.00000130  1
  O  O27  1  0.61864276  0.91896503  0.99999690  1
  O  O28  1  0.62541320  0.14763689  0.50000117  1
  O  O29  1  0.64510496  0.73711513  0.49999447  1
  O  O30  1  0.65382484  0.54387845  0.49999966  1
  O  O31  1  0.84619973  0.04389967  0.50000230  1
  O  O32  1  0.85488606  0.23710848  0.49999970  1
  O  O33  1  0.87459010  0.64764809  0.49999840  1
  O  O34  1  0.88135906  0.41897890  0.00000070  1
  O  O35  1  0.88933147  0.84893931  0.99999825  1
