# generated using pymatgen
data_Li2CrFeO4
_symmetry_space_group_name_H-M   'P 1'
_cell_length_a   5.16771366
_cell_length_b   5.95173682
_cell_length_c   7.87606873
_cell_angle_alpha   79.12060974
_cell_angle_beta   70.95480013
_cell_angle_gamma   89.93773012
_symmetry_Int_Tables_number   1
_chemical_formula_structural   Li2CrFeO4
_chemical_formula_sum   'Li6 Cr3 Fe3 O12'
_cell_volume   224.38946152
_cell_formula_units_Z   3
loop_
 _symmetry_equiv_pos_site_id
 _symmetry_equiv_pos_as_xyz
  1  'x, y, z'
loop_
 _atom_site_type_symbol
 _atom_site_label
 _atom_site_symmetry_multiplicity
 _atom_site_fract_x
 _atom_site_fract_y
 _atom_site_fract_z
 _atom_site_occupancy
  Li  Li0  1  0.00243156  0.33502089  0.66555567  1
  Li  Li1  1  0.99759113  0.83161907  0.66782272  1
  Li  Li2  1  0.00100603  0.16821793  0.33274398  1
  Li  Li3  1  0.00016783  0.66642149  0.33323826  1
  Li  Li4  1  0.99899365  0.99853600  0.00056579  1
  Li  Li5  1  0.99983170  0.50019095  0.00009707  1
  Cr  Cr6  1  0.49999527  0.58335229  0.66664933  1
  Cr  Cr7  1  0.49950892  0.41764583  0.33388262  1
  Cr  Cr8  1  0.50051672  0.74901149  0.99943518  1
  Fe  Fe9  1  0.50001277  0.08334090  0.66666710  1
  Fe  Fe10  1  0.49941369  0.91755698  0.33297024  1
  Fe  Fe11  1  0.50054438  0.24911061  0.00036198  1
  O  O12  1  0.72926085  0.03819261  0.83919261  1
  O  O13  1  0.72553318  0.54005494  0.83791735  1
  O  O14  1  0.27132592  0.29417144  0.82826981  1
  O  O15  1  0.27547130  0.79241568  0.82782665  1
  O  O16  1  0.72453982  0.37425089  0.50550605  1
  O  O17  1  0.27076403  0.12846357  0.49414607  1
  O  O18  1  0.72866491  0.87248311  0.50506230  1
  O  O19  1  0.72799631  0.20861625  0.17307610  1
  O  O20  1  0.27444478  0.62659966  0.49541868  1
  O  O21  1  0.72544071  0.70647246  0.17119675  1
  O  O22  1  0.27453965  0.46019395  0.16214646  1
  O  O23  1  0.27200690  0.95806099  0.16025121  1
