# generated using pymatgen
data_Dy2WO6
_symmetry_space_group_name_H-M   'P 1'
_cell_length_a   5.28317145
_cell_length_b   9.15051524
_cell_length_c   10.00243283
_cell_angle_alpha   90.00000000
_cell_angle_beta   90.00000000
_cell_angle_gamma   90.00000000
_symmetry_Int_Tables_number   1
_chemical_formula_structural   Dy2WO6
_chemical_formula_sum   'Dy8 W4 O24'
_cell_volume   483.55502079
_cell_formula_units_Z   4
loop_
 _symmetry_equiv_pos_site_id
 _symmetry_equiv_pos_as_xyz
  1  'x, y, z'
loop_
 _atom_site_type_symbol
 _atom_site_label
 _atom_site_symmetry_multiplicity
 _atom_site_fract_x
 _atom_site_fract_y
 _atom_site_fract_z
 _atom_site_occupancy
  Dy  Dy0  1  0.01952692  0.39682106  0.03473673  1
  Dy  Dy1  1  0.03807460  0.28073740  0.62842873  1
  Dy  Dy2  1  0.46192540  0.71926260  0.12842873  1
  Dy  Dy3  1  0.48047308  0.60317894  0.53473673  1
  Dy  Dy4  1  0.51952692  0.10317894  0.96526327  1
  Dy  Dy5  1  0.53807460  0.21926260  0.37157127  1
  Dy  Dy6  1  0.96192540  0.78073740  0.87157127  1
  Dy  Dy7  1  0.98047308  0.89682106  0.46526327  1
  W  W8  1  0.03936211  0.00471383  0.15224068  1
  W  W9  1  0.46063789  0.99528617  0.65224068  1
  W  W10  1  0.53936211  0.49528517  0.84775932  1
  W  W11  1  0.96063789  0.50471383  0.34775932  1
  O  O12  1  0.08564370  0.65695365  0.46969433  1
  O  O13  1  0.17577317  0.54741349  0.20177839  1
  O  O14  1  0.18045970  0.86160272  0.68102935  1
  O  O15  1  0.19305429  0.85945032  0.26446367  1
  O  O16  1  0.23149082  0.38544697  0.43278595  1
  O  O17  1  0.25116109  0.08977003  0.50614863  1
  O  O18  1  0.24883891  0.91022997  0.00614863  1
  O  O19  1  0.26850918  0.61455303  0.93278595  1
  O  O20  1  0.30694571  0.14054968  0.76446367  1
  O  O21  1  0.31954030  0.13839728  0.18102935  1
  O  O22  1  0.32422683  0.45258651  0.70177839  1
  O  O23  1  0.41435630  0.34304635  0.96969433  1
  O  O24  1  0.58564370  0.84304635  0.53030567  1
  O  O25  1  0.67577317  0.95258651  0.79822161  1
  O  O26  1  0.68045970  0.63839728  0.31897065  1
  O  O27  1  0.69305429  0.64054968  0.73553633  1
  O  O28  1  0.73149082  0.11455303  0.56721405  1
  O  O29  1  0.75116109  0.41022997  0.49385137  1
  O  O30  1  0.74883891  0.58977003  0.99385137  1
  O  O31  1  0.76850918  0.88544697  0.06721405  1
  O  O32  1  0.80694571  0.35945032  0.23553633  1
  O  O33  1  0.81954030  0.36160272  0.81897065  1
  O  O34  1  0.82422683  0.04741349  0.29822161  1
  O  O35  1  0.91435630  0.15695365  0.03030567  1
