# generated using pymatgen
data_Li24Mn11CrO36
_symmetry_space_group_name_H-M   'P 1'
_cell_length_a   8.66458348
_cell_length_b   8.64625725
_cell_length_c   9.72499431
_cell_angle_alpha   90.13279195
_cell_angle_beta   98.36974133
_cell_angle_gamma   60.03217367
_symmetry_Int_Tables_number   1
_chemical_formula_structural   Li24Mn11CrO36
_chemical_formula_sum   'Li24 Mn11 Cr1 O36'
_cell_volume   622.32395646
_cell_formula_units_Z   1
loop_
 _symmetry_equiv_pos_site_id
 _symmetry_equiv_pos_as_xyz
  1  'x, y, z'
loop_
 _atom_site_type_symbol
 _atom_site_label
 _atom_site_symmetry_multiplicity
 _atom_site_fract_x
 _atom_site_fract_y
 _atom_site_fract_z
 _atom_site_occupancy
  Li  Li0  1  0.16307767  0.00381766  0.00012184  1
  Li  Li1  1  0.00137341  0.24922496  0.74822889  1
  Li  Li2  1  0.17048540  0.16256201  0.49832828  1
  Li  Li3  1  0.33446335  0.08287124  0.24828063  1
  Li  Li4  1  0.16752216  0.32444897  0.99874458  1
  Li  Li5  1  0.50108251  0.00405390  0.99980683  1
  Li  Li6  1  0.49797800  0.16492313  0.50001016  1
  Li  Li7  1  0.17189225  0.50282564  0.50328910  1
  Li  Li8  1  0.00061226  0.74948935  0.25156866  1
  Li  Li9  1  0.49716963  0.34292421  0.99936735  1
  Li  Li10  1  0.16520080  0.66529202  0.00067633  1
  Li  Li11  1  0.33212527  0.58526944  0.74816456  1
  Li  Li12  1  0.16209796  0.83143949  0.49766760  1
  Li  Li13  1  0.49897281  0.50206008  0.50111903  1
  Li  Li14  1  0.83786328  0.16999332  0.50068592  1
  Li  Li15  1  0.66950442  0.41581149  0.25166311  1
  Li  Li16  1  0.49982605  0.66418183  0.99949141  1
  Li  Li17  1  0.83055332  0.33397459  0.00271416  1
  Li  Li18  1  0.83490783  0.49325633  0.49865146  1
  Li  Li19  1  0.50023007  0.83930768  0.50088296  1
  Li  Li20  1  0.82696500  0.67372036  0.99880042  1
  Li  Li21  1  0.66586069  0.91712089  0.74856047  1
  Li  Li22  1  0.83382785  0.83250111  0.50002245  1
  Li  Li23  1  0.83618408  0.99431233  0.99956401  1
  Mn  Mn24  1  0.00163412  0.08180609  0.25027717  1
  Mn  Mn25  1  0.99981370  0.58321610  0.75061161  1
  Mn  Mn26  1  0.33368084  0.25057598  0.74995909  1
  Mn  Mn27  1  0.33651871  0.41589309  0.25169397  1
  Mn  Mn28  1  0.66815042  0.08394354  0.25044408  1
  Mn  Mn29  1  0.99949509  0.91774643  0.74987367  1
  Mn  Mn30  1  0.66689792  0.25075880  0.75075207  1
  Mn  Mn31  1  0.33475589  0.75004303  0.25010795  1
  Mn  Mn32  1  0.33365557  0.91578897  0.74974393  1
  Mn  Mn33  1  0.66725052  0.58365241  0.75056023  1
  Mn  Mn34  1  0.66577720  0.75074871  0.24807122  1
  Cr  Cr35  1  0.00245549  0.41895707  0.24950863  1
  O  O36  1  0.09487847  0.02372739  0.63731040  1
  O  O37  1  0.07031514  0.21355010  0.13559593  1
  O  O38  1  0.26406422  0.11815027  0.86338671  1
  O  O39  1  0.40450166  0.04767388  0.63594091  1
  O  O40  1  0.09459935  0.38135462  0.63798955  1
  O  O41  1  0.24301039  0.30930321  0.36384820  1
  O  O42  1  0.23894391  0.45214944  0.86258549  1
  O  O43  1  0.09782112  0.52103356  0.13809987  1
  O  O44  1  0.57211161  0.14369697  0.86227531  1
  O  O45  1  0.42927275  0.21459446  0.13860922  1
  O  O46  1  0.06913039  0.71540276  0.63589352  1
  O  O47  1  0.42761791  0.35922975  0.63855878  1
  O  O48  1  0.76091243  0.04948430  0.63812425  1
  O  O49  1  0.57481437  0.28603280  0.36281660  1
  O  O50  1  0.26389830  0.61921566  0.36479552  1
  O  O51  1  0.90631814  0.11946767  0.86246740  1
  O  O52  1  0.40504838  0.54797940  0.13670489  1
  O  O53  1  0.76318376  0.19000726  0.13805853  1
  O  O54  1  0.23860266  0.80899517  0.86155825  1
  O  O55  1  0.59606599  0.45306683  0.86461298  1
  O  O56  1  0.09525317  0.87873410  0.13866134  1
  O  O57  1  0.73789563  0.38162242  0.63698679  1
  O  O58  1  0.42845711  0.71370711  0.63780856  1
  O  O59  1  0.24077955  0.95218235  0.36201874  1
  O  O60  1  0.57358302  0.64287165  0.36183110  1
  O  O61  1  0.93290113  0.28253782  0.36454221  1
  O  O62  1  0.57208799  0.78627700  0.86200747  1
  O  O63  1  0.42691084  0.85883676  0.13746330  1
  O  O64  1  0.90590170  0.47637791  0.86291971  1
  O  O65  1  0.75878210  0.54952127  0.13639268  1
  O  O66  1  0.76124862  0.69094986  0.63844907  1
  O  O67  1  0.90494519  0.61749324  0.36087065  1
  O  O68  1  0.59801297  0.95231761  0.36358519  1
  O  O69  1  0.73765829  0.88186721  0.13557076  1
  O  O70  1  0.92904632  0.78653187  0.86397644  1
  O  O71  1  0.90727886  0.97474807  0.36266685  1
