# generated using pymatgen
data_CoH20IN6(ClO2)2
_symmetry_space_group_name_H-M   'P 1'
_cell_length_a   7.18046436
_cell_length_b   13.64220009
_cell_length_c   14.11556624
_cell_angle_alpha   90.00000000
_cell_angle_beta   90.00000000
_cell_angle_gamma   96.03561872
_symmetry_Int_Tables_number   1
_chemical_formula_structural   CoH20IN6(ClO2)2
_chemical_formula_sum   'Co4 H80 I4 N24 Cl8 O16'
_cell_volume   1375.05838190
_cell_formula_units_Z   4
loop_
 _symmetry_equiv_pos_site_id
 _symmetry_equiv_pos_as_xyz
  1  'x, y, z'
loop_
 _atom_site_type_symbol
 _atom_site_label
 _atom_site_symmetry_multiplicity
 _atom_site_fract_x
 _atom_site_fract_y
 _atom_site_fract_z
 _atom_site_occupancy
  Co  Co0  1  0.50000000  0.50000000  0.50000000  1
  Co  Co1  1  0.00000000  0.00000000  -0.00000000  1
  Co  Co2  1  0.00000000  0.00000000  0.50000000  1
  Co  Co3  1  0.50000000  0.50000000  -0.00000000  1
  H  H4  1  0.97311391  0.03911088  0.32600985  1
  H  H5  1  0.47311391  0.53911088  0.17399015  1
  H  H6  1  0.02688609  0.96088912  0.67399015  1
  H  H7  1  0.52688609  0.46088912  0.82600985  1
  H  H8  1  0.89076399  0.92093044  0.33680689  1
  H  H9  1  0.39076399  0.42093044  0.16319311  1
  H  H10  1  0.10923601  0.07906956  0.66319311  1
  H  H11  1  0.60923601  0.57906956  0.83680689  1
  H  H12  1  0.11812124  0.95594519  0.33909154  1
  H  H13  1  0.61812124  0.45594519  0.16090846  1
  H  H14  1  0.88187876  0.04405481  0.66090846  1
  H  H15  1  0.38187876  0.54405481  0.83909154  1
  H  H16  1  0.70668171  0.06222744  0.42862930  1
  H  H17  1  0.20668171  0.56222744  0.07137070  1
  H  H18  1  0.29331829  0.93777256  0.57137070  1
  H  H19  1  0.79331829  0.43777256  0.92862930  1
  H  H20  1  0.83218081  0.15672216  0.48036924  1
  H  H21  1  0.33218081  0.65672216  0.01963076  1
  H  H22  1  0.16781919  0.84327784  0.51963076  1
  H  H23  1  0.66781919  0.34327784  0.98036924  1
  H  H24  1  0.70211003  0.07385900  0.54440747  1
  H  H25  1  0.20211003  0.57385900  0.95559253  1
  H  H26  1  0.29788997  0.92614100  0.45559253  1
  H  H27  1  0.79788997  0.42614100  0.04440747  1
  H  H28  1  0.77194064  0.52716047  0.61766329  1
  H  H29  1  0.27194064  0.02716047  0.88233671  1
  H  H30  1  0.22805936  0.47283953  0.38233671  1
  H  H31  1  0.72805936  0.97283953  0.11766329  1
  H  H32  1  0.78716688  0.42465402  0.55710524  1
  H  H33  1  0.28716688  0.92465402  0.94289476  1
  H  H34  1  0.21283312  0.57534598  0.44289476  1
  H  H35  1  0.71283312  0.07534598  0.05710524  1
  H  H36  1  0.63785640  0.42465798  0.64706302  1
  H  H37  1  0.13785640  0.92465798  0.85293698  1
  H  H38  1  0.36214360  0.57534202  0.35293698  1
  H  H39  1  0.86214360  0.07534202  0.14706302  1
  H  H40  1  0.72430818  0.86502917  0.47267333  1
  H  H41  1  0.22430818  0.36502917  0.02732667  1
  H  H42  1  0.27569182  0.13497083  0.52732667  1
  H  H43  1  0.77569182  0.63497083  0.97267333  1
  H  H44  1  0.53633756  0.68622458  0.49548031  1
  H  H45  1  0.03633756  0.18622458  0.00451969  1
  H  H46  1  0.46366244  0.31377542  0.50451969  1
  H  H47  1  0.96366244  0.81377542  0.99548031  1
  H  H48  1  0.80406667  0.59320351  0.44740425  1
  H  H49  1  0.30406667  0.09320351  0.05259575  1
  H  H50  1  0.19593333  0.40679649  0.55259575  1
  H  H51  1  0.69593333  0.90679649  0.94740425  1
  H  H52  1  0.72816996  0.90674400  0.58299733  1
  H  H53  1  0.22816996  0.40674400  0.91700267  1
  H  H54  1  0.27183004  0.09325600  0.41700267  1
  H  H55  1  0.77183004  0.59325600  0.08299733  1
  H  H56  1  0.65624655  0.58694252  0.35574311  1
  H  H57  1  0.15624655  0.08694252  0.14425689  1
  H  H58  1  0.34375345  0.41305748  0.64425689  1
  H  H59  1  0.84375345  0.91305748  0.85574311  1
  H  H60  1  0.38264297  0.65077414  0.57759470  1
  H  H61  1  0.88264297  0.15077414  0.92240530  1
  H  H62  1  0.61735703  0.34922586  0.42240530  1
  H  H63  1  0.11735703  0.84922586  0.07759470  1
  H  H64  1  0.77093686  0.49162745  0.38446095  1
  H  H65  1  0.27093686  0.99162745  0.11553905  1
  H  H66  1  0.22906314  0.50837255  0.61553905  1
  H  H67  1  0.72906314  0.00837255  0.88446095  1
  H  H68  1  0.60796946  0.65185125  0.60243868  1
  H  H69  1  0.10796946  0.15185125  0.89756132  1
  H  H70  1  0.39203054  0.34814875  0.39756132  1
  H  H71  1  0.89203054  0.84814875  0.10243868  1
  H  H72  1  0.87394332  0.82668620  0.54883485  1
  H  H73  1  0.37394332  0.32668620  0.95116515  1
  H  H74  1  0.12605668  0.17331380  0.45116515  1
  H  H75  1  0.62605668  0.67331380  0.04883485  1
  H  H76  1  0.07589888  0.66567005  0.24768232  1
  H  H77  1  0.57589888  0.16567005  0.25231768  1
  H  H78  1  0.92410112  0.33432995  0.75231768  1
  H  H79  1  0.42410112  0.83432995  0.74768232  1
  H  H80  1  0.98057343  0.76084052  0.26506715  1
  H  H81  1  0.48057343  0.26084052  0.23493285  1
  H  H82  1  0.01942657  0.23915948  0.73493285  1
  H  H83  1  0.51942657  0.73915948  0.76506715  1
  I  I84  1  0.52863524  0.78413295  0.27544675  1
  I  I85  1  0.02863524  0.28413295  0.22455325  1
  I  I86  1  0.47136476  0.21586705  0.72455325  1
  I  I87  1  0.97136476  0.71586705  0.77544675  1
  N  N88  1  0.70266307  0.54744424  0.41221187  1
  N  N89  1  0.20266307  0.04744424  0.08778813  1
  N  N90  1  0.29733693  0.45255576  0.58778813  1
  N  N91  1  0.79733693  0.95255576  0.91221187  1
  N  N92  1  0.50927650  0.63557905  0.55012485  1
  N  N93  1  0.00927650  0.13557905  0.94987515  1
  N  N94  1  0.49072350  0.36442095  0.44987515  1
  N  N95  1  0.99072350  0.86442095  0.05012485  1
  N  N96  1  0.69400138  0.46606551  0.59045454  1
  N  N97  1  0.19400138  0.96606551  0.90954546  1
  N  N98  1  0.30599862  0.53393449  0.40954546  1
  N  N99  1  0.80599862  0.03393449  0.09045454  1
  N  N100  1  0.81326049  0.88828537  0.52810812  1
  N  N101  1  0.31326049  0.38828537  0.97189188  1
  N  N102  1  0.18673951  0.11171463  0.47189188  1
  N  N103  1  0.68673951  0.61171463  0.02810812  1
  N  N104  1  0.79030851  0.08225278  0.48661423  1
  N  N105  1  0.29030851  0.58225278  0.01338577  1
  N  N106  1  0.20969149  0.91774722  0.51338577  1
  N  N107  1  0.70969149  0.41774722  0.98661423  1
  N  N108  1  0.99060205  0.97465762  0.36219786  1
  N  N109  1  0.49060205  0.47465762  0.13780214  1
  N  N110  1  0.00939795  0.02534238  0.63780214  1
  N  N111  1  0.50939795  0.52534238  0.86219786  1
  Cl  Cl112  1  0.03602217  0.66882911  0.54780983  1
  Cl  Cl113  1  0.53602217  0.16882911  0.95219017  1
  Cl  Cl114  1  0.96397783  0.33117089  0.45219017  1
  Cl  Cl115  1  0.46397783  0.83117089  0.04780983  1
  Cl  Cl116  1  0.46145535  0.01166419  0.31903393  1
  Cl  Cl117  1  0.96145535  0.51166419  0.18096607  1
  Cl  Cl118  1  0.53854465  0.98833581  0.68096607  1
  Cl  Cl119  1  0.03854465  0.48833581  0.81903393  1
  O  O120  1  0.77261149  0.82453945  0.24238333  1
  O  O121  1  0.27261149  0.32453945  0.25761667  1
  O  O122  1  0.22738851  0.17546055  0.75761667  1
  O  O123  1  0.72738851  0.67546055  0.74238333  1
  O  O124  1  0.51821591  0.64998792  0.25663362  1
  O  O125  1  0.01821591  0.14998792  0.24336638  1
  O  O126  1  0.48178409  0.35001208  0.74336638  1
  O  O127  1  0.98178409  0.85001208  0.75663362  1
  O  O128  1  0.55206193  0.78378546  0.40462740  1
  O  O129  1  0.05206193  0.28378546  0.09537260  1
  O  O130  1  0.44793807  0.21621454  0.59537260  1
  O  O131  1  0.94793807  0.71621454  0.90462740  1
  O  O132  1  0.10419664  0.73440456  0.26842575  1
  O  O133  1  0.60419664  0.23440456  0.23157425  1
  O  O134  1  0.89580336  0.26559544  0.73157425  1
  O  O135  1  0.39580336  0.76559544  0.76842575  1
