# generated using pymatgen
data_Li2CrFeO4
_symmetry_space_group_name_H-M   'P 1'
_cell_length_a   5.16426736
_cell_length_b   5.95235356
_cell_length_c   7.87088466
_cell_angle_alpha   79.12413074
_cell_angle_beta   77.32721045
_cell_angle_gamma   73.34249082
_symmetry_Int_Tables_number   1
_chemical_formula_structural   Li2CrFeO4
_chemical_formula_sum   'Li6 Cr3 Fe3 O12'
_cell_volume   224.08993467
_cell_formula_units_Z   3
loop_
 _symmetry_equiv_pos_site_id
 _symmetry_equiv_pos_as_xyz
  1  'x, y, z'
loop_
 _atom_site_type_symbol
 _atom_site_label
 _atom_site_symmetry_multiplicity
 _atom_site_fract_x
 _atom_site_fract_y
 _atom_site_fract_z
 _atom_site_occupancy
  Li  Li0  1  0.99992219  0.00005138  0.00006005  1
  Li  Li1  1  0.00183143  0.16463064  0.33345060  1
  Li  Li2  1  0.00006931  0.49986596  0.00004880  1
  Li  Li3  1  0.00192677  0.33076229  0.66767286  1
  Li  Li4  1  0.99816693  0.66911478  0.33231350  1
  Li  Li5  1  0.99807088  0.83545167  0.66644246  1
  Cr  Cr6  1  0.50008831  0.00001551  0.49997374  1
  Cr  Cr7  1  0.49923661  0.16537025  0.83317417  1
  Cr  Cr8  1  0.50074253  0.83463039  0.16685865  1
  Fe  Fe9  1  0.49954373  0.33471532  0.16644255  1
  Fe  Fe10  1  0.49999154  0.50002987  0.50000648  1
  Fe  Fe11  1  0.50040504  0.66538358  0.83358636  1
  O  O12  1  0.72558025  0.00613891  0.25343362  1
  O  O13  1  0.27335666  0.16037064  0.08019707  1
  O  O14  1  0.27086197  0.32719950  0.41501136  1
  O  O15  1  0.72501478  0.17177300  0.58611373  1
  O  O16  1  0.27250678  0.66349848  0.08225936  1
  O  O17  1  0.72951092  0.50658480  0.25059508  1
  O  O18  1  0.27051547  0.49335635  0.74942188  1
  O  O19  1  0.72739581  0.33653661  0.91778585  1
  O  O20  1  0.27498268  0.82825555  0.41389874  1
  O  O21  1  0.72914795  0.67283074  0.58492483  1
  O  O22  1  0.72664779  0.83959486  0.91979445  1
  O  O23  1  0.27448268  0.99383793  0.74653181  1
