# generated using pymatgen
data_Li4Cr3FeO8
_symmetry_space_group_name_H-M   'P 1'
_cell_length_a   5.14616338
_cell_length_b   5.95423383
_cell_length_c   10.73442855
_cell_angle_alpha   106.10994556
_cell_angle_beta   85.40046587
_cell_angle_gamma   73.18081995
_symmetry_Int_Tables_number   1
_chemical_formula_structural   Li4Cr3FeO8
_chemical_formula_sum   'Li8 Cr6 Fe2 O16'
_cell_volume   297.84329638
_cell_formula_units_Z   2
loop_
 _symmetry_equiv_pos_site_id
 _symmetry_equiv_pos_as_xyz
  1  'x, y, z'
loop_
 _atom_site_type_symbol
 _atom_site_label
 _atom_site_symmetry_multiplicity
 _atom_site_fract_x
 _atom_site_fract_y
 _atom_site_fract_z
 _atom_site_occupancy
  Li  Li0  1  0.00046453  0.12506787  0.74906310  1
  Li  Li1  1  0.00015721  0.99963349  0.00003331  1
  Li  Li2  1  -0.00007195  0.24976894  0.50052924  1
  Li  Li3  1  0.00010043  0.37507345  0.25028150  1
  Li  Li4  1  0.00152038  0.62371483  0.74966351  1
  Li  Li5  1  0.99877680  0.50075362  0.00008870  1
  Li  Li6  1  0.99883798  0.75090871  0.50012642  1
  Li  Li7  1  0.00019234  0.87508798  0.25006348  1
  Cr  Cr8  1  0.50007577  0.31226230  0.37521500  1
  Cr  Cr9  1  0.50011699  0.56243734  0.87471804  1
  Cr  Cr10  1  0.50013443  0.43771525  0.12524917  1
  Cr  Cr11  1  0.49987844  0.68708217  0.62476734  1
  Cr  Cr12  1  0.50008257  0.81299730  0.37531956  1
  Cr  Cr13  1  0.49989220  0.93759083  0.12517839  1
  Fe  Fe14  1  0.49999688  0.06280258  0.87481998  1
  Fe  Fe15  1  0.50012769  0.18696475  0.62489947  1
  O  O16  1  0.27626066  0.08593286  0.31044027  1
  O  O17  1  0.72759928  0.03726452  0.43804069  1
  O  O18  1  0.27057715  0.33943231  0.81142493  1
  O  O19  1  0.72603762  0.29001934  0.93988686  1
  O  O20  1  0.72366221  0.16390805  0.18980249  1
  O  O21  1  0.27356110  0.21257719  0.06174937  1
  O  O22  1  0.27339672  0.46349514  0.55973694  1
  O  O23  1  0.72677846  0.41500567  0.68972812  1
  O  O24  1  0.27661838  0.58642624  0.31051773  1
  O  O25  1  0.72363355  0.53884284  0.43987597  1
  O  O26  1  0.27362719  0.83510522  0.80984151  1
  O  O27  1  0.72569679  0.78713309  0.93995731  1
  O  O28  1  0.27644041  0.71106574  0.06004535  1
  O  O29  1  0.27284331  0.95968202  0.56010243  1
  O  O30  1  0.72364595  0.66431585  0.19009788  1
  O  O31  1  0.72933852  0.90993148  0.68873795  1
