# generated using pymatgen
data_Gd3TaO7
_symmetry_space_group_name_H-M   'P 1'
_cell_length_a   6.54887831
_cell_length_b   6.54887831
_cell_length_c   7.58986929
_cell_angle_alpha   90.00000000
_cell_angle_beta   90.00000000
_cell_angle_gamma   109.38931745
_symmetry_Int_Tables_number   1
_chemical_formula_structural   Gd3TaO7
_chemical_formula_sum   'Gd6 Ta2 O14'
_cell_volume   307.05124903
_cell_formula_units_Z   2
loop_
 _symmetry_equiv_pos_site_id
 _symmetry_equiv_pos_as_xyz
  1  'x, y, z'
loop_
 _atom_site_type_symbol
 _atom_site_label
 _atom_site_symmetry_multiplicity
 _atom_site_fract_x
 _atom_site_fract_y
 _atom_site_fract_z
 _atom_site_occupancy
  Gd  Gd0  1  0.00028881  0.46616136  0.49735083  1
  Gd  Gd1  1  0.53383864  0.99971119  0.50264917  1
  Gd  Gd2  1  0.48091942  0.48091942  0.75000000  1
  Gd  Gd3  1  0.51908058  0.51908058  0.25000000  1
  Gd  Gd4  1  0.99971119  0.53383864  0.99735083  1
  Gd  Gd5  1  0.46616136  0.00028881  0.00264917  1
  Ta  Ta6  1  0.00144881  0.00144881  0.25000000  1
  Ta  Ta7  1  0.99855119  0.99855119  0.75000000  1
  O  O8  1  0.06271689  0.93728311  0.00000000  1
  O  O9  1  0.36246578  0.63753422  0.00000000  1
  O  O10  1  0.06082019  0.31254895  0.21439060  1
  O  O11  1  0.68745105  0.93917981  0.78560940  1
  O  O12  1  0.37131390  0.62868610  0.50000000  1
  O  O13  1  0.67708779  0.92218691  0.22168916  1
  O  O14  1  0.07781309  0.32291221  0.77831084  1
  O  O15  1  0.32291221  0.07781309  0.72168916  1
  O  O16  1  0.92218691  0.67708779  0.27831084  1
  O  O17  1  0.62868610  0.37131390  0.00000000  1
  O  O18  1  0.93917981  0.68745105  0.71439060  1
  O  O19  1  0.31254895  0.06082019  0.28560940  1
  O  O20  1  0.63753422  0.36246578  0.50000000  1
  O  O21  1  0.93728311  0.06271689  0.50000000  1
