# generated using pymatgen
data_CdH12C4I2(NO)4
_symmetry_space_group_name_H-M   'P 1'
_cell_length_a   7.98244679
_cell_length_b   7.98244679
_cell_length_c   14.70014394
_cell_angle_alpha   99.19169441
_cell_angle_beta   99.19169441
_cell_angle_gamma   114.30952543
_symmetry_Int_Tables_number   1
_chemical_formula_structural   CdH12C4I2(NO)4
_chemical_formula_sum   'Cd2 H24 C8 I4 N8 O8'
_cell_volume   815.77178586
_cell_formula_units_Z   2
loop_
 _symmetry_equiv_pos_site_id
 _symmetry_equiv_pos_as_xyz
  1  'x, y, z'
loop_
 _atom_site_type_symbol
 _atom_site_label
 _atom_site_symmetry_multiplicity
 _atom_site_fract_x
 _atom_site_fract_y
 _atom_site_fract_z
 _atom_site_occupancy
  Cd  Cd0  1  0.80670767  0.30670767  0.50000000  1
  Cd  Cd1  1  0.55670767  0.55670767  0.00000000  1
  H  H2  1  0.48248977  0.99601130  0.73521149  1
  H  H3  1  0.26079981  0.74727827  0.26478851  1
  H  H4  1  0.24601130  0.23248977  0.23521149  1
  H  H5  1  0.99727827  0.01079981  0.76478851  1
  H  H6  1  0.70226829  0.06279005  0.81087142  1
  H  H7  1  0.25191863  0.89139687  0.18912858  1
  H  H8  1  0.31279005  0.45226829  0.31087142  1
  H  H9  1  0.14139687  0.00191863  0.68912858  1
  H  H10  1  0.38626469  0.62804483  0.51524908  1
  H  H11  1  0.11279575  0.87101561  0.48475092  1
  H  H12  1  0.87804483  0.13626469  0.01524908  1
  H  H13  1  0.12101561  0.86279575  0.98475092  1
  H  H14  1  0.53251354  0.80034759  0.46464458  1
  H  H15  1  0.33570301  0.06786896  0.53535542  1
  H  H16  1  0.05034759  0.28251354  0.96464458  1
  H  H17  1  0.31786896  0.08570301  0.03535542  1
  H  H18  1  0.86817214  0.21132075  0.70808138  1
  H  H19  1  0.50323937  0.16009077  0.29191862  1
  H  H20  1  0.46132075  0.61817214  0.20808138  1
  H  H21  1  0.41009077  0.25323937  0.79191862  1
  H  H22  1  0.73518184  0.66515128  0.45317216  1
  H  H23  1  0.21197913  0.28200968  0.54682784  1
  H  H24  1  0.91515128  0.48518184  0.95317216  1
  H  H25  1  0.53200968  0.96197913  0.04682784  1
  C  C26  1  0.71153856  0.14652582  0.68609053  1
  C  C27  1  0.46043528  0.02544802  0.31390947  1
  C  C28  1  0.39652582  0.46153856  0.18609053  1
  C  C29  1  0.27544802  0.21043528  0.81390947  1
  C  C30  1  0.61256146  0.59234583  0.48212250  1
  C  C31  1  0.11022333  0.13043896  0.51787750  1
  C  C32  1  0.84234583  0.36256146  0.98212250  1
  C  C33  1  0.38043896  0.86022333  0.01787750  1
  I  I34  1  0.11460848  0.58309185  0.65373102  1
  I  I35  1  0.92936084  0.46087747  0.34626898  1
  I  I36  1  0.83309185  0.86460848  0.15373102  1
  I  I37  1  0.71087747  0.67936084  0.84626898  1
  N  N38  1  0.62615610  0.07172394  0.75102952  1
  N  N39  1  0.32069443  0.87512658  0.24897048  1
  N  N40  1  0.32172394  0.37615610  0.25102952  1
  N  N41  1  0.12512658  0.07069443  0.74897048  1
  N  N42  1  0.49807692  0.67614902  0.48483159  1
  N  N43  1  0.19131743  0.01324533  0.51516841  1
  N  N44  1  0.92614902  0.24807692  0.98483159  1
  N  N45  1  0.26324533  0.94131743  0.01516841  1
  O  O46  1  0.62618111  0.14675397  0.60718927  1
  O  O47  1  0.53956470  0.01899183  0.39281073  1
  O  O48  1  0.39675397  0.37618111  0.10718927  1
  O  O49  1  0.26899183  0.28956470  0.89281073  1
  O  O50  1  0.58410970  0.44225850  0.50717047  1
  O  O51  1  0.93508803  0.07693923  0.49282953  1
  O  O52  1  0.69225850  0.33410970  0.00717047  1
  O  O53  1  0.32693923  0.68508803  0.99282953  1
