# generated using pymatgen
data_Li24Mn11CrO36
_symmetry_space_group_name_H-M   'P 1'
_cell_length_a   8.66726581
_cell_length_b   8.64537399
_cell_length_c   10.55503350
_cell_angle_alpha   114.06100106
_cell_angle_beta   97.50901435
_cell_angle_gamma   60.09399838
_symmetry_Int_Tables_number   1
_chemical_formula_structural   Li24Mn11CrO36
_chemical_formula_sum   'Li24 Mn11 Cr1 O36'
_cell_volume   623.38528087
_cell_formula_units_Z   1
loop_
 _symmetry_equiv_pos_site_id
 _symmetry_equiv_pos_as_xyz
  1  'x, y, z'
loop_
 _atom_site_type_symbol
 _atom_site_label
 _atom_site_symmetry_multiplicity
 _atom_site_fract_x
 _atom_site_fract_y
 _atom_site_fract_z
 _atom_site_occupancy
  Li  Li0  1  0.16773122  0.00578379  0.00128698  1
  Li  Li1  1  0.08519073  0.08207997  0.74848017  1
  Li  Li2  1  0.99849917  0.49883688  0.49895706  1
  Li  Li3  1  0.33621621  0.16810410  0.49850029  1
  Li  Li4  1  0.24967571  0.25008806  0.25098981  1
  Li  Li5  1  0.49887010  0.33958265  0.99819908  1
  Li  Li6  1  0.16604675  0.32480195  0.99700632  1
  Li  Li7  1  0.49817207  0.00379847  0.00048457  1
  Li  Li8  1  0.41814199  0.41590668  0.75094701  1
  Li  Li9  1  0.33034234  0.49658076  0.50029959  1
  Li  Li10  1  0.66361807  0.16652984  0.50051662  1
  Li  Li11  1  0.00005853  0.83615995  0.49975182  1
  Li  Li12  1  0.16658264  0.66537592  0.99871145  1
  Li  Li13  1  0.99828786  0.16126029  0.49790165  1
  Li  Li14  1  0.33501104  0.83007490  0.49880269  1
  Li  Li15  1  0.66678778  0.50095637  0.49812635  1
  Li  Li16  1  0.58239787  0.58330162  0.24699583  1
  Li  Li17  1  0.83263902  0.66883888  0.99691571  1
  Li  Li18  1  0.50407467  0.66130307  0.00150016  1
  Li  Li19  1  0.83199256  0.33369093  0.99897655  1
  Li  Li20  1  0.75001323  0.74997478  0.75114635  1
  Li  Li21  1  0.66664673  0.82417231  0.49993555  1
  Li  Li22  1  0.91631046  0.91961466  0.25121861  1
  Li  Li23  1  0.83685221  0.99370783  0.00111838  1
  Mn  Mn24  1  0.08375366  0.41554362  0.74889457  1
  Mn  Mn25  1  0.41728449  0.08292788  0.74867324  1
  Mn  Mn26  1  0.08315501  0.75063413  0.74983200  1
  Mn  Mn27  1  0.75013459  0.08266280  0.74947006  1
  Mn  Mn28  1  0.25104690  0.58274843  0.25135142  1
  Mn  Mn29  1  0.58284954  0.25043783  0.24928561  1
  Mn  Mn30  1  0.41680785  0.74935308  0.74964538  1
  Mn  Mn31  1  0.75000202  0.41688781  0.74941457  1
  Mn  Mn32  1  0.24906248  0.91682418  0.24920430  1
  Mn  Mn33  1  0.91594299  0.24884702  0.24836304  1
  Mn  Mn34  1  0.58118155  0.91653641  0.24763899  1
  Cr  Cr35  1  0.91585630  0.58686962  0.24881943  1
  O  O36  1  0.30903796  0.02730114  0.86290144  1
  O  O37  1  0.21596539  0.13968784  0.63672250  1
  O  O38  1  0.11742916  0.19262621  0.36041554  1
  O  O39  1  0.28507029  0.35914329  0.86097488  1
  O  O40  1  0.02236848  0.30451638  0.13432091  1
  O  O41  1  0.61792931  0.04997208  0.86098900  1
  O  O42  1  0.19051893  0.47311255  0.63585028  1
  O  O43  1  0.54921347  0.11521980  0.63657084  1
  O  O44  1  0.12150548  0.54961619  0.36306541  1
  O  O45  1  0.47499008  0.19374492  0.36306705  1
  O  O46  1  0.95098357  0.02666647  0.86138130  1
  O  O47  1  0.04998975  0.61155772  0.13782310  1
  O  O48  1  0.28442859  0.71738117  0.86155501  1
  O  O49  1  0.64145137  0.36089610  0.86332123  1
  O  O50  1  0.38156111  0.30737890  0.13776337  1
  O  O51  1  0.21539258  0.78328157  0.63796531  1
  O  O52  1  0.85727075  0.13956062  0.63542685  1
  O  O53  1  0.54842455  0.47329062  0.63794119  1
  O  O54  1  0.45234224  0.52673858  0.36170219  1
  O  O55  1  0.14109253  0.86126338  0.36405345  1
  O  O56  1  0.78420017  0.21535995  0.36082691  1
  O  O57  1  0.61830089  0.69320445  0.86128621  1
  O  O58  1  0.35628421  0.63998354  0.13564513  1
  O  O59  1  0.71404134  0.28320261  0.13700951  1
  O  O60  1  0.95216562  0.38219065  0.86095888  1
  O  O61  1  0.04764697  0.97164632  0.13746038  1
  O  O62  1  0.52488677  0.80513858  0.63506384  1
  O  O63  1  0.88176895  0.44981760  0.63759529  1
  O  O64  1  0.45128671  0.88231491  0.36016582  1
  O  O65  1  0.81003748  0.52467268  0.36222340  1
  O  O66  1  0.37996743  0.95120868  0.13719677  1
  O  O67  1  0.97543324  0.69361198  0.86373910  1
  O  O68  1  0.71106550  0.64256615  0.13496352  1
  O  O69  1  0.88169982  0.80701932  0.63766049  1
  O  O70  1  0.78241382  0.85695165  0.36095164  1
  O  O71  1  0.69130912  0.97286991  0.13546206  1
