# generated using pymatgen
data_Sb4I2O5
_symmetry_space_group_name_H-M   'P 1'
_cell_length_a   5.29847634
_cell_length_b   7.09031301
_cell_length_c   13.97119249
_cell_angle_alpha   95.78132689
_cell_angle_beta   90.00000000
_cell_angle_gamma   90.00000000
_symmetry_Int_Tables_number   1
_chemical_formula_structural   Sb4I2O5
_chemical_formula_sum   'Sb8 I4 O10'
_cell_volume   522.19805164
_cell_formula_units_Z   2
loop_
 _symmetry_equiv_pos_site_id
 _symmetry_equiv_pos_as_xyz
  1  'x, y, z'
loop_
 _atom_site_type_symbol
 _atom_site_label
 _atom_site_symmetry_multiplicity
 _atom_site_fract_x
 _atom_site_fract_y
 _atom_site_fract_z
 _atom_site_occupancy
  Sb  Sb0  1  0.60772036  0.18014371  0.29536202  1
  Sb  Sb1  1  0.10772036  0.81985629  0.20463798  1
  Sb  Sb2  1  0.39227964  0.81985629  0.70463798  1
  Sb  Sb3  1  0.89227964  0.18014371  0.79536202  1
  Sb  Sb4  1  0.72148866  0.83571863  0.45247457  1
  Sb  Sb5  1  0.22148866  0.16428137  0.04752543  1
  Sb  Sb6  1  0.27851134  0.16428137  0.54752543  1
  Sb  Sb7  1  0.77851134  0.83571863  0.95247457  1
  I  I8  1  0.70359305  0.50017346  0.11814894  1
  I  I9  1  0.20359305  0.49982654  0.38185106  1
  I  I10  1  0.29640695  0.49982654  0.88185106  1
  I  I11  1  0.79640695  0.50017346  0.61814894  1
  O  O12  1  0.50440062  0.93445843  0.58113665  1
  O  O13  1  0.00440062  0.06554157  0.91886335  1
  O  O14  1  0.49559938  0.06554157  0.41886435  1
  O  O15  1  0.99559938  0.93445843  0.08113665  1
  O  O16  1  0.82638962  0.93313421  0.28910355  1
  O  O17  1  0.32638962  0.06686579  0.21089645  1
  O  O18  1  0.17361038  0.06686579  0.71089645  1
  O  O19  1  0.67361038  0.93313421  0.78910355  1
  O  O20  1  0.50000000  0.00000000  0.00000000  1
  O  O21  1  0.00000000  0.00000000  0.50000000  1
