# generated using pymatgen
data_Sr3(AsO4)2
_symmetry_space_group_name_H-M   'P 1'
_cell_length_a   9.96206493
_cell_length_b   12.35355353
_cell_length_c   7.15942360
_cell_angle_alpha   90.00000000
_cell_angle_beta   97.09400463
_cell_angle_gamma   90.00000000
_symmetry_Int_Tables_number   1
_chemical_formula_structural   Sr3(AsO4)2
_chemical_formula_sum   'Sr12 As8 O32'
_cell_volume   874.34323760
_cell_formula_units_Z   4
loop_
 _symmetry_equiv_pos_site_id
 _symmetry_equiv_pos_as_xyz
  1  'x, y, z'
loop_
 _atom_site_type_symbol
 _atom_site_label
 _atom_site_symmetry_multiplicity
 _atom_site_fract_x
 _atom_site_fract_y
 _atom_site_fract_z
 _atom_site_occupancy
  Sr  Sr0  1  0.05286048  0.62149339  0.67958615  1
  Sr  Sr1  1  0.05286048  0.87850661  0.17958615  1
  Sr  Sr2  1  0.29739363  0.89910249  0.66529927  1
  Sr  Sr3  1  0.33140281  0.32845033  0.62810287  1
  Sr  Sr4  1  0.29739363  0.60089751  0.16529927  1
  Sr  Sr5  1  0.33140281  0.17154967  0.12810287  1
  Sr  Sr6  1  0.66859719  0.82845033  0.87189713  1
  Sr  Sr7  1  0.70260637  0.39910249  0.83470073  1
  Sr  Sr8  1  0.66859719  0.67154967  0.37189713  1
  Sr  Sr9  1  0.70260637  0.10089751  0.33470073  1
  Sr  Sr10  1  0.94713952  0.12149339  0.82041385  1
  Sr  Sr11  1  0.94713952  0.37850661  0.32041385  1
  As  As12  1  0.07876162  0.36296947  0.89427897  1
  As  As13  1  0.07876162  0.13703053  0.39427897  1
  As  As14  1  0.39924252  0.60284320  0.68600967  1
  As  As15  1  0.39924252  0.89715680  0.18601067  1
  As  As16  1  0.60075748  0.10284320  0.81399033  1
  As  As17  1  0.60075748  0.39715680  0.31398933  1
  As  As18  1  0.92123838  0.86296947  0.60572103  1
  As  As19  1  0.92123838  0.63703053  0.10572103  1
  O  O20  1  0.07240279  0.81097690  0.55116123  1
  O  O21  1  0.06880726  0.42220147  0.67437245  1
  O  O22  1  0.07240279  0.68902310  0.05116223  1
  O  O23  1  0.14271070  0.05496791  0.57517307  1
  O  O24  1  0.06880726  0.07779853  0.17437245  1
  O  O25  1  0.17998760  0.25133233  0.86842119  1
  O  O26  1  0.14271070  0.44503209  0.07517307  1
  O  O27  1  0.28338849  0.93786508  0.99956254  1
  O  O28  1  0.17998760  0.24866767  0.36842119  1
  O  O29  1  0.30012758  0.66630757  0.83451109  1
  O  O30  1  0.28338849  0.56213492  0.49956254  1
  O  O31  1  0.30012758  0.83369243  0.33451109  1
  O  O32  1  0.47132754  0.48415064  0.77695790  1
  O  O33  1  0.48080811  0.19626879  0.86430201  1
  O  O34  1  0.47132754  0.01584936  0.27695790  1
  O  O35  1  0.48080811  0.30373121  0.36430201  1
  O  O36  1  0.51919189  0.69626879  0.63569799  1
  O  O37  1  0.52867246  0.98415064  0.72304210  1
  O  O38  1  0.51919189  0.80373121  0.13569799  1
  O  O39  1  0.52867246  0.51584936  0.22304210  1
  O  O40  1  0.69987242  0.16630757  0.66548891  1
  O  O41  1  0.71661151  0.43786508  0.50043746  1
  O  O42  1  0.69987242  0.33369243  0.16548891  1
  O  O43  1  0.82001240  0.75133233  0.63157881  1
  O  O44  1  0.71661151  0.06213492  0.00043746  1
  O  O45  1  0.85728930  0.55496791  0.92482693  1
  O  O46  1  0.82001240  0.74866767  0.13157881  1
  O  O47  1  0.93119274  0.92220147  0.82562755  1
  O  O48  1  0.85728930  0.94503209  0.42482693  1
  O  O49  1  0.92759721  0.31097690  0.94883877  1
  O  O50  1  0.93119274  0.57779853  0.32562755  1
  O  O51  1  0.92759721  0.18902310  0.44883777  1
