# generated using pymatgen
data_MnV4CoO12
_symmetry_space_group_name_H-M   'P 1'
_cell_length_a   6.83820269
_cell_length_b   6.83820212
_cell_length_c   5.88451850
_cell_angle_alpha   74.81025638
_cell_angle_beta   105.18974555
_cell_angle_gamma   95.87453613
_symmetry_Int_Tables_number   1
_chemical_formula_structural   MnV4CoO12
_chemical_formula_sum   'Mn1 V4 Co1 O12'
_cell_volume   256.10736937
_cell_formula_units_Z   1
loop_
 _symmetry_equiv_pos_site_id
 _symmetry_equiv_pos_as_xyz
  1  'x, y, z'
loop_
 _atom_site_type_symbol
 _atom_site_label
 _atom_site_symmetry_multiplicity
 _atom_site_fract_x
 _atom_site_fract_y
 _atom_site_fract_z
 _atom_site_occupancy
  Mn  Mn0  1  0.91477641  0.91477641  0.25000000  1
  V  V1  1  0.20586019  0.60939124  0.76678005  1
  V  V2  1  0.38786121  0.79376780  0.26312096  1
  V  V3  1  0.60939124  0.20586019  0.73321995  1
  V  V4  1  0.79376780  0.38786121  0.23687904  1
  Co  Co5  1  0.08839494  0.08839494  0.75000000  1
  O  O6  1  0.03676863  0.80177699  0.65226742  1
  O  O7  1  0.09086999  0.37766307  0.79239650  1
  O  O8  1  0.19937406  0.96467084  0.13866869  1
  O  O9  1  0.36001599  0.64333025  0.55496898  1
  O  O10  1  0.37766307  0.09086999  0.70760350  1
  O  O11  1  0.36093699  0.63535090  0.05606462  1
  O  O12  1  0.64333025  0.36001599  0.94503102  1
  O  O13  1  0.61691590  0.91227560  0.29265274  1
  O  O14  1  0.63535090  0.36093699  0.44393538  1
  O  O15  1  0.80177699  0.03676863  0.84773258  1
  O  O16  1  0.91227560  0.61691590  0.20734726  1
  O  O17  1  0.96467084  0.19937406  0.36133131  1
