# generated using pymatgen
data_Li24Mn11CrO36
_symmetry_space_group_name_H-M   'P 1'
_cell_length_a   5.00630967
_cell_length_b   13.20537684
_cell_length_c   9.72552075
_cell_angle_alpha   91.78833063
_cell_angle_beta   99.49783819
_cell_angle_gamma   79.07373777
_symmetry_Int_Tables_number   1
_chemical_formula_structural   Li24Mn11CrO36
_chemical_formula_sum   'Li24 Mn11 Cr1 O36'
_cell_volume   622.64664825
_cell_formula_units_Z   1
loop_
 _symmetry_equiv_pos_site_id
 _symmetry_equiv_pos_as_xyz
  1  'x, y, z'
loop_
 _atom_site_type_symbol
 _atom_site_label
 _atom_site_symmetry_multiplicity
 _atom_site_fract_x
 _atom_site_fract_y
 _atom_site_fract_z
 _atom_site_occupancy
  Li  Li0  1  0.22144985  0.05780171  0.00005608  1
  Li  Li1  1  0.16921281  0.16454076  0.50247434  1
  Li  Li2  1  0.72238248  0.05919452  0.49835758  1
  Li  Li3  1  0.41409070  0.16737972  0.25085710  1
  Li  Li4  1  0.11908964  0.27412828  0.00141010  1
  Li  Li5  1  0.66239236  0.16750843  0.00100941  1
  Li  Li6  1  0.91351059  0.16733490  0.75037101  1
  Li  Li7  1  0.60826757  0.27412969  0.50070939  1
  Li  Li8  1  0.06194406  0.39126729  0.50030246  1
  Li  Li9  1  0.54683005  0.39147308  0.99943481  1
  Li  Li10  1  0.99681837  0.49918425  0.00192932  1
  Li  Li11  1  0.25237367  0.50086771  0.75193761  1
  Li  Li12  1  0.50041477  0.49782011  0.49993324  1
  Li  Li13  1  0.74736832  0.50016060  0.25053567  1
  Li  Li14  1  0.44091870  0.60862159  0.99935369  1
  Li  Li15  1  0.94131893  0.60906857  0.49758178  1
  Li  Li16  1  0.38328534  0.72614382  0.49888061  1
  Li  Li17  1  0.08539127  0.83242884  0.24984928  1
  Li  Li18  1  0.88501610  0.72350809  0.00016153  1
  Li  Li19  1  0.33129778  0.83437659  0.99744556  1
  Li  Li20  1  0.58409254  0.83386182  0.75244501  1
  Li  Li21  1  0.27507561  0.94077297  0.49784368  1
  Li  Li22  1  0.82694669  0.83259919  0.50138539  1
  Li  Li23  1  0.78370772  0.94266832  0.99987920  1
  Mn  Mn24  1  0.47106784  0.05560228  0.74979731  1
  Mn  Mn25  1  0.97267130  0.05510958  0.25042461  1
  Mn  Mn26  1  0.36170660  0.27851099  0.75031624  1
  Mn  Mn27  1  0.30462078  0.38917586  0.24969475  1
  Mn  Mn28  1  0.80687585  0.38902756  0.75026511  1
  Mn  Mn29  1  0.19425727  0.61185966  0.25047755  1
  Mn  Mn30  1  0.13611473  0.72211040  0.74945573  1
  Mn  Mn31  1  0.69167407  0.61154584  0.74925718  1
  Mn  Mn32  1  0.63824933  0.72234172  0.24941435  1
  Mn  Mn33  1  0.02549053  0.94511123  0.74905849  1
  Mn  Mn34  1  0.52733281  0.94482223  0.24971017  1
  Cr  Cr35  1  0.86024854  0.27961078  0.25014607  1
  O  O36  1  0.11743475  0.04803707  0.63733108  1
  O  O37  1  0.33479492  0.04773784  0.36220279  1
  O  O38  1  0.83245497  0.04813558  0.86152010  1
  O  O39  1  0.01949232  0.16641494  0.13601875  1
  O  O40  1  0.61793850  0.04813936  0.13865430  1
  O  O41  1  0.30927827  0.16718847  0.86339116  1
  O  O42  1  0.52386661  0.16700845  0.63672627  1
  O  O43  1  0.22005811  0.28641281  0.36254664  1
  O  O44  1  0.81544833  0.16604487  0.36523993  1
  O  O45  1  0.16832551  0.38167967  0.86233844  1
  O  O46  1  0.71508601  0.28623734  0.86272844  1
  O  O47  1  0.49236920  0.28595550  0.13709282  1
  O  O48  1  0.45340866  0.38121470  0.63820045  1
  O  O49  1  0.00120789  0.28661029  0.63774258  1
  O  O50  1  0.66646278  0.38012797  0.36153178  1
  O  O51  1  0.14364557  0.50050842  0.36424927  1
  O  O52  1  0.35511388  0.50073438  0.13615615  1
  O  O53  1  0.95117226  0.38057399  0.13802734  1
  O  O54  1  0.04550555  0.61910677  0.86154797  1
  O  O55  1  0.64438558  0.50018882  0.86404112  1
  O  O56  1  0.85342323  0.50043869  0.63560918  1
  O  O57  1  0.32972661  0.61919470  0.63756783  1
  O  O58  1  0.99985331  0.71535241  0.36154226  1
  O  O59  1  0.54843300  0.61930586  0.36213879  1
  O  O60  1  0.49744160  0.71405666  0.86197631  1
  O  O61  1  0.28477028  0.71411332  0.13752139  1
  O  O62  1  0.83318265  0.61872145  0.13877330  1
  O  O63  1  0.18568353  0.83348119  0.63562386  1
  O  O64  1  0.78135537  0.71504367  0.63768065  1
  O  O65  1  0.47535521  0.83336080  0.36308581  1
  O  O66  1  0.68618759  0.83342704  0.13517080  1
  O  O67  1  0.37942551  0.95275126  0.86167593  1
  O  O68  1  0.97541794  0.83385270  0.86340728  1
  O  O69  1  0.16551495  0.95251159  0.13789379  1
  O  O70  1  0.66394457  0.95266342  0.63768973  1
  O  O71  1  0.88189338  0.95149901  0.36136327  1
