# generated using pymatgen
data_Li24Mn11CrO36
_symmetry_space_group_name_H-M   'P 1'
_cell_length_a   8.66431379
_cell_length_b   8.64630611
_cell_length_c   10.16702473
_cell_angle_alpha   89.99975177
_cell_angle_beta   73.23238040
_cell_angle_gamma   60.06862649
_symmetry_Int_Tables_number   1
_chemical_formula_structural   Li24Mn11CrO36
_chemical_formula_sum   'Li24 Mn11 Cr1 O36'
_cell_volume   622.42269113
_cell_formula_units_Z   1
loop_
 _symmetry_equiv_pos_site_id
 _symmetry_equiv_pos_as_xyz
  1  'x, y, z'
loop_
 _atom_site_type_symbol
 _atom_site_label
 _atom_site_symmetry_multiplicity
 _atom_site_fract_x
 _atom_site_fract_y
 _atom_site_fract_z
 _atom_site_occupancy
  Li  Li0  1  0.16749923  0.00377550  0.50055745  1
  Li  Li1  1  0.16627786  0.16693719  0.25043380  1
  Li  Li2  1  0.16523064  0.00494558  0.99963336  1
  Li  Li3  1  0.16813037  0.32780928  0.99990595  1
  Li  Li4  1  0.50012806  0.00000192  0.99982768  1
  Li  Li5  1  0.16665244  0.16679318  0.74996048  1
  Li  Li6  1  0.16515353  0.33008436  0.49892630  1
  Li  Li7  1  0.49949372  0.00022016  0.50015326  1
  Li  Li8  1  0.16717093  0.66638386  0.99984244  1
  Li  Li9  1  0.16653641  0.66680160  0.50017166  1
  Li  Li10  1  0.50143724  0.33684398  0.50036837  1
  Li  Li11  1  0.50039159  0.49988201  0.24955925  1
  Li  Li12  1  0.49916159  0.33794757  0.99943932  1
  Li  Li13  1  0.50151470  0.66190314  0.00107819  1
  Li  Li14  1  0.83302830  0.33363931  0.00009297  1
  Li  Li15  1  0.50001333  0.50011240  0.75003082  1
  Li  Li16  1  0.49853058  0.66261178  0.50008888  1
  Li  Li17  1  0.83363743  0.33333251  0.49991160  1
  Li  Li18  1  0.83491550  0.66972652  0.50102513  1
  Li  Li19  1  0.83332986  0.83424423  0.25000778  1
  Li  Li20  1  0.83174784  0.67131112  0.99897308  1
  Li  Li21  1  0.83420523  0.99559563  0.00038261  1
  Li  Li22  1  0.83332904  0.83348486  0.75000713  1
  Li  Li23  1  0.83245778  0.99647127  0.49961260  1
  Mn  Mn24  1  0.16778487  0.49925084  0.25108815  1
  Mn  Mn25  1  0.50007778  0.16694787  0.25008498  1
  Mn  Mn26  1  0.16665654  0.49954228  0.74999713  1
  Mn  Mn27  1  0.50003987  0.16689882  0.74998368  1
  Mn  Mn28  1  0.16658736  0.83369848  0.24990907  1
  Mn  Mn29  1  0.83333868  0.16625019  0.25000030  1
  Mn  Mn30  1  0.16661977  0.83361175  0.75000863  1
  Mn  Mn31  1  0.83333724  0.16620215  0.75000584  1
  Mn  Mn32  1  0.49888351  0.83370195  0.24891534  1
  Mn  Mn33  1  0.49999819  0.83287336  0.74999770  1
  Mn  Mn34  1  0.83333269  0.50018107  0.75000672  1
  Cr  Cr35  1  0.83335462  0.50373220  0.24999704  1
  O  O36  1  0.35387489  0.07331731  0.36402195  1
  O  O37  1  0.00359754  0.56789848  0.13794285  1
  O  O38  1  0.35392081  0.07298000  0.86404864  1
  O  O39  1  0.33592611  0.26045320  0.13784484  1
  O  O40  1  0.00250976  0.57042768  0.63806481  1
  O  O41  1  0.33588865  0.26042692  0.63796449  1
  O  O42  1  0.33180269  0.40621774  0.36205818  1
  O  O43  1  0.02015833  0.73995117  0.36402832  1
  O  O44  1  0.66416631  0.09567263  0.36211596  1
  O  O45  1  0.33079922  0.40612885  0.86221429  1
  O  O46  1  0.31280900  0.59385630  0.13598609  1
  O  O47  1  0.66923464  0.23685126  0.13791541  1
  O  O48  1  0.02058010  0.73963492  0.86412273  1
  O  O49  1  0.66410721  0.09622187  0.86212732  1
  O  O50  1  0.00250237  0.92649628  0.13789357  1
  O  O51  1  0.31274943  0.59356603  0.63595728  1
  O  O52  1  0.66912925  0.23695322  0.63794021  1
  O  O53  1  0.00255157  0.92699237  0.63788502  1
  O  O54  1  0.99744290  0.07275397  0.36208336  1
  O  O55  1  0.33073270  0.76305218  0.36214460  1
  O  O56  1  0.68845787  0.40513417  0.36421053  1
  O  O57  1  0.99754746  0.07274355  0.86206151  1
  O  O58  1  0.33486883  0.90468737  0.13793114  1
  O  O59  1  0.97822432  0.26025588  0.13578917  1
  O  O60  1  0.33076898  0.76298177  0.86201685  1
  O  O61  1  0.68732969  0.40619620  0.86388266  1
  O  O62  1  0.66620747  0.59647759  0.13657629  1
  O  O63  1  0.33585460  0.90359973  0.63776767  1
  O  O64  1  0.97935212  0.26018852  0.63612307  1
  O  O65  1  0.66922680  0.59373976  0.63780459  1
  O  O66  1  0.66307269  0.73815427  0.36207117  1
  O  O67  1  0.00048958  0.42933343  0.36343531  1
  O  O68  1  0.66414393  0.73960314  0.86195269  1
  O  O69  1  0.64648732  0.92678144  0.13596554  1
  O  O70  1  0.99744539  0.42962469  0.86219877  1
  O  O71  1  0.64605313  0.92689621  0.63586845  1
