# generated using pymatgen
data_NbVO5
_symmetry_space_group_name_H-M   'P 1'
_cell_length_a   14.04660448
_cell_length_b   5.57737094
_cell_length_c   14.07553847
_cell_angle_alpha   90.00000000
_cell_angle_beta   120.38546176
_cell_angle_gamma   90.00000000
_symmetry_Int_Tables_number   1
_chemical_formula_structural   NbVO5
_chemical_formula_sum   'Nb8 V8 O40'
_cell_volume   951.25405733
_cell_formula_units_Z   8
loop_
 _symmetry_equiv_pos_site_id
 _symmetry_equiv_pos_as_xyz
  1  'x, y, z'
loop_
 _atom_site_type_symbol
 _atom_site_label
 _atom_site_symmetry_multiplicity
 _atom_site_fract_x
 _atom_site_fract_y
 _atom_site_fract_z
 _atom_site_occupancy
  Nb  Nb0  1  0.05905660  0.25811953  0.85730204  1
  Nb  Nb1  1  0.05905660  0.24188047  0.35730204  1
  Nb  Nb2  1  0.44073695  0.75318568  0.79893399  1
  Nb  Nb3  1  0.55926305  0.25318568  0.70106601  1
  Nb  Nb4  1  0.44073695  0.74681432  0.29893399  1
  Nb  Nb5  1  0.55926305  0.24681432  0.20106601  1
  Nb  Nb6  1  0.94094340  0.75811953  0.64269796  1
  Nb  Nb7  1  0.94094340  0.74188047  0.14269796  1
  V  V8  1  0.15396919  0.73353948  0.56239080  1
  V  V9  1  0.34583859  0.24029145  0.90744260  1
  V  V10  1  0.15396919  0.76646052  0.06239080  1
  V  V11  1  0.34583859  0.25970855  0.40744260  1
  V  V12  1  0.65416141  0.74029145  0.59255740  1
  V  V13  1  0.84603081  0.23353948  0.93760920  1
  V  V14  1  0.65416141  0.75970855  0.09255740  1
  V  V15  1  0.84603081  0.26646052  0.43760920  1
  O  O16  1  0.00854061  0.96739099  0.76735399  1
  O  O17  1  0.11560814  0.54454450  0.96456619  1
  O  O18  1  0.07481616  0.75839609  0.62568661  1
  O  O19  1  0.20474028  0.25428872  0.86775160  1
  O  O20  1  0.00854061  0.53260901  0.26735399  1
  O  O21  1  0.11560814  0.95545550  0.46456619  1
  O  O22  1  0.13295997  0.45813284  0.50114650  1
  O  O23  1  0.37561045  0.96285094  0.87439383  1
  O  O24  1  0.37449150  0.45967110  0.84088379  1
  O  O25  1  0.29491156  0.76958818  0.66298436  1
  O  O26  1  0.07481616  0.74160391  0.12568661  1
  O  O27  1  0.20474028  0.24571128  0.36775160  1
  O  O28  1  0.57391141  0.71625513  0.95023462  1
  O  O29  1  0.49855531  0.02551895  0.76224692  1
  O  O30  1  0.50144469  0.52551895  0.73775308  1
  O  O31  1  0.13295997  0.04186716  0.00114650  1
  O  O32  1  0.42608859  0.21625513  0.54976538  1
  O  O33  1  0.37561045  0.53714906  0.37439383  1
  O  O34  1  0.37449150  0.04032890  0.34088379  1
  O  O35  1  0.29491156  0.73041182  0.16298436  1
  O  O36  1  0.70508844  0.26958818  0.83701564  1
  O  O37  1  0.62550850  0.95967110  0.65911621  1
  O  O38  1  0.62438955  0.46285094  0.62560617  1
  O  O39  1  0.57391141  0.78374487  0.45023462  1
  O  O40  1  0.86704003  0.95813284  0.99885350  1
  O  O41  1  0.49855531  0.47448105  0.26224692  1
  O  O42  1  0.50144469  0.97448105  0.23775308  1
  O  O43  1  0.42608859  0.28374487  0.04976538  1
  O  O44  1  0.79525972  0.75428872  0.63224840  1
  O  O45  1  0.92518384  0.25839609  0.87431339  1
  O  O46  1  0.70508844  0.23041182  0.33701564  1
  O  O47  1  0.62550850  0.54032890  0.15911621  1
  O  O48  1  0.62438955  0.03714906  0.12560617  1
  O  O49  1  0.86704003  0.54186716  0.49885350  1
  O  O50  1  0.88439186  0.04454450  0.53543381  1
  O  O51  1  0.99145939  0.46739099  0.73264601  1
  O  O52  1  0.79525972  0.74571128  0.13224840  1
  O  O53  1  0.92518384  0.24160391  0.37431339  1
  O  O54  1  0.88439186  0.45545550  0.03543381  1
  O  O55  1  0.99145939  0.03260901  0.23264601  1
