# generated using pymatgen
data_Li2Ti3Sn(PO4)6
_symmetry_space_group_name_H-M   'P 1'
_cell_length_a   8.68457636
_cell_length_b   8.68457563
_cell_length_c   8.68457563
_cell_angle_alpha   59.79163531
_cell_angle_beta   59.79163385
_cell_angle_gamma   59.79163338
_symmetry_Int_Tables_number   1
_chemical_formula_structural   Li2Ti3Sn(PO4)6
_chemical_formula_sum   'Li2 Ti3 Sn1 P6 O24'
_cell_volume   460.96888694
_cell_formula_units_Z   1
loop_
 _symmetry_equiv_pos_site_id
 _symmetry_equiv_pos_as_xyz
  1  'x, y, z'
loop_
 _atom_site_type_symbol
 _atom_site_label
 _atom_site_symmetry_multiplicity
 _atom_site_fract_x
 _atom_site_fract_y
 _atom_site_fract_z
 _atom_site_occupancy
  Li  Li0  1  0.00248337  0.00248337  0.00248337  1
  Li  Li1  1  0.50003814  0.50003814  0.50003814  1
  Ti  Ti2  1  0.14180009  0.14180009  0.14180009  1
  Ti  Ti3  1  0.35758690  0.35758690  0.35758690  1
  Ti  Ti4  1  0.64212983  0.64212983  0.64212983  1
  Sn  Sn5  1  0.85796187  0.85796187  0.85796187  1
  P  P6  1  0.04255279  0.74930462  0.45504206  1
  P  P7  1  0.45504206  0.04255279  0.74930462  1
  P  P8  1  0.74930462  0.45504206  0.04255279  1
  P  P9  1  0.25298103  0.53814713  0.95971877  1
  P  P10  1  0.53814713  0.95971877  0.25298103  1
  P  P11  1  0.95971877  0.25298103  0.53814713  1
  O  O12  1  0.12342541  0.30746167  0.49590765  1
  O  O13  1  0.30746167  0.49590765  0.12342541  1
  O  O14  1  0.05906831  0.91637835  0.26592505  1
  O  O15  1  0.49590765  0.12342541  0.30746167  1
  O  O16  1  0.01524348  0.80036068  0.61427043  1
  O  O17  1  0.23093940  0.58273169  0.43483538  1
  O  O18  1  0.26592505  0.05906831  0.91637835  1
  O  O19  1  0.43483538  0.23093940  0.58273169  1
  O  O20  1  0.19621635  0.37521745  0.00031938  1
  O  O21  1  0.58273169  0.43483538  0.23093940  1
  O  O22  1  0.08832749  0.73019041  0.94633339  1
  O  O23  1  0.37521745  0.00031938  0.19621635  1
  O  O24  1  0.61427043  0.01524348  0.80036068  1
  O  O25  1  0.91637835  0.26592505  0.05906831  1
  O  O26  1  0.41852924  0.55599675  0.76999059  1
  O  O27  1  0.80036068  0.61427043  0.01524348  1
  O  O28  1  0.55599675  0.76999059  0.41852924  1
  O  O29  1  0.73019041  0.94633339  0.08832749  1
  O  O30  1  0.76999059  0.41852924  0.55599675  1
  O  O31  1  0.00031938  0.19621635  0.37521745  1
  O  O32  1  0.50069523  0.87422540  0.69766123  1
  O  O33  1  0.94633339  0.08832749  0.73019041  1
  O  O34  1  0.69766123  0.50069523  0.87422540  1
  O  O35  1  0.87422540  0.69766123  0.50069523  1
