# generated using pymatgen
data_Li2W(OF2)2
_symmetry_space_group_name_H-M   'P 1'
_cell_length_a   4.75965792
_cell_length_b   17.41320289
_cell_length_c   5.10075477
_cell_angle_alpha   90.00000000
_cell_angle_beta   90.00000000
_cell_angle_gamma   90.00000000
_symmetry_Int_Tables_number   1
_chemical_formula_structural   Li2W(OF2)2
_chemical_formula_sum   'Li8 W4 O8 F16'
_cell_volume   422.75509015
_cell_formula_units_Z   4
loop_
 _symmetry_equiv_pos_site_id
 _symmetry_equiv_pos_as_xyz
  1  'x, y, z'
loop_
 _atom_site_type_symbol
 _atom_site_label
 _atom_site_symmetry_multiplicity
 _atom_site_fract_x
 _atom_site_fract_y
 _atom_site_fract_z
 _atom_site_occupancy
  Li  Li0  1  0.00000000  0.23229550  0.75000000  1
  Li  Li1  1  0.00000000  0.44974099  0.25000000  1
  Li  Li2  1  0.00000000  0.55025901  0.75000000  1
  Li  Li3  1  0.00000000  0.76770450  0.25000000  1
  Li  Li4  1  0.50000000  0.26770450  0.25000000  1
  Li  Li5  1  0.50000000  0.94974099  0.25000000  1
  Li  Li6  1  0.50000000  0.05025901  0.75000000  1
  Li  Li7  1  0.50000000  0.73229550  0.75000000  1
  W  W8  1  0.00000000  0.10748178  0.25000000  1
  W  W9  1  0.00000000  0.89251822  0.75000000  1
  W  W10  1  0.50000000  0.39251822  0.75000000  1
  W  W11  1  0.50000000  0.60748178  0.25000000  1
  O  O12  1  0.24689047  0.04399595  0.10283599  1
  O  O13  1  0.24689047  0.95600405  0.60283599  1
  O  O14  1  0.25310953  0.45600405  0.60283599  1
  O  O15  1  0.25310953  0.54399595  0.10283599  1
  O  O16  1  0.74689047  0.54399595  0.39716401  1
  O  O17  1  0.74689047  0.45600405  0.89716401  1
  O  O18  1  0.75310953  0.04399595  0.39716401  1
  O  O19  1  0.75310953  0.95600405  0.89716401  1
  F  F20  1  0.21199515  0.20132451  0.09327377  1
  F  F21  1  0.21199515  0.79867549  0.59327377  1
  F  F22  1  0.22617951  0.87326137  0.06435510  1
  F  F23  1  0.22617951  0.12673863  0.56435510  1
  F  F24  1  0.27382049  0.62673863  0.56435510  1
  F  F25  1  0.27382049  0.37326137  0.06435510  1
  F  F26  1  0.28800485  0.70132451  0.09327377  1
  F  F27  1  0.28800485  0.29867549  0.59327377  1
  F  F28  1  0.71199515  0.29867549  0.90672623  1
  F  F29  1  0.71199515  0.70132451  0.40672623  1
  F  F30  1  0.72617951  0.37326137  0.43564490  1
  F  F31  1  0.72617951  0.62673863  0.93564490  1
  F  F32  1  0.77382049  0.12673863  0.93564490  1
  F  F33  1  0.77382049  0.87326137  0.43564490  1
  F  F34  1  0.78800485  0.79867549  0.90672623  1
  F  F35  1  0.78800485  0.20132451  0.40672623  1
