# generated using pymatgen
data_Mn3(PO4)2
_symmetry_space_group_name_H-M   'P 1'
_cell_length_a   6.25762029
_cell_length_b   4.94660223
_cell_length_c   10.73416308
_cell_angle_alpha   90.00000000
_cell_angle_beta   90.79061007
_cell_angle_gamma   90.00000000
_symmetry_Int_Tables_number   1
_chemical_formula_structural   Mn3(PO4)2
_chemical_formula_sum   'Mn6 P4 O16'
_cell_volume   332.23320627
_cell_formula_units_Z   2
loop_
 _symmetry_equiv_pos_site_id
 _symmetry_equiv_pos_as_xyz
  1  'x, y, z'
loop_
 _atom_site_type_symbol
 _atom_site_label
 _atom_site_symmetry_multiplicity
 _atom_site_fract_x
 _atom_site_fract_y
 _atom_site_fract_z
 _atom_site_occupancy
  Mn  Mn0  1  0.23386597  0.51163911  0.78202502  1
  Mn  Mn1  1  0.23386597  0.98836089  0.28202502  1
  Mn  Mn2  1  0.50000000  0.50000000  0.50000000  1
  Mn  Mn3  1  0.50000000  0.00000000  0.00000000  1
  Mn  Mn4  1  0.76613403  0.01163911  0.71797498  1
  Mn  Mn5  1  0.76613403  0.48836089  0.21797498  1
  P  P6  1  0.26067764  0.06743426  0.60046596  1
  P  P7  1  0.26067764  0.43256574  0.10046596  1
  P  P8  1  0.73932236  0.56743426  0.89953404  1
  P  P9  1  0.73932236  0.93256574  0.39953404  1
  O  O10  1  0.07352041  0.17334559  0.68055658  1
  O  O11  1  0.07352041  0.32665441  0.18055658  1
  O  O12  1  0.25066910  0.32194836  0.96499490  1
  O  O13  1  0.25066910  0.17805164  0.46499490  1
  O  O14  1  0.27739130  0.75649939  0.60562887  1
  O  O15  1  0.27739130  0.74350061  0.10562887  1
  O  O16  1  0.46401174  0.21376157  0.66089866  1
  O  O17  1  0.46401174  0.28623843  0.16089866  1
  O  O18  1  0.53598826  0.71376157  0.83910134  1
  O  O19  1  0.53598826  0.78623843  0.33910134  1
  O  O20  1  0.72260870  0.25649939  0.89437113  1
  O  O21  1  0.72260870  0.24350061  0.39437113  1
  O  O22  1  0.74933090  0.82194836  0.53500510  1
  O  O23  1  0.74933090  0.67805164  0.03500510  1
  O  O24  1  0.92647959  0.67334559  0.81944342  1
  O  O25  1  0.92647959  0.82665441  0.31944342  1
