# generated using pymatgen
data_Mo4H14N2O17
_symmetry_space_group_name_H-M   'P 1'
_cell_length_a   8.05270645
_cell_length_b   10.65312404
_cell_length_c   18.39069113
_cell_angle_alpha   97.00848427
_cell_angle_beta   90.00000000
_cell_angle_gamma   90.00000000
_symmetry_Int_Tables_number   1
_chemical_formula_structural   Mo4H14N2O17
_chemical_formula_sum   'Mo16 H56 N8 O68'
_cell_volume   1565.88444858
_cell_formula_units_Z   4
loop_
 _symmetry_equiv_pos_site_id
 _symmetry_equiv_pos_as_xyz
  1  'x, y, z'
loop_
 _atom_site_type_symbol
 _atom_site_label
 _atom_site_symmetry_multiplicity
 _atom_site_fract_x
 _atom_site_fract_y
 _atom_site_fract_z
 _atom_site_occupancy
  Mo  Mo0  1  0.45902920  0.07754479  0.15356871  1
  Mo  Mo1  1  0.04097080  0.57754479  0.65356871  1
  Mo  Mo2  1  0.54097080  0.92245521  0.84643129  1
  Mo  Mo3  1  0.95902920  0.42245521  0.34643129  1
  Mo  Mo4  1  0.41740924  0.76725625  0.11139351  1
  Mo  Mo5  1  0.08259076  0.26725625  0.61139351  1
  Mo  Mo6  1  0.58259076  0.23274375  0.88860649  1
  Mo  Mo7  1  0.91740924  0.73274375  0.38860649  1
  Mo  Mo8  1  0.32807844  0.65555080  0.94063436  1
  Mo  Mo9  1  0.17192156  0.15555080  0.44063436  1
  Mo  Mo10  1  0.67192156  0.34444920  0.05936564  1
  Mo  Mo11  1  0.82807844  0.84444920  0.55936564  1
  Mo  Mo12  1  0.28239492  0.97519174  0.98571678  1
  Mo  Mo13  1  0.21760508  0.47519174  0.48571678  1
  Mo  Mo14  1  0.71760508  0.02480826  0.01428322  1
  Mo  Mo15  1  0.78239492  0.52480826  0.51428322  1
  H  H16  1  0.15727700  0.69253946  0.81620160  1
  H  H17  1  0.34272300  0.19253946  0.31620160  1
  H  H18  1  0.84272300  0.30746054  0.18379840  1
  H  H19  1  0.65727700  0.80746054  0.68379840  1
  H  H20  1  0.01888506  0.65539805  0.87476800  1
  H  H21  1  0.48111494  0.15539805  0.37476800  1
  H  H22  1  0.98111494  0.34460195  0.12523200  1
  H  H23  1  0.51888506  0.84460195  0.62523200  1
  H  H24  1  0.89822231  0.62938902  0.23161774  1
  H  H25  1  0.60177769  0.12938902  0.73161774  1
  H  H26  1  0.10177769  0.37061098  0.76838226  1
  H  H27  1  0.39822231  0.87061098  0.26838226  1
  H  H28  1  0.06449613  0.64512347  0.18898117  1
  H  H29  1  0.43550387  0.14512347  0.68898117  1
  H  H30  1  0.93550387  0.35487653  0.81101883  1
  H  H31  1  0.56449613  0.85487653  0.31101883  1
  H  H32  1  0.24592662  0.34517976  0.14293071  1
  H  H33  1  0.25407338  0.84517976  0.64293071  1
  H  H34  1  0.75407338  0.65482024  0.85706929  1
  H  H35  1  0.74592662  0.15482024  0.35706929  1
  H  H36  1  0.20670187  0.47718560  0.11568633  1
  H  H37  1  0.29329813  0.97718560  0.61568633  1
  H  H38  1  0.79329813  0.52281440  0.88431367  1
  H  H39  1  0.70670187  0.02281440  0.38431367  1
  H  H40  1  0.05239033  0.38359830  0.97114881  1
  H  H41  1  0.44760967  0.88359830  0.47114881  1
  H  H42  1  0.94760967  0.61640170  0.02885119  1
  H  H43  1  0.55239033  0.11640170  0.52885119  1
  H  H44  1  0.02806762  0.22649817  0.96251047  1
  H  H45  1  0.47193238  0.72649817  0.46251047  1
  H  H46  1  0.97193238  0.77350183  0.03748953  1
  H  H47  1  0.52806762  0.27350183  0.53748953  1
  H  H48  1  0.15630393  0.29404416  0.90515955  1
  H  H49  1  0.34369607  0.79404416  0.40515955  1
  H  H50  1  0.84369607  0.70595584  0.09484045  1
  H  H51  1  0.65630393  0.20595584  0.59484045  1
  H  H52  1  0.20672906  0.29521854  0.99592692  1
  H  H53  1  0.29327094  0.79521854  0.49592692  1
  H  H54  1  0.79327094  0.70478146  0.00407308  1
  H  H55  1  0.70672906  0.20478146  0.50407308  1
  H  H56  1  0.95629667  0.84611416  0.21578451  1
  H  H57  1  0.54370333  0.34611416  0.71578451  1
  H  H58  1  0.04370333  0.15388584  0.78421549  1
  H  H59  1  0.45629667  0.65388584  0.28421549  1
  H  H60  1  0.10736580  0.94724152  0.19748957  1
  H  H61  1  0.39263420  0.44724152  0.69748957  1
  H  H62  1  0.89263420  0.05275848  0.80251043  1
  H  H63  1  0.60736580  0.55275848  0.30251043  1
  H  H64  1  0.99968308  0.97581022  0.27685828  1
  H  H65  1  0.50031692  0.47581022  0.77685828  1
  H  H66  1  0.00031692  0.02418978  0.72314172  1
  H  H67  1  0.49968308  0.52418978  0.22314172  1
  H  H68  1  0.90621492  0.99336339  0.19581570  1
  H  H69  1  0.59378508  0.49336339  0.69581570  1
  H  H70  1  0.09378508  0.00663661  0.80418430  1
  H  H71  1  0.40621492  0.50663661  0.30418430  1
  N  N72  1  0.11242867  0.29839081  0.95833453  1
  N  N73  1  0.38757133  0.79839081  0.45833453  1
  N  N74  1  0.88757133  0.70160919  0.04166547  1
  N  N75  1  0.61242867  0.20160919  0.54166547  1
  N  N76  1  0.99100623  0.94160815  0.22169179  1
  N  N77  1  0.50899377  0.44160815  0.72169179  1
  N  N78  1  0.00899377  0.05839185  0.77830821  1
  N  N79  1  0.49100623  0.55839185  0.27830821  1
  O  O80  1  0.38793988  0.25221009  0.19092638  1
  O  O81  1  0.11206012  0.75221009  0.69092638  1
  O  O82  1  0.61206012  0.74778991  0.80907362  1
  O  O83  1  0.88793988  0.24778991  0.30907362  1
  O  O84  1  0.29265668  0.15910977  0.22553312  1
  O  O85  1  0.20734332  0.65910977  0.72553312  1
  O  O86  1  0.70734332  0.84089023  0.77446688  1
  O  O87  1  0.79265668  0.34089023  0.27446688  1
  O  O88  1  0.62158632  0.04948537  0.21010435  1
  O  O89  1  0.87841368  0.54948537  0.71010435  1
  O  O90  1  0.37841368  0.95051463  0.78989565  1
  O  O91  1  0.12158632  0.45051463  0.28989565  1
  O  O92  1  0.33013399  0.92047119  0.16967965  1
  O  O93  1  0.16986601  0.42047119  0.66967965  1
  O  O94  1  0.66986601  0.07952881  0.83032035  1
  O  O95  1  0.83013399  0.57952881  0.33032035  1
  O  O96  1  0.27019907  0.09395950  0.06417034  1
  O  O97  1  0.22980093  0.59395950  0.56417034  1
  O  O98  1  0.72980093  0.90604050  0.93582966  1
  O  O99  1  0.77019907  0.40604050  0.43582966  1
  O  O100  1  0.60458509  0.75136248  0.15579466  1
  O  O101  1  0.89541491  0.25136248  0.65579466  1
  O  O102  1  0.39541491  0.24863752  0.84420534  1
  O  O103  1  0.10458509  0.74863752  0.34420534  1
  O  O104  1  0.28206527  0.65763559  0.14446804  1
  O  O105  1  0.21793473  0.15763559  0.64446804  1
  O  O106  1  0.71793473  0.34236441  0.85553196  1
  O  O107  1  0.78206527  0.84236441  0.35553196  1
  O  O108  1  0.48891981  0.67374820  0.01733183  1
  O  O109  1  0.01108019  0.17374820  0.51733183  1
  O  O110  1  0.51108019  0.32625180  0.98266817  1
  O  O111  1  0.98891981  0.82625180  0.48266817  1
  O  O112  1  0.22630584  0.82574073  0.02669535  1
  O  O113  1  0.27369416  0.32574073  0.52669535  1
  O  O114  1  0.77369416  0.17425927  0.97330465  1
  O  O115  1  0.72630584  0.67425927  0.47330465  1
  O  O116  1  0.17730703  0.56413025  0.97878501  1
  O  O117  1  0.32269297  0.06413025  0.47878501  1
  O  O118  1  0.82269297  0.43586975  0.02121499  1
  O  O119  1  0.67730703  0.93586975  0.52121499  1
  O  O120  1  0.42992311  0.55807588  0.87240470  1
  O  O121  1  0.07007689  0.05807588  0.37240470  1
  O  O122  1  0.57007689  0.44192412  0.12759530  1
  O  O123  1  0.92992311  0.94192412  0.62759530  1
  O  O124  1  0.12788914  0.70178664  0.86953902  1
  O  O125  1  0.37211086  0.20178664  0.36953902  1
  O  O126  1  0.87211086  0.29821336  0.13046098  1
  O  O127  1  0.62788914  0.79821336  0.63046098  1
  O  O128  1  0.39914896  0.83181893  0.91325015  1
  O  O129  1  0.10085104  0.33181893  0.41325015  1
  O  O130  1  0.60085104  0.16818107  0.08674985  1
  O  O131  1  0.89914896  0.66818107  0.58674985  1
  O  O132  1  0.11936985  0.00925579  0.92997134  1
  O  O133  1  0.38063015  0.50925579  0.42997134  1
  O  O134  1  0.88063015  0.99074421  0.07002866  1
  O  O135  1  0.61936985  0.49074421  0.57002866  1
  O  O136  1  0.47205860  0.05710685  0.93569905  1
  O  O137  1  0.02794140  0.55710685  0.43569905  1
  O  O138  1  0.52794140  0.94289315  0.06430095  1
  O  O139  1  0.97205860  0.44289315  0.56430095  1
  O  O140  1  0.94739667  0.67145752  0.19205930  1
  O  O141  1  0.55260333  0.17145752  0.69205930  1
  O  O142  1  0.05260333  0.32854248  0.80794070  1
  O  O143  1  0.44739667  0.82854248  0.30794070  1
  O  O144  1  0.16642437  0.39010863  0.11399361  1
  O  O145  1  0.33357563  0.89010863  0.61399361  1
  O  O146  1  0.83357563  0.60989137  0.88600639  1
  O  O147  1  0.66642437  0.10989137  0.38600639  1
