# generated using pymatgen
data_Li8ScFe7(SiO3)16
_symmetry_space_group_name_H-M   'P 1'
_cell_length_a   9.52392120
_cell_length_b   13.20693761
_cell_length_c   7.35465130
_cell_angle_alpha   84.91873368
_cell_angle_beta   77.77871179
_cell_angle_gamma   102.86508026
_symmetry_Int_Tables_number   1
_chemical_formula_structural   Li8ScFe7(SiO3)16
_chemical_formula_sum   'Li8 Sc1 Fe7 Si16 O48'
_cell_volume   872.43526133
_cell_formula_units_Z   1
loop_
 _symmetry_equiv_pos_site_id
 _symmetry_equiv_pos_as_xyz
  1  'x, y, z'
loop_
 _atom_site_type_symbol
 _atom_site_label
 _atom_site_symmetry_multiplicity
 _atom_site_fract_x
 _atom_site_fract_y
 _atom_site_fract_z
 _atom_site_occupancy
  Li  Li0  1  0.00348752  0.62844988  0.25353168  1
  Li  Li1  1  0.49506345  0.87008265  0.24552619  1
  Li  Li2  1  0.50334936  0.62824857  0.75350080  1
  Li  Li3  1  0.00552550  0.12885046  0.25287872  1
  Li  Li4  1  0.49656095  0.37152536  0.24663914  1
  Li  Li5  1  0.99625880  0.87133215  0.74626476  1
  Li  Li6  1  0.50241233  0.12918133  0.75477393  1
  Li  Li7  1  0.99655589  0.37157074  0.74620116  1
  Sc  Sc8  1  0.67526968  0.05029952  0.42525352  1
  Fe  Fe9  1  0.32112237  0.94768214  0.57484809  1
  Fe  Fe10  1  0.82459901  0.94783053  0.07153050  1
  Fe  Fe11  1  0.17653238  0.55151106  0.92660010  1
  Fe  Fe12  1  0.32350932  0.44850819  0.57339650  1
  Fe  Fe13  1  0.67662209  0.55109859  0.42645214  1
  Fe  Fe14  1  0.82358353  0.44883214  0.07310853  1
  Fe  Fe15  1  0.17618536  0.05171189  0.92635627  1
  Si  Si16  1  0.05935788  0.89646072  0.32583702  1
  Si  Si17  1  0.22011247  0.80699515  0.98695039  1
  Si  Si18  1  0.27950332  0.69256100  0.51383361  1
  Si  Si19  1  0.55826806  0.89562430  0.82808325  1
  Si  Si20  1  0.05976908  0.39674142  0.32555742  1
  Si  Si21  1  0.44023574  0.60336522  0.17442880  1
  Si  Si22  1  0.72053817  0.80610451  0.48638036  1
  Si  Si23  1  0.77954505  0.69244543  0.01335284  1
  Si  Si24  1  0.22051685  0.30749952  0.98630173  1
  Si  Si25  1  0.28080528  0.19307038  0.51361897  1
  Si  Si26  1  0.55957146  0.39725186  0.82642044  1
  Si  Si27  1  0.43902920  0.10346058  0.17340760  1
  Si  Si28  1  0.94032166  0.60334667  0.67431214  1
  Si  Si29  1  0.72031339  0.30949537  0.48725083  1
  Si  Si30  1  0.78061728  0.19318142  0.01068214  1
  Si  Si31  1  0.94305946  0.10391385  0.67508302  1
  O  O32  1  0.02637442  0.98460673  0.17652223  1
  O  O33  1  0.14742843  0.94428452  0.47679275  1
  O  O34  1  0.14897003  0.82180149  0.20443506  1
  O  O35  1  0.18975481  0.89811400  0.84082278  1
  O  O36  1  0.09932171  0.67661060  0.54446065  1
  O  O37  1  0.52188366  0.98344457  0.68288165  1
  O  O38  1  0.02665260  0.48488383  0.17608920  1
  O  O39  1  0.35797798  0.81216155  0.53094154  1
  O  O40  1  0.35092138  0.67811821  0.29605315  1
  O  O41  1  0.69040802  0.89548576  0.33744890  1
  O  O42  1  0.35139842  0.55548449  0.02401490  1
  O  O43  1  0.14145515  0.68747325  0.96922116  1
  O  O44  1  0.59932036  0.67666933  0.04440016  1
  O  O45  1  0.39995101  0.82172057  0.95842534  1
  O  O46  1  0.85883852  0.81198079  0.02946144  1
  O  O47  1  0.14875723  0.44455903  0.47587012  1
  O  O48  1  0.64858745  0.94404141  0.97669007  1
  O  O49  1  0.30970695  0.60129487  0.65996389  1
  O  O50  1  0.14890065  0.32176844  0.20420652  1
  O  O51  1  0.64887659  0.82235079  0.70332828  1
  O  O52  1  0.64143703  0.68650720  0.47078150  1
  O  O53  1  0.47339198  0.51520760  0.32368413  1
  O  O54  1  0.90066498  0.82276369  0.45596223  1
  O  O55  1  0.19021196  0.39872215  0.84018198  1
  O  O56  1  0.81007040  0.60156102  0.15968423  1
  O  O57  1  0.10110651  0.17809930  0.54565086  1
  O  O58  1  0.52614139  0.48488920  0.67658081  1
  O  O59  1  0.35923830  0.31274735  0.53066574  1
  O  O60  1  0.35074514  0.17862908  0.29534938  1
  O  O61  1  0.85066765  0.67798891  0.79555656  1
  O  O62  1  0.69081762  0.40063639  0.34034680  1
  O  O63  1  0.85155653  0.55541287  0.52400621  1
  O  O64  1  0.35088381  0.05612158  0.02251303  1
  O  O65  1  0.14239454  0.18797912  0.96884223  1
  O  O66  1  0.59964919  0.17598057  0.04485652  1
  O  O67  1  0.40074330  0.32345546  0.95577008  1
  O  O68  1  0.85794963  0.31275583  0.03000976  1
  O  O69  1  0.64825442  0.44496564  0.97702093  1
  O  O70  1  0.30991286  0.10122107  0.65936080  1
  O  O71  1  0.65060089  0.32337255  0.70562938  1
  O  O72  1  0.63988593  0.19096842  0.46961592  1
  O  O73  1  0.46897829  0.01392517  0.32218901  1
  O  O74  1  0.97360280  0.51525220  0.82369128  1
  O  O75  1  0.90044928  0.32404695  0.45539811  1
  O  O76  1  0.81402386  0.10242866  0.15302985  1
  O  O77  1  0.85159687  0.17906851  0.79284896  1
  O  O78  1  0.85588788  0.05452396  0.52551035  1
  O  O79  1  0.97544976  0.01568173  0.82486898  1
