# generated using pymatgen
data_LiFeF4
_symmetry_space_group_name_H-M   'P 1'
_cell_length_a   5.23194947
_cell_length_b   6.39635385
_cell_length_c   5.46824382
_cell_angle_alpha   88.40370915
_cell_angle_beta   90.00000000
_cell_angle_gamma   65.85928347
_symmetry_Int_Tables_number   1
_chemical_formula_structural   LiFeF4
_chemical_formula_sum   'Li2 Fe2 F8'
_cell_volume   166.91491623
_cell_formula_units_Z   2
loop_
 _symmetry_equiv_pos_site_id
 _symmetry_equiv_pos_as_xyz
  1  'x, y, z'
loop_
 _atom_site_type_symbol
 _atom_site_label
 _atom_site_symmetry_multiplicity
 _atom_site_fract_x
 _atom_site_fract_y
 _atom_site_fract_z
 _atom_site_occupancy
  Li  Li0  1  0.94712816  0.00000000  0.75000000  1
  Li  Li1  1  0.05287184  0.00000000  0.25000000  1
  Fe  Fe2  1  -0.00000000  0.50000000  0.50000000  1
  Fe  Fe3  1  0.50000000  0.50000000  0.00000000  1
  F  F4  1  0.24391573  0.82120675  0.97615847  1
  F  F5  1  0.93487752  0.82120675  0.47615847  1
  F  F6  1  0.34241642  0.43343332  0.69881476  1
  F  F7  1  0.77585073  0.56656668  0.80118524  1
  F  F8  1  0.22414927  0.43343332  0.19881476  1
  F  F9  1  0.65758358  0.56656668  0.30118524  1
  F  F10  1  0.06512248  0.17879325  0.52384153  1
  F  F11  1  0.75608427  0.17879325  0.02384153  1
