# generated using pymatgen
data_Zr2N2O
_symmetry_space_group_name_H-M   'P 1'
_cell_length_a   8.87510788
_cell_length_b   8.86910655
_cell_length_c   8.88817250
_cell_angle_alpha   109.60528574
_cell_angle_beta   109.43471842
_cell_angle_gamma   109.40574852
_symmetry_Int_Tables_number   1
_chemical_formula_structural   Zr2N2O
_chemical_formula_sum   'Zr16 N16 O8'
_cell_volume   538.35757047
_cell_formula_units_Z   8
loop_
 _symmetry_equiv_pos_site_id
 _symmetry_equiv_pos_as_xyz
  1  'x, y, z'
loop_
 _atom_site_type_symbol
 _atom_site_label
 _atom_site_symmetry_multiplicity
 _atom_site_fract_x
 _atom_site_fract_y
 _atom_site_fract_z
 _atom_site_occupancy
  Zr  Zr0  1  0.96438187  0.25020827  0.21362020  1
  Zr  Zr1  1  0.50754035  0.00609421  0.99682605  1
  Zr  Zr2  1  0.71077401  0.46183841  0.24187483  1
  Zr  Zr3  1  0.78973529  0.03466192  0.76003438  1
  Zr  Zr4  1  0.74757167  0.28614745  0.52798378  1
  Zr  Zr5  1  0.75087622  0.77979823  0.03318475  1
  Zr  Zr6  1  0.49171345  0.49749986  0.50948736  1
  Zr  Zr7  1  0.45830521  0.24990654  0.71423729  1
  Zr  Zr8  1  0.53744976  0.75004526  0.29324086  1
  Zr  Zr9  1  0.00889041  0.50758840  0.99574980  1
  Zr  Zr10  1  0.00676689  0.99585476  0.50585441  1
  Zr  Zr11  1  0.25882415  0.71738433  0.47038114  1
  Zr  Zr12  1  0.23966505  0.21143868  0.95363859  1
  Zr  Zr13  1  0.28044938  0.53529140  0.74446476  1
  Zr  Zr14  1  0.21960550  0.96119732  0.25678426  1
  Zr  Zr15  1  0.03817674  0.75078002  0.78743493  1
  N  N16  1  0.74079102  0.22924745  0.27505263  1
  N  N17  1  0.46822830  0.22784350  0.45197903  1
  N  N18  1  0.77016649  0.72742521  0.26044546  1
  N  N19  1  0.04824539  0.27682793  0.01479803  1
  N  N20  1  0.27365803  0.73611684  0.22321199  1
  N  N21  1  0.22595555  0.45243096  0.46387828  1
  N  N22  1  0.51451943  0.24100810  0.96851259  1
  N  N23  1  0.98642760  0.95207167  0.72479994  1
  N  N24  1  0.54363731  0.53572204  0.77291289  1
  N  N25  1  0.95807902  0.73157231  0.99238693  1
  N  N26  1  0.53470600  0.77152695  0.54195355  1
  N  N27  1  0.22413760  0.27102925  0.73796072  1
  N  N28  1  0.02729757  0.48541570  0.75786167  1
  N  N29  1  0.72641194  0.98607402  0.95523646  1
  N  N30  1  0.23374025  0.96473838  0.50718023  1
  N  N31  1  0.26363047  0.77570778  0.73120191  1
  O  O32  1  0.75822290  0.03539498  0.48875542  1
  O  O33  1  0.27199516  0.01093614  0.04406615  1
  O  O34  1  0.96329700  0.51008668  0.23715177  1
  O  O35  1  0.45845651  0.46661284  0.22945559  1
  O  O36  1  0.72620074  0.25678571  0.77153783  1
  O  O37  1  0.01150744  0.04851143  0.27502672  1
  O  O38  1  0.77219603  0.54705213  0.53226361  1
  O  O39  1  0.48776532  0.76412394  0.03757120  1
