# generated using pymatgen
data_Li8Mn3Fe5(BO3)8
_symmetry_space_group_name_H-M   'P 1'
_cell_length_a   5.25711557
_cell_length_b   5.22860030
_cell_length_c   20.80277162
_cell_angle_alpha   89.38544603
_cell_angle_beta   91.05166457
_cell_angle_gamma   60.02192844
_symmetry_Int_Tables_number   1
_chemical_formula_structural   Li8Mn3Fe5(BO3)8
_chemical_formula_sum   'Li8 Mn3 Fe5 B8 O24'
_cell_volume   495.09999652
_cell_formula_units_Z   1
loop_
 _symmetry_equiv_pos_site_id
 _symmetry_equiv_pos_as_xyz
  1  'x, y, z'
loop_
 _atom_site_type_symbol
 _atom_site_label
 _atom_site_symmetry_multiplicity
 _atom_site_fract_x
 _atom_site_fract_y
 _atom_site_fract_z
 _atom_site_occupancy
  Li  Li0  1  0.32882991  0.65180019  0.66578878  1
  Li  Li1  1  0.34739709  0.67717805  0.91617562  1
  Li  Li2  1  0.32543212  0.65652781  0.16666583  1
  Li  Li3  1  0.34503222  0.67643578  0.41762913  1
  Li  Li4  1  0.65496055  0.33227080  0.79129121  1
  Li  Li5  1  0.65641341  0.35521084  0.54158185  1
  Li  Li6  1  0.65219130  0.32935782  0.29305710  1
  Li  Li7  1  0.66244020  0.34945082  0.04218732  1
  Mn  Mn8  1  0.32601594  0.00889535  0.05965741  1
  Mn  Mn9  1  0.67747146  0.00006058  0.93247635  1
  Mn  Mn10  1  0.67441157  0.99847782  0.43285845  1
  Fe  Fe11  1  0.32509609  0.02143906  0.56062481  1
  Fe  Fe12  1  0.99645911  0.32103606  0.68454650  1
  Fe  Fe13  1  0.99259784  0.32551706  0.18471037  1
  Fe  Fe14  1  0.00204774  0.67036574  0.80725409  1
  Fe  Fe15  1  0.00394189  0.66314710  0.30779830  1
  B  B16  1  0.00398286  0.34031843  0.93589665  1
  B  B17  1  0.00343014  0.33761892  0.43703740  1
  B  B18  1  0.33109314  0.00239011  0.81005749  1
  B  B19  1  0.32957418  0.99966951  0.31093611  1
  B  B20  1  0.66832763  0.99240137  0.68655467  1
  B  B21  1  0.66390561  0.00021411  0.18799822  1
  B  B22  1  0.99242119  0.67274846  0.56301351  1
  B  B23  1  0.99246051  0.66918004  0.06325357  1
  O  O24  1  0.06734622  0.25072256  0.79082575  1
  O  O25  1  0.06480054  0.24865483  0.29216327  1
  O  O26  1  0.25372074  0.06940634  0.95183127  1
  O  O27  1  0.03389879  0.57709145  0.91479310  1
  O  O28  1  0.25278740  0.06719333  0.45274706  1
  O  O29  1  0.03234502  0.57556274  0.41626838  1
  O  O30  1  0.57983175  0.02547302  0.82453159  1
  O  O31  1  0.26107563  0.65693653  0.56934525  1
  O  O32  1  0.57915924  0.02096348  0.32478898  1
  O  O33  1  0.26732243  0.64356823  0.06980371  1
  O  O34  1  0.34938281  0.72984630  0.81707774  1
  O  O35  1  0.34667541  0.72754490  0.31820593  1
  O  O36  1  0.64650604  0.26806095  0.69221288  1
  O  O37  1  0.64043195  0.27661875  0.19420772  1
  O  O38  1  0.72830114  0.37048050  0.94319587  1
  O  O39  1  0.42265056  0.97340944  0.66830352  1
  O  O40  1  0.72726879  0.36734431  0.44380995  1
  O  O41  1  0.41835635  0.98153343  0.16915013  1
  O  O42  1  0.96784366  0.42144200  0.57771083  1
  O  O43  1  0.95947927  0.42651337  0.07917670  1
  O  O44  1  0.74172920  0.93264413  0.54293503  1
  O  O45  1  0.75066092  0.93230169  0.04132805  1
  O  O46  1  0.93743018  0.73941262  0.70124027  1
  O  O47  1  0.93386224  0.74676328  0.20149929  1
