# generated using pymatgen
data_Hf2N2O
_symmetry_space_group_name_H-M   'P 1'
_cell_length_a   8.73547303
_cell_length_b   8.72904092
_cell_length_c   8.73374714
_cell_angle_alpha   109.58789192
_cell_angle_beta   109.44942915
_cell_angle_gamma   109.39341781
_symmetry_Int_Tables_number   1
_chemical_formula_structural   Hf2N2O
_chemical_formula_sum   'Hf16 N16 O8'
_cell_volume   512.55340494
_cell_formula_units_Z   8
loop_
 _symmetry_equiv_pos_site_id
 _symmetry_equiv_pos_as_xyz
  1  'x, y, z'
loop_
 _atom_site_type_symbol
 _atom_site_label
 _atom_site_symmetry_multiplicity
 _atom_site_fract_x
 _atom_site_fract_y
 _atom_site_fract_z
 _atom_site_occupancy
  Hf  Hf0  1  0.77643729  0.24541438  0.03209660  1
  Hf  Hf1  1  0.98921862  0.98987958  0.99615139  1
  Hf  Hf2  1  0.49149481  0.99426796  0.50317063  1
  Hf  Hf3  1  0.49139779  0.48597000  0.98962801  1
  Hf  Hf4  1  0.53547523  0.28567000  0.24432379  1
  Hf  Hf5  1  0.96288541  0.21249057  0.75059391  1
  Hf  Hf6  1  0.75209926  0.46289232  0.72171640  1
  Hf  Hf7  1  0.75770688  0.97588203  0.21102165  1
  Hf  Hf8  1  0.28395544  0.25468882  0.54074551  1
  Hf  Hf9  1  0.71396657  0.75169771  0.46879801  1
  Hf  Hf10  1  0.24701618  0.03237710  0.77839229  1
  Hf  Hf11  1  0.26322039  0.54229784  0.29014996  1
  Hf  Hf12  1  0.01203333  0.49943289  0.50907681  1
  Hf  Hf13  1  0.04131977  0.79138789  0.24998975  1
  Hf  Hf14  1  0.46354490  0.71328099  0.74558126  1
  Hf  Hf15  1  0.20612192  0.74131119  0.95901712  1
  N  N16  1  0.76208315  0.22925149  0.27748015  1
  N  N17  1  0.45615010  0.48827538  0.22814667  1
  N  N18  1  0.72773160  0.23790662  0.77128740  1
  N  N19  1  0.03263684  0.04417552  0.27144877  1
  N  N20  1  0.96438779  0.95315131  0.72760448  1
  N  N21  1  0.22424928  0.45408037  0.48315669  1
  N  N22  1  0.53250506  0.26019707  0.98857263  1
  N  N23  1  0.27450812  0.76232016  0.22712029  1
  N  N24  1  0.95707272  0.72961390  0.96395755  1
  N  N25  1  0.54639877  0.51107561  0.77393641  1
  N  N26  1  0.51622726  0.77732221  0.54791274  1
  N  N27  1  0.22618597  0.27710064  0.76325454  1
  N  N28  1  0.72835548  0.96790417  0.95486775  1
  N  N29  1  0.01120681  0.46431450  0.73598528  1
  N  N30  1  0.26377210  0.99069103  0.53402767  1
  N  N31  1  0.23989586  0.77372001  0.73212930  1
  O  O32  1  0.73932387  0.00748309  0.46321065  1
  O  O33  1  0.27542725  0.03975594  0.05328546  1
  O  O34  1  0.98285736  0.53422178  0.25714157  1
  O  O35  1  0.77434931  0.72933241  0.24258091  1
  O  O36  1  0.49079863  0.22743605  0.45113648  1
  O  O37  1  0.04637416  0.27642522  0.03512541  1
  O  O38  1  0.76873672  0.54376036  0.50903942  1
  O  O39  1  0.47087199  0.74154289  0.01713868  1
