# generated using pymatgen
data_CrSb3(PO4)6
_symmetry_space_group_name_H-M   'P 1'
_cell_length_a   8.88932523
_cell_length_b   8.88932506
_cell_length_c   8.88932539
_cell_angle_alpha   58.02285518
_cell_angle_beta   58.02285574
_cell_angle_gamma   58.02285339
_symmetry_Int_Tables_number   1
_chemical_formula_structural   CrSb3(PO4)6
_chemical_formula_sum   'Cr1 Sb3 P6 O24'
_cell_volume   474.17269240
_cell_formula_units_Z   1
loop_
 _symmetry_equiv_pos_site_id
 _symmetry_equiv_pos_as_xyz
  1  'x, y, z'
loop_
 _atom_site_type_symbol
 _atom_site_label
 _atom_site_symmetry_multiplicity
 _atom_site_fract_x
 _atom_site_fract_y
 _atom_site_fract_z
 _atom_site_occupancy
  Cr  Cr0  1  0.85715682  0.85715682  0.85715682  1
  Sb  Sb1  1  0.14324998  0.14324998  0.14324998  1
  Sb  Sb2  1  0.35646304  0.35646304  0.35646304  1
  Sb  Sb3  1  0.64351377  0.64351377  0.64351377  1
  P  P4  1  0.03704994  0.75105673  0.46692371  1
  P  P5  1  0.46692371  0.03704994  0.75105673  1
  P  P6  1  0.75105673  0.46692371  0.03704994  1
  P  P7  1  0.24572589  0.54250544  0.96126873  1
  P  P8  1  0.54250544  0.96126873  0.24572589  1
  P  P9  1  0.96126873  0.24572589  0.54250544  1
  O  O10  1  0.13319444  0.27726902  0.51229885  1
  O  O11  1  0.27726902  0.51229885  0.13319444  1
  O  O12  1  0.05979275  0.92370285  0.27980149  1
  O  O13  1  0.51229885  0.13319444  0.27726902  1
  O  O14  1  0.21891286  0.57572071  0.43923429  1
  O  O15  1  0.01128060  0.77623406  0.63352868  1
  O  O16  1  0.27980149  0.05979275  0.92370285  1
  O  O17  1  0.43923429  0.21891286  0.57572071  1
  O  O18  1  0.57572071  0.43923429  0.21891286  1
  O  O19  1  0.22845973  0.36402502  0.98613923  1
  O  O20  1  0.07648656  0.71697443  0.94045600  1
  O  O21  1  0.36402502  0.98613923  0.22845973  1
  O  O22  1  0.63352868  0.01128060  0.77623406  1
  O  O23  1  0.92370285  0.27980149  0.05979275  1
  O  O24  1  0.77623406  0.63352868  0.01128060  1
  O  O25  1  0.42676948  0.55633858  0.78238518  1
  O  O26  1  0.55633858  0.78238518  0.42676948  1
  O  O27  1  0.71697443  0.94045600  0.07648656  1
  O  O28  1  0.98613923  0.22845973  0.36402502  1
  O  O29  1  0.78238518  0.42676948  0.55633858  1
  O  O30  1  0.48381314  0.86758738  0.72468164  1
  O  O31  1  0.94045600  0.07648656  0.71697443  1
  O  O32  1  0.72468164  0.48381314  0.86758738  1
  O  O33  1  0.86758738  0.72468164  0.48381314  1
