# generated using pymatgen
data_Sn3P6WO24
_symmetry_space_group_name_H-M   'P 1'
_cell_length_a   9.00402339
_cell_length_b   9.00402333
_cell_length_c   9.00402299
_cell_angle_alpha   58.29107125
_cell_angle_beta   58.29106972
_cell_angle_gamma   58.29107193
_symmetry_Int_Tables_number   1
_chemical_formula_structural   Sn3P6WO24
_chemical_formula_sum   'Sn3 P6 W1 O24'
_cell_volume   495.97013325
_cell_formula_units_Z   1
loop_
 _symmetry_equiv_pos_site_id
 _symmetry_equiv_pos_as_xyz
  1  'x, y, z'
loop_
 _atom_site_type_symbol
 _atom_site_label
 _atom_site_symmetry_multiplicity
 _atom_site_fract_x
 _atom_site_fract_y
 _atom_site_fract_z
 _atom_site_occupancy
  Sn  Sn0  1  0.14324763  0.14324763  0.14324763  1
  Sn  Sn1  1  0.35850301  0.35850301  0.35850301  1
  Sn  Sn2  1  0.64323789  0.64323789  0.64323789  1
  P  P3  1  0.03732144  0.74973944  0.46190201  1
  P  P4  1  0.46190201  0.03732144  0.74973944  1
  P  P5  1  0.74973944  0.46190201  0.03732144  1
  P  P6  1  0.25250097  0.53525735  0.96240137  1
  P  P7  1  0.53525735  0.96240137  0.25250097  1
  P  P8  1  0.96240137  0.25250097  0.53525735  1
  W  W9  1  0.85735008  0.85735008  0.85735008  1
  O  O10  1  0.13143391  0.26885627  0.51956840  1
  O  O11  1  0.26885627  0.51956840  0.13143391  1
  O  O12  1  0.05985741  0.92061327  0.28938630  1
  O  O13  1  0.51956840  0.13143391  0.26885627  1
  O  O14  1  0.21446748  0.57885087  0.45040453  1
  O  O15  1  0.99560336  0.78538427  0.63793602  1
  O  O16  1  0.28938630  0.05985741  0.92061327  1
  O  O17  1  0.45040453  0.21446748  0.57885087  1
  O  O18  1  0.57885087  0.45040453  0.21446748  1
  O  O19  1  0.21925566  0.37313536  0.98784937  1
  O  O20  1  0.07300774  0.71483456  0.93166988  1
  O  O21  1  0.37313536  0.98784937  0.21925566  1
  O  O22  1  0.63793602  0.99560336  0.78538427  1
  O  O23  1  0.92061327  0.28938630  0.05985741  1
  O  O24  1  0.78538427  0.63793602  0.99560336  1
  O  O25  1  0.41467385  0.56797766  0.78203446  1
  O  O26  1  0.56797766  0.78203446  0.41467385  1
  O  O27  1  0.71483456  0.93166988  0.07300774  1
  O  O28  1  0.98784937  0.21925566  0.37313536  1
  O  O29  1  0.78203446  0.41467385  0.56797766  1
  O  O30  1  0.48932109  0.87048096  0.72193514  1
  O  O31  1  0.93166988  0.07300774  0.71483456  1
  O  O32  1  0.72193514  0.48932109  0.87048096  1
  O  O33  1  0.87048096  0.72193514  0.48932109  1
