# generated using pymatgen
data_V2OF5
_symmetry_space_group_name_H-M   'P 1'
_cell_length_a   5.25784868
_cell_length_b   5.41999041
_cell_length_c   17.49649128
_cell_angle_alpha   91.59849019
_cell_angle_beta   98.64166817
_cell_angle_gamma   60.98475951
_symmetry_Int_Tables_number   1
_chemical_formula_structural   V2OF5
_chemical_formula_sum   'V8 O4 F20'
_cell_volume   430.49242439
_cell_formula_units_Z   4
loop_
 _symmetry_equiv_pos_site_id
 _symmetry_equiv_pos_as_xyz
  1  'x, y, z'
loop_
 _atom_site_type_symbol
 _atom_site_label
 _atom_site_symmetry_multiplicity
 _atom_site_fract_x
 _atom_site_fract_y
 _atom_site_fract_z
 _atom_site_occupancy
  V  V0  1  0.73888326  0.62466528  0.12286291  1
  V  V1  1  0.75540168  0.12112796  0.62333261  1
  V  V2  1  0.49068562  0.25033472  0.25213709  1
  V  V3  1  0.50319603  0.75387204  0.75166739  1
  V  V4  1  0.25979512  0.90207506  0.37366663  1
  V  V5  1  0.28053418  0.34278794  0.87122739  1
  V  V6  1  0.03820355  0.97292494  0.00133337  1
  V  V7  1  0.00209474  0.53221206  0.50377261  1
  O  O8  1  0.95976889  0.80445463  0.55894828  1
  O  O9  1  0.39751329  0.78968811  0.03958019  1
  O  O10  1  0.39762021  0.08531189  0.33541981  1
  O  O11  1  0.45527424  0.07054537  0.81605172  1
  F  F12  1  0.90925585  0.84161319  0.08427964  1
  F  F13  1  0.96755572  0.30913314  0.06020068  1
  F  F14  1  0.51817623  0.93750000  0.18750000  1
  F  F15  1  0.91658940  0.03338681  0.29072036  1
  F  F16  1  0.93401298  0.33275191  0.58583066  1
  F  F17  1  0.93093423  0.54224809  0.78916934  1
  F  F18  1  0.57879323  0.40507742  0.16427850  1
  F  F19  1  0.56991181  0.92034833  0.66182109  1
  F  F20  1  0.57528091  0.70756120  0.46153800  1
  F  F21  1  0.46648918  0.56586686  0.31479932  1
  F  F22  1  0.53094970  0.43750000  0.68750000  1
  F  F23  1  0.42467690  0.29560013  0.53479385  1
  F  F24  1  0.43548318  0.57939987  0.84020615  1
  F  F25  1  0.59158141  0.19896046  0.96192362  1
  F  F26  1  0.07861825  0.67603954  0.41307638  1
  F  F27  1  0.06959215  0.46992258  0.21072150  1
  F  F28  1  0.07843805  0.95465167  0.71317891  1
  F  F29  1  0.04167923  0.67462049  0.93459207  1
  F  F30  1  0.03170765  0.20037951  0.44040793  1
  F  F31  1  0.07130411  0.16743880  0.91346200  1
