# generated using pymatgen
data_VOF2
_symmetry_space_group_name_H-M   'P 1'
_cell_length_a   5.23850407
_cell_length_b   13.39654109
_cell_length_c   5.23850322
_cell_angle_alpha   90.00000626
_cell_angle_beta   119.99999602
_cell_angle_gamma   89.99999731
_symmetry_Int_Tables_number   1
_chemical_formula_structural   VOF2
_chemical_formula_sum   'V6 O6 F12'
_cell_volume   318.37417350
_cell_formula_units_Z   6
loop_
 _symmetry_equiv_pos_site_id
 _symmetry_equiv_pos_as_xyz
  1  'x, y, z'
loop_
 _atom_site_type_symbol
 _atom_site_label
 _atom_site_symmetry_multiplicity
 _atom_site_fract_x
 _atom_site_fract_y
 _atom_site_fract_z
 _atom_site_occupancy
  V  V0  1  0.00202402  0.50728600  0.96041491  1
  V  V1  1  0.98165521  0.00695536  0.99511768  1
  V  V2  1  0.62505789  0.84061900  0.33130898  1
  V  V3  1  0.33821532  0.67362136  0.65320353  1
  V  V4  1  0.68012947  0.34028836  0.35167779  1
  V  V5  1  0.37291909  0.17395300  0.70827611  1
  O  O6  1  0.34196205  0.91716155  0.25343992  1
  O  O7  1  0.57814587  0.25049455  0.99137195  1
  O  O8  1  0.07989308  0.58382755  0.75518813  1
  O  O9  1  0.55547263  0.74658800  0.57511484  1
  O  O10  1  0.75821816  0.41325500  0.64702479  1
  O  O11  1  0.68630921  0.07992200  0.77786037  1
  F  F12  1  0.97478507  0.74792345  0.40967733  1
  F  F13  1  0.39751605  0.74921828  0.99864947  1
  F  F14  1  0.33468353  0.41588528  0.06553258  1
  F  F15  1  0.10155826  0.08125745  0.35854893  1
  F  F16  1  0.25248930  0.57601516  0.33942106  1
  F  F17  1  0.99391194  0.24268216  0.57973524  1
  F  F18  1  0.75359876  0.90934916  0.08084370  1
  F  F19  1  0.40961370  0.24885220  0.40421142  1
  F  F20  1  0.92365667  0.41459045  0.23177474  1
  F  F21  1  0.26780042  0.08255128  0.93581795  1
  F  F22  1  0.92912158  0.91551820  0.67206828  1
  F  F23  1  0.66126472  0.58218520  0.92372030  1
