# generated using pymatgen
data_BaTm2O4
_symmetry_space_group_name_H-M   'P 1'
_cell_length_a   6.01040759
_cell_length_b   6.01040759
_cell_length_c   21.79902651
_cell_angle_alpha   90.35651611
_cell_angle_beta   89.64348389
_cell_angle_gamma   118.85513726
_symmetry_Int_Tables_number   1
_chemical_formula_structural   BaTm2O4
_chemical_formula_sum   'Ba6 Tm12 O24'
_cell_volume   689.69917455
_cell_formula_units_Z   6
loop_
 _symmetry_equiv_pos_site_id
 _symmetry_equiv_pos_as_xyz
  1  'x, y, z'
loop_
 _atom_site_type_symbol
 _atom_site_label
 _atom_site_symmetry_multiplicity
 _atom_site_fract_x
 _atom_site_fract_y
 _atom_site_fract_z
 _atom_site_occupancy
  Ba  Ba0  1  0.44689878  0.77486130  0.14390793  1
  Ba  Ba1  1  0.22513870  0.55310122  0.64390793  1
  Ba  Ba2  1  0.11086939  0.11086939  0.25000000  1
  Ba  Ba3  1  0.88913061  0.88913061  0.75000000  1
  Ba  Ba4  1  0.55310122  0.22513870  0.85609207  1
  Ba  Ba5  1  0.77486130  0.44689878  0.35609207  1
  Tm  Tm6  1  0.44315442  0.78118868  0.30572797  1
  Tm  Tm7  1  0.21881132  0.55684558  0.80572797  1
  Tm  Tm8  1  0.45526189  0.78429059  0.44770146  1
  Tm  Tm9  1  0.21570941  0.54473811  0.94770146  1
  Tm  Tm10  1  0.11409647  0.12250718  0.42937589  1
  Tm  Tm11  1  0.87749282  0.88590253  0.92937589  1
  Tm  Tm12  1  0.12250718  0.11409647  0.07062411  1
  Tm  Tm13  1  0.88590253  0.87749282  0.57062411  1
  Tm  Tm14  1  0.78429059  0.45526189  0.05229854  1
  Tm  Tm15  1  0.54473811  0.21570941  0.55229854  1
  Tm  Tm16  1  0.78118868  0.44315442  0.19427203  1
  Tm  Tm17  1  0.55684558  0.21881132  0.69427203  1
  O  O18  1  0.20668060  0.90754668  0.50290579  1
  O  O19  1  0.09245332  0.79331940  0.00290579  1
  O  O20  1  0.34359059  0.00405726  0.37557714  1
  O  O21  1  0.99594274  0.65640941  0.87557714  1
  O  O22  1  0.33712625  0.89529533  0.75194002  1
  O  O23  1  0.10470467  0.66287375  0.25194002  1
  O  O24  1  0.23204545  0.47220077  0.38054358  1
  O  O25  1  0.52779923  0.76795455  0.88054358  1
  O  O26  1  0.77098828  0.88955059  0.37646553  1
  O  O27  1  0.11044941  0.22901172  0.87646553  1
  O  O28  1  0.54575083  0.54575083  0.25000000  1
  O  O29  1  0.50000000  0.50000000  0.00000000  1
  O  O30  1  0.50000000  0.50000000  0.50000000  1
  O  O31  1  0.45424917  0.45424917  0.75000000  1
  O  O32  1  0.88955059  0.77098828  0.12353447  1
  O  O33  1  0.22901172  0.11044941  0.62353447  1
  O  O34  1  0.47220077  0.23204545  0.11945642  1
  O  O35  1  0.76795455  0.52779923  0.61945642  1
  O  O36  1  0.66287375  0.10470467  0.24805998  1
  O  O37  1  0.89529533  0.33712625  0.74805998  1
  O  O38  1  0.00405726  0.34359059  0.12442286  1
  O  O39  1  0.65640941  0.99594274  0.62442286  1
  O  O40  1  0.79331940  0.09245332  0.49709421  1
  O  O41  1  0.90754668  0.20668060  0.99709421  1
