# generated using pymatgen
data_CsTi2SiH3O8
_symmetry_space_group_name_H-M   'P 1'
_cell_length_a   11.01547422
_cell_length_b   11.01529304
_cell_length_c   12.81230154
_cell_angle_alpha   90.00000000
_cell_angle_beta   90.00000000
_cell_angle_gamma   89.94839008
_symmetry_Int_Tables_number   1
_chemical_formula_structural   CsTi2SiH3O8
_chemical_formula_sum   'Cs8 Ti16 Si8 H24 O64'
_cell_volume   1554.62708040
_cell_formula_units_Z   8
loop_
 _symmetry_equiv_pos_site_id
 _symmetry_equiv_pos_as_xyz
  1  'x, y, z'
loop_
 _atom_site_type_symbol
 _atom_site_label
 _atom_site_symmetry_multiplicity
 _atom_site_fract_x
 _atom_site_fract_y
 _atom_site_fract_z
 _atom_site_occupancy
  Cs  Cs0  1  0.00000078  0.49999967  0.87398827  1
  Cs  Cs1  1  0.50000217  0.99999628  0.87342348  1
  Cs  Cs2  1  0.99999898  0.50000923  0.62601047  1
  Cs  Cs3  1  0.50000159  0.00000671  0.62659156  1
  Cs  Cs4  1  0.99999898  0.50000923  0.37398953  1
  Cs  Cs5  1  0.50000159  0.00000671  0.37340844  1
  Cs  Cs6  1  0.00000078  0.49999967  0.12601173  1
  Cs  Cs7  1  0.50000217  0.99999628  0.12657652  1
  Ti  Ti8  1  0.15043930  0.00052792  0.85020737  1
  Ti  Ti9  1  0.36625666  0.49939251  0.85451663  1
  Ti  Ti10  1  0.63374823  0.50060889  0.85451745  1
  Ti  Ti11  1  0.84955995  0.99947635  0.85020316  1
  Ti  Ti12  1  0.00061510  0.13375100  0.64548066  1
  Ti  Ti13  1  0.49947910  0.34955904  0.64979564  1
  Ti  Ti14  1  0.50052268  0.65044565  0.64979363  1
  Ti  Ti15  1  0.99938962  0.86625586  0.64548158  1
  Ti  Ti16  1  0.00061510  0.13375100  0.35451934  1
  Ti  Ti17  1  0.49947910  0.34955904  0.35020436  1
  Ti  Ti18  1  0.50052268  0.65044565  0.35020637  1
  Ti  Ti19  1  0.99938962  0.86625586  0.35451842  1
  Ti  Ti20  1  0.15043930  0.00052792  0.14979263  1
  Ti  Ti21  1  0.36625666  0.49939251  0.14548337  1
  Ti  Ti22  1  0.63374823  0.50060889  0.14548255  1
  Ti  Ti23  1  0.84955995  0.99947635  0.14979684  1
  Si  Si24  1  0.24764524  0.25235887  0.74999893  1
  Si  Si25  1  0.24906110  0.74906779  0.75000215  1
  Si  Si26  1  0.75094469  0.25093534  0.74999759  1
  Si  Si27  1  0.75236098  0.74764476  0.75000128  1
  Si  Si28  1  0.24764524  0.25235887  0.25000107  1
  Si  Si29  1  0.24906110  0.74906779  0.24999785  1
  Si  Si30  1  0.75094469  0.25093534  0.25000241  1
  Si  Si31  1  0.75236098  0.74764476  0.24999872  1
  H  H32  1  0.99501165  0.18616733  0.88456715  1
  H  H33  1  0.00498754  0.81383771  0.88456715  1
  H  H34  1  0.31384054  0.50498472  0.61543333  1
  H  H35  1  0.68616196  0.49501316  0.61543128  1
  H  H36  1  0.18906656  0.67362072  0.50000000  1
  H  H37  1  0.25821651  0.00826571  0.50000000  1
  H  H38  1  0.31607873  0.14363227  0.50000000  1
  H  H39  1  0.32003974  0.62546586  0.50000000  1
  H  H40  1  0.67995966  0.37453309  0.50000000  1
  H  H41  1  0.74175885  0.99178934  0.50000000  1
  H  H42  1  0.68395624  0.85639546  0.50000000  1
  H  H43  1  0.81093595  0.32638118  0.50000000  1
  H  H44  1  0.31384054  0.50498472  0.38456667  1
  H  H45  1  0.68616196  0.49501316  0.38456872  1
  H  H46  1  0.99501165  0.18616733  0.11543285  1
  H  H47  1  0.00498754  0.81383771  0.11543285  1
  H  H48  1  0.12546346  0.82003581  0.00000000  1
  H  H49  1  0.17362310  0.68906170  0.00000000  1
  H  H50  1  0.35639289  0.18395357  0.00000000  1
  H  H51  1  0.49178575  0.24175487  0.00000000  1
  H  H52  1  0.50826660  0.75821862  0.00000000  1
  H  H53  1  0.64363436  0.81607613  0.00000000  1
  H  H54  1  0.82637990  0.31093408  0.00000000  1
  H  H55  1  0.87454336  0.17996002  0.00000000  1
  O  O56  1  0.00072454  0.11380959  0.84082317  1
  O  O57  1  0.25557179  0.13089304  0.82705668  1
  O  O58  1  0.25733194  0.87025937  0.82656427  1
  O  O59  1  0.24785880  0.37598680  0.82050120  1
  O  O60  1  0.24992657  0.62607243  0.82135712  1
  O  O61  1  0.74267044  0.12974660  0.82655888  1
  O  O62  1  0.74443058  0.86910916  0.82705910  1
  O  O63  1  0.99927715  0.88619562  0.84082310  1
  O  O64  1  0.50084738  0.38909663  0.81467577  1
  O  O65  1  0.49915887  0.61090568  0.81467759  1
  O  O66  1  0.75214807  0.62401515  0.82049848  1
  O  O67  1  0.75007752  0.37393277  0.82135687  1
  O  O68  1  0.11090209  0.99915934  0.68532114  1
  O  O69  1  0.12607243  0.74992689  0.67863754  1
  O  O70  1  0.12402325  0.25214962  0.67949439  1
  O  O71  1  0.36911445  0.24442524  0.67294115  1
  O  O72  1  0.37025902  0.75734591  0.67344051  1
  O  O73  1  0.88909953  0.00084678  0.68532207  1
  O  O74  1  0.38619947  0.49927977  0.65917450  1
  O  O75  1  0.62975178  0.24266362  0.67343288  1
  O  O76  1  0.63089213  0.75557628  0.67294184  1
  O  O77  1  0.87393510  0.25008156  0.67863663  1
  O  O78  1  0.87598503  0.74785631  0.67949652  1
  O  O79  1  0.61380283  0.50072696  0.65917183  1
  O  O80  1  0.01147158  0.86054423  0.50000000  1
  O  O81  1  0.24264243  0.09501574  0.50000000  1
  O  O82  1  0.23413709  0.59672966  0.50000000  1
  O  O83  1  0.49045761  0.65563456  0.50000000  1
  O  O84  1  0.50953824  0.34437402  0.50000000  1
  O  O85  1  0.76586359  0.40327214  0.50000000  1
  O  O86  1  0.75735622  0.90499965  0.50000000  1
  O  O87  1  0.98852812  0.13945611  0.50000000  1
  O  O88  1  0.38619947  0.49927977  0.34082550  1
  O  O89  1  0.12402325  0.25214962  0.32050561  1
  O  O90  1  0.12607243  0.74992689  0.32136246  1
  O  O91  1  0.36911445  0.24442524  0.32705885  1
  O  O92  1  0.37025902  0.75734591  0.32655949  1
  O  O93  1  0.61380283  0.50072696  0.34082817  1
  O  O94  1  0.11090209  0.99915934  0.31467886  1
  O  O95  1  0.62975178  0.24266362  0.32656712  1
  O  O96  1  0.63089213  0.75557628  0.32705816  1
  O  O97  1  0.87598503  0.74785631  0.32050348  1
  O  O98  1  0.87393510  0.25008156  0.32136337  1
  O  O99  1  0.88909953  0.00084678  0.31467793  1
  O  O100  1  0.24992657  0.62607243  0.17864288  1
  O  O101  1  0.24785880  0.37598680  0.17949880  1
  O  O102  1  0.50084738  0.38909663  0.18532423  1
  O  O103  1  0.49915887  0.61090568  0.18532241  1
  O  O104  1  0.00072454  0.11380959  0.15917683  1
  O  O105  1  0.25557179  0.13089304  0.17294332  1
  O  O106  1  0.25733194  0.87025937  0.17343573  1
  O  O107  1  0.75007752  0.37393277  0.17864313  1
  O  O108  1  0.75214807  0.62401515  0.17950152  1
  O  O109  1  0.74267044  0.12974660  0.17344112  1
  O  O110  1  0.74443058  0.86910916  0.17294090  1
  O  O111  1  0.99927715  0.88619562  0.15917690  1
  O  O112  1  0.09672985  0.73412929  0.00000000  1
  O  O113  1  0.15561720  0.99046614  0.00000000  1
  O  O114  1  0.36054765  0.51147686  0.00000000  1
  O  O115  1  0.40499808  0.25735415  0.00000000  1
  O  O116  1  0.59502018  0.74264134  0.00000000  1
  O  O117  1  0.63945895  0.48852023  0.00000000  1
  O  O118  1  0.84438031  0.00953983  0.00000000  1
  O  O119  1  0.90327401  0.26586780  0.00000000  1
