# generated using pymatgen
data_Rb2O
_symmetry_space_group_name_H-M   'P 1'
_cell_length_a   7.39369001
_cell_length_b   9.91422548
_cell_length_c   9.91673893
_cell_angle_alpha   80.40135639
_cell_angle_beta   68.09886433
_cell_angle_gamma   138.16873258
_symmetry_Int_Tables_number   1
_chemical_formula_structural   Rb2O
_chemical_formula_sum   'Rb6 O3'
_cell_volume   312.81609008
_cell_formula_units_Z   3
loop_
 _symmetry_equiv_pos_site_id
 _symmetry_equiv_pos_as_xyz
  1  'x, y, z'
loop_
 _atom_site_type_symbol
 _atom_site_label
 _atom_site_symmetry_multiplicity
 _atom_site_fract_x
 _atom_site_fract_y
 _atom_site_fract_z
 _atom_site_occupancy
  Rb  Rb0  1  0.17328051  0.84932632  0.00588983  1
  Rb  Rb1  1  0.13156690  0.79178943  0.66482021  1
  Rb  Rb2  1  0.12655073  0.46321876  0.99246424  1
  Rb  Rb3  1  0.19670059  0.53057130  0.32393660  1
  Rb  Rb4  1  0.10657333  0.11464251  0.34076856  1
  Rb  Rb5  1  0.19020105  0.18628525  0.66826031  1
  O  O6  1  0.64669630  0.31575184  0.33291599  1
  O  O7  1  0.67647887  0.01164549  0.66583964  1
  O  O8  1  0.63734572  0.63978610  -0.00006537  1
