# generated using pymatgen
data_Li4MnFe3(BO3)4
_symmetry_space_group_name_H-M   'P 1'
_cell_length_a   5.23009528
_cell_length_b   5.22779607
_cell_length_c   10.40636884
_cell_angle_alpha   88.76959181
_cell_angle_beta   90.77013767
_cell_angle_gamma   60.10146034
_symmetry_Int_Tables_number   1
_chemical_formula_structural   Li4MnFe3(BO3)4
_chemical_formula_sum   'Li4 Mn1 Fe3 B4 O12'
_cell_volume   246.50881937
_cell_formula_units_Z   1
loop_
 _symmetry_equiv_pos_site_id
 _symmetry_equiv_pos_as_xyz
  1  'x, y, z'
loop_
 _atom_site_type_symbol
 _atom_site_label
 _atom_site_symmetry_multiplicity
 _atom_site_fract_x
 _atom_site_fract_y
 _atom_site_fract_z
 _atom_site_occupancy
  Li  Li0  1  0.33307847  0.64828614  0.33142412  1
  Li  Li1  1  0.34072721  0.68000394  0.83434254  1
  Li  Li2  1  0.65463897  0.32796245  0.58158930  1
  Li  Li3  1  0.65665232  0.36074591  0.08370149  1
  Mn  Mn4  1  0.67165395  0.00142907  0.86592846  1
  Fe  Fe5  1  0.31814005  0.01461224  0.11951428  1
  Fe  Fe6  1  0.01769421  0.31837428  0.36936208  1
  Fe  Fe7  1  0.00015357  0.66751451  0.61699083  1
  B  B8  1  -0.00192386  0.33954677  0.87381007  1
  B  B9  1  0.33144368  0.99844673  0.62204433  1
  B  B10  1  0.66965274  0.99284927  0.37349333  1
  B  B11  1  0.98839830  0.68012197  0.12555951  1
  O  O12  1  0.06698499  0.24655414  0.58378475  1
  O  O13  1  0.24943843  0.06689579  0.90572011  1
  O  O14  1  0.03042771  0.57694933  0.83177382  1
  O  O15  1  0.58266931  0.02004124  0.65033247  1
  O  O16  1  0.26194102  0.66428788  0.13939572  1
  O  O17  1  0.35180265  0.72323713  0.63554607  1
  O  O18  1  0.64659964  0.26552245  0.38556949  1
  O  O19  1  0.72138921  0.37053461  0.88721585  1
  O  O20  1  0.42261923  0.97034252  0.33489827  1
  O  O21  1  0.96810116  0.42905638  0.15583691  1
  O  O22  1  0.73938637  0.94128763  0.08410200  1
  O  O23  1  0.93773068  0.73599761  0.40426420  1
