# generated using pymatgen
data_Li2Fe3SbO8
_symmetry_space_group_name_H-M   'P 1'
_cell_length_a   8.60689015
_cell_length_b   8.60685699
_cell_length_c   8.60782532
_cell_angle_alpha   89.99971570
_cell_angle_beta   89.99956785
_cell_angle_gamma   90.00018426
_symmetry_Int_Tables_number   1
_chemical_formula_structural   Li2Fe3SbO8
_chemical_formula_sum   'Li8 Fe12 Sb4 O32'
_cell_volume   637.65283096
_cell_formula_units_Z   4
loop_
 _symmetry_equiv_pos_site_id
 _symmetry_equiv_pos_as_xyz
  1  'x, y, z'
loop_
 _atom_site_type_symbol
 _atom_site_label
 _atom_site_symmetry_multiplicity
 _atom_site_fract_x
 _atom_site_fract_y
 _atom_site_fract_z
 _atom_site_occupancy
  Li  Li0  1  0.00158396  0.00158669  0.00158419  1
  Li  Li1  1  0.24842771  0.24842914  0.24841483  1
  Li  Li2  1  0.25158904  0.75159342  0.74841372  1
  Li  Li3  1  0.49841882  0.99841579  0.50158343  1
  Li  Li4  1  0.50158592  0.49842144  0.99841737  1
  Li  Li5  1  0.74843142  0.25157694  0.75159118  1
  Li  Li6  1  0.75157860  0.74842623  0.25159053  1
  Li  Li7  1  0.99842593  0.50158125  0.49842925  1
  Fe  Fe8  1  0.11629290  0.13368741  0.62502367  1
  Fe  Fe9  1  0.12501667  0.38372728  0.86631422  1
  Fe  Fe10  1  0.13370075  0.62502749  0.11628745  1
  Fe  Fe11  1  0.36630627  0.37498396  0.61630653  1
  Fe  Fe12  1  0.37498409  0.61627639  0.36632534  1
  Fe  Fe13  1  0.38372351  0.86629388  0.12502468  1
  Fe  Fe14  1  0.61628688  0.36630484  0.37498318  1
  Fe  Fe15  1  0.62501762  0.11629029  0.13368308  1
  Fe  Fe16  1  0.63369577  0.87498312  0.88370990  1
  Fe  Fe17  1  0.86630234  0.12502719  0.38370561  1
  Fe  Fe18  1  0.87498654  0.88372219  0.63367766  1
  Fe  Fe19  1  0.88371717  0.63371061  0.87498537  1
  Sb  Sb20  1  0.12495415  0.87505525  0.37503666  1
  Sb  Sb21  1  0.37501825  0.12498472  0.87502240  1
  Sb  Sb22  1  0.62494723  0.62493720  0.62495486  1
  Sb  Sb23  1  0.87500978  0.37501994  0.12499990  1
  O  O24  1  0.11376343  0.10976908  0.38634794  1
  O  O25  1  0.11367517  0.88624203  0.60974292  1
  O  O26  1  0.11647203  0.61649418  0.88354317  1
  O  O27  1  0.14027161  0.13624091  0.86370302  1
  O  O28  1  0.10977316  0.38633490  0.11373830  1
  O  O29  1  0.13352011  0.36648488  0.63356509  1
  O  O30  1  0.13627198  0.64026591  0.36374296  1
  O  O31  1  0.13623416  0.86371527  0.14025476  1
  O  O32  1  0.36377152  0.13628335  0.64027337  1
  O  O33  1  0.36371584  0.35973398  0.86375414  1
  O  O34  1  0.36647447  0.63351536  0.13354329  1
  O  O35  1  0.39024057  0.61368126  0.61373847  1
  O  O36  1  0.35973135  0.86376197  0.36369195  1
  O  O37  1  0.38351812  0.38352993  0.38354911  1
  O  O38  1  0.38631900  0.11375874  0.10975609  1
  O  O39  1  0.38624379  0.89022601  0.88635523  1
  O  O40  1  0.61376072  0.39023237  0.61365796  1
  O  O41  1  0.61367482  0.61375935  0.39025849  1
  O  O42  1  0.61647478  0.88351991  0.11645114  1
  O  O43  1  0.64027318  0.36376164  0.13630133  1
  O  O44  1  0.60977021  0.11367681  0.88626024  1
  O  O45  1  0.63352122  0.13351026  0.36644453  1
  O  O46  1  0.63627384  0.85973628  0.63625818  1
  O  O47  1  0.63624037  0.63628420  0.85974662  1
  O  O48  1  0.86376321  0.36372375  0.35973687  1
  O  O49  1  0.86371963  0.14027978  0.13625866  1
  O  O50  1  0.86647246  0.86648607  0.86645338  1
  O  O51  1  0.89023192  0.88631865  0.38627189  1
  O  O52  1  0.85973991  0.63623774  0.63630918  1
  O  O53  1  0.88352579  0.11646922  0.61646151  1
  O  O54  1  0.88631793  0.38625384  0.89024979  1
  O  O55  1  0.88624135  0.60978770  0.11365242  1
