# generated using pymatgen
data_Li3Mn2Fe(BO3)3
_symmetry_space_group_name_H-M   'P 1'
_cell_length_a   8.27575010
_cell_length_b   8.26642555
_cell_length_c   6.34106377
_cell_angle_alpha   90.00000000
_cell_angle_beta   90.00000000
_cell_angle_gamma   120.14158953
_symmetry_Int_Tables_number   1
_chemical_formula_structural   Li3Mn2Fe(BO3)3
_chemical_formula_sum   'Li6 Mn4 Fe2 B6 O18'
_cell_volume   375.14268250
_cell_formula_units_Z   2
loop_
 _symmetry_equiv_pos_site_id
 _symmetry_equiv_pos_as_xyz
  1  'x, y, z'
loop_
 _atom_site_type_symbol
 _atom_site_label
 _atom_site_symmetry_multiplicity
 _atom_site_fract_x
 _atom_site_fract_y
 _atom_site_fract_z
 _atom_site_occupancy
  Li  Li0  1  0.28382064  0.98202168  0.24944704  1
  Li  Li1  1  0.28382064  0.98202168  0.75055296  1
  Li  Li2  1  0.01675025  0.30117868  0.24998590  1
  Li  Li3  1  0.01675025  0.30117868  0.75001410  1
  Li  Li4  1  0.69831947  0.71529481  0.74966906  1
  Li  Li5  1  0.69831947  0.71529481  0.25033094  1
  Mn  Mn6  1  0.37252687  0.36034772  0.00000000  1
  Mn  Mn7  1  0.37270302  0.36042646  0.50000000  1
  Mn  Mn8  1  0.64048574  0.01241625  0.50000000  1
  Mn  Mn9  1  0.98769265  0.62756855  0.00000000  1
  Fe  Fe10  1  0.64059312  0.00761505  0.00000000  1
  Fe  Fe11  1  0.99302943  0.63287446  0.50000000  1
  B  B12  1  0.99963295  0.00267460  0.00000000  1
  B  B13  1  0.99774863  0.99714864  0.50000000  1
  B  B14  1  0.33338161  0.66760801  0.24987900  1
  B  B15  1  0.33338161  0.66760801  0.75012100  1
  B  B16  1  0.66790399  0.33311622  0.24999928  1
  B  B17  1  0.66790399  0.33311622  0.75000072  1
  O  O18  1  0.11120388  0.91609072  0.50000000  1
  O  O19  1  0.11181408  0.92147804  0.00000000  1
  O  O20  1  0.13955146  0.58159887  0.25386966  1
  O  O21  1  0.13955146  0.58159887  0.74613034  1
  O  O22  1  0.07960765  0.19634968  0.00000000  1
  O  O23  1  0.07919176  0.19100975  0.50000000  1
  O  O24  1  0.44148570  0.86140952  0.24564885  1
  O  O25  1  0.44148570  0.86140952  0.75435115  1
  O  O26  1  0.41886254  0.55980182  0.25028007  1
  O  O27  1  0.41886254  0.55980182  0.74971993  1
  O  O28  1  0.47377050  0.25143871  0.24962741  1
  O  O29  1  0.47377050  0.25143871  0.75037259  1
  O  O30  1  0.80483331  0.88898480  0.00000000  1
  O  O31  1  0.80428754  0.88324362  0.50000000  1
  O  O32  1  0.78031513  0.52721049  0.25246794  1
  O  O33  1  0.78031513  0.52721049  0.74753206  1
  O  O34  1  0.74816390  0.22020601  0.75208143  1
  O  O35  1  0.74816390  0.22020601  0.24791857  1
