# generated using pymatgen
data_Ba2YF7
_symmetry_space_group_name_H-M   'P 1'
_cell_length_a   8.92422295
_cell_length_b   13.22854422
_cell_length_c   5.93184038
_cell_angle_alpha   90.00000000
_cell_angle_beta   90.65592477
_cell_angle_gamma   90.00000000
_symmetry_Int_Tables_number   1
_chemical_formula_structural   Ba2YF7
_chemical_formula_sum   'Ba8 Y4 F28'
_cell_volume   700.23443147
_cell_formula_units_Z   4
loop_
 _symmetry_equiv_pos_site_id
 _symmetry_equiv_pos_as_xyz
  1  'x, y, z'
loop_
 _atom_site_type_symbol
 _atom_site_label
 _atom_site_symmetry_multiplicity
 _atom_site_fract_x
 _atom_site_fract_y
 _atom_site_fract_z
 _atom_site_occupancy
  Ba  Ba0  1  0.05263323  0.22034217  0.26553074  1
  Ba  Ba1  1  0.17659987  0.56251792  0.26217071  1
  Ba  Ba2  1  0.32340013  0.06251792  0.73782929  1
  Ba  Ba3  1  0.44736677  0.72034217  0.73446926  1
  Ba  Ba4  1  0.55263323  0.27965783  0.26553074  1
  Ba  Ba5  1  0.67659987  0.93748208  0.26217071  1
  Ba  Ba6  1  0.82340013  0.43748208  0.73782929  1
  Ba  Ba7  1  0.94736677  0.77965783  0.73446926  1
  Y  Y8  1  0.21578235  0.87436084  0.22095432  1
  Y  Y9  1  0.28421765  0.37436084  0.77904568  1
  Y  Y10  1  0.71578235  0.62563916  0.22095432  1
  Y  Y11  1  0.78421765  0.12563916  0.77904568  1
  F  F12  1  0.02727956  0.13985811  0.70588779  1
  F  F13  1  0.07620870  0.39439461  0.99163955  1
  F  F14  1  0.09212980  0.39520334  0.52126799  1
  F  F15  1  0.13099182  0.92470446  0.88117930  1
  F  F16  1  0.19660431  0.74655833  0.48015774  1
  F  F17  1  0.20481559  0.73171285  0.00863658  1
  F  F18  1  0.21184057  0.03854861  0.29978726  1
  F  F19  1  0.28815943  0.53854861  0.70021274  1
  F  F20  1  0.29518441  0.23171285  0.99136342  1
  F  F21  1  0.30339569  0.24655833  0.51984226  1
  F  F22  1  0.36900818  0.42470446  0.11882070  1
  F  F23  1  0.40787020  0.89520334  0.47873201  1
  F  F24  1  0.42379130  0.89439461  0.00836045  1
  F  F25  1  0.47272044  0.63985811  0.29411221  1
  F  F26  1  0.52727956  0.36014189  0.70588779  1
  F  F27  1  0.57620870  0.10560539  0.99163955  1
  F  F28  1  0.59212980  0.10479666  0.52126799  1
  F  F29  1  0.63099182  0.57529554  0.88117930  1
  F  F30  1  0.69660431  0.75344167  0.48015774  1
  F  F31  1  0.70481559  0.76828715  0.00863658  1
  F  F32  1  0.71184057  0.46145139  0.29978726  1
  F  F33  1  0.78815943  0.96145139  0.70021274  1
  F  F34  1  0.79518441  0.26828715  0.99136342  1
  F  F35  1  0.80339569  0.25344167  0.51984226  1
  F  F36  1  0.86900818  0.07529554  0.11882070  1
  F  F37  1  0.90787020  0.60479666  0.47873201  1
  F  F38  1  0.92379130  0.60560539  0.00836045  1
  F  F39  1  0.97272044  0.86014189  0.29411221  1
