# generated using pymatgen
data_Ti3FeSn2(PO4)6
_symmetry_space_group_name_H-M   'P 1'
_cell_length_a   9.15808264
_cell_length_b   9.15808339
_cell_length_c   9.15808296
_cell_angle_alpha   56.40601753
_cell_angle_beta   56.40601470
_cell_angle_gamma   56.40601235
_symmetry_Int_Tables_number   1
_chemical_formula_structural   Ti3FeSn2(PO4)6
_chemical_formula_sum   'Ti3 Fe1 Sn2 P6 O24'
_cell_volume   497.98650190
_cell_formula_units_Z   1
loop_
 _symmetry_equiv_pos_site_id
 _symmetry_equiv_pos_as_xyz
  1  'x, y, z'
loop_
 _atom_site_type_symbol
 _atom_site_label
 _atom_site_symmetry_multiplicity
 _atom_site_fract_x
 _atom_site_fract_y
 _atom_site_fract_z
 _atom_site_occupancy
  Ti  Ti0  1  0.14448965  0.14448965  0.14448965  1
  Ti  Ti1  1  0.35269319  0.35269319  0.35269319  1
  Ti  Ti2  1  0.65664952  0.65664952  0.65664952  1
  Fe  Fe3  1  0.84682573  0.84682573  0.84682573  1
  Sn  Sn4  1  0.98253048  0.98253048  0.98253048  1
  Sn  Sn5  1  0.51444610  0.51444610  0.51444610  1
  P  P6  1  0.25773502  0.52847377  0.96309050  1
  P  P7  1  0.52847377  0.96309050  0.25773502  1
  P  P8  1  0.96309050  0.25773502  0.52847377  1
  P  P9  1  0.04632586  0.74944100  0.45985268  1
  P  P10  1  0.45985268  0.04632586  0.74944100  1
  P  P11  1  0.74944100  0.45985268  0.04632586  1
  O  O12  1  0.12103025  0.30462074  0.48834638  1
  O  O13  1  0.30462074  0.48834638  0.12103025  1
  O  O14  1  0.05895202  0.93178842  0.28569408  1
  O  O15  1  0.48834638  0.12103025  0.30462074  1
  O  O16  1  0.03970374  0.75195330  0.62721767  1
  O  O17  1  0.21850463  0.58393141  0.40300898  1
  O  O18  1  0.28569408  0.05895202  0.93178842  1
  O  O19  1  0.40300898  0.21850463  0.58393141  1
  O  O20  1  0.22140405  0.36652548  0.99349425  1
  O  O21  1  0.58393141  0.40300898  0.21850463  1
  O  O22  1  0.08611424  0.71348366  0.94272170  1
  O  O23  1  0.36652548  0.99349425  0.22140405  1
  O  O24  1  0.62721767  0.03970374  0.75195330  1
  O  O25  1  0.93178842  0.28569408  0.05895202  1
  O  O26  1  0.43344216  0.55506738  0.77759282  1
  O  O27  1  0.75195330  0.62721767  0.03970374  1
  O  O28  1  0.55506738  0.77759282  0.43344216  1
  O  O29  1  0.71348366  0.94272170  0.08611424  1
  O  O30  1  0.77759282  0.43344216  0.55506738  1
  O  O31  1  0.99349425  0.22140405  0.36652548  1
  O  O32  1  0.49922529  0.86705816  0.72656569  1
  O  O33  1  0.94272170  0.08611424  0.71348366  1
  O  O34  1  0.72656569  0.49922529  0.86705816  1
  O  O35  1  0.86705816  0.72656569  0.49922529  1
