# generated using pymatgen
data_Li3Mn2Fe(BO3)3
_symmetry_space_group_name_H-M   'P 1'
_cell_length_a   8.26508165
_cell_length_b   14.30866810
_cell_length_c   3.17373645
_cell_angle_alpha   90.00000000
_cell_angle_beta   90.00000000
_cell_angle_gamma   89.87610883
_symmetry_Int_Tables_number   1
_chemical_formula_structural   Li3Mn2Fe(BO3)3
_chemical_formula_sum   'Li6 Mn4 Fe2 B6 O18'
_cell_volume   375.33252708
_cell_formula_units_Z   2
loop_
 _symmetry_equiv_pos_site_id
 _symmetry_equiv_pos_as_xyz
  1  'x, y, z'
loop_
 _atom_site_type_symbol
 _atom_site_label
 _atom_site_symmetry_multiplicity
 _atom_site_fract_x
 _atom_site_fract_y
 _atom_site_fract_z
 _atom_site_occupancy
  Li  Li0  1  0.29292878  0.99085849  0.50000000  1
  Li  Li1  1  0.33933326  0.35888376  0.50000000  1
  Li  Li2  1  0.36564684  0.65067134  0.50000000  1
  Li  Li3  1  0.79292592  0.49238586  0.50000000  1
  Li  Li4  1  0.84091475  0.85720835  0.50000000  1
  Li  Li5  1  0.86700854  0.15083976  0.50000000  1
  Mn  Mn6  1  0.17354332  0.81397426  0.00000000  1
  Mn  Mn7  1  0.19101446  0.17956298  0.00000000  1
  Mn  Mn8  1  0.63508813  0.00553515  0.00000000  1
  Mn  Mn9  1  0.67435349  0.31393420  0.00000000  1
  Fe  Fe10  1  0.13671332  0.50434613  0.00000000  1
  Fe  Fe11  1  0.68774304  0.67947585  0.00000000  1
  B  B12  1  0.99836101  0.66556620  0.50000000  1
  B  B13  1  0.00006635  -0.00006755  0.00000000  1
  B  B14  1  0.00102327  0.33450565  0.50000000  1
  B  B15  1  0.49988587  0.16686024  0.50000000  1
  B  B16  1  0.50045162  0.50105867  0.00000000  1
  B  B17  1  0.50106627  0.83226859  0.50000000  1
  O  O18  1  0.01219923  0.43150972  0.50000000  1
  O  O19  1  0.01509017  0.76258541  0.50000000  1
  O  O20  1  0.13565436  0.60865508  0.50000000  1
  O  O21  1  0.14049873  0.28031671  0.50000000  1
  O  O22  1  0.15480768  0.96095116  0.00000000  1
  O  O23  1  0.34795928  0.12512486  0.50000000  1
  O  O24  1  0.35030145  0.78975678  0.50000000  1
  O  O25  1  0.36152692  0.44551703  0.00000000  1
  O  O26  1  0.48567691  0.59808463  0.00000000  1
  O  O27  1  0.51178246  0.92920664  0.50000000  1
  O  O28  1  0.51331536  0.26393562  0.50000000  1
  O  O29  1  0.63861232  0.11158064  0.50000000  1
  O  O30  1  0.64098668  0.77800077  0.50000000  1
  O  O31  1  0.65307992  0.46009667  0.00000000  1
  O  O32  1  0.84431408  0.62649363  0.50000000  1
  O  O33  1  0.85054601  0.29136056  0.50000000  1
  O  O34  1  0.86455446  0.94208874  0.00000000  1
  O  O35  1  0.98102274  0.09687043  0.00000000  1
