# generated using pymatgen
data_VOF2
_symmetry_space_group_name_H-M   'P 1'
_cell_length_a   5.18808478
_cell_length_b   13.39848624
_cell_length_c   5.21589938
_cell_angle_alpha   89.61404646
_cell_angle_beta   120.16618701
_cell_angle_gamma   89.83033837
_symmetry_Int_Tables_number   1
_chemical_formula_structural   VOF2
_chemical_formula_sum   'V6 O6 F12'
_cell_volume   313.45223394
_cell_formula_units_Z   6
loop_
 _symmetry_equiv_pos_site_id
 _symmetry_equiv_pos_as_xyz
  1  'x, y, z'
loop_
 _atom_site_type_symbol
 _atom_site_label
 _atom_site_symmetry_multiplicity
 _atom_site_fract_x
 _atom_site_fract_y
 _atom_site_fract_z
 _atom_site_occupancy
  V  V0  1  0.98832675  0.49385399  0.96821495  1
  V  V1  1  0.01655897  0.99283334  0.02390844  1
  V  V2  1  0.64407752  0.82613298  0.35530102  1
  V  V3  1  0.30732247  0.65963999  0.66205353  1
  V  V4  1  0.70962068  0.32700791  0.36817312  1
  V  V5  1  0.36859703  0.15915847  0.67852189  1
  O  O6  1  0.31421539  0.91880992  0.24280105  1
  O  O7  1  0.99505599  0.25082127  0.58016342  1
  O  O8  1  0.09291270  0.58594746  0.74330022  1
  O  O9  1  0.57796239  0.75075160  0.57379381  1
  O  O10  1  0.76383543  0.42139739  0.67583310  1
  O  O11  1  0.65718672  0.08389501  0.74903631  1
  F  F12  1  0.98996133  0.75170234  0.38788675  1
  F  F13  1  0.39182860  0.75529150  0.98210555  1
  F  F14  1  0.35023680  0.41698249  0.08434399  1
  F  F15  1  0.05918092  0.08361644  0.33917704  1
  F  F16  1  0.26145875  0.58208726  0.32559352  1
  F  F17  1  0.59268045  0.25659590  0.99017738  1
  F  F18  1  0.72675222  0.91620661  0.07226914  1
  F  F19  1  0.39903631  0.25103936  0.39845725  1
  F  F20  1  0.94051716  0.41957879  0.26839069  1
  F  F21  1  0.25477317  0.08963203  0.93942199  1
  F  F22  1  0.91974476  0.91985065  0.65693562  1
  F  F23  1  0.67815849  0.58716931  0.93413924  1
