# generated using pymatgen
data_Hf2N2O
_symmetry_space_group_name_H-M   'P 1'
_cell_length_a   8.74269105
_cell_length_b   8.73520384
_cell_length_c   8.71122958
_cell_angle_alpha   109.39066093
_cell_angle_beta   109.43408959
_cell_angle_gamma   109.65859159
_symmetry_Int_Tables_number   1
_chemical_formula_structural   Hf2N2O
_chemical_formula_sum   'Hf16 N16 O8'
_cell_volume   511.68143332
_cell_formula_units_Z   8
loop_
 _symmetry_equiv_pos_site_id
 _symmetry_equiv_pos_as_xyz
  1  'x, y, z'
loop_
 _atom_site_type_symbol
 _atom_site_label
 _atom_site_symmetry_multiplicity
 _atom_site_fract_x
 _atom_site_fract_y
 _atom_site_fract_z
 _atom_site_occupancy
  Hf  Hf0  1  0.49863608  0.99767340  0.98710597  1
  Hf  Hf1  1  0.75738990  0.29353853  0.54551988  1
  Hf  Hf2  1  0.72081786  0.47389666  0.25036105  1
  Hf  Hf3  1  0.21364487  0.95508824  0.25003630  1
  Hf  Hf4  1  0.24806644  0.21272851  0.95549869  1
  Hf  Hf5  1  0.96507761  0.25833220  0.21753451  1
  Hf  Hf6  1  0.50320316  0.50839356  0.51231683  1
  Hf  Hf7  1  0.53522028  0.74982090  0.29015152  1
  Hf  Hf8  1  0.00828630  0.99760670  0.50771467  1
  Hf  Hf9  1  0.02925322  0.74303960  0.77616438  1
  Hf  Hf10  1  0.99676944  0.50725152  0.99658336  1
  Hf  Hf11  1  0.46516892  0.24974545  0.72146451  1
  Hf  Hf12  1  0.75080603  0.78212778  0.03236707  1
  Hf  Hf13  1  0.77996570  0.03071278  0.75270617  1
  Hf  Hf14  1  0.28213916  0.53199986  0.74281105  1
  Hf  Hf15  1  0.24978168  0.71341252  0.46318115  1
  N  N16  1  0.72963505  0.99262003  0.95963342  1
  N  N17  1  0.51037443  0.23841136  0.97150662  1
  N  N18  1  0.76759005  0.72831483  0.25983936  1
  N  N19  1  0.72585819  0.25654412  0.76835016  1
  N  N20  1  0.76781505  0.53884729  0.52737593  1
  N  N21  1  0.23609588  0.96662779  0.50805428  1
  N  N22  1  0.96292554  0.50560016  0.23595979  1
  N  N23  1  0.22655250  0.44823181  0.46290310  1
  N  N24  1  0.53810057  0.77126511  0.54276384  1
  N  N25  1  0.54664413  0.53476383  0.77344511  1
  N  N26  1  0.22489325  0.27286946  0.74087288  1
  N  N27  1  0.95850785  0.73246193  0.99206092  1
  N  N28  1  0.27543401  0.73927876  0.22282665  1
  N  N29  1  0.98953808  0.95817555  0.73102332  1
  N  N30  1  0.03230574  0.48513972  0.75874048  1
  N  N31  1  0.26509053  0.77703848  0.73070647  1
  O  O32  1  0.75868595  0.03444559  0.48066442  1
  O  O33  1  0.73981354  0.21906248  0.27645522  1
  O  O34  1  0.28023457  0.01553627  0.05386414  1
  O  O35  1  0.46154981  0.22563442  0.44799820  1
  O  O36  1  0.44490032  0.46489681  0.22306087  1
  O  O37  1  0.05254519  0.27598871  0.01919376  1
  O  O38  1  0.48885132  0.76523909  0.03616909  1
  O  O39  1  0.01183078  0.04763519  0.27501783  1
