# generated using pymatgen
data_Li8Mn3Fe5(BO3)8
_symmetry_space_group_name_H-M   'P 1'
_cell_length_a   5.24043019
_cell_length_b   5.24676292
_cell_length_c   20.77843072
_cell_angle_alpha   89.29473599
_cell_angle_beta   90.58228974
_cell_angle_gamma   60.10808809
_symmetry_Int_Tables_number   1
_chemical_formula_structural   Li8Mn3Fe5(BO3)8
_chemical_formula_sum   'Li8 Mn3 Fe5 B8 O24'
_cell_volume   495.18113321
_cell_formula_units_Z   1
loop_
 _symmetry_equiv_pos_site_id
 _symmetry_equiv_pos_as_xyz
  1  'x, y, z'
loop_
 _atom_site_type_symbol
 _atom_site_label
 _atom_site_symmetry_multiplicity
 _atom_site_fract_x
 _atom_site_fract_y
 _atom_site_fract_z
 _atom_site_occupancy
  Li  Li0  1  0.32543138  0.64951913  0.66685124  1
  Li  Li1  1  0.34674847  0.67888860  0.91637858  1
  Li  Li2  1  0.32186628  0.65340840  0.16642639  1
  Li  Li3  1  0.34748651  0.67852315  0.41655639  1
  Li  Li4  1  0.65541172  0.33365990  0.79059955  1
  Li  Li5  1  0.66461840  0.34793030  0.54177206  1
  Li  Li6  1  0.65295570  0.33392560  0.29116886  1
  Li  Li7  1  0.66474369  0.34755224  0.04135465  1
  Mn  Mn8  1  0.67748310  0.00046972  0.93306239  1
  Mn  Mn9  1  0.67707267  0.00034019  0.43363430  1
  Mn  Mn10  1  0.00013684  0.32366200  0.18355354  1
  Fe  Fe11  1  0.32237386  0.00194540  0.55934920  1
  Fe  Fe12  1  0.32400376  0.00066732  0.05845560  1
  Fe  Fe13  1  0.00976664  0.32346013  0.68341532  1
  Fe  Fe14  1  0.99822089  0.67405915  0.80808014  1
  Fe  Fe15  1  0.99976185  0.67460181  0.30859197  1
  B  B16  1  0.00306303  0.33981153  0.93698383  1
  B  B17  1  0.00323451  0.33969328  0.43731762  1
  B  B18  1  0.32993850  0.00527743  0.81103634  1
  B  B19  1  0.33079022  0.00551050  0.31175961  1
  B  B20  1  0.66124979  0.99780768  0.68697736  1
  B  B21  1  0.66044716  0.99714404  0.18718322  1
  B  B22  1  0.99205400  0.67013223  0.56262479  1
  B  B23  1  0.99317076  0.66985731  0.06180662  1
  O  O24  1  0.06818633  0.25301843  0.79219391  1
  O  O25  1  0.06842313  0.25370813  0.29275065  1
  O  O26  1  0.25334096  0.06963239  0.95259999  1
  O  O27  1  0.03367343  0.57688012  0.91620856  1
  O  O28  1  0.25322441  0.06968563  0.45325518  1
  O  O29  1  0.03386807  0.57669330  0.41646774  1
  O  O30  1  0.58139510  0.02516664  0.82549049  1
  O  O31  1  0.26524506  0.65315574  0.56874304  1
  O  O32  1  0.58134133  0.02622106  0.32634273  1
  O  O33  1  0.26602541  0.65208906  0.06819283  1
  O  O34  1  0.34796175  0.73207580  0.81732349  1
  O  O35  1  0.34891266  0.73278714  0.31795381  1
  O  O36  1  0.64171201  0.26818042  0.69314770  1
  O  O37  1  0.63051720  0.27319304  0.19401691  1
  O  O38  1  0.72676632  0.36945376  0.94396077  1
  O  O39  1  0.41524268  0.97484791  0.66801011  1
  O  O40  1  0.72694157  0.36925675  0.44416732  1
  O  O41  1  0.42338505  0.96639613  0.16642303  1
  O  O42  1  0.97079417  0.42063449  0.57724853  1
  O  O43  1  0.97271124  0.41908418  0.07630603  1
  O  O44  1  0.74379750  0.93198254  0.54330979  1
  O  O45  1  0.74538359  0.93167278  0.04258820  1
  O  O46  1  0.92706314  0.74026915  0.70162204  1
  O  O47  1  0.93085919  0.74726738  0.20293358  1
