# generated using pymatgen
data_Li8Mn3Fe5(BO3)8
_symmetry_space_group_name_H-M   'P 1'
_cell_length_a   5.23097616
_cell_length_b   5.23976983
_cell_length_c   20.86160290
_cell_angle_alpha   89.44495487
_cell_angle_beta   90.84304186
_cell_angle_gamma   60.18291699
_symmetry_Int_Tables_number   1
_chemical_formula_structural   Li8Mn3Fe5(BO3)8
_chemical_formula_sum   'Li8 Mn3 Fe5 B8 O24'
_cell_volume   495.95280619
_cell_formula_units_Z   1
loop_
 _symmetry_equiv_pos_site_id
 _symmetry_equiv_pos_as_xyz
  1  'x, y, z'
loop_
 _atom_site_type_symbol
 _atom_site_label
 _atom_site_symmetry_multiplicity
 _atom_site_fract_x
 _atom_site_fract_y
 _atom_site_fract_z
 _atom_site_occupancy
  Li  Li0  1  0.32218638  0.65277952  0.66667412  1
  Li  Li1  1  0.34794450  0.67575347  0.91524670  1
  Li  Li2  1  0.32131546  0.65171252  0.16669672  1
  Li  Li3  1  0.34883339  0.67576438  0.41592821  1
  Li  Li4  1  0.64930727  0.34006355  0.79194438  1
  Li  Li5  1  0.66314437  0.34634426  0.54184587  1
  Li  Li6  1  0.64777774  0.33967987  0.29184047  1
  Li  Li7  1  0.66291107  0.34587433  0.04148600  1
  Mn  Mn8  1  0.32840435  0.00627273  0.55819230  1
  Mn  Mn9  1  0.33159633  0.00353679  0.05735579  1
  Mn  Mn10  1  0.99786565  0.32574994  0.18366238  1
  Fe  Fe11  1  0.68466364  0.00082752  0.93292626  1
  Fe  Fe12  1  0.68509987  0.99810577  0.43320600  1
  Fe  Fe13  1  0.99633725  0.32067015  0.68397759  1
  Fe  Fe14  1  0.98804505  0.66716380  0.80867167  1
  Fe  Fe15  1  0.99558580  0.66683807  0.30938469  1
  B  B16  1  0.00484684  0.33699057  0.93599625  1
  B  B17  1  0.00387082  0.33730769  0.43636593  1
  B  B18  1  0.33229510  0.00533114  0.81201232  1
  B  B19  1  0.33174171  0.00827801  0.31295541  1
  B  B20  1  0.66273312  0.99727064  0.68764859  1
  B  B21  1  0.65982437  0.99749892  0.18798441  1
  B  B22  1  0.99499966  0.66657515  0.56235583  1
  B  B23  1  0.99641975  0.66587419  0.06129846  1
  O  O24  1  0.07022813  0.25575049  0.79209419  1
  O  O25  1  0.06734480  0.25785642  0.29302101  1
  O  O26  1  0.25959533  0.06918612  0.95020565  1
  O  O27  1  0.02475684  0.58201905  0.91728162  1
  O  O28  1  0.25885115  0.07055810  0.45068608  1
  O  O29  1  0.02424475  0.58268596  0.41751027  1
  O  O30  1  0.58244226  0.03079301  0.82649362  1
  O  O31  1  0.26989299  0.64231793  0.56947549  1
  O  O32  1  0.58089425  0.03313184  0.32730718  1
  O  O33  1  0.27109554  0.64114265  0.06888016  1
  O  O34  1  0.34534171  0.73736792  0.81867844  1
  O  O35  1  0.34467497  0.73983539  0.31924845  1
  O  O36  1  0.64103747  0.27184325  0.69414966  1
  O  O37  1  0.63002138  0.27342711  0.19472441  1
  O  O38  1  0.72990508  0.35860754  0.94243637  1
  O  O39  1  0.41590653  0.97896758  0.66828815  1
  O  O40  1  0.72918894  0.35915210  0.44289856  1
  O  O41  1  0.42199486  0.96666644  0.16675902  1
  O  O42  1  0.96155889  0.42397727  0.57800629  1
  O  O43  1  0.96212672  0.42348032  0.07678759  1
  O  O44  1  0.75335547  0.92956399  0.54067801  1
  O  O45  1  0.75512811  0.92942463  0.03992638  1
  O  O46  1  0.93034347  0.74323785  0.70171416  1
  O  O47  1  0.93111987  0.74794605  0.20329093  1
