# generated using pymatgen
data_Li8Mn3Fe5(BO3)8
_symmetry_space_group_name_H-M   'P 1'
_cell_length_a   5.24163254
_cell_length_b   5.24274178
_cell_length_c   20.82127699
_cell_angle_alpha   89.46243864
_cell_angle_beta   90.85599438
_cell_angle_gamma   60.10664671
_symmetry_Int_Tables_number   1
_chemical_formula_structural   Li8Mn3Fe5(BO3)8
_chemical_formula_sum   'Li8 Mn3 Fe5 B8 O24'
_cell_volume   495.90493336
_cell_formula_units_Z   1
loop_
 _symmetry_equiv_pos_site_id
 _symmetry_equiv_pos_as_xyz
  1  'x, y, z'
loop_
 _atom_site_type_symbol
 _atom_site_label
 _atom_site_symmetry_multiplicity
 _atom_site_fract_x
 _atom_site_fract_y
 _atom_site_fract_z
 _atom_site_occupancy
  Li  Li0  1  0.32342018  0.65201254  0.66614314  1
  Li  Li1  1  0.34727918  0.67814887  0.91648090  1
  Li  Li2  1  0.32141926  0.65264484  0.16728884  1
  Li  Li3  1  0.34788971  0.67620318  0.41547650  1
  Li  Li4  1  0.65301368  0.33543174  0.79186579  1
  Li  Li5  1  0.66215146  0.34664515  0.54171671  1
  Li  Li6  1  0.64892345  0.34036424  0.29142649  1
  Li  Li7  1  0.66499525  0.34751780  0.04125850  1
  Mn  Mn8  1  0.32795841  0.00674768  0.55844798  1
  Mn  Mn9  1  0.67712903  0.99943091  0.93325596  1
  Mn  Mn10  1  0.99969813  0.32280798  0.18291511  1
  Fe  Fe11  1  0.32543085  0.99938675  0.05864064  1
  Fe  Fe12  1  0.68369793  0.00198235  0.43304465  1
  Fe  Fe13  1  0.99316230  0.32335099  0.68456300  1
  Fe  Fe14  1  0.00332057  0.66838754  0.80742912  1
  Fe  Fe15  1  0.98686992  0.67063842  0.31013704  1
  B  B16  1  0.00399504  0.33939318  0.93716308  1
  B  B17  1  0.00617699  0.33607334  0.43631877  1
  B  B18  1  0.33103413  0.00640819  0.81112895  1
  B  B19  1  0.33161196  0.00643236  0.31274062  1
  B  B20  1  0.66244746  0.99607835  0.68747610  1
  B  B21  1  0.66156548  0.99511157  0.18721479  1
  B  B22  1  0.99380067  0.66726878  0.56210949  1
  B  B23  1  0.99410279  0.66969664  0.06181580  1
  O  O24  1  0.06737789  0.25419607  0.79198570  1
  O  O25  1  0.06938035  0.25824476  0.29301424  1
  O  O26  1  0.25360487  0.06916982  0.95271110  1
  O  O27  1  0.03430312  0.57659232  0.91635545  1
  O  O28  1  0.26011124  0.06959369  0.45034492  1
  O  O29  1  0.02508583  0.58238008  0.41786487  1
  O  O30  1  0.58110445  0.02725731  0.82547172  1
  O  O31  1  0.26852394  0.64312108  0.56945377  1
  O  O32  1  0.58157648  0.03228354  0.32713526  1
  O  O33  1  0.26629115  0.65139799  0.06795689  1
  O  O34  1  0.34627885  0.73465022  0.81785872  1
  O  O35  1  0.34578013  0.73911007  0.31898455  1
  O  O36  1  0.64238638  0.26982745  0.69380436  1
  O  O37  1  0.63181639  0.27205794  0.19416353  1
  O  O38  1  0.72738540  0.36910207  0.94376575  1
  O  O39  1  0.41697510  0.97741673  0.66857682  1
  O  O40  1  0.73107614  0.35775215  0.44274992  1
  O  O41  1  0.42320100  0.96591422  0.16650739  1
  O  O42  1  0.96105447  0.42427298  0.57789795  1
  O  O43  1  0.97275318  0.41896454  0.07611759  1
  O  O44  1  0.75241739  0.92961989  0.54053996  1
  O  O45  1  0.74525655  0.93245914  0.04275289  1
  O  O46  1  0.93201953  0.74157737  0.70146730  1
  O  O47  1  0.93194534  0.74607519  0.20266639  1
