# generated using pymatgen
data_Li3Mn2Fe(BO3)3
_symmetry_space_group_name_H-M   'P 1'
_cell_length_a   8.25024308
_cell_length_b   14.31506261
_cell_length_c   3.16968186
_cell_angle_alpha   90.00000000
_cell_angle_beta   90.00000000
_cell_angle_gamma   90.04609885
_symmetry_Int_Tables_number   1
_chemical_formula_structural   Li3Mn2Fe(BO3)3
_chemical_formula_sum   'Li6 Mn4 Fe2 B6 O18'
_cell_volume   374.34801147
_cell_formula_units_Z   2
loop_
 _symmetry_equiv_pos_site_id
 _symmetry_equiv_pos_as_xyz
  1  'x, y, z'
loop_
 _atom_site_type_symbol
 _atom_site_label
 _atom_site_symmetry_multiplicity
 _atom_site_fract_x
 _atom_site_fract_y
 _atom_site_fract_z
 _atom_site_occupancy
  Li  Li0  1  0.29295386  0.98999828  0.50000000  1
  Li  Li1  1  0.34070078  0.35854337  0.50000000  1
  Li  Li2  1  0.36682918  0.65148755  0.50000000  1
  Li  Li3  1  0.79304595  0.49294434  0.50000000  1
  Li  Li4  1  0.84136223  0.85681631  0.50000000  1
  Li  Li5  1  0.86712163  0.15030842  0.50000000  1
  Mn  Mn6  1  0.13410530  0.50658106  0.00000000  1
  Mn  Mn7  1  0.19156928  0.17971581  0.00000000  1
  Mn  Mn8  1  0.63446175  0.00535619  0.00000000  1
  Mn  Mn9  1  0.67379349  0.31456483  0.00000000  1
  Fe  Fe10  1  0.17530449  0.81661795  0.00000000  1
  Fe  Fe11  1  0.68722007  0.67943092  0.00000000  1
  B  B12  1  0.99945088  0.66830810  0.50000000  1
  B  B13  1  0.99943753  0.99885959  0.00000000  1
  B  B14  1  -0.00005053  0.33347885  0.50000000  1
  B  B15  1  0.49994429  0.16641110  0.50000000  1
  B  B16  1  0.50152930  0.50028501  0.00000000  1
  B  B17  1  0.49903880  0.83214642  0.50000000  1
  O  O18  1  0.00985884  0.43014057  0.50000000  1
  O  O19  1  0.01829969  0.76480459  0.50000000  1
  O  O20  1  0.13714533  0.61115714  0.50000000  1
  O  O21  1  0.14055826  0.27997830  0.50000000  1
  O  O22  1  0.15374032  0.95843013  0.00000000  1
  O  O23  1  0.34736771  0.12458411  0.50000000  1
  O  O24  1  0.34679684  0.79049152  0.50000000  1
  O  O25  1  0.36441150  0.44353625  0.00000000  1
  O  O26  1  0.48537461  0.59748887  0.00000000  1
  O  O27  1  0.51138435  0.92911804  0.50000000  1
  O  O28  1  0.51338525  0.26335699  0.50000000  1
  O  O29  1  0.63857142  0.11111700  0.50000000  1
  O  O30  1  0.63837913  0.77763096  0.50000000  1
  O  O31  1  0.65547182  0.46061870  0.00000000  1
  O  O32  1  0.84564914  0.62828313  0.50000000  1
  O  O33  1  0.84971711  0.28968962  0.50000000  1
  O  O34  1  0.86309455  0.94192678  0.00000000  1
  O  O35  1  0.98297887  0.09579519  0.00000000  1
