# generated using pymatgen
data_Li3Mn2Fe(BO3)3
_symmetry_space_group_name_H-M   'P 1'
_cell_length_a   8.27254368
_cell_length_b   8.84940985
_cell_length_c   6.34826337
_cell_angle_alpha   68.98067165
_cell_angle_beta   90.00000000
_cell_angle_gamma   62.11801663
_symmetry_Int_Tables_number   1
_chemical_formula_structural   Li3Mn2Fe(BO3)3
_chemical_formula_sum   'Li6 Mn4 Fe2 B6 O18'
_cell_volume   375.44638182
_cell_formula_units_Z   2
loop_
 _symmetry_equiv_pos_site_id
 _symmetry_equiv_pos_as_xyz
  1  'x, y, z'
loop_
 _atom_site_type_symbol
 _atom_site_label
 _atom_site_symmetry_multiplicity
 _atom_site_fract_x
 _atom_site_fract_y
 _atom_site_fract_z
 _atom_site_occupancy
  Li  Li0  1  0.71650016  0.98173324  0.75911536  1
  Li  Li1  1  0.71650016  0.98173324  0.25915139  1
  Li  Li2  1  0.98309952  0.30115425  0.59852705  1
  Li  Li3  1  0.98309952  0.30115425  0.10031870  1
  Li  Li4  1  0.30156427  0.71600878  0.89196328  1
  Li  Li5  1  0.30156427  0.71600878  0.39202793  1
  Mn  Mn6  1  0.62803192  0.35972167  0.82013867  1
  Mn  Mn7  1  0.62817674  0.35976320  0.32011890  1
  Mn  Mn8  1  0.35915565  0.01273815  0.99363142  1
  Mn  Mn9  1  0.01225558  0.62839951  0.68580025  1
  Fe  Fe10  1  0.35948161  0.00807969  0.49596015  1
  Fe  Fe11  1  0.00825826  0.63174661  0.18412669  1
  B  B12  1  0.66645335  0.66776183  0.41631493  1
  B  B13  1  0.66645335  0.66776183  0.91592324  1
  B  B14  1  0.33208036  0.33303675  0.58112378  1
  B  B15  1  0.33208036  0.33303675  0.08583947  1
  B  B16  1  0.00189627  0.99774804  0.00112598  1
  B  B17  1  0.00056255  0.00190290  0.49904855  1
  O  O18  1  0.88735774  0.92150823  0.53924589  1
  O  O19  1  0.88887914  0.91606985  0.04196458  1
  O  O20  1  0.86036629  0.58191303  0.96271289  1
  O  O21  1  0.86036629  0.58191303  0.45537508  1
  O  O22  1  0.92115636  0.19164967  0.90417467  1
  O  O23  1  0.92084367  0.19530980  0.40234560  1
  O  O24  1  0.55818486  0.86155601  0.32347665  1
  O  O25  1  0.55818486  0.86155601  0.81496734  1
  O  O26  1  0.58112515  0.55964424  0.97009762  1
  O  O27  1  0.58112515  0.55964424  0.47025814  1
  O  O28  1  0.52617802  0.25109278  0.62460848  1
  O  O29  1  0.52617802  0.25109278  0.12429973  1
  O  O30  1  0.19513984  0.88862882  0.55568559  1
  O  O31  1  0.19514564  0.88371496  0.05814302  1
  O  O32  1  0.21994456  0.52720957  0.48420999  1
  O  O33  1  0.21994456  0.52720957  0.98858044  1
  O  O34  1  0.25133347  0.22040047  0.63687593  1
  O  O35  1  0.25133347  0.22040047  0.14272360  1
