# generated using pymatgen
data_Li3Mn2Fe(BO3)3
_symmetry_space_group_name_H-M   'P 1'
_cell_length_a   8.27475791
_cell_length_b   14.30438165
_cell_length_c   3.17140830
_cell_angle_alpha   90.00000000
_cell_angle_beta   90.00000000
_cell_angle_gamma   90.03605350
_symmetry_Int_Tables_number   1
_chemical_formula_structural   Li3Mn2Fe(BO3)3
_chemical_formula_sum   'Li6 Mn4 Fe2 B6 O18'
_cell_volume   375.38460516
_cell_formula_units_Z   2
loop_
 _symmetry_equiv_pos_site_id
 _symmetry_equiv_pos_as_xyz
  1  'x, y, z'
loop_
 _atom_site_type_symbol
 _atom_site_label
 _atom_site_symmetry_multiplicity
 _atom_site_fract_x
 _atom_site_fract_y
 _atom_site_fract_z
 _atom_site_occupancy
  Li  Li0  1  0.29225358  0.99011320  0.50000000  1
  Li  Li1  1  0.33928909  0.35884164  0.50000000  1
  Li  Li2  1  0.36484994  0.65038775  0.50000000  1
  Li  Li3  1  0.79308820  0.49193174  0.50000000  1
  Li  Li4  1  0.84229213  0.85672310  0.50000000  1
  Li  Li5  1  0.86716895  0.15078562  0.50000000  1
  Mn  Mn6  1  0.19157121  0.17987439  0.00000000  1
  Mn  Mn7  1  0.63431102  0.00546985  0.00000000  1
  Mn  Mn8  1  0.67406568  0.31461652  0.00000000  1
  Mn  Mn9  1  0.69201391  0.67995434  0.00000000  1
  Fe  Fe10  1  0.13764692  0.50434146  0.00000000  1
  Fe  Fe11  1  0.17569399  0.81619134  0.00000000  1
  B  B12  1  0.00266195  0.66623827  0.50000000  1
  B  B13  1  0.99926857  0.99880027  0.00000000  1
  B  B14  1  0.00096031  0.33451937  0.50000000  1
  B  B15  1  0.49996005  0.16670443  0.50000000  1
  B  B16  1  0.49870160  0.50089077  0.00000000  1
  B  B17  1  0.49792850  0.83333428  0.50000000  1
  O  O18  1  0.01233924  0.43145936  0.50000000  1
  O  O19  1  0.01977897  0.76317667  0.50000000  1
  O  O20  1  0.13788106  0.60852112  0.50000000  1
  O  O21  1  0.14014690  0.28014528  0.50000000  1
  O  O22  1  0.15282468  0.95823785  0.00000000  1
  O  O23  1  0.34776848  0.12494100  0.50000000  1
  O  O24  1  0.34687966  0.79047898  0.50000000  1
  O  O25  1  0.36100205  0.44418142  0.00000000  1
  O  O26  1  0.48152377  0.59754309  0.00000000  1
  O  O27  1  0.50920124  0.93022504  0.50000000  1
  O  O28  1  0.51355522  0.26382078  0.50000000  1
  O  O29  1  0.63843938  0.11160453  0.50000000  1
  O  O30  1  0.63793555  0.77980570  0.50000000  1
  O  O31  1  0.65219340  0.46075620  0.00000000  1
  O  O32  1  0.84850469  0.62636295  0.50000000  1
  O  O33  1  0.85044474  0.29130595  0.50000000  1
  O  O34  1  0.86296707  0.94185749  0.00000000  1
  O  O35  1  0.98288933  0.09586025  0.00000000  1
