# generated using pymatgen
data_Li3Mn2Fe(BO3)3
_symmetry_space_group_name_H-M   'P 1'
_cell_length_a   8.26180855
_cell_length_b   14.29065174
_cell_length_c   3.17449406
_cell_angle_alpha   90.00000000
_cell_angle_beta   90.00000000
_cell_angle_gamma   90.04467735
_symmetry_Int_Tables_number   1
_chemical_formula_structural   Li3Mn2Fe(BO3)3
_chemical_formula_sum   'Li6 Mn4 Fe2 B6 O18'
_cell_volume   374.80169787
_cell_formula_units_Z   2
loop_
 _symmetry_equiv_pos_site_id
 _symmetry_equiv_pos_as_xyz
  1  'x, y, z'
loop_
 _atom_site_type_symbol
 _atom_site_label
 _atom_site_symmetry_multiplicity
 _atom_site_fract_x
 _atom_site_fract_y
 _atom_site_fract_z
 _atom_site_occupancy
  Li  Li0  1  0.29273947  0.99042720  0.50000000  1
  Li  Li1  1  0.34108611  0.35789469  0.50000000  1
  Li  Li2  1  0.36667368  0.65109889  0.50000000  1
  Li  Li3  1  0.79275311  0.49166799  0.50000000  1
  Li  Li4  1  0.84015494  0.85779196  0.50000000  1
  Li  Li5  1  0.86569571  0.15005913  0.50000000  1
  Mn  Mn6  1  0.13517376  0.50620676  0.00000000  1
  Mn  Mn7  1  0.19270274  0.18009685  0.00000000  1
  Mn  Mn8  1  0.67334232  0.31435054  0.00000000  1
  Mn  Mn9  1  0.69144260  0.67971795  0.00000000  1
  Fe  Fe10  1  0.17571523  0.81658567  0.00000000  1
  Fe  Fe11  1  0.63656703  0.00379839  0.00000000  1
  B  B12  1  0.00166909  0.66804433  0.50000000  1
  B  B13  1  0.99821591  -0.00018936  0.00000000  1
  B  B14  1  -0.00012360  0.33332211  0.50000000  1
  B  B15  1  0.50078730  0.16493260  0.50000000  1
  B  B16  1  0.50000974  0.50001502  0.00000000  1
  B  B17  1  0.49898970  0.83435317  0.50000000  1
  O  O18  1  0.00998233  0.43022072  0.50000000  1
  O  O19  1  0.01762470  0.76495850  0.50000000  1
  O  O20  1  0.13912977  0.61160678  0.50000000  1
  O  O21  1  0.14030602  0.27986477  0.50000000  1
  O  O22  1  0.15103550  0.95804844  0.00000000  1
  O  O23  1  0.34715367  0.12426666  0.50000000  1
  O  O24  1  0.34720102  0.79193560  0.50000000  1
  O  O25  1  0.36436902  0.44191066  0.00000000  1
  O  O26  1  0.48092870  0.59694583  0.00000000  1
  O  O27  1  0.51171114  0.93142244  0.50000000  1
  O  O28  1  0.51457142  0.26223044  0.50000000  1
  O  O29  1  0.63789332  0.10871929  0.50000000  1
  O  O30  1  0.63799780  0.77989169  0.50000000  1
  O  O31  1  0.65482459  0.46118008  0.00000000  1
  O  O32  1  0.84883241  0.62648819  0.50000000  1
  O  O33  1  0.84966840  0.28969312  0.50000000  1
  O  O34  1  0.85975258  0.94387205  0.00000000  1
  O  O35  1  0.98342477  0.09657386  0.00000000  1
