# generated using pymatgen
data_Li3Mn2Fe(BO3)3
_symmetry_space_group_name_H-M   'P 1'
_cell_length_a   8.25393165
_cell_length_b   14.31657371
_cell_length_c   3.17052319
_cell_angle_alpha   90.00000000
_cell_angle_beta   90.00000000
_cell_angle_gamma   90.06326515
_symmetry_Int_Tables_number   1
_chemical_formula_structural   Li3Mn2Fe(BO3)3
_chemical_formula_sum   'Li6 Mn4 Fe2 B6 O18'
_cell_volume   374.65422226
_cell_formula_units_Z   2
loop_
 _symmetry_equiv_pos_site_id
 _symmetry_equiv_pos_as_xyz
  1  'x, y, z'
loop_
 _atom_site_type_symbol
 _atom_site_label
 _atom_site_symmetry_multiplicity
 _atom_site_fract_x
 _atom_site_fract_y
 _atom_site_fract_z
 _atom_site_occupancy
  Li  Li0  1  0.29194296  0.99109758  0.50000000  1
  Li  Li1  1  0.34025763  0.35783650  0.50000000  1
  Li  Li2  1  0.36654287  0.65100293  0.50000000  1
  Li  Li3  1  0.79336429  0.49153321  0.50000000  1
  Li  Li4  1  0.84186413  0.85789787  0.50000000  1
  Li  Li5  1  0.86814016  0.15066363  0.50000000  1
  Mn  Mn6  1  0.13541332  0.50579073  0.00000000  1
  Mn  Mn7  1  0.63335717  0.00611216  0.00000000  1
  Mn  Mn8  1  0.67359029  0.31460933  0.00000000  1
  Mn  Mn9  1  0.69111024  0.67977034  0.00000000  1
  Fe  Fe10  1  0.17559847  0.81613588  0.00000000  1
  Fe  Fe11  1  0.18794677  0.17964351  0.00000000  1
  B  B12  1  0.00169206  0.66770531  0.50000000  1
  B  B13  1  0.00117348  0.99914036  0.00000000  1
  B  B14  1  0.00104242  0.33218862  0.50000000  1
  B  B15  1  0.49739770  0.16701353  0.50000000  1
  B  B16  1  0.50009091  0.50001254  0.00000000  1
  B  B17  1  0.49774485  0.83346729  0.50000000  1
  O  O18  1  0.01211167  0.42892946  0.50000000  1
  O  O19  1  0.01819317  0.76429241  0.50000000  1
  O  O20  1  0.13874145  0.61085175  0.50000000  1
  O  O21  1  0.14045900  0.27767162  0.50000000  1
  O  O22  1  0.15405149  0.95771181  0.00000000  1
  O  O23  1  0.34431040  0.12665542  0.50000000  1
  O  O24  1  0.34641453  0.79079842  0.50000000  1
  O  O25  1  0.36426703  0.44215387  0.00000000  1
  O  O26  1  0.48141352  0.59676434  0.00000000  1
  O  O27  1  0.50944554  0.93030459  0.50000000  1
  O  O28  1  0.51375720  0.26389054  0.50000000  1
  O  O29  1  0.63645384  0.11130847  0.50000000  1
  O  O30  1  0.63777757  0.77979176  0.50000000  1
  O  O31  1  0.65500041  0.46095601  0.00000000  1
  O  O32  1  0.84837282  0.62655510  0.50000000  1
  O  O33  1  0.84973981  0.28958912  0.50000000  1
  O  O34  1  0.86337850  0.94366498  0.00000000  1
  O  O35  1  0.98784034  0.09648899  0.00000000  1
