# generated using pymatgen
data_AlH18C6N2Cl3
_symmetry_space_group_name_H-M   'P 1'
_cell_length_a   10.28707586
_cell_length_b   10.91792793
_cell_length_c   13.96876030
_cell_angle_alpha   90.00000000
_cell_angle_beta   90.00000000
_cell_angle_gamma   90.00000000
_symmetry_Int_Tables_number   1
_chemical_formula_structural   AlH18C6N2Cl3
_chemical_formula_sum   'Al4 H72 C24 N8 Cl12'
_cell_volume   1568.88109820
_cell_formula_units_Z   4
loop_
 _symmetry_equiv_pos_site_id
 _symmetry_equiv_pos_as_xyz
  1  'x, y, z'
loop_
 _atom_site_type_symbol
 _atom_site_label
 _atom_site_symmetry_multiplicity
 _atom_site_fract_x
 _atom_site_fract_y
 _atom_site_fract_z
 _atom_site_occupancy
  Al  Al0  1  0.70305766  0.25000000  0.47603700  1
  Al  Al1  1  0.20305766  0.25000000  0.02396300  1
  Al  Al2  1  0.29694234  0.75000000  0.52396300  1
  Al  Al3  1  0.79694234  0.75000000  0.97603700  1
  H  H4  1  0.49259153  0.25000000  0.22325383  1
  H  H5  1  0.99259153  0.25000000  0.27674617  1
  H  H6  1  0.50740847  0.75000000  0.77674617  1
  H  H7  1  0.00740847  0.75000000  0.72325383  1
  H  H8  1  0.63620602  0.16809223  0.25746259  1
  H  H9  1  0.13620602  0.33190777  0.24253741  1
  H  H10  1  0.36379398  0.66809223  0.74253741  1
  H  H11  1  0.86379398  0.83190777  0.75746259  1
  H  H12  1  0.36379398  0.83190777  0.74253741  1
  H  H13  1  0.86379398  0.66809223  0.75746259  1
  H  H14  1  0.63620602  0.33190777  0.25746259  1
  H  H15  1  0.13620602  0.16809223  0.24253741  1
  H  H16  1  0.50725543  0.05650722  0.37450975  1
  H  H17  1  0.00725543  0.44349278  0.12549025  1
  H  H18  1  0.49274457  0.55650722  0.62549025  1
  H  H19  1  0.99274457  0.94349278  0.87450975  1
  H  H20  1  0.49274457  0.94349278  0.62549025  1
  H  H21  1  0.99274457  0.55650722  0.87450975  1
  H  H22  1  0.50725543  0.44349278  0.37450975  1
  H  H23  1  0.00725543  0.05650722  0.12549025  1
  H  H24  1  0.40931986  0.13802423  0.45827503  1
  H  H25  1  0.90931986  0.36197577  0.04172497  1
  H  H26  1  0.59068014  0.63802423  0.54172497  1
  H  H27  1  0.09068014  0.86197577  0.95827503  1
  H  H28  1  0.59068014  0.86197577  0.54172497  1
  H  H29  1  0.09068014  0.63802423  0.95827503  1
  H  H30  1  0.40931986  0.36197577  0.45827503  1
  H  H31  1  0.90931986  0.13802423  0.04172497  1
  H  H32  1  0.36964578  0.14141596  0.33357602  1
  H  H33  1  0.86964578  0.35858404  0.16642398  1
  H  H34  1  0.63035422  0.64141596  0.66642398  1
  H  H35  1  0.13035422  0.85858404  0.83357602  1
  H  H36  1  0.63035422  0.85858404  0.66642398  1
  H  H37  1  0.13035422  0.64141596  0.83357602  1
  H  H38  1  0.36964578  0.35858404  0.33357602  1
  H  H39  1  0.86964578  0.14141596  0.16642398  1
  H  H40  1  0.08064780  0.25000000  0.58827435  1
  H  H41  1  0.58064780  0.25000000  0.91172565  1
  H  H42  1  0.91935220  0.75000000  0.41172565  1
  H  H43  1  0.41935220  0.75000000  0.08827435  1
  H  H44  1  0.01006684  0.16788832  0.49036604  1
  H  H45  1  0.51006684  0.33211168  0.00963396  1
  H  H46  1  0.98993316  0.66788832  0.50963396  1
  H  H47  1  0.48993316  0.83211168  0.99036604  1
  H  H48  1  0.98993316  0.83211168  0.50963396  1
  H  H49  1  0.48993316  0.66788832  0.99036604  1
  H  H50  1  0.01006684  0.33211168  0.49036604  1
  H  H51  1  0.51006684  0.16788832  0.00963396  1
  H  H52  1  0.87519984  0.44309146  0.60272438  1
  H  H53  1  0.37519984  0.05690854  0.89727562  1
  H  H54  1  0.12480016  0.94309146  0.39727562  1
  H  H55  1  0.62480016  0.55690854  0.10272438  1
  H  H56  1  0.12480016  0.55690854  0.39727562  1
  H  H57  1  0.62480016  0.94309146  0.10272438  1
  H  H58  1  0.87519984  0.05690854  0.60272438  1
  H  H59  1  0.37519984  0.44309146  0.89727562  1
  H  H60  1  0.95249238  0.35895325  0.69697874  1
  H  H61  1  0.45249238  0.14104675  0.80302126  1
  H  H62  1  0.04750762  0.85895325  0.30302126  1
  H  H63  1  0.54750762  0.64104675  0.19697874  1
  H  H64  1  0.04750762  0.64104675  0.30302126  1
  H  H65  1  0.54750762  0.85895325  0.19697874  1
  H  H66  1  0.95249238  0.14104675  0.69697874  1
  H  H67  1  0.45249238  0.35895325  0.80302126  1
  H  H68  1  0.77904140  0.36180597  0.68825129  1
  H  H69  1  0.27904140  0.13819403  0.81174871  1
  H  H70  1  0.22095860  0.86180597  0.31174871  1
  H  H71  1  0.72095860  0.63819403  0.18825129  1
  H  H72  1  0.22095860  0.63819403  0.31174871  1
  H  H73  1  0.72095860  0.86180597  0.18825129  1
  H  H74  1  0.77904140  0.13819403  0.68825129  1
  H  H75  1  0.27904140  0.36180597  0.81174871  1
  C  C76  1  0.44970827  0.13952126  0.38585342  1
  C  C77  1  0.94970827  0.36047874  0.11414658  1
  C  C78  1  0.55029173  0.63952126  0.61414658  1
  C  C79  1  0.05029173  0.86047874  0.88585342  1
  C  C80  1  0.55029173  0.86047874  0.61414658  1
  C  C81  1  0.05029173  0.63952126  0.88585342  1
  C  C82  1  0.44970827  0.36047874  0.38585342  1
  C  C83  1  0.94970827  0.13952126  0.11414658  1
  C  C84  1  0.57769923  0.25000000  0.27138319  1
  C  C85  1  0.07769923  0.25000000  0.22861681  1
  C  C86  1  0.42230077  0.75000000  0.72861681  1
  C  C87  1  0.92230077  0.75000000  0.77138319  1
  C  C88  1  0.00121671  0.25000000  0.53523605  1
  C  C89  1  0.50121671  0.25000000  0.96476395  1
  C  C90  1  0.99878329  0.75000000  0.46476395  1
  C  C91  1  0.49878329  0.75000000  0.03523605  1
  C  C92  1  0.86965325  0.36011387  0.64698188  1
  C  C93  1  0.36965325  0.13988613  0.85301812  1
  C  C94  1  0.13034675  0.86011387  0.35301812  1
  C  C95  1  0.63034675  0.63988613  0.14698188  1
  C  C96  1  0.13034675  0.63988613  0.35301812  1
  C  C97  1  0.63034675  0.86011387  0.14698188  1
  C  C98  1  0.86965325  0.13988613  0.64698188  1
  C  C99  1  0.36965325  0.36011387  0.85301812  1
  N  N100  1  0.53303048  0.25000000  0.37256528  1
  N  N101  1  0.03303048  0.25000000  0.12743472  1
  N  N102  1  0.46696952  0.75000000  0.62743472  1
  N  N103  1  0.96696952  0.75000000  0.87256528  1
  N  N104  1  0.87371214  0.25000000  0.58453542  1
  N  N105  1  0.37371214  0.25000000  0.91546458  1
  N  N106  1  0.12628786  0.75000000  0.41546458  1
  N  N107  1  0.62628786  0.75000000  0.08453542  1
  Cl  Cl108  1  0.56917694  0.25000000  0.59598008  1
  Cl  Cl109  1  0.06917694  0.25000000  0.90401992  1
  Cl  Cl110  1  0.43082306  0.75000000  0.40401992  1
  Cl  Cl111  1  0.93082306  0.75000000  0.09598008  1
  Cl  Cl112  1  0.77307851  0.42172799  0.41660054  1
  Cl  Cl113  1  0.27307851  0.07827201  0.08339946  1
  Cl  Cl114  1  0.22692149  0.92172799  0.58339946  1
  Cl  Cl115  1  0.72692149  0.57827201  0.91660054  1
  Cl  Cl116  1  0.22692149  0.57827201  0.58339946  1
  Cl  Cl117  1  0.72692149  0.92172799  0.91660054  1
  Cl  Cl118  1  0.77307851  0.07827201  0.41660054  1
  Cl  Cl119  1  0.27307851  0.42172799  0.08339946  1
