# generated using pymatgen
data_Ca2FeP2(H2O3)4
_symmetry_space_group_name_H-M   'P 1'
_cell_length_a   6.46598752
_cell_length_b   6.89970001
_cell_length_c   5.98505332
_cell_angle_alpha   101.91664339
_cell_angle_beta   104.05244409
_cell_angle_gamma   70.68889981
_symmetry_Int_Tables_number   1
_chemical_formula_structural   Ca2FeP2(H2O3)4
_chemical_formula_sum   'Ca2 Fe1 P2 H8 O12'
_cell_volume   242.11593397
_cell_formula_units_Z   1
loop_
 _symmetry_equiv_pos_site_id
 _symmetry_equiv_pos_as_xyz
  1  'x, y, z'
loop_
 _atom_site_type_symbol
 _atom_site_label
 _atom_site_symmetry_multiplicity
 _atom_site_fract_x
 _atom_site_fract_y
 _atom_site_fract_z
 _atom_site_occupancy
  Ca  Ca0  1  0.34537669  0.21020884  0.70989628  1
  Ca  Ca1  1  0.65462331  0.78979116  0.29010372  1
  Fe  Fe2  1  0.00000000  0.00000000  0.00000000  1
  P  P3  1  0.43075359  0.71721344  0.77032412  1
  P  P4  1  0.56924641  0.28278656  0.22967588  1
  H  H5  1  0.04873720  0.68098717  0.67631369  1
  H  H6  1  0.18377760  0.28343826  0.23675453  1
  H  H7  1  0.14373492  0.62370535  0.18030141  1
  H  H8  1  0.15589348  0.81020314  0.37326122  1
  H  H9  1  0.84410652  0.18979686  0.62673878  1
  H  H10  1  0.85626508  0.37629465  0.81969859  1
  H  H11  1  0.81622240  0.71656174  0.76324547  1
  H  H12  1  0.95126280  0.31901283  0.32368631  1
  O  O13  1  0.10389128  0.21643643  0.31209785  1
  O  O14  1  0.04956369  0.76611227  0.23563616  1
  O  O15  1  0.30783030  0.55166330  0.68089815  1
  O  O16  1  0.32943975  0.87269187  0.97683011  1
  O  O17  1  0.31821163  0.37580253  0.12263130  1
  O  O18  1  0.59811630  0.15304763  0.42648067  1
  O  O19  1  0.40188370  0.84695237  0.57351933  1
  O  O20  1  0.68178837  0.62419747  0.87736870  1
  O  O21  1  0.67056025  0.12730813  0.02316989  1
  O  O22  1  0.69216970  0.44833670  0.31910185  1
  O  O23  1  0.95043631  0.23388773  0.76436384  1
  O  O24  1  0.89610872  0.78356357  0.68790215  1
