# generated using pymatgen
data_Li3Mn2Fe(BO3)3
_symmetry_space_group_name_H-M   'P 1'
_cell_length_a   8.26571872
_cell_length_b   8.27554559
_cell_length_c   3.17474671
_cell_angle_alpha   90.00000000
_cell_angle_beta   90.00000000
_cell_angle_gamma   120.13455342
_symmetry_Int_Tables_number   1
_chemical_formula_structural   Li3Mn2Fe(BO3)3
_chemical_formula_sum   'Li3 Mn2 Fe1 B3 O9'
_cell_volume   187.81338292
_cell_formula_units_Z   1
loop_
 _symmetry_equiv_pos_site_id
 _symmetry_equiv_pos_as_xyz
  1  'x, y, z'
loop_
 _atom_site_type_symbol
 _atom_site_label
 _atom_site_symmetry_multiplicity
 _atom_site_fract_x
 _atom_site_fract_y
 _atom_site_fract_z
 _atom_site_occupancy
  Li  Li0  1  0.28338324  0.98188465  0.50000000  1
  Li  Li1  1  0.01771747  0.30129305  0.50000000  1
  Li  Li2  1  0.69926415  0.71476184  0.50000000  1
  Mn  Mn3  1  0.37212964  0.36054798  0.00000000  1
  Mn  Mn4  1  0.64025051  0.01163257  0.00000000  1
  Fe  Fe5  1  0.99232922  0.63358362  0.00000000  1
  B  B6  1  0.99846559  0.99730381  0.00000000  1
  B  B7  1  0.33106982  0.66698379  0.50000000  1
  B  B8  1  0.66969674  0.33547488  0.50000000  1
  O  O9  1  0.11108184  0.91657981  0.00000000  1
  O  O10  1  0.13654351  0.58074382  0.50000000  1
  O  O11  1  0.07977595  0.19144397  0.00000000  1
  O  O12  1  0.43944313  0.86051039  0.50000000  1
  O  O13  1  0.41702666  0.55919438  0.50000000  1
  O  O14  1  0.47494879  0.25295242  0.50000000  1
  O  O15  1  0.80446051  0.88383412  0.00000000  1
  O  O16  1  0.78260571  0.52891328  0.50000000  1
  O  O17  1  0.74980452  0.22236363  0.50000000  1
