# generated using pymatgen
data_Li3Mn2Fe(BO3)3
_symmetry_space_group_name_H-M   'P 1'
_cell_length_a   8.27087402
_cell_length_b   14.32463894
_cell_length_c   3.17341844
_cell_angle_alpha   90.00000000
_cell_angle_beta   90.00000000
_cell_angle_gamma   89.83599911
_symmetry_Int_Tables_number   1
_chemical_formula_structural   Li3Mn2Fe(BO3)3
_chemical_formula_sum   'Li6 Mn4 Fe2 B6 O18'
_cell_volume   375.97645761
_cell_formula_units_Z   2
loop_
 _symmetry_equiv_pos_site_id
 _symmetry_equiv_pos_as_xyz
  1  'x, y, z'
loop_
 _atom_site_type_symbol
 _atom_site_label
 _atom_site_symmetry_multiplicity
 _atom_site_fract_x
 _atom_site_fract_y
 _atom_site_fract_z
 _atom_site_occupancy
  Li  Li0  1  0.29230794  0.99250389  0.50000000  1
  Li  Li1  1  0.33838453  0.35854618  0.50000000  1
  Li  Li2  1  0.36508786  0.64987339  0.50000000  1
  Li  Li3  1  0.79286480  0.49079476  0.50000000  1
  Li  Li4  1  0.84170163  0.85789841  0.50000000  1
  Li  Li5  1  0.86799831  0.15148319  0.50000000  1
  Mn  Mn6  1  0.17417877  0.81390761  0.00000000  1
  Mn  Mn7  1  0.63383781  0.00595074  0.00000000  1
  Mn  Mn8  1  0.67381030  0.31427715  0.00000000  1
  Mn  Mn9  1  0.69134829  0.67953013  0.00000000  1
  Fe  Fe10  1  0.13714936  0.50367171  0.00000000  1
  Fe  Fe11  1  0.18730922  0.17948260  0.00000000  1
  B  B12  1  0.00055226  0.66488796  0.50000000  1
  B  B13  1  0.00196206  0.00048164  0.00000000  1
  B  B14  1  0.00207441  0.33330392  0.50000000  1
  B  B15  1  0.49781609  0.16736253  0.50000000  1
  B  B16  1  0.49849536  0.50078439  0.00000000  1
  B  B17  1  0.50013925  0.83331016  0.50000000  1
  O  O18  1  0.01468866  0.43026721  0.50000000  1
  O  O19  1  0.01518483  0.76196145  0.50000000  1
  O  O20  1  0.13743886  0.60824684  0.50000000  1
  O  O21  1  0.14069453  0.27790344  0.50000000  1
  O  O22  1  0.15531881  0.96035345  0.00000000  1
  O  O23  1  0.34501736  0.12712396  0.50000000  1
  O  O24  1  0.35030112  0.78973784  0.50000000  1
  O  O25  1  0.36093215  0.44445055  0.00000000  1
  O  O26  1  0.48147329  0.59743230  0.00000000  1
  O  O27  1  0.50956270  0.93024877  0.50000000  1
  O  O28  1  0.51375045  0.26425010  0.50000000  1
  O  O29  1  0.63660831  0.11150366  0.50000000  1
  O  O30  1  0.64095801  0.78020155  0.50000000  1
  O  O31  1  0.65215331  0.46034711  0.00000000  1
  O  O32  1  0.84731400  0.62468657  0.50000000  1
  O  O33  1  0.85056222  0.29158543  0.50000000  1
  O  O34  1  0.86486352  0.94399008  0.00000000  1
  O  O35  1  0.98615759  0.09765635  0.00000000  1
