# generated using pymatgen
data_Mg2BO3F
_symmetry_space_group_name_H-M   'P 1'
_cell_length_a   3.13881071
_cell_length_b   9.44119305
_cell_length_c   9.50429535
_cell_angle_alpha   90.00000000
_cell_angle_beta   90.00000000
_cell_angle_gamma   90.00000000
_symmetry_Int_Tables_number   1
_chemical_formula_structural   Mg2BO3F
_chemical_formula_sum   'Mg8 B4 O12 F4'
_cell_volume   281.65140858
_cell_formula_units_Z   4
loop_
 _symmetry_equiv_pos_site_id
 _symmetry_equiv_pos_as_xyz
  1  'x, y, z'
loop_
 _atom_site_type_symbol
 _atom_site_label
 _atom_site_symmetry_multiplicity
 _atom_site_fract_x
 _atom_site_fract_y
 _atom_site_fract_z
 _atom_site_occupancy
  B  B0  1  0.75000000  0.82661888  0.36933372  1
  B  B1  1  0.75000000  0.32661888  0.13066628  1
  B  B2  1  0.25000000  0.67338112  0.86933372  1
  B  B3  1  0.25000000  0.17338112  0.63066628  1
  O  O4  1  0.25000000  0.25744735  0.75183398  1
  O  O5  1  0.25000000  0.75744735  0.74816602  1
  O  O6  1  0.75000000  0.74255265  0.24816602  1
  O  O7  1  0.75000000  0.47049159  0.14380825  1
  O  O8  1  0.25000000  0.02950841  0.64380825  1
  O  O9  1  0.75000000  0.24255265  0.25183398  1
  O  O10  1  0.75000000  0.97049159  0.35619175  1
  O  O11  1  0.25000000  0.52950841  0.85619175  1
  O  O12  1  0.25000000  0.23794929  0.49789223  1
  O  O13  1  0.75000000  0.76205071  0.50210777  1
  O  O14  1  0.25000000  0.73794929  0.00210777  1
  O  O15  1  0.75000000  0.26205071  0.99789223  1
  F  F16  1  0.25000000  0.50718320  0.39034951  1
  F  F17  1  0.25000000  0.00718320  0.10965049  1
  F  F18  1  0.75000000  0.99281680  0.89034951  1
  F  F19  1  0.75000000  0.49281680  0.60965049  1
  Mg  Mg20  1  0.25000000  0.60052267  0.18085291  1
  Mg  Mg21  1  0.75000000  0.89947733  0.68085291  1
  Mg  Mg22  1  0.25000000  0.10052267  0.31914709  1
  Mg  Mg23  1  0.75000000  0.39947733  0.81914709  1
  Mg  Mg24  1  0.75000000  0.36437709  0.43038458  1
  Mg  Mg25  1  0.25000000  0.63562291  0.56961542  1
  Mg  Mg26  1  0.75000000  0.86437709  0.06961542  1
  Mg  Mg27  1  0.25000000  0.13562291  0.93038458  1
