# generated using pymatgen
data_Li2MnFe(BO3)2
_symmetry_space_group_name_H-M   'P 1'
_cell_length_a   5.26175886
_cell_length_b   5.23877272
_cell_length_c   10.44061609
_cell_angle_alpha   89.66508877
_cell_angle_beta   91.03861739
_cell_angle_gamma   59.93905936
_symmetry_Int_Tables_number   1
_chemical_formula_structural   Li2MnFe(BO3)2
_chemical_formula_sum   'Li4 Mn2 Fe2 B4 O12'
_cell_volume   249.00855854
_cell_formula_units_Z   2
loop_
 _symmetry_equiv_pos_site_id
 _symmetry_equiv_pos_as_xyz
  1  'x, y, z'
loop_
 _atom_site_type_symbol
 _atom_site_label
 _atom_site_symmetry_multiplicity
 _atom_site_fract_x
 _atom_site_fract_y
 _atom_site_fract_z
 _atom_site_occupancy
  Li  Li0  1  0.32220432  0.65197746  0.33242598  1
  Li  Li1  1  0.34649966  0.67882338  0.83247459  1
  Li  Li2  1  0.65366085  0.33519713  0.58333005  1
  Li  Li3  1  0.66248470  0.34837611  0.08266680  1
  Mn  Mn4  1  0.32713158  0.00608493  0.11831133  1
  Mn  Mn5  1  0.67784439  0.00054188  0.86500844  1
  Fe  Fe6  1  0.99377543  0.32115629  0.36917870  1
  Fe  Fe7  1  0.00244491  0.67128420  0.61468125  1
  B  B8  1  0.00407919  0.34048223  0.87271878  1
  B  B9  1  0.33007673  0.00623212  0.62198761  1
  B  B10  1  0.66335999  0.99597064  0.37568916  1
  B  B11  1  0.99313803  0.66690546  0.12597891  1
  O  O12  1  0.06788599  0.25491883  0.58397430  1
  O  O13  1  0.25482851  0.06955284  0.90355216  1
  O  O14  1  0.03353328  0.57704122  0.83138985  1
  O  O15  1  0.58112366  0.02601688  0.65039142  1
  O  O16  1  0.26728552  0.64308910  0.13988005  1
  O  O17  1  0.34567970  0.73498159  0.63557675  1
  O  O18  1  0.64313136  0.26939874  0.38825027  1
  O  O19  1  0.72858096  0.36988721  0.88738518  1
  O  O20  1  0.41689379  0.97801270  0.33789579  1
  O  O21  1  0.96159596  0.42405045  0.15716180  1
  O  O22  1  0.75078223  0.93016074  0.08289670  1
  O  O23  1  0.93138025  0.74045788  0.40339616  1
