# generated using pymatgen
data_Ba4(PtO3)3
_symmetry_space_group_name_H-M   'P 1'
_cell_length_a   10.29635809
_cell_length_b   10.28029549
_cell_length_c   8.75712223
_cell_angle_alpha   89.94060946
_cell_angle_beta   89.82478013
_cell_angle_gamma   120.57228734
_symmetry_Int_Tables_number   1
_chemical_formula_structural   Ba4(PtO3)3
_chemical_formula_sum   'Ba12 Pt9 O27'
_cell_volume   798.07520293
_cell_formula_units_Z   3
loop_
 _symmetry_equiv_pos_site_id
 _symmetry_equiv_pos_as_xyz
  1  'x, y, z'
loop_
 _atom_site_type_symbol
 _atom_site_label
 _atom_site_symmetry_multiplicity
 _atom_site_fract_x
 _atom_site_fract_y
 _atom_site_fract_z
 _atom_site_occupancy
  Ba  Ba0  1  0.31037471  0.97460237  0.24795175  1
  Ba  Ba1  1  0.65359342  0.98793865  0.00052121  1
  Ba  Ba2  1  0.66841993  0.99082474  0.49877143  1
  Ba  Ba3  1  0.01576456  0.32197146  0.24463352  1
  Ba  Ba4  1  0.67259292  0.68583510  0.25017182  1
  Ba  Ba5  1  0.35515169  0.35317023  0.49951302  1
  Ba  Ba6  1  0.37273594  0.37048589  0.00076465  1
  Ba  Ba7  1  0.68158565  0.67667636  0.75064895  1
  Ba  Ba8  1  0.33365441  0.02052234  0.75226613  1
  Ba  Ba9  1  0.99274376  0.66338770  0.50017444  1
  Ba  Ba10  1  0.98884274  0.63811441  0.00242782  1
  Ba  Ba11  1  0.97054847  0.30103931  0.75281080  1
  Pt  Pt12  1  0.00302446  0.00575560  0.33890950  1
  Pt  Pt13  1  0.25336926  0.66043920  0.76459599  1
  Pt  Pt14  1  0.33186362  0.66368426  0.10216445  1
  Pt  Pt15  1  0.33251234  0.66292941  0.42574142  1
  Pt  Pt16  1  0.07871514  0.00382628  0.00049269  1
  Pt  Pt17  1  0.66770770  0.33812263  0.57378617  1
  Pt  Pt18  1  0.66727467  0.33544159  0.89739319  1
  Pt  Pt19  1  0.66502634  0.25752368  0.23524569  1
  Pt  Pt20  1  0.00059370  0.00407387  0.66209092  1
  O  O21  1  0.15894905  0.00591653  0.50164476  1
  O  O22  1  0.00366390  0.85575462  0.81713717  1
  O  O23  1  0.31989898  0.80852486  0.94955350  1
  O  O24  1  0.32392377  0.80689419  0.57976992  1
  O  O25  1  0.16638551  0.65055284  0.26376228  1
  O  O26  1  0.47163185  0.81696666  0.26251909  1
  O  O27  1  0.18246205  0.50882198  0.94782935  1
  O  O28  1  0.18879399  0.51161557  0.58446052  1
  O  O29  1  0.33817387  0.51652790  0.26290877  1
  O  O30  1  0.50724028  0.67346165  0.53658617  1
  O  O31  1  0.50990500  0.67858485  0.98580456  1
  O  O32  1  0.82154698  0.99494500  0.77261013  1
  O  O33  1  0.15177258  0.15471254  0.81890179  1
  O  O34  1  0.85949717  0.85708608  0.49977211  1
  O  O35  1  0.15820050  0.15353702  0.18231214  1
  O  O36  1  0.00178598  0.85398671  0.18532736  1
  O  O37  1  0.68234831  0.51350692  0.01541416  1
  O  O38  1  0.68247013  0.51453172  0.46036279  1
  O  O39  1  0.52115505  0.34303282  0.73778301  1
  O  O40  1  0.51687418  0.19524899  0.41625683  1
  O  O41  1  0.51523977  0.18581313  0.05321054  1
  O  O42  1  0.82233255  0.47807478  0.73608857  1
  O  O43  1  0.65204309  0.17233795  0.73599184  1
  O  O44  1  0.81182554  0.32927962  0.41981583  1
  O  O45  1  0.81185551  0.31894844  0.04754932  1
  O  O46  1  0.83155879  0.00674454  0.22509889  1
  O  O47  1  0.00757422  0.15505500  0.50012903  1
