# generated using pymatgen
data_Li4MnV3(P2O7)4
_symmetry_space_group_name_H-M   'P 1'
_cell_length_a   9.74684780
_cell_length_b   8.29770007
_cell_length_c   7.16518128
_cell_angle_alpha   90.37689725
_cell_angle_beta   68.82513047
_cell_angle_gamma   89.68798287
_symmetry_Int_Tables_number   1
_chemical_formula_structural   Li4MnV3(P2O7)4
_chemical_formula_sum   'Li4 Mn1 V3 P8 O28'
_cell_volume   540.33740330
_cell_formula_units_Z   1
loop_
 _symmetry_equiv_pos_site_id
 _symmetry_equiv_pos_as_xyz
  1  'x, y, z'
loop_
 _atom_site_type_symbol
 _atom_site_label
 _atom_site_symmetry_multiplicity
 _atom_site_fract_x
 _atom_site_fract_y
 _atom_site_fract_z
 _atom_site_occupancy
  Li  Li0  1  0.24832358  0.36090479  0.32537764  1
  Li  Li1  1  0.25139928  0.86166025  0.67451816  1
  Li  Li2  1  0.74926122  0.36045784  0.32477876  1
  Li  Li3  1  0.74970193  0.86221446  0.67445881  1
  Mn  Mn4  1  0.75829514  0.99907054  0.26815623  1
  V  V5  1  0.25652736  0.99971150  0.27160608  1
  V  V6  1  0.24404268  0.49968004  0.72800019  1
  V  V7  1  0.74328395  0.49945691  0.72729699  1
  P  P8  1  0.06307562  0.78431367  0.08676269  1
  P  P9  1  0.06093536  0.68086877  0.47802857  1
  P  P10  1  0.43965750  0.17885665  0.52169234  1
  P  P11  1  0.56367405  0.78306848  0.08795028  1
  P  P12  1  0.43666701  0.28392547  0.91414048  1
  P  P13  1  0.55984052  0.68019304  0.48187733  1
  P  P14  1  0.93898688  0.17894145  0.52271223  1
  P  P15  1  0.93789463  0.28771479  0.91319622  1
  O  O16  1  0.07871489  0.65365937  0.24648220  1
  O  O17  1  0.15535629  0.93347623  0.08526663  1
  O  O18  1  0.10419520  0.17645795  0.39558335  1
  O  O19  1  0.12923786  0.84371629  0.49392763  1
  O  O20  1  0.14837861  0.53886492  0.51658636  1
  O  O21  1  0.10095165  0.32677416  0.84604047  1
  O  O22  1  0.12395170  0.69657195  0.88592572  1
  O  O23  1  0.37633373  0.19661404  0.11375175  1
  O  O24  1  0.40082673  0.82475239  0.14891388  1
  O  O25  1  0.35247945  0.03815539  0.48166116  1
  O  O26  1  0.37111239  0.34229961  0.50627982  1
  O  O27  1  0.39403850  0.67467631  0.60480000  1
  O  O28  1  0.34202959  0.43344090  0.91691785  1
  O  O29  1  0.42181101  0.15243078  0.75215477  1
  O  O30  1  0.57905073  0.65457417  0.24910271  1
  O  O31  1  0.65698425  0.93365253  0.08491499  1
  O  O32  1  0.60499583  0.17632732  0.39194275  1
  O  O33  1  0.62415397  0.84199897  0.50548107  1
  O  O34  1  0.64703774  0.53612566  0.51782135  1
  O  O35  1  0.59919250  0.32440611  0.85144672  1
  O  O36  1  0.62236856  0.69499986  0.88732443  1
  O  O37  1  0.88010956  0.20481545  0.11461110  1
  O  O38  1  0.89896287  0.82421694  0.14449712  1
  O  O39  1  0.85357873  0.03607485  0.48127578  1
  O  O40  1  0.87097631  0.34222789  0.50588888  1
  O  O41  1  0.89599491  0.67801185  0.60480463  1
  O  O42  1  0.84349098  0.43688598  0.91283242  1
  O  O43  1  0.92211775  0.15391352  0.75321449  1
