# generated using pymatgen
data_Cr2S3
_symmetry_space_group_name_H-M   'P 1'
_cell_length_a   5.95376863
_cell_length_b   10.94272260
_cell_length_c   5.95376852
_cell_angle_alpha   90.00000000
_cell_angle_beta   119.99999938
_cell_angle_gamma   90.00000000
_symmetry_Int_Tables_number   1
_chemical_formula_structural   Cr2S3
_chemical_formula_sum   'Cr8 S12'
_cell_volume   335.92314168
_cell_formula_units_Z   4
loop_
 _symmetry_equiv_pos_site_id
 _symmetry_equiv_pos_as_xyz
  1  'x, y, z'
loop_
 _atom_site_type_symbol
 _atom_site_label
 _atom_site_symmetry_multiplicity
 _atom_site_fract_x
 _atom_site_fract_y
 _atom_site_fract_z
 _atom_site_occupancy
  Cr  Cr0  1  0.66666700  0.25794430  0.33333300  1
  Cr  Cr1  1  0.66666700  0.98877137  0.33333300  1
  Cr  Cr2  1  0.00000000  0.00455270  0.00000000  1
  Cr  Cr3  1  0.33333300  0.74885602  0.66666700  1
  Cr  Cr4  1  0.33333300  0.49499015  0.66666700  1
  Cr  Cr5  1  0.66666700  0.50482951  0.33333300  1
  Cr  Cr6  1  0.00000000  0.50032135  0.00000000  1
  Cr  Cr7  1  0.33333300  0.00508940  0.66666700  1
  S  S8  1  0.66253833  0.62022581  0.99239546  1
  S  S9  1  0.98648926  0.12210351  0.65710797  1
  S  S10  1  0.67053317  0.37944028  0.66426790  1
  S  S11  1  0.00760454  0.62022581  0.67014287  1
  S  S12  1  0.34289203  0.12210351  0.32938128  1
  S  S13  1  0.33573210  0.37944028  0.00626527  1
  S  S14  1  0.99373473  0.37944028  0.32946683  1
  S  S15  1  0.32626612  0.87644546  0.99068700  1
  S  S16  1  0.32985713  0.62022581  0.33746167  1
  S  S17  1  0.67061872  0.12210351  0.01351074  1
  S  S18  1  0.00931300  0.87644546  0.33557912  1
  S  S19  1  0.66442088  0.87644546  0.67373388  1
