# generated using pymatgen
data_K2MnP4(HO2)8
_symmetry_space_group_name_H-M   'P 1'
_cell_length_a   9.88116134
_cell_length_b   11.31825702
_cell_length_c   13.48064072
_cell_angle_alpha   90.00000000
_cell_angle_beta   90.00000000
_cell_angle_gamma   90.00000000
_symmetry_Int_Tables_number   1
_chemical_formula_structural   K2MnP4(HO2)8
_chemical_formula_sum   'K8 Mn4 P16 H32 O64'
_cell_volume   1507.64147604
_cell_formula_units_Z   4
loop_
 _symmetry_equiv_pos_site_id
 _symmetry_equiv_pos_as_xyz
  1  'x, y, z'
loop_
 _atom_site_type_symbol
 _atom_site_label
 _atom_site_symmetry_multiplicity
 _atom_site_fract_x
 _atom_site_fract_y
 _atom_site_fract_z
 _atom_site_occupancy
  K  K0  1  0.05577327  0.75000000  0.60213343  1
  K  K1  1  0.24717608  0.75000000  0.13229605  1
  K  K2  1  0.25282392  0.25000000  0.63229605  1
  K  K3  1  0.44422673  0.25000000  0.10213343  1
  K  K4  1  0.55577327  0.75000000  0.89786657  1
  K  K5  1  0.74717608  0.75000000  0.36770395  1
  K  K6  1  0.75282392  0.25000000  0.86770395  1
  K  K7  1  0.94422673  0.25000000  0.39786657  1
  Mn  Mn8  1  0.16607636  0.75000000  0.86175957  1
  Mn  Mn9  1  0.33392364  0.25000000  0.36175957  1
  Mn  Mn10  1  0.66607636  0.75000000  0.63824043  1
  Mn  Mn11  1  0.83392364  0.25000000  0.13824043  1
  P  P12  1  0.05812987  0.01862960  0.77691921  1
  P  P13  1  0.05812987  0.48137040  0.77691921  1
  P  P14  1  0.24753731  0.51759228  0.44305160  1
  P  P15  1  0.24753731  0.98240772  0.44305160  1
  P  P16  1  0.25246269  0.01759228  0.94305160  1
  P  P17  1  0.25246269  0.48240772  0.94305160  1
  P  P18  1  0.44187013  0.51862960  0.27691921  1
  P  P19  1  0.44187013  0.98137040  0.27691921  1
  P  P20  1  0.55812987  0.01862960  0.72308079  1
  P  P21  1  0.55812987  0.48137040  0.72308079  1
  P  P22  1  0.74753731  0.51759228  0.05694840  1
  P  P23  1  0.74753731  0.98240772  0.05694840  1
  P  P24  1  0.75246269  0.01759228  0.55694840  1
  P  P25  1  0.75246269  0.48240772  0.55694840  1
  P  P26  1  0.94187013  0.98137040  0.22308079  1
  P  P27  1  0.94187013  0.51862960  0.22308079  1
  H  H28  1  0.04161778  0.17978342  0.01362333  1
  H  H29  1  0.04161778  0.32021658  0.01362333  1
  H  H30  1  0.04113050  0.58228974  0.39842383  1
  H  H31  1  0.04113050  0.91771026  0.39842383  1
  H  H32  1  0.10041197  0.51990926  0.10622667  1
  H  H33  1  0.10041197  0.98009074  0.10622667  1
  H  H34  1  0.13448686  0.31777032  0.21732303  1
  H  H35  1  0.13448686  0.18222968  0.21732303  1
  H  H36  1  0.36551314  0.68222968  0.71732303  1
  H  H37  1  0.36551314  0.81777032  0.71732303  1
  H  H38  1  0.39958803  0.01991026  0.60622667  1
  H  H39  1  0.39958803  0.48008974  0.60622667  1
  H  H40  1  0.45886950  0.08228974  0.89842383  1
  H  H41  1  0.45886950  0.41771026  0.89842383  1
  H  H42  1  0.45838222  0.67978342  0.51362333  1
  H  H43  1  0.45838222  0.82021658  0.51362333  1
  H  H44  1  0.54161778  0.17978342  0.48637667  1
  H  H45  1  0.54161778  0.32021658  0.48637667  1
  H  H46  1  0.54113050  0.58228974  0.10157617  1
  H  H47  1  0.54113050  0.91771026  0.10157617  1
  H  H48  1  0.60041197  0.51990926  0.39377333  1
  H  H49  1  0.60041197  0.98009074  0.39377333  1
  H  H50  1  0.63448686  0.18222968  0.28267697  1
  H  H51  1  0.63448686  0.31777032  0.28267697  1
  H  H52  1  0.86551314  0.68222968  0.78267697  1
  H  H53  1  0.86551314  0.81777032  0.78267697  1
  H  H54  1  0.89958803  0.01991026  0.89377333  1
  H  H55  1  0.89958803  0.48008974  0.89377333  1
  H  H56  1  0.95886950  0.08228974  0.60157617  1
  H  H57  1  0.95886950  0.41771026  0.60157617  1
  H  H58  1  0.95838222  0.67978342  0.98637667  1
  H  H59  1  0.95838222  0.82021658  0.98637667  1
  O  O60  1  0.01875947  0.75000000  0.98430733  1
  O  O61  1  0.05015865  0.61601504  0.77991980  1
  O  O62  1  0.05015865  0.88398496  0.77991980  1
  O  O63  1  0.06589423  0.57169047  0.16467572  1
  O  O64  1  0.06589423  0.92830953  0.16467572  1
  O  O65  1  0.06991828  0.07583488  0.67624861  1
  O  O66  1  0.06991828  0.42416512  0.67624861  1
  O  O67  1  0.11563469  0.59395406  0.45251053  1
  O  O68  1  0.11563469  0.90604594  0.45251053  1
  O  O69  1  0.15363625  0.05568880  0.02319278  1
  O  O70  1  0.15363625  0.44431120  0.02319278  1
  O  O71  1  0.19633300  0.25000000  0.22540365  1
  O  O72  1  0.19277548  0.06155370  0.83611138  1
  O  O73  1  0.19277548  0.43844630  0.83611138  1
  O  O74  1  0.21702392  0.11385799  0.43622522  1
  O  O75  1  0.21702392  0.38614201  0.43622522  1
  O  O76  1  0.28297608  0.61385799  0.93622522  1
  O  O77  1  0.28297608  0.88614201  0.93622522  1
  O  O78  1  0.30722452  0.56155370  0.33611138  1
  O  O79  1  0.30722452  0.93844630  0.33611138  1
  O  O80  1  0.30366700  0.75000000  0.72540365  1
  O  O81  1  0.34636375  0.55568880  0.52319278  1
  O  O82  1  0.34636375  0.94431120  0.52319278  1
  O  O83  1  0.38436531  0.09395406  0.95251053  1
  O  O84  1  0.38436531  0.40604594  0.95251053  1
  O  O85  1  0.43008172  0.57583488  0.17624861  1
  O  O86  1  0.43008172  0.92416512  0.17624861  1
  O  O87  1  0.43410577  0.42830953  0.66467572  1
  O  O88  1  0.43410577  0.07169047  0.66467572  1
  O  O89  1  0.44984135  0.11601504  0.27991980  1
  O  O90  1  0.44984135  0.38398496  0.27991980  1
  O  O91  1  0.48124053  0.25000000  0.48430733  1
  O  O92  1  0.51875947  0.75000000  0.51569267  1
  O  O93  1  0.55015865  0.61601504  0.72008020  1
  O  O94  1  0.55015865  0.88398496  0.72008020  1
  O  O95  1  0.56589423  0.57169047  0.33532428  1
  O  O96  1  0.56589423  0.92830953  0.33532428  1
  O  O97  1  0.56991828  0.07583488  0.82375139  1
  O  O98  1  0.56991828  0.42416512  0.82375139  1
  O  O99  1  0.61563469  0.59395406  0.04748947  1
  O  O100  1  0.61563469  0.90604594  0.04748947  1
  O  O101  1  0.65363625  0.05568880  0.47680722  1
  O  O102  1  0.65363625  0.44431120  0.47680722  1
  O  O103  1  0.69633300  0.25000000  0.27459635  1
  O  O104  1  0.69277548  0.06155370  0.66388862  1
  O  O105  1  0.69277548  0.43844630  0.66388862  1
  O  O106  1  0.71702392  0.11385799  0.06377478  1
  O  O107  1  0.71702392  0.38614201  0.06377478  1
  O  O108  1  0.78297608  0.61385799  0.56377478  1
  O  O109  1  0.78297608  0.88614201  0.56377478  1
  O  O110  1  0.80722452  0.56155370  0.16388862  1
  O  O111  1  0.80722452  0.93844630  0.16388862  1
  O  O112  1  0.80366700  0.75000000  0.77459635  1
  O  O113  1  0.84636375  0.55568880  0.97680722  1
  O  O114  1  0.84636375  0.94431120  0.97680722  1
  O  O115  1  0.88436531  0.09395406  0.54748947  1
  O  O116  1  0.88436531  0.40604594  0.54748947  1
  O  O117  1  0.93008172  0.57583488  0.32375139  1
  O  O118  1  0.93008172  0.92416512  0.32375139  1
  O  O119  1  0.93410577  0.07169047  0.83532428  1
  O  O120  1  0.93410577  0.42830953  0.83532428  1
  O  O121  1  0.94984135  0.11601504  0.22008020  1
  O  O122  1  0.94984135  0.38398496  0.22008020  1
  O  O123  1  0.98124053  0.25000000  0.01569267  1
