# generated using pymatgen
data_Cs2VS5O
_symmetry_space_group_name_H-M   'P 1'
_cell_length_a   7.65281382
_cell_length_b   10.67329551
_cell_length_c   13.50756403
_cell_angle_alpha   90.00000000
_cell_angle_beta   101.24684717
_cell_angle_gamma   90.00000000
_symmetry_Int_Tables_number   1
_chemical_formula_structural   Cs2VS5O
_chemical_formula_sum   'Cs8 V4 S20 O4'
_cell_volume   1082.11996316
_cell_formula_units_Z   4
loop_
 _symmetry_equiv_pos_site_id
 _symmetry_equiv_pos_as_xyz
  1  'x, y, z'
loop_
 _atom_site_type_symbol
 _atom_site_label
 _atom_site_symmetry_multiplicity
 _atom_site_fract_x
 _atom_site_fract_y
 _atom_site_fract_z
 _atom_site_occupancy
  Cs  Cs0  1  0.25837799  0.97186812  0.76189122  1
  Cs  Cs1  1  0.75837799  0.52813188  0.26189122  1
  Cs  Cs2  1  0.74162201  0.02813188  0.23810878  1
  Cs  Cs3  1  0.24162201  0.47186812  0.73810878  1
  Cs  Cs4  1  0.38768142  0.26178812  0.42102698  1
  Cs  Cs5  1  0.88768142  0.23821188  0.92102698  1
  Cs  Cs6  1  0.61231858  0.73821188  0.57897302  1
  Cs  Cs7  1  0.11231858  0.76178812  0.07897302  1
  V  V8  1  0.63657573  0.69632392  0.88153460  1
  V  V9  1  0.13657573  0.80367608  0.38153460  1
  V  V10  1  0.36342427  0.30367608  0.11846540  1
  V  V11  1  0.86342427  0.19632392  0.61846540  1
  S  S12  1  0.09441687  0.00396310  0.45243386  1
  S  S13  1  0.59441687  0.49603690  0.95243386  1
  S  S14  1  0.90558313  -0.00396310  0.54756614  1
  S  S15  1  0.40558313  0.50396310  0.04756614  1
  S  S16  1  0.41998818  0.22547433  0.96470304  1
  S  S17  1  0.91998818  0.27452567  0.46470304  1
  S  S18  1  0.58001182  0.77452567  0.03529696  1
  S  S19  1  0.08001182  0.72547433  0.53529696  1
  S  S20  1  0.69409082  0.05393642  0.70375059  1
  S  S21  1  0.19409082  0.44606358  0.20375059  1
  S  S22  1  0.30590918  0.94606358  0.29624941  1
  S  S23  1  0.80590918  0.55393642  0.79624941  1
  S  S24  1  0.31220775  0.09606559  0.05126076  1
  S  S25  1  0.81220775  0.40393441  0.55126076  1
  S  S26  1  0.68779225  0.90393441  0.94873924  1
  S  S27  1  0.18779225  0.59606559  0.44873924  1
  S  S28  1  0.60950017  0.23818911  0.68414220  1
  S  S29  1  0.10950017  0.26181089  0.18414220  1
  S  S30  1  0.39049983  0.76181089  0.31585780  1
  S  S31  1  0.89049983  0.73818911  0.81585780  1
  O  O32  1  0.45900516  0.71981592  0.79143056  1
  O  O33  1  0.95900516  0.78018408  0.29143056  1
  O  O34  1  0.54099484  0.28018408  0.20856944  1
  O  O35  1  0.04099484  0.21981592  0.70856944  1
