# generated using pymatgen
data_Ca4PtO6
_symmetry_space_group_name_H-M   'P 1'
_cell_length_a   6.62683944
_cell_length_b   6.62683944
_cell_length_c   6.62683944
_cell_angle_alpha   90.81152112
_cell_angle_beta   90.81152114
_cell_angle_gamma   90.81152112
_symmetry_Int_Tables_number   1
_chemical_formula_structural   Ca4PtO6
_chemical_formula_sum   'Ca8 Pt2 O12'
_cell_volume   290.92925449
_cell_formula_units_Z   2
loop_
 _symmetry_equiv_pos_site_id
 _symmetry_equiv_pos_as_xyz
  1  'x, y, z'
loop_
 _atom_site_type_symbol
 _atom_site_label
 _atom_site_symmetry_multiplicity
 _atom_site_fract_x
 _atom_site_fract_y
 _atom_site_fract_z
 _atom_site_occupancy
  O  O0  1  0.20156100  0.43041366  0.55279473  1
  O  O1  1  0.43041366  0.55279473  0.20156100  1
  O  O2  1  0.55279473  0.20156100  0.43041366  1
  O  O3  1  0.94720527  0.06958634  0.29843900  1
  O  O4  1  0.06958634  0.29843900  0.94720527  1
  O  O5  1  0.29843900  0.94720527  0.06958634  1
  O  O6  1  0.79843900  0.56958634  0.44720527  1
  O  O7  1  0.56958634  0.44720527  0.79843900  1
  O  O8  1  0.44720527  0.79843900  0.56958634  1
  O  O9  1  0.05279473  0.93041366  0.70156100  1
  O  O10  1  0.70156100  0.05279473  0.93041366  1
  O  O11  1  0.93041366  0.70156100  0.05279473  1
  Ca  Ca12  1  0.11215523  0.75000000  0.38784477  1
  Ca  Ca13  1  0.75000000  0.38784477  0.11215523  1
  Ca  Ca14  1  0.38784477  0.11215523  0.75000000  1
  Ca  Ca15  1  0.88784477  0.25000000  0.61215523  1
  Ca  Ca16  1  0.25000000  0.61215523  0.88784477  1
  Ca  Ca17  1  0.61215523  0.88784477  0.25000000  1
  Ca  Ca18  1  0.25000000  0.25000000  0.25000000  1
  Ca  Ca19  1  0.75000000  0.75000000  0.75000000  1
  Pt  Pt20  1  0.50000000  0.50000000  0.50000000  1
  Pt  Pt21  1  0.00000000  0.00000000  0.00000000  1
