# generated using pymatgen
data_Ti5TlSe8
_symmetry_space_group_name_H-M   'P 1'
_cell_length_a   3.57395792
_cell_length_b   9.24489297
_cell_length_c   9.61871497
_cell_angle_alpha   104.27748393
_cell_angle_beta   100.70669691
_cell_angle_gamma   90.00000003
_symmetry_Int_Tables_number   1
_chemical_formula_structural   Ti5TlSe8
_chemical_formula_sum   'Ti5 Tl1 Se8'
_cell_volume   302.28194176
_cell_formula_units_Z   1
loop_
 _symmetry_equiv_pos_site_id
 _symmetry_equiv_pos_as_xyz
  1  'x, y, z'
loop_
 _atom_site_type_symbol
 _atom_site_label
 _atom_site_symmetry_multiplicity
 _atom_site_fract_x
 _atom_site_fract_y
 _atom_site_fract_z
 _atom_site_occupancy
  Ti  Ti0  1  0.50000000  0.50000000  0.00000000  1
  Ti  Ti1  1  0.15238703  0.49842072  0.30477407  1
  Ti  Ti2  1  0.20907062  0.84888958  0.41814124  1
  Ti  Ti3  1  0.79092938  0.15111042  0.58185876  1
  Ti  Ti4  1  0.84761297  0.50157928  0.69522593  1
  Se  Se5  1  0.92671150  0.32205521  0.85342301  1
  Se  Se6  1  0.33935617  0.00134059  0.67871234  1
  Se  Se7  1  0.66064383  0.99865941  0.32128766  1
  Se  Se8  1  0.74231637  0.66173549  0.48463275  1
  Se  Se9  1  0.25768363  0.33826451  0.51536725  1
  Se  Se10  1  0.41430220  0.68085055  0.82860439  1
  Se  Se11  1  0.58569780  0.31914945  0.17139561  1
  Se  Se12  1  0.07328850  0.67794479  0.14657699  1
  Tl  Tl13  1  0.00000000  0.00000000  0.00000000  1
