# generated using pymatgen
data_V2OF5
_symmetry_space_group_name_H-M   'P 1'
_cell_length_a   5.26609340
_cell_length_b   5.43376347
_cell_length_c   17.45991779
_cell_angle_alpha   91.44951651
_cell_angle_beta   98.89535426
_cell_angle_gamma   61.09880326
_symmetry_Int_Tables_number   1
_chemical_formula_structural   V2OF5
_chemical_formula_sum   'V8 O4 F20'
_cell_volume   431.41900320
_cell_formula_units_Z   4
loop_
 _symmetry_equiv_pos_site_id
 _symmetry_equiv_pos_as_xyz
  1  'x, y, z'
loop_
 _atom_site_type_symbol
 _atom_site_label
 _atom_site_symmetry_multiplicity
 _atom_site_fract_x
 _atom_site_fract_y
 _atom_site_fract_z
 _atom_site_occupancy
  V  V0  1  0.72076392  0.64991233  0.11988416  1
  V  V1  1  0.75514393  0.10764923  0.62388772  1
  V  V2  1  0.48765274  0.28602966  0.25354639  1
  V  V3  1  0.50314561  0.72672688  0.75667835  1
  V  V4  1  0.24557206  0.87733080  0.37352532  1
  V  V5  1  0.26474612  0.37388268  0.87371039  1
  V  V6  1  0.01523132  0.00106045  0.00229812  1
  V  V7  1  0.99600774  0.51873028  0.50424745  1
  O  O8  1  0.95232340  0.79017339  0.55988997  1
  O  O9  1  0.42986831  0.79506739  0.04776552  1
  O  O10  1  0.44139638  0.56007652  0.30702238  1
  O  O11  1  0.43004976  0.57948635  0.82829698  1
  F  F12  1  0.92179030  0.84587799  0.09003435  1
  F  F13  1  0.97268669  0.32954754  0.06123020  1
  F  F14  1  0.53892147  0.94324310  0.19237113  1
  F  F15  1  0.91668737  0.05419773  0.28724790  1
  F  F16  1  0.93673124  0.31283536  0.58388655  1
  F  F17  1  0.93161351  0.52706572  0.78584504  1
  F  F18  1  0.57887075  0.41122778  0.16221808  1
  F  F19  1  0.57623365  0.90807770  0.66914592  1
  F  F20  1  0.57125977  0.69801699  0.46015609  1
  F  F21  1  0.53095493  0.44076882  0.68339099  1
  F  F22  1  0.42575224  0.08400489  0.33614994  1
  F  F23  1  0.42397491  0.28488599  0.53636923  1
  F  F24  1  0.58883113  0.21492576  0.96272270  1
  F  F25  1  0.06377216  0.67117825  0.41198319  1
  F  F26  1  0.06755274  0.45841831  0.20664491  1
  F  F27  1  0.08348410  0.95880345  0.71110457  1
  F  F28  1  0.49438448  0.04472310  0.81516140  1
  F  F29  1  0.04071785  0.68889227  0.93792446  1
  F  F30  1  0.02982198  0.20184904  0.43796380  1
  F  F31  1  0.09219246  0.16080527  0.91333980  1
