# generated using pymatgen
data_Li8CeO6
_symmetry_space_group_name_H-M   'P 1'
_cell_length_a   6.31729952
_cell_length_b   6.31729952
_cell_length_c   6.31729952
_cell_angle_alpha   53.18806119
_cell_angle_beta   53.18806117
_cell_angle_gamma   53.18806111
_symmetry_Int_Tables_number   1
_chemical_formula_structural   Li8CeO6
_chemical_formula_sum   'Li8 Ce1 O6'
_cell_volume   149.82488414
_cell_formula_units_Z   1
loop_
 _symmetry_equiv_pos_site_id
 _symmetry_equiv_pos_as_xyz
  1  'x, y, z'
loop_
 _atom_site_type_symbol
 _atom_site_label
 _atom_site_symmetry_multiplicity
 _atom_site_fract_x
 _atom_site_fract_y
 _atom_site_fract_z
 _atom_site_occupancy
  Li  Li0  1  0.35352916  0.35352916  0.35352916  1
  Li  Li1  1  0.50263244  0.89761622  0.22928512  1
  Li  Li2  1  0.22928512  0.50263244  0.89761622  1
  Li  Li3  1  0.89761622  0.22928512  0.50263244  1
  Li  Li4  1  0.49736756  0.10238378  0.77071488  1
  Li  Li5  1  0.77071488  0.49736756  0.10238378  1
  Li  Li6  1  0.64647084  0.64647084  0.64647084  1
  Li  Li7  1  0.10238378  0.77071488  0.49736756  1
  O  O8  1  0.24045243  0.90012553  0.60431748  1
  O  O9  1  0.09987447  0.39568252  0.75954757  1
  O  O10  1  0.75954757  0.09987447  0.39568252  1
  O  O11  1  0.60431748  0.24045243  0.90012553  1
  O  O12  1  0.90012553  0.60431748  0.24045243  1
  O  O13  1  0.39568252  0.75954757  0.09987447  1
  Ce  Ce14  1  0.00000000  0.00000000  0.00000000  1
