# generated using pymatgen
data_PmInHg2
_symmetry_space_group_name_H-M   'P 1'
_cell_length_a   5.24114069
_cell_length_b   5.24076118
_cell_length_c   5.24054532
_cell_angle_alpha   60.00346634
_cell_angle_beta   60.00238951
_cell_angle_gamma   59.99765699
_symmetry_Int_Tables_number   1
_chemical_formula_structural   PmInHg2
_chemical_formula_sum   'Pm1 In1 Hg2'
_cell_volume   101.78720703
_cell_formula_units_Z   1
loop_
 _symmetry_equiv_pos_site_id
 _symmetry_equiv_pos_as_xyz
  1  'x, y, z'
loop_
 _atom_site_type_symbol
 _atom_site_label
 _atom_site_symmetry_multiplicity
 _atom_site_fract_x
 _atom_site_fract_y
 _atom_site_fract_z
 _atom_site_occupancy
  Pm  Pm0  1  0.74998575  0.75000422  0.75000065  1
  In  In1  1  0.25000512  0.24999499  0.24999676  1
  Hg  Hg2  1  0.99999847  0.00000334  0.00000314  1
  Hg  Hg3  1  0.50001167  0.49999845  0.50000044  1
