# generated using pymatgen
data_NiH9C4(NO2)3
_symmetry_space_group_name_H-M   'P 1'
_cell_length_a   8.47882782
_cell_length_b   8.93028064
_cell_length_c   11.86015645
_cell_angle_alpha   90.00000000
_cell_angle_beta   90.00000000
_cell_angle_gamma   90.00000000
_symmetry_Int_Tables_number   1
_chemical_formula_structural   NiH9C4(NO2)3
_chemical_formula_sum   'Ni4 H36 C16 N12 O24'
_cell_volume   898.03102563
_cell_formula_units_Z   4
loop_
 _symmetry_equiv_pos_site_id
 _symmetry_equiv_pos_as_xyz
  1  'x, y, z'
loop_
 _atom_site_type_symbol
 _atom_site_label
 _atom_site_symmetry_multiplicity
 _atom_site_fract_x
 _atom_site_fract_y
 _atom_site_fract_z
 _atom_site_occupancy
  Ni  Ni0  1  0.24824197  0.25000000  0.75000000  1
  Ni  Ni1  1  0.25175803  0.25000000  0.25000000  1
  Ni  Ni2  1  0.75175803  0.75000000  0.25000000  1
  Ni  Ni3  1  0.74824197  0.75000000  0.75000000  1
  H  H4  1  0.25000000  0.32630934  0.00000000  1
  H  H5  1  0.25000000  0.17369066  0.50000000  1
  H  H6  1  0.75000000  0.67369066  0.00000000  1
  H  H7  1  0.75000000  0.82630934  0.50000000  1
  H  H8  1  0.90886632  0.07071124  0.79064524  1
  H  H9  1  0.59113368  0.07071124  0.20935476  1
  H  H10  1  0.90886632  0.42928876  0.70935476  1
  H  H11  1  0.59113368  0.42928876  0.29064524  1
  H  H12  1  0.09113368  0.92928876  0.20935476  1
  H  H13  1  0.40886632  0.92928876  0.79064524  1
  H  H14  1  0.09113368  0.57071124  0.29064524  1
  H  H15  1  0.40886632  0.57071124  0.70935476  1
  H  H16  1  0.08264336  0.75941735  0.87705332  1
  H  H17  1  0.41735664  0.75941735  0.12294668  1
  H  H18  1  0.08264336  0.74058265  0.62294668  1
  H  H19  1  0.41735664  0.74058265  0.37705332  1
  H  H20  1  0.91735664  0.24058265  0.12294668  1
  H  H21  1  0.58264336  0.24058265  0.87705332  1
  H  H22  1  0.91735664  0.25941735  0.37705332  1
  H  H23  1  0.58264336  0.25941735  0.62294668  1
  H  H24  1  0.16586022  0.93259986  0.92396925  1
  H  H25  1  0.33413978  0.93259986  0.07603075  1
  H  H26  1  0.16586022  0.56740014  0.57603075  1
  H  H27  1  0.33413978  0.56740014  0.42396925  1
  H  H28  1  0.83413978  0.06740014  0.07603075  1
  H  H29  1  0.66586022  0.06740014  0.92396925  1
  H  H30  1  0.83413978  0.43259986  0.42396925  1
  H  H31  1  0.66586022  0.43259986  0.57603075  1
  H  H32  1  0.31589344  0.53724408  0.05822723  1
  H  H33  1  0.18410656  0.53724408  0.94177277  1
  H  H34  1  0.31589344  0.96275592  0.44177277  1
  H  H35  1  0.18410656  0.96275592  0.55822723  1
  H  H36  1  0.68410656  0.46275592  0.94177277  1
  H  H37  1  0.81589344  0.46275592  0.05822723  1
  H  H38  1  0.68410656  0.03724408  0.55822723  1
  H  H39  1  0.81589344  0.03724408  0.44177277  1
  C  C40  1  0.25000000  0.20320676  0.00000000  1
  C  C41  1  0.25000000  0.29679324  0.50000000  1
  C  C42  1  0.75000000  0.79679324  0.00000000  1
  C  C43  1  0.75000000  0.70320676  0.50000000  1
  C  C44  1  0.97956318  0.01380084  0.72480261  1
  C  C45  1  0.52043682  0.01380084  0.27519739  1
  C  C46  1  0.97956318  0.48619916  0.77519739  1
  C  C47  1  0.52043682  0.48619916  0.22480261  1
  C  C48  1  0.02043682  0.98619916  0.27519739  1
  C  C49  1  0.47956318  0.98619916  0.72480261  1
  C  C50  1  0.02043682  0.51380084  0.22480261  1
  C  C51  1  0.47956318  0.51380084  0.77519739  1
  C  C52  1  0.25000000  0.74383052  -0.00000000  1
  C  C53  1  0.25000000  0.75616948  0.50000000  1
  C  C54  1  0.75000000  0.25616948  0.00000000  1
  C  C55  1  0.75000000  0.24383052  0.50000000  1
  N  N56  1  0.15749887  0.81844003  0.92820417  1
  N  N57  1  0.34250113  0.81844003  0.07179583  1
  N  N58  1  0.15749887  0.68155997  0.57179583  1
  N  N59  1  0.34250113  0.68155997  0.42820417  1
  N  N60  1  0.84250113  0.18155997  0.07179583  1
  N  N61  1  0.65749887  0.18155997  0.92820417  1
  N  N62  1  0.84250113  0.31844003  0.42820417  1
  N  N63  1  0.65749887  0.31844003  0.57179583  1
  N  N64  1  0.25000000  0.59427763  -0.00000000  1
  N  N65  1  0.25000000  0.90572237  0.50000000  1
  N  N66  1  0.75000000  0.40572237  -0.00000000  1
  N  N67  1  0.75000000  0.09427763  0.50000000  1
  O  O68  1  0.24287523  0.13626707  0.90554436  1
  O  O69  1  0.25712477  0.13626707  0.09445564  1
  O  O70  1  0.24287523  0.36373293  0.59445564  1
  O  O71  1  0.25712477  0.36373293  0.40554436  1
  O  O72  1  0.75712477  0.86373293  0.09445564  1
  O  O73  1  0.74287523  0.86373293  0.90554436  1
  O  O74  1  0.75712477  0.63626707  0.40554436  1
  O  O75  1  0.74287523  0.63626707  0.59445564  1
  O  O76  1  0.10012425  0.08039536  0.68560625  1
  O  O77  1  0.39987575  0.08039536  0.31439375  1
  O  O78  1  0.10012425  0.41960464  0.81439375  1
  O  O79  1  0.39987575  0.41960464  0.18560625  1
  O  O80  1  0.89987575  0.91960464  0.31439375  1
  O  O81  1  0.60012425  0.91960464  0.68560625  1
  O  O82  1  0.89987575  0.58039536  0.18560625  1
  O  O83  1  0.60012425  0.58039536  0.81439375  1
  O  O84  1  0.93623931  0.88444317  0.69252840  1
  O  O85  1  0.56376069  0.88444317  0.30747160  1
  O  O86  1  0.93623931  0.61555683  0.80747160  1
  O  O87  1  0.56376069  0.61555683  0.19252840  1
  O  O88  1  0.06376069  0.11555683  0.30747160  1
  O  O89  1  0.43623931  0.11555683  0.69252840  1
  O  O90  1  0.06376069  0.38444317  0.19252840  1
  O  O91  1  0.43623931  0.38444317  0.80747160  1
