# generated using pymatgen
data_CaEuIn2
_symmetry_space_group_name_H-M   'P 1'
_cell_length_a   5.61583907
_cell_length_b   5.61540986
_cell_length_c   5.61475890
_cell_angle_alpha   59.96141262
_cell_angle_beta   59.96226410
_cell_angle_gamma   59.96431559
_symmetry_Int_Tables_number   1
_chemical_formula_structural   CaEuIn2
_chemical_formula_sum   'Ca1 Eu1 In2'
_cell_volume   125.09626892
_cell_formula_units_Z   1
loop_
 _symmetry_equiv_pos_site_id
 _symmetry_equiv_pos_as_xyz
  1  'x, y, z'
loop_
 _atom_site_type_symbol
 _atom_site_label
 _atom_site_symmetry_multiplicity
 _atom_site_fract_x
 _atom_site_fract_y
 _atom_site_fract_z
 _atom_site_occupancy
  Eu  Eu0  1  0.75000022  0.75000093  0.74999928  1
  Ca  Ca1  1  0.24999993  0.24999996  0.25000078  1
  In  In2  1  0.00002531  0.00003290  0.00003845  1
  In  In3  1  0.49997553  0.49996720  0.49996249  1
