# generated using pymatgen
data_CuH6BrN2
_symmetry_space_group_name_H-M   'P 1'
_cell_length_a   5.80565707
_cell_length_b   6.67585471
_cell_length_c   7.24993843
_cell_angle_alpha   62.58658238
_cell_angle_beta   101.06034624
_cell_angle_gamma   114.62516447
_symmetry_Int_Tables_number   1
_chemical_formula_structural   CuH6BrN2
_chemical_formula_sum   'Cu2 H12 Br2 N4'
_cell_volume   226.75235289
_cell_formula_units_Z   2
loop_
 _symmetry_equiv_pos_site_id
 _symmetry_equiv_pos_as_xyz
  1  'x, y, z'
loop_
 _atom_site_type_symbol
 _atom_site_label
 _atom_site_symmetry_multiplicity
 _atom_site_fract_x
 _atom_site_fract_y
 _atom_site_fract_z
 _atom_site_occupancy
  Cu  Cu0  1  0.99998743  0.00000014  -0.00000675  1
  Cu  Cu1  1  0.49998643  -0.00000662  0.00000675  1
  H  H2  1  0.78707020  0.18004243  0.23114240  1
  H  H3  1  0.71293413  0.58881731  0.23114197  1
  H  H4  1  0.49170211  0.14508948  0.25664723  1
  H  H5  1  0.00830208  0.59826570  0.25664685  1
  H  H6  1  0.91245946  0.71167809  0.37730591  1
  H  H7  1  0.58754496  0.91101733  0.37730529  1
  H  H8  1  0.41245846  0.08898501  0.62269409  1
  H  H9  1  0.08754396  0.28832362  0.62269471  1
  H  H10  1  0.99170111  0.40173471  0.74335377  1
  H  H11  1  0.50830308  0.85491254  0.74335415  1
  H  H12  1  0.28707120  0.41118684  0.76885560  1
  H  H13  1  0.21293413  0.81996028  0.76885603  1
  Br  Br14  1  0.24999951  0.36335881  0.27328036  1
  Br  Br15  1  0.75000051  0.63664017  0.72671864  1
  N  N16  1  0.59985431  0.06384042  0.24099535  1
  N  N17  1  0.90014481  0.69516222  0.24099653  1
  N  N18  1  0.09985431  0.30483477  0.75900565  1
  N  N19  1  0.40014481  0.93615875  0.75900447  1
