# generated using pymatgen
data_Dy2NiRu
_symmetry_space_group_name_H-M   'P 1'
_cell_length_a   4.80024805
_cell_length_b   4.80024556
_cell_length_c   4.80024793
_cell_angle_alpha   59.99976610
_cell_angle_beta   59.99976459
_cell_angle_gamma   59.99979237
_symmetry_Int_Tables_number   1
_chemical_formula_structural   Dy2NiRu
_chemical_formula_sum   'Dy2 Ni1 Ru1'
_cell_volume   78.21203468
_cell_formula_units_Z   1
loop_
 _symmetry_equiv_pos_site_id
 _symmetry_equiv_pos_as_xyz
  1  'x, y, z'
loop_
 _atom_site_type_symbol
 _atom_site_label
 _atom_site_symmetry_multiplicity
 _atom_site_fract_x
 _atom_site_fract_y
 _atom_site_fract_z
 _atom_site_occupancy
  Dy  Dy0  1  0.50000002  0.49999993  0.49999981  1
  Dy  Dy1  1  0.00000003  0.00000022  -0.00000011  1
  Ni  Ni2  1  0.24999896  0.24999882  0.24999945  1
  Ru  Ru3  1  0.74999999  0.75000004  0.74999985  1
