# generated using pymatgen
data_K(IO3)2
_symmetry_space_group_name_H-M   'P 1'
_cell_length_a   7.56768711
_cell_length_b   8.80180829
_cell_length_c   10.68963265
_cell_angle_alpha   112.85555746
_cell_angle_beta   90.00000000
_cell_angle_gamma   90.00000000
_symmetry_Int_Tables_number   1
_chemical_formula_structural   K(IO3)2
_chemical_formula_sum   'K4 I8 O24'
_cell_volume   656.12569725
_cell_formula_units_Z   4
loop_
 _symmetry_equiv_pos_site_id
 _symmetry_equiv_pos_as_xyz
  1  'x, y, z'
loop_
 _atom_site_type_symbol
 _atom_site_label
 _atom_site_symmetry_multiplicity
 _atom_site_fract_x
 _atom_site_fract_y
 _atom_site_fract_z
 _atom_site_occupancy
  K  K0  1  0.74894159  0.33796944  0.20111829  1
  K  K1  1  0.24894159  0.16203056  0.79888171  1
  K  K2  1  0.25105841  0.66203056  0.79888171  1
  K  K3  1  0.75105841  0.83796944  0.20111829  1
  I  I4  1  0.70289846  0.42833656  0.87584170  1
  I  I5  1  0.20289846  0.07166344  0.12415830  1
  I  I6  1  0.29710154  0.57166344  0.12415830  1
  I  I7  1  0.79710154  0.92833656  0.87584170  1
  I  I8  1  0.93508288  0.20775526  0.50543137  1
  I  I9  1  0.43508288  0.29224474  0.49456863  1
  I  I10  1  0.06491712  0.79224474  0.49456863  1
  I  I11  1  0.56491712  0.70775526  0.50543137  1
  O  O12  1  0.54959927  0.31397669  0.93908678  1
  O  O13  1  0.04959927  0.18602331  0.06091322  1
  O  O14  1  0.45040073  0.68602331  0.06091322  1
  O  O15  1  0.95040073  0.81397669  0.93908678  1
  O  O16  1  0.84792488  0.26374848  0.76541572  1
  O  O17  1  0.34792488  0.23625152  0.23458428  1
  O  O18  1  0.15207512  0.73625152  0.23458428  1
  O  O19  1  0.65207512  0.76374848  0.76541572  1
  O  O20  1  0.83596395  0.51168872  0.03192159  1
  O  O21  1  0.33596395  0.98831128  0.96807841  1
  O  O22  1  0.16403605  0.48831128  0.96807841  1
  O  O23  1  0.66403605  0.01168872  0.03192159  1
  O  O24  1  0.95190887  0.14275920  0.32065144  1
  O  O25  1  0.45190887  0.35724080  0.67934856  1
  O  O26  1  0.04809113  0.85724080  0.67934856  1
  O  O27  1  0.54809113  0.64275920  0.32065144  1
  O  O28  1  0.14441203  0.11729864  0.53641412  1
  O  O29  1  0.64441203  0.38270136  0.46358588  1
  O  O30  1  0.85558797  0.88270136  0.46358588  1
  O  O31  1  0.35558797  0.61729864  0.53641412  1
  O  O32  1  0.02642074  0.41771213  0.56879225  1
  O  O33  1  0.52642074  0.08228787  0.43120775  1
  O  O34  1  0.97357926  0.58228787  0.43120775  1
  O  O35  1  0.47357926  0.91771213  0.56879225  1
