# generated using pymatgen
data_Ho2NiAs2
_symmetry_space_group_name_H-M   'P 1'
_cell_length_a   4.09768657
_cell_length_b   4.09768656
_cell_length_c   14.11822490
_cell_angle_alpha   90.00000000
_cell_angle_beta   90.00000000
_cell_angle_gamma   119.99999998
_symmetry_Int_Tables_number   1
_chemical_formula_structural   Ho2NiAs2
_chemical_formula_sum   'Ho4 Ni2 As4'
_cell_volume   205.29964551
_cell_formula_units_Z   2
loop_
 _symmetry_equiv_pos_site_id
 _symmetry_equiv_pos_as_xyz
  1  'x, y, z'
loop_
 _atom_site_type_symbol
 _atom_site_label
 _atom_site_symmetry_multiplicity
 _atom_site_fract_x
 _atom_site_fract_y
 _atom_site_fract_z
 _atom_site_occupancy
  Ni  Ni0  1  0.00000000  0.00000000  0.75000000  1
  Ni  Ni1  1  0.00000000  0.00000000  0.25000000  1
  As  As2  1  0.33333333  0.66666667  0.25000000  1
  As  As3  1  0.00000000  0.00000000  0.00000000  1
  As  As4  1  0.00000000  0.00000000  0.50000000  1
  As  As5  1  0.66666667  0.33333333  0.75000000  1
  Ho  Ho6  1  0.66666667  0.33333333  0.38241742  1
  Ho  Ho7  1  0.33333333  0.66666667  0.88241742  1
  Ho  Ho8  1  0.33333333  0.66666667  0.61758258  1
  Ho  Ho9  1  0.66666667  0.33333333  0.11758258  1
