# generated using pymatgen
data_Ba4Pr(RuO4)3
_symmetry_space_group_name_H-M   'P 1'
_cell_length_a   5.98880052
_cell_length_b   5.98879943
_cell_length_c   30.17999248
_cell_angle_alpha   88.42359032
_cell_angle_beta   88.42359093
_cell_angle_gamma   60.02536966
_symmetry_Int_Tables_number   1
_chemical_formula_structural   Ba4Pr(RuO4)3
_chemical_formula_sum   'Ba12 Pr3 Ru9 O36'
_cell_volume   937.17578286
_cell_formula_units_Z   3
loop_
 _symmetry_equiv_pos_site_id
 _symmetry_equiv_pos_as_xyz
  1  'x, y, z'
loop_
 _atom_site_type_symbol
 _atom_site_label
 _atom_site_symmetry_multiplicity
 _atom_site_fract_x
 _atom_site_fract_y
 _atom_site_fract_z
 _atom_site_occupancy
  Ba  Ba0  1  0.99654313  0.99654313  0.72032487  1
  Ba  Ba1  1  0.00345687  0.00345687  0.27967513  1
  Ba  Ba2  1  0.00009993  0.00009993  0.13062062  1
  Ba  Ba3  1  0.99990007  0.99990007  0.86937938  1
  Ba  Ba4  1  0.33860727  0.33860727  0.61312722  1
  Ba  Ba5  1  0.66139273  0.66139273  0.38687278  1
  Ba  Ba6  1  0.33283900  0.33283900  0.20280866  1
  Ba  Ba7  1  0.66663433  0.66663433  0.53600023  1
  Ba  Ba8  1  0.32944951  0.32944951  0.05380980  1
  Ba  Ba9  1  0.33336567  0.33336567  0.46399977  1
  Ba  Ba10  1  0.67055049  0.67055049  0.94619020  1
  Ba  Ba11  1  0.66716100  0.66716100  0.79719134  1
  Pr  Pr12  1  0.33214226  0.33214226  0.33324198  1
  Pr  Pr13  1  0.66785774  0.66785774  0.66675802  1
  Pr  Pr14  1  0.00000000  0.00000000  -0.00000000  1
  Ru  Ru15  1  0.65814612  0.65814612  0.08183927  1
  Ru  Ru16  1  0.33373967  0.33373967  0.83324435  1
  Ru  Ru17  1  0.98976619  0.98976619  0.41514204  1
  Ru  Ru18  1  0.66626033  0.66626033  0.16675565  1
  Ru  Ru19  1  0.01023381  0.01023381  0.58485796  1
  Ru  Ru20  1  0.00000000  0.00000000  0.50000000  1
  Ru  Ru21  1  0.34185388  0.34185388  0.91816073  1
  Ru  Ru22  1  0.67475136  0.67475136  0.25151778  1
  Ru  Ru23  1  0.32524864  0.32524864  0.74848222  1
  O  O24  1  0.15870660  0.15870660  0.53716611  1
  O  O25  1  0.50925047  0.97222633  0.12365517  1
  O  O26  1  0.86464128  0.86464128  0.62649864  1
  O  O27  1  0.49074953  0.02777367  0.87634483  1
  O  O28  1  0.17554344  0.17554344  0.79563279  1
  O  O29  1  0.00520598  0.47471446  0.71615775  1
  O  O30  1  0.52528554  0.99479402  0.28384225  1
  O  O31  1  0.66124581  0.19214971  0.95042220  1
  O  O32  1  0.63969912  0.17684135  0.79011376  1
  O  O33  1  0.47242702  0.47242702  0.70710596  1
  O  O34  1  0.17684135  0.63969912  0.79011376  1
  O  O35  1  0.80550748  0.80550748  0.04100999  1
  O  O36  1  0.33096124  0.86176350  0.61665178  1
  O  O37  1  0.82315865  0.36030088  0.20988624  1
  O  O38  1  0.52757298  0.52757298  0.29289404  1
  O  O39  1  0.69474556  0.15808027  0.54332407  1
  O  O40  1  0.84191973  0.30525444  0.45667593  1
  O  O41  1  0.99479402  0.52528554  0.28384225  1
  O  O42  1  0.13823650  0.66903876  0.38334822  1
  O  O43  1  0.19449252  0.19449252  0.95899001  1
  O  O44  1  0.02777367  0.49074953  0.87634483  1
  O  O45  1  0.97222633  0.50925047  0.12365517  1
  O  O46  1  0.50814223  0.50814223  0.12907123  1
  O  O47  1  0.33875419  0.80785029  0.04957780  1
  O  O48  1  0.36030088  0.82315865  0.20988624  1
  O  O49  1  0.15808027  0.69474556  0.54332407  1
  O  O50  1  0.86176350  0.33096124  0.61665178  1
  O  O51  1  0.13535872  0.13535872  0.37350136  1
  O  O52  1  0.47471446  0.00520598  0.71615775  1
  O  O53  1  0.19214971  0.66124581  0.95042220  1
  O  O54  1  0.82445656  0.82445656  0.20436721  1
  O  O55  1  0.80785029  0.33875419  0.04957780  1
  O  O56  1  0.49185777  0.49185777  0.87092877  1
  O  O57  1  0.66903876  0.13823650  0.38334822  1
  O  O58  1  0.84129340  0.84129340  0.46283389  1
  O  O59  1  0.30525444  0.84191973  0.45667593  1
