# generated using pymatgen
data_Sr(Mo3S4)2
_symmetry_space_group_name_H-M   'P 1'
_cell_length_a   6.70561292
_cell_length_b   6.57126461
_cell_length_c   6.64736197
_cell_angle_alpha   88.37451958
_cell_angle_beta   89.52632143
_cell_angle_gamma   89.66943844
_symmetry_Int_Tables_number   1
_chemical_formula_structural   Sr(Mo3S4)2
_chemical_formula_sum   'Sr1 Mo6 S8'
_cell_volume   292.77936738
_cell_formula_units_Z   1
loop_
 _symmetry_equiv_pos_site_id
 _symmetry_equiv_pos_as_xyz
  1  'x, y, z'
loop_
 _atom_site_type_symbol
 _atom_site_label
 _atom_site_symmetry_multiplicity
 _atom_site_fract_x
 _atom_site_fract_y
 _atom_site_fract_z
 _atom_site_occupancy
  S  S0  1  0.25957451  0.87214083  0.61596186  1
  S  S1  1  0.74042549  0.12785917  0.38403814  1
  S  S2  1  0.62015788  0.26023158  0.87546487  1
  S  S3  1  0.37984212  0.73976842  0.12453513  1
  S  S4  1  0.75357830  0.74672584  0.76020799  1
  S  S5  1  0.24642170  0.25327416  0.23979201  1
  S  S6  1  0.87243386  0.61754304  0.26469346  1
  S  S7  1  0.12756614  0.38245696  0.73530654  1
  Sr  Sr8  1  0.00000000  0.00000000  0.00000000  1
  Mo  Mo9  1  0.56173636  0.41921986  0.22870842  1
  Mo  Mo10  1  0.57913483  0.76422718  0.43932007  1
  Mo  Mo11  1  0.42086517  0.23577282  0.56067993  1
  Mo  Mo12  1  0.77159439  0.43585778  0.58314003  1
  Mo  Mo13  1  0.22840561  0.56414222  0.41685997  1
  Mo  Mo14  1  0.43826364  0.58078014  0.77129158  1
