# generated using pymatgen
data_Mn(CO3)2
_symmetry_space_group_name_H-M   'P 1'
_cell_length_a   7.42242253
_cell_length_b   7.52673594
_cell_length_c   8.93128794
_cell_angle_alpha   99.86859497
_cell_angle_beta   90.00000000
_cell_angle_gamma   90.00000000
_symmetry_Int_Tables_number   1
_chemical_formula_structural   Mn(CO3)2
_chemical_formula_sum   'Mn4 C8 O24'
_cell_volume   491.57790434
_cell_formula_units_Z   4
loop_
 _symmetry_equiv_pos_site_id
 _symmetry_equiv_pos_as_xyz
  1  'x, y, z'
loop_
 _atom_site_type_symbol
 _atom_site_label
 _atom_site_symmetry_multiplicity
 _atom_site_fract_x
 _atom_site_fract_y
 _atom_site_fract_z
 _atom_site_occupancy
  Mn  Mn0  1  0.50000000  -0.00000000  0.50000000  1
  Mn  Mn1  1  -0.00000000  -0.00000000  0.00000000  1
  Mn  Mn2  1  -0.00000000  0.50000000  0.50000000  1
  Mn  Mn3  1  0.50000000  0.50000000  0.00000000  1
  C  C4  1  0.65575854  0.82936184  0.17929781  1
  C  C5  1  0.15575854  0.17063816  0.32070219  1
  C  C6  1  0.34424146  0.17063816  0.82070219  1
  C  C7  1  0.84424146  0.82936184  0.67929781  1
  C  C8  1  0.23651956  0.67689056  0.00564162  1
  C  C9  1  0.73651956  0.32310944  0.49435838  1
  C  C10  1  0.76348044  0.32310944  0.99435838  1
  C  C11  1  0.26348044  0.67689056  0.50564162  1
  O  O12  1  0.61593878  0.94998246  0.29470096  1
  O  O13  1  0.11593878  0.05001754  0.20529904  1
  O  O14  1  0.38406122  0.05001754  0.70529904  1
  O  O15  1  0.88406122  0.94998246  0.79470096  1
  O  O16  1  0.75169366  0.87240661  0.07340795  1
  O  O17  1  0.25169366  0.12759339  0.42659205  1
  O  O18  1  0.24830634  0.12759339  0.92659205  1
  O  O19  1  0.74830634  0.87240661  0.57340795  1
  O  O20  1  0.25529887  0.54760284  0.08492867  1
  O  O21  1  0.75529887  0.45239716  0.41507133  1
  O  O22  1  0.74470113  0.45239716  0.91507133  1
  O  O23  1  0.24470113  0.54760284  0.58492867  1
  O  O24  1  0.08624956  0.75500303  0.99906833  1
  O  O25  1  0.58624956  0.24499697  0.50093167  1
  O  O26  1  0.91375044  0.24499697  0.00093167  1
  O  O27  1  0.41375044  0.75500303  0.49906833  1
  O  O28  1  0.11771946  0.70802330  0.43197958  1
  O  O29  1  0.61771946  0.29197670  0.06802042  1
  O  O30  1  0.88228054  0.29197670  0.56802042  1
  O  O31  1  0.38228054  0.70802330  0.93197958  1
  O  O32  1  0.59893530  0.66420754  0.17276249  1
  O  O33  1  0.09893530  0.33579246  0.32723751  1
  O  O34  1  0.40106470  0.33579246  0.82723751  1
  O  O35  1  0.90106470  0.66420754  0.67276249  1
