# generated using pymatgen
data_KAlSiO4
_symmetry_space_group_name_H-M   'P 1'
_cell_length_a   5.22974100
_cell_length_b   5.22974100
_cell_length_c   8.85771397
_cell_angle_alpha   90.00000000
_cell_angle_beta   90.00000000
_cell_angle_gamma   120.00000001
_symmetry_Int_Tables_number   1
_chemical_formula_structural   KAlSiO4
_chemical_formula_sum   'K2 Al2 Si2 O8'
_cell_volume   209.80345998
_cell_formula_units_Z   2
loop_
 _symmetry_equiv_pos_site_id
 _symmetry_equiv_pos_as_xyz
  1  'x, y, z'
loop_
 _atom_site_type_symbol
 _atom_site_label
 _atom_site_symmetry_multiplicity
 _atom_site_fract_x
 _atom_site_fract_y
 _atom_site_fract_z
 _atom_site_occupancy
  O  O0  1  0.66666667  0.33333333  0.75722256  1
  O  O1  1  0.33333333  0.66666667  0.25722256  1
  O  O2  1  0.38206179  0.39653682  0.49968510  1
  O  O3  1  0.60346318  0.98552497  0.49968510  1
  O  O4  1  0.01447503  0.61793821  0.49968510  1
  O  O5  1  0.39653682  0.38206179  0.99968510  1
  O  O6  1  0.61793821  0.01447503  0.99968510  1
  O  O7  1  0.98552497  0.60346318  0.99968510  1
  Al  Al8  1  0.33333333  0.66666667  0.05952472  1
  Al  Al9  1  0.66666667  0.33333333  0.55952472  1
  Si  Si10  1  0.66666667  0.33333333  0.94160856  1
  Si  Si11  1  0.33333333  0.66666667  0.44160856  1
  K  K12  1  0.00000000  0.00000000  0.75358885  1
  K  K13  1  0.00000000  0.00000000  0.25358885  1
