# generated using pymatgen
data_HgSeO3
_symmetry_space_group_name_H-M   'P 1'
_cell_length_a   6.15761829
_cell_length_b   6.32342500
_cell_length_c   8.69206559
_cell_angle_alpha   90.00000000
_cell_angle_beta   90.00000000
_cell_angle_gamma   90.00000000
_symmetry_Int_Tables_number   1
_chemical_formula_structural   HgSeO3
_chemical_formula_sum   'Hg4 Se4 O12'
_cell_volume   338.44502168
_cell_formula_units_Z   4
loop_
 _symmetry_equiv_pos_site_id
 _symmetry_equiv_pos_as_xyz
  1  'x, y, z'
loop_
 _atom_site_type_symbol
 _atom_site_label
 _atom_site_symmetry_multiplicity
 _atom_site_fract_x
 _atom_site_fract_y
 _atom_site_fract_z
 _atom_site_occupancy
  O  O0  1  0.61492531  0.21285227  0.40814263  1
  O  O1  1  0.11492531  0.28714773  0.59185737  1
  O  O2  1  0.88507469  0.71285227  0.09185737  1
  O  O3  1  0.38507469  0.78714773  0.90814263  1
  O  O4  1  0.38507469  0.78714773  0.59185737  1
  O  O5  1  0.88507469  0.71285227  0.40814263  1
  O  O6  1  0.11492531  0.28714773  0.90814263  1
  O  O7  1  0.61492531  0.21285227  0.09185737  1
  O  O8  1  0.23502157  0.15592102  0.25000000  1
  O  O9  1  0.73502157  0.34407898  0.75000000  1
  O  O10  1  0.26497843  0.65592102  0.25000000  1
  O  O11  1  0.76497843  0.84407898  0.75000000  1
  Se  Se12  1  0.50386107  0.92184345  0.75000000  1
  Se  Se13  1  0.00386107  0.57815655  0.25000000  1
  Se  Se14  1  0.99613893  0.42184345  0.75000000  1
  Se  Se15  1  0.49613893  0.07815655  0.25000000  1
  Hg  Hg16  1  0.00000000  0.00000000  0.50000000  1
  Hg  Hg17  1  0.50000000  0.50000000  0.50000000  1
  Hg  Hg18  1  0.50000000  0.50000000  0.00000000  1
  Hg  Hg19  1  0.00000000  0.00000000  0.00000000  1
