# generated using pymatgen
data_Y4C7
_symmetry_space_group_name_H-M   'P 1'
_cell_length_a   3.72263618
_cell_length_b   6.48688377
_cell_length_c   13.77382811
_cell_angle_alpha   90.00000000
_cell_angle_beta   90.00000000
_cell_angle_gamma   104.73670832
_symmetry_Int_Tables_number   1
_chemical_formula_structural   Y4C7
_chemical_formula_sum   'Y8 C14'
_cell_volume   321.67327961
_cell_formula_units_Z   2
loop_
 _symmetry_equiv_pos_site_id
 _symmetry_equiv_pos_as_xyz
  1  'x, y, z'
loop_
 _atom_site_type_symbol
 _atom_site_label
 _atom_site_symmetry_multiplicity
 _atom_site_fract_x
 _atom_site_fract_y
 _atom_site_fract_z
 _atom_site_occupancy
  C  C0  1  0.00000000  0.50000000  0.50000000  1
  C  C1  1  0.00000000  0.00000000  0.00000000  1
  C  C2  1  0.53085539  0.07648741  0.78420723  1
  C  C3  1  0.46914461  0.42351259  0.28420723  1
  C  C4  1  0.46914461  0.92351259  0.21579277  1
  C  C5  1  0.53085539  0.57648741  0.71579277  1
  C  C6  1  0.62156001  0.45287061  0.19660085  1
  C  C7  1  0.37843999  0.04712939  0.69660085  1
  C  C8  1  0.73258174  0.94953909  0.39538911  1
  C  C9  1  0.26741826  0.55046091  0.89538911  1
  C  C10  1  0.26741826  0.05046091  0.60461089  1
  C  C11  1  0.73258174  0.44953909  0.10461089  1
  C  C12  1  0.62156001  0.95287061  0.30339915  1
  C  C13  1  0.37843999  0.54712939  0.80339915  1
  Y  Y14  1  0.63371757  0.26101518  0.94491284  1
  Y  Y15  1  0.36628243  0.23898482  0.44491284  1
  Y  Y16  1  0.36628243  0.73898482  0.05508716  1
  Y  Y17  1  0.63371757  0.76101518  0.55508716  1
  Y  Y18  1  0.94395050  0.33976101  0.66256666  1
  Y  Y19  1  0.05604950  0.16023899  0.16256666  1
  Y  Y20  1  0.05604950  0.66023899  0.33743334  1
  Y  Y21  1  0.94395050  0.83976101  0.83743334  1
