# generated using pymatgen
data_In2(SO4)3
_symmetry_space_group_name_H-M   'P 1'
_cell_length_a   8.67276761
_cell_length_b   8.96319768
_cell_length_c   12.22636153
_cell_angle_alpha   90.00000000
_cell_angle_beta   90.83075175
_cell_angle_gamma   90.00000000
_symmetry_Int_Tables_number   1
_chemical_formula_structural   In2(SO4)3
_chemical_formula_sum   'In8 S12 O48'
_cell_volume   950.32524160
_cell_formula_units_Z   4
loop_
 _symmetry_equiv_pos_site_id
 _symmetry_equiv_pos_as_xyz
  1  'x, y, z'
loop_
 _atom_site_type_symbol
 _atom_site_label
 _atom_site_symmetry_multiplicity
 _atom_site_fract_x
 _atom_site_fract_y
 _atom_site_fract_z
 _atom_site_occupancy
  O  O0  1  0.28409390  0.92696957  0.44130946  1
  O  O1  1  0.21590610  0.42696957  0.05869054  1
  O  O2  1  0.71590610  0.07303043  0.55869054  1
  O  O3  1  0.78409390  0.57303043  0.94130946  1
  O  O4  1  0.31575709  0.81842246  0.04657340  1
  O  O5  1  0.18424291  0.31842246  0.45342660  1
  O  O6  1  0.68424291  0.18157754  0.95342660  1
  O  O7  1  0.81575709  0.68157754  0.54657340  1
  O  O8  1  0.94199805  0.08231289  0.81485781  1
  O  O9  1  0.55800195  0.58231289  0.68514219  1
  O  O10  1  0.05800195  0.91768711  0.18514219  1
  O  O11  1  0.44199805  0.41768711  0.31485781  1
  O  O12  1  0.37866297  0.99169881  0.26235643  1
  O  O13  1  0.12133703  0.49169881  0.23764357  1
  O  O14  1  0.62133703  0.00830119  0.73764357  1
  O  O15  1  0.87866297  0.50830119  0.76235643  1
  O  O16  1  0.21187728  0.02143521  0.78497644  1
  O  O17  1  0.55757692  0.69894280  0.09597651  1
  O  O18  1  0.44242308  0.30105720  0.90402349  1
  O  O19  1  0.05757692  0.80105720  0.59597651  1
  O  O20  1  0.85203395  0.76858917  0.81393658  1
  O  O21  1  0.64796605  0.26858917  0.68606342  1
  O  O22  1  0.14796605  0.23141083  0.18606342  1
  O  O23  1  0.35203395  0.73141083  0.31393658  1
  O  O24  1  0.04120534  0.63282638  0.43828561  1
  O  O25  1  0.45879466  0.13282638  0.06171439  1
  O  O26  1  0.95879466  0.36717362  0.56171439  1
  O  O27  1  0.54120534  0.86717362  0.93828561  1
  O  O28  1  0.05449365  0.61489875  0.89515759  1
  O  O29  1  0.44550635  0.11489875  0.60484241  1
  O  O30  1  0.94550635  0.38510125  0.10484241  1
  O  O31  1  0.55449365  0.88510125  0.39515759  1
  O  O32  1  0.62719021  0.22158112  0.31581829  1
  O  O33  1  0.87280979  0.72158112  0.18418171  1
  O  O34  1  0.37280979  0.77841888  0.68418171  1
  O  O35  1  0.12719021  0.27841888  0.81581829  1
  O  O36  1  0.91934332  0.87160127  0.42807650  1
  O  O37  1  0.58065668  0.37160127  0.07192350  1
  O  O38  1  0.08065668  0.12839873  0.57192350  1
  O  O39  1  0.41934332  0.62839873  0.92807650  1
  O  O40  1  0.62846369  0.40224786  0.46446615  1
  O  O41  1  0.87153631  0.90224786  0.03553385  1
  O  O42  1  0.37153631  0.59775214  0.53553385  1
  O  O43  1  0.12846369  0.09775214  0.96446615  1
  O  O44  1  0.71187728  0.47856479  0.28497644  1
  O  O45  1  0.78812272  0.97856479  0.21502356  1
  O  O46  1  0.28812272  0.52143521  0.71502356  1
  O  O47  1  0.94242308  0.19894280  0.40402349  1
  S  S48  1  0.45992662  0.75265639  0.00306905  1
  S  S49  1  0.04007338  0.25265639  0.49693095  1
  S  S50  1  0.54007338  0.24734361  0.99693095  1
  S  S51  1  0.95992662  0.74734361  0.50306905  1
  S  S52  1  0.39188683  0.88361696  0.35362499  1
  S  S53  1  0.10811317  0.38361696  0.14637501  1
  S  S54  1  0.60811317  0.11638304  0.64637501  1
  S  S55  1  0.89188683  0.61638304  0.85362499  1
  S  S56  1  0.10375766  0.11912454  0.84556435  1
  S  S57  1  0.39624234  0.61912454  0.65443565  1
  S  S58  1  0.89624234  0.88087546  0.15443565  1
  S  S59  1  0.60375766  0.38087546  0.34556435  1
  In  In60  1  0.25141800  0.46308520  0.88560223  1
  In  In61  1  0.24858200  0.96308520  0.61439777  1
  In  In62  1  0.74858200  0.53691480  0.11439777  1
  In  In63  1  0.75141800  0.03691480  0.38560223  1
  In  In64  1  0.24901765  0.03263809  0.11387185  1
  In  In65  1  0.25098235  0.53263809  0.38612815  1
  In  In66  1  0.75098235  0.96736191  0.88612815  1
  In  In67  1  0.74901765  0.46736191  0.61387185  1
