# generated using pymatgen
data_ReTc3
_symmetry_space_group_name_H-M   'P 1'
_cell_length_a   5.52767159
_cell_length_b   5.52767194
_cell_length_c   4.44087414
_cell_angle_alpha   90.00000000
_cell_angle_beta   90.00000000
_cell_angle_gamma   120.00000397
_symmetry_Int_Tables_number   1
_chemical_formula_structural   ReTc3
_chemical_formula_sum   'Re2 Tc6'
_cell_volume   117.51236646
_cell_formula_units_Z   2
loop_
 _symmetry_equiv_pos_site_id
 _symmetry_equiv_pos_as_xyz
  1  'x, y, z'
loop_
 _atom_site_type_symbol
 _atom_site_label
 _atom_site_symmetry_multiplicity
 _atom_site_fract_x
 _atom_site_fract_y
 _atom_site_fract_z
 _atom_site_occupancy
  Re  Re0  1  0.33333500  0.66666900  0.75000000  1
  Re  Re1  1  0.66666600  0.33333200  0.24999800  1
  Tc  Tc2  1  0.16741706  0.33483313  0.24999800  1
  Tc  Tc3  1  0.66516587  0.83258394  0.24999800  1
  Tc  Tc4  1  0.16741806  0.83258394  0.24999800  1
  Tc  Tc5  1  0.83258294  0.66516587  0.75000000  1
  Tc  Tc6  1  0.33483213  0.16741606  0.75000000  1
  Tc  Tc7  1  0.83258394  0.16741606  0.75000000  1
