# generated using pymatgen
data_Zn3P4H28C8(NO6)2
_symmetry_space_group_name_H-M   'P 1'
_cell_length_a   9.40665494
_cell_length_b   9.40520838
_cell_length_c   17.10378888
_cell_angle_alpha   82.09593168
_cell_angle_beta   74.03873311
_cell_angle_gamma   59.99491208
_symmetry_Int_Tables_number   1
_chemical_formula_structural   Zn3P4H28C8(NO6)2
_chemical_formula_sum   'Zn6 P8 H56 C16 N4 O24'
_cell_volume   1259.88249568
_cell_formula_units_Z   2
loop_
 _symmetry_equiv_pos_site_id
 _symmetry_equiv_pos_as_xyz
  1  'x, y, z'
loop_
 _atom_site_type_symbol
 _atom_site_label
 _atom_site_symmetry_multiplicity
 _atom_site_fract_x
 _atom_site_fract_y
 _atom_site_fract_z
 _atom_site_occupancy
  Zn  Zn0  1  0.01092197  0.75000000  0.97815606  1
  Zn  Zn1  1  0.73907803  0.75000000  0.52184394  1
  Zn  Zn2  1  0.98907803  0.25000000  0.02184394  1
  Zn  Zn3  1  0.26092197  0.25000000  0.47815606  1
  Zn  Zn4  1  0.12500000  0.25000000  0.75000000  1
  Zn  Zn5  1  0.87500000  0.75000000  0.25000000  1
  P  P6  1  0.90600162  0.10830408  0.88500906  1
  P  P7  1  0.89931475  0.39169592  0.61499094  1
  P  P8  1  0.48569430  0.10830408  0.61499094  1
  P  P9  1  0.20898933  0.39169592  0.88500906  1
  P  P10  1  0.09399838  0.89169592  0.11499094  1
  P  P11  1  0.10068525  0.60830408  0.38500906  1
  P  P12  1  0.51430570  0.89169592  0.38500906  1
  P  P13  1  0.79101067  0.60830408  0.11499094  1
  H  H14  1  0.75853551  0.19627285  0.85453358  1
  H  H15  1  0.80934195  0.30372715  0.64546642  1
  H  H16  1  0.54519163  0.19627285  0.64546642  1
  H  H17  1  0.38693091  0.30372715  0.85453358  1
  H  H18  1  0.24146449  0.80372715  0.14546642  1
  H  H19  1  0.19065805  0.69627285  0.35453358  1
  H  H20  1  0.45480837  0.80372715  0.35453358  1
  H  H21  1  0.61306909  0.69627285  0.14546642  1
  H  H22  1  0.28300317  0.63927065  0.73164405  1
  H  H23  1  0.65391788  0.86072935  0.76835595  1
  H  H24  1  0.57772618  0.63927065  0.76835595  1
  H  H25  1  0.98535277  0.86072935  0.73164405  1
  H  H26  1  0.71699683  0.36072935  0.26835595  1
  H  H27  1  0.34608212  0.13927065  0.23164405  1
  H  H28  1  0.42227382  0.36072935  0.23164405  1
  H  H29  1  0.01464723  0.13927065  0.26835595  1
  H  H30  1  0.43288219  0.65882586  0.64468932  1
  H  H31  1  0.73639737  0.84117414  0.85531068  1
  H  H32  1  0.40829195  0.65882586  0.85531068  1
  H  H33  1  0.92242849  0.84117414  0.64468932  1
  H  H34  1  0.56711781  0.34117414  0.35531068  1
  H  H35  1  0.26360263  0.15882586  0.14468932  1
  H  H36  1  0.59170805  0.34117414  0.14468932  1
  H  H37  1  0.07757151  0.15882586  0.35531068  1
  H  H38  1  0.27010991  0.83649581  0.70435305  1
  H  H39  1  0.81095877  0.66350419  0.79564695  1
  H  H40  1  0.39339428  0.83649581  0.79564695  1
  H  H41  1  0.02553704  0.66350419  0.70435305  1
  H  H42  1  0.72989009  0.16350419  0.29564695  1
  H  H43  1  0.18904123  0.33649581  0.20435305  1
  H  H44  1  0.60660572  0.16350419  0.20435305  1
  H  H45  1  0.97446296  0.33649581  0.29564695  1
  H  H46  1  0.15706117  0.58371084  0.56884986  1
  H  H47  1  0.30962187  0.91628916  0.93115014  1
  H  H48  1  0.75922799  0.58371084  0.93115014  1
  H  H49  1  0.27408897  0.91628916  0.56884986  1
  H  H50  1  0.84293883  0.41628916  0.43115014  1
  H  H51  1  0.69037813  0.08371084  0.06884986  1
  H  H52  1  0.24077201  0.41628916  0.06884986  1
  H  H53  1  0.72591103  0.08371084  0.43115014  1
  H  H54  1  0.32935611  0.61909443  0.51679037  1
  H  H55  1  0.46524091  0.88090557  0.98320963  1
  H  H56  1  0.55154945  0.61909443  0.98320963  1
  H  H57  1  0.15385352  0.88090557  0.51679037  1
  H  H58  1  0.67064389  0.38090557  0.48320963  1
  H  H59  1  0.53475909  0.11909443  0.01679037  1
  H  H60  1  0.44845055  0.38090557  0.01679037  1
  H  H61  1  0.84614648  0.11909443  0.48320963  1
  H  H62  1  0.34451515  0.49289567  0.60581272  1
  H  H63  1  0.44322354  0.00710433  0.89418728  1
  H  H64  1  0.66258917  0.49289567  0.89418728  1
  H  H65  1  0.04967213  0.00710433  0.60581272  1
  H  H66  1  0.65548485  0.50710433  0.39418728  1
  H  H67  1  0.55677646  0.99289567  0.10581272  1
  H  H68  1  0.33741083  0.50710433  0.10581272  1
  H  H69  1  0.95032787  0.99289567  0.39418728  1
  C  C70  1  0.30241486  0.71838869  0.68119388  1
  C  C71  1  0.70199743  0.78161131  0.81880612  1
  C  C72  1  0.47919645  0.71838869  0.81880612  1
  C  C73  1  0.01639126  0.78161131  0.68119388  1
  C  C74  1  0.69758514  0.28161131  0.31880612  1
  C  C75  1  0.29800257  0.21838869  0.18119388  1
  C  C76  1  0.52080355  0.28161131  0.18119388  1
  C  C77  1  0.98360874  0.21838869  0.31880612  1
  C  C78  1  0.25947088  0.60047186  0.57611394  1
  C  C79  1  0.43605668  0.89952814  0.92388606  1
  C  C80  1  0.64005726  0.60047186  0.92388606  1
  C  C81  1  0.16441518  0.89952814  0.57611394  1
  C  C82  1  0.74052912  0.39952814  0.42388606  1
  C  C83  1  0.56394332  0.10047186  0.07611394  1
  C  C84  1  0.35994274  0.39952814  0.07611394  1
  C  C85  1  0.83558482  0.10047186  0.42388606  1
  N  N86  1  0.18587584  0.75000000  0.62824831  1
  N  N87  1  0.56412416  0.75000000  0.87175169  1
  N  N88  1  0.81412416  0.25000000  0.37175169  1
  N  N89  1  0.43587584  0.25000000  0.12824831  1
  O  O90  1  0.91751405  0.93960914  0.90685182  1
  O  O91  1  0.76397501  0.56039086  0.59314818  1
  O  O92  1  0.64287681  0.93960914  0.59314818  1
  O  O93  1  0.17563413  0.56039086  0.90685182  1
  O  O94  1  0.08248595  0.06039086  0.09314818  1
  O  O95  1  0.23602499  0.43960914  0.40685182  1
  O  O96  1  0.35712319  0.06039086  0.40685182  1
  O  O97  1  0.82436587  0.43960914  0.09314818  1
  O  O98  1  0.13335816  0.78890000  0.04151660  1
  O  O99  1  0.96377476  0.71110000  0.45848340  1
  O  O100  1  0.57774184  0.78890000  0.45848340  1
  O  O101  1  0.82512524  0.71110000  0.04151660  1
  O  O102  1  0.86664184  0.21110000  0.95848340  1
  O  O103  1  0.03622524  0.28890000  0.54151660  1
  O  O104  1  0.42225816  0.21110000  0.54151660  1
  O  O105  1  0.17487476  0.28890000  0.95848340  1
  O  O106  1  0.05613217  0.09568886  0.81583979  1
  O  O107  1  0.96766083  0.40431114  0.68416021  1
  O  O108  1  0.34817896  0.09568886  0.68416021  1
  O  O109  1  0.12802804  0.40431114  0.81583979  1
  O  O110  1  0.94386783  0.90431114  0.18416021  1
  O  O111  1  0.03233917  0.59568886  0.31583979  1
  O  O112  1  0.65182104  0.90431114  0.31583979  1
  O  O113  1  0.87197196  0.59568886  0.18416021  1
