# generated using pymatgen
data_Lu2Fe17C3
_symmetry_space_group_name_H-M   'P 1'
_cell_length_a   6.46215736
_cell_length_b   6.46215736
_cell_length_c   6.46215805
_cell_angle_alpha   82.88596635
_cell_angle_beta   82.88596635
_cell_angle_gamma   82.88597380
_symmetry_Int_Tables_number   1
_chemical_formula_structural   Lu2Fe17C3
_chemical_formula_sum   'Lu2 Fe17 C3'
_cell_volume   264.09914849
_cell_formula_units_Z   1
loop_
 _symmetry_equiv_pos_site_id
 _symmetry_equiv_pos_as_xyz
  1  'x, y, z'
loop_
 _atom_site_type_symbol
 _atom_site_label
 _atom_site_symmetry_multiplicity
 _atom_site_fract_x
 _atom_site_fract_y
 _atom_site_fract_z
 _atom_site_occupancy
  Lu  Lu0  1  0.34216347  0.34216347  0.34216347  1
  Lu  Lu1  1  0.65783553  0.65783553  0.65783553  1
  Fe  Fe2  1  0.09616807  0.09616807  0.09616807  1
  Fe  Fe3  1  0.90383293  0.90383293  0.90383193  1
  Fe  Fe4  1  0.28340056  0.71659844  0.99999900  1
  Fe  Fe5  1  0.99999800  0.28340156  0.71659844  1
  Fe  Fe6  1  0.71659844  0.99999800  0.28340156  1
  Fe  Fe7  1  0.71659844  0.28340056  0.99999900  1
  Fe  Fe8  1  0.99999800  0.71659844  0.28340156  1
  Fe  Fe9  1  0.28340156  0.99999800  0.71659844  1
  Fe  Fe10  1  0.65496977  0.14710147  0.65497177  1
  Fe  Fe11  1  0.65497077  0.65497077  0.14710147  1
  Fe  Fe12  1  0.14710147  0.65496977  0.65497177  1
  Fe  Fe13  1  0.85289853  0.34502923  0.34502723  1
  Fe  Fe14  1  0.34502923  0.34502923  0.85289753  1
  Fe  Fe15  1  0.34502923  0.85289853  0.34502723  1
  Fe  Fe16  1  -0.00000000  -0.00000000  0.50000000  1
  Fe  Fe17  1  0.49999900  -0.00000000  0.00000100  1
  Fe  Fe18  1  -0.00000000  0.49999900  0.00000100  1
  C  C19  1  0.50000000  0.50000000  0.99999900  1
  C  C20  1  0.99999900  0.49999900  0.50000000  1
  C  C21  1  0.49999900  0.99999900  0.50000000  1
