# generated using pymatgen
data_Pr2Zn17
_symmetry_space_group_name_H-M   'P 1'
_cell_length_a   9.12046787
_cell_length_b   9.12031477
_cell_length_c   8.89736468
_cell_angle_alpha   90.00379921
_cell_angle_beta   89.99582765
_cell_angle_gamma   120.02707988
_symmetry_Int_Tables_number   1
_chemical_formula_structural   Pr2Zn17
_chemical_formula_sum   'Pr4 Zn34'
_cell_volume   640.76737904
_cell_formula_units_Z   2
loop_
 _symmetry_equiv_pos_site_id
 _symmetry_equiv_pos_as_xyz
  1  'x, y, z'
loop_
 _atom_site_type_symbol
 _atom_site_label
 _atom_site_symmetry_multiplicity
 _atom_site_fract_x
 _atom_site_fract_y
 _atom_site_fract_z
 _atom_site_occupancy
  Pr  Pr0  1  0.00002679  0.99995742  0.24999082  1
  Pr  Pr1  1  0.99995827  0.00004234  0.74999814  1
  Pr  Pr2  1  0.33334900  0.66664921  0.75000541  1
  Pr  Pr3  1  0.66665232  0.33334172  0.25000389  1
  Zn  Zn4  1  0.16257459  0.32517255  0.97966890  1
  Zn  Zn5  1  0.83739780  0.67477375  0.47968061  1
  Zn  Zn6  1  0.67479185  0.83741964  0.97967172  1
  Zn  Zn7  1  0.16263080  0.83735967  0.97960809  1
  Zn  Zn8  1  0.83735021  0.16262991  0.47959875  1
  Zn  Zn9  1  0.32521341  0.16258746  0.47969109  1
  Zn  Zn10  1  0.83740732  0.67481100  0.02031912  1
  Zn  Zn11  1  0.83735767  0.16265732  0.02038538  1
  Zn  Zn12  1  0.32519793  0.16258573  0.02032459  1
  Zn  Zn13  1  0.67480586  0.83740541  0.52030752  1
  Zn  Zn14  1  0.16264460  0.83735375  0.52038552  1
  Zn  Zn15  1  0.16258933  0.32520600  0.52031147  1
  Zn  Zn16  1  0.32931640  0.95879332  0.24999956  1
  Zn  Zn17  1  0.67067445  0.04120295  0.74999328  1
  Zn  Zn18  1  0.04128833  0.37059007  0.24999504  1
  Zn  Zn19  1  0.62952243  0.67066700  0.24999556  1
  Zn  Zn20  1  0.37045801  0.32931450  0.74999672  1
  Zn  Zn21  1  0.95875747  0.62945739  0.75000437  1
  Zn  Zn22  1  0.37059161  0.04128907  0.75000121  1
  Zn  Zn23  1  0.67067889  0.62951654  0.74999128  1
  Zn  Zn24  1  0.95878546  0.32932512  0.74999920  1
  Zn  Zn25  1  0.04119017  0.67067269  0.24999902  1
  Zn  Zn26  1  0.32931326  0.37045362  0.25000585  1
  Zn  Zn27  1  0.62939560  0.95871785  0.24998490  1
  Zn  Zn28  1  0.49999131  0.99999660  0.99999048  1
  Zn  Zn29  1  0.50000044  0.99998432  0.49999588  1
  Zn  Zn30  1  0.00003050  0.50001339  0.99999760  1
  Zn  Zn31  1  0.49997612  0.50001065  0.99999778  1
  Zn  Zn32  1  0.49999493  0.49998919  0.49998957  1
  Zn  Zn33  1  0.99999186  0.49998612  0.50000364  1
  Zn  Zn34  1  0.33335473  0.66666190  0.10370545  1
  Zn  Zn35  1  0.66667433  0.33333634  0.60372228  1
  Zn  Zn36  1  0.66667536  0.33339247  0.89634644  1
  Zn  Zn37  1  0.33329157  0.66667401  0.39634490  1
