# generated using pymatgen
data_CoSn3
_symmetry_space_group_name_H-M   'P 1'
_cell_length_a   17.62073015
_cell_length_b   17.62073015
_cell_length_c   17.62073015
_cell_angle_alpha   159.40038213
_cell_angle_beta   159.40038213
_cell_angle_gamma   29.29361955
_symmetry_Int_Tables_number   1
_chemical_formula_structural   CoSn3
_chemical_formula_sum   'Co8 Sn24'
_cell_volume   676.88333798
_cell_formula_units_Z   8
loop_
 _symmetry_equiv_pos_site_id
 _symmetry_equiv_pos_as_xyz
  1  'x, y, z'
loop_
 _atom_site_type_symbol
 _atom_site_label
 _atom_site_symmetry_multiplicity
 _atom_site_fract_x
 _atom_site_fract_y
 _atom_site_fract_z
 _atom_site_occupancy
  Co  Co0  1  0.58515088  0.33515088  0.25000000  1
  Co  Co1  1  0.91484812  0.16484912  0.74999900  1
  Co  Co2  1  0.16484912  0.91485012  0.25000000  1
  Co  Co3  1  0.33515088  0.58515088  0.75000100  1
  Co  Co4  1  0.41484912  0.66484912  0.75000100  1
  Co  Co5  1  0.08515088  0.83515188  0.25000000  1
  Co  Co6  1  0.83514988  0.08515088  0.74999900  1
  Co  Co7  1  0.66484912  0.41484912  0.25000000  1
  Sn  Sn8  1  0.53958630  0.28958630  0.57917260  1
  Sn  Sn9  1  0.21041370  0.96041270  0.92082640  1
  Sn  Sn10  1  0.96041270  0.53958630  0.74999900  1
  Sn  Sn11  1  0.28958630  0.21041370  0.75000100  1
  Sn  Sn12  1  0.46041370  0.71041370  0.42082840  1
  Sn  Sn13  1  0.78958630  0.03958630  0.07917260  1
  Sn  Sn14  1  0.03958630  0.46041470  0.25000000  1
  Sn  Sn15  1  0.71041370  0.78958630  0.25000000  1
  Sn  Sn16  1  0.11018063  0.22256310  0.24803531  1
  Sn  Sn17  1  0.47452779  0.86214631  0.25196469  1
  Sn  Sn18  1  0.38981937  0.63785469  0.11238147  1
  Sn  Sn19  1  0.02547321  0.27743790  0.38761853  1
  Sn  Sn20  1  0.27743790  0.38982137  0.25196669  1
  Sn  Sn21  1  0.63785469  0.02547121  0.24803431  1
  Sn  Sn22  1  0.86214431  0.11017963  0.38761553  1
  Sn  Sn23  1  0.22256310  0.47452979  0.11238347  1
  Sn  Sn24  1  0.88982137  0.77743790  0.75196669  1
  Sn  Sn25  1  0.52547321  0.13785469  0.74803631  1
  Sn  Sn26  1  0.61018163  0.36214631  0.88761953  1
  Sn  Sn27  1  0.97452979  0.72256310  0.61238347  1
  Sn  Sn28  1  0.72256310  0.61018163  0.74803631  1
  Sn  Sn29  1  0.36214631  0.97452779  0.75196569  1
  Sn  Sn30  1  0.13785469  0.88981937  0.61238247  1
  Sn  Sn31  1  0.77743690  0.52547321  0.88761753  1
