# generated using pymatgen
data_SiC
_symmetry_space_group_name_H-M   'P 1'
_cell_length_a   17.79981460
_cell_length_b   17.79981460
_cell_length_c   17.79981460
_cell_angle_alpha   9.97662268
_cell_angle_beta   9.97662268
_cell_angle_gamma   9.97662268
_symmetry_Int_Tables_number   1
_chemical_formula_structural   SiC
_chemical_formula_sum   'Si7 C7'
_cell_volume   146.96068074
_cell_formula_units_Z   7
loop_
 _symmetry_equiv_pos_site_id
 _symmetry_equiv_pos_as_xyz
  1  'x, y, z'
loop_
 _atom_site_type_symbol
 _atom_site_label
 _atom_site_symmetry_multiplicity
 _atom_site_fract_x
 _atom_site_fract_y
 _atom_site_fract_z
 _atom_site_occupancy
  C  C0  1  0.84524538  0.84524538  0.84524538  1
  C  C1  1  0.74994394  0.74994394  0.74994394  1
  C  C2  1  0.60724544  0.60724544  0.60724544  1
  C  C3  1  0.46437130  0.46437130  0.46437130  1
  C  C4  1  0.32145180  0.32145180  0.32145180  1
  C  C5  1  0.22615145  0.22615145  0.22615145  1
  C  C6  1  0.03571205  0.03571205  0.03571205  1
  Si  Si7  1  0.80952587  0.80952587  0.80952587  1
  Si  Si8  1  0.71422734  0.71422734  0.71422734  1
  Si  Si9  1  0.57142433  0.57142433  0.57142433  1
  Si  Si10  1  0.42854893  0.42854893  0.42854893  1
  Si  Si11  1  0.28573425  0.28573425  0.28573425  1
  Si  Si12  1  0.19043544  0.19043544  0.19043544  1
  Si  Si13  1  0.99998250  0.99998250  0.99998250  1
