# generated using pymatgen
data_Ti2H11(N2F3)4
_symmetry_space_group_name_H-M   'P 1'
_cell_length_a   7.74348262
_cell_length_b   9.75447726
_cell_length_c   10.06592873
_cell_angle_alpha   90.00000000
_cell_angle_beta   90.00000000
_cell_angle_gamma   94.17293290
_symmetry_Int_Tables_number   1
_chemical_formula_structural   Ti2H11(N2F3)4
_chemical_formula_sum   'Ti4 H22 N16 F24'
_cell_volume   758.30046237
_cell_formula_units_Z   2
loop_
 _symmetry_equiv_pos_site_id
 _symmetry_equiv_pos_as_xyz
  1  'x, y, z'
loop_
 _atom_site_type_symbol
 _atom_site_label
 _atom_site_symmetry_multiplicity
 _atom_site_fract_x
 _atom_site_fract_y
 _atom_site_fract_z
 _atom_site_occupancy
  Ti  Ti0  1  0.75270723  0.00394569  0.82245209  1
  Ti  Ti1  1  0.24729277  0.99605431  0.32245209  1
  Ti  Ti2  1  0.28256846  0.51319471  0.63980409  1
  Ti  Ti3  1  0.71743154  0.48680529  0.13980409  1
  H  H4  1  0.15321226  0.27362300  0.25204561  1
  H  H5  1  0.84678774  0.72637700  0.75204561  1
  H  H6  1  0.84087024  0.62812922  0.41731840  1
  H  H7  1  0.15912976  0.37187078  0.91731840  1
  H  H8  1  0.92716162  0.77552389  0.50705654  1
  H  H9  1  0.07283838  0.22447611  0.00705654  1
  H  H10  1  0.56306108  0.68727131  0.47610103  1
  H  H11  1  0.43693892  0.31272869  0.97610103  1
  H  H12  1  0.64886598  0.84160552  0.54513329  1
  H  H13  1  0.35113402  0.15839448  0.04513329  1
  H  H14  1  0.65687108  0.81541656  0.37771434  1
  H  H15  1  0.34312892  0.18458344  0.87771434  1
  H  H16  1  0.08420278  0.71641398  0.96341247  1
  H  H17  1  0.91579722  0.28358602  0.46341247  1
  H  H18  1  0.17522765  0.85682078  0.05017023  1
  H  H19  1  0.82477235  0.14317922  0.55017023  1
  H  H20  1  0.36843177  0.65994833  0.90296066  1
  H  H21  1  0.63156823  0.34005167  0.40296066  1
  H  H22  1  0.35157863  0.65694035  0.07581128  1
  H  H23  1  0.64842137  0.34305965  0.57581128  1
  H  H24  1  0.45345065  0.78933821  0.99444152  1
  H  H25  1  0.54654935  0.21066179  0.49444152  1
  N  N26  1  0.73993717  0.94913817  0.24068139  1
  N  N27  1  0.26006283  0.05086183  0.74068139  1
  N  N28  1  0.74059736  0.04748790  0.18481516  1
  N  N29  1  0.25940264  0.95251210  0.68481516  1
  N  N30  1  0.23255231  0.55615405  0.26115216  1
  N  N31  1  0.76744769  0.44384595  0.76115216  1
  N  N32  1  0.20888488  0.44258974  0.25800022  1
  N  N33  1  0.79111512  0.55741026  0.75800022  1
  N  N34  1  0.82372165  0.70868139  0.48362752  1
  N  N35  1  0.17627835  0.29131861  0.98362752  1
  N  N36  1  0.66484881  0.76725627  0.46991718  1
  N  N37  1  0.33515119  0.23274373  0.96991718  1
  N  N38  1  0.19143997  0.78361960  0.97748460  1
  N  N39  1  0.80856003  0.21638040  0.47748460  1
  N  N40  1  0.34630928  0.71748332  0.99068989  1
  N  N41  1  0.65369072  0.28251668  0.49068989  1
  F  F42  1  0.93168054  0.01339584  0.94161753  1
  F  F43  1  0.06831946  0.98660416  0.44161753  1
  F  F44  1  0.89053241  0.12440758  0.71599325  1
  F  F45  1  0.10946759  0.87559242  0.21599325  1
  F  F46  1  0.63727039  0.95810498  0.65818786  1
  F  F47  1  0.36272961  0.04189502  0.15818786  1
  F  F48  1  0.63251925  0.85924362  0.91166495  1
  F  F49  1  0.36748075  0.14075638  0.41166495  1
  F  F50  1  0.89665754  0.82063475  0.74416050  1
  F  F51  1  0.10334246  0.17936525  0.24416050  1
  F  F52  1  0.61084058  0.12791726  0.88102444  1
  F  F53  1  0.38915942  0.87208274  0.38102444  1
  F  F54  1  0.45251143  0.54626191  0.50068214  1
  F  F55  1  0.54748857  0.45373809  0.00068214  1
  F  F56  1  0.42766011  0.63940586  0.74616454  1
  F  F57  1  0.57233989  0.36059414  0.24616454  1
  F  F58  1  0.15358151  0.49177777  0.80352316  1
  F  F59  1  0.84641849  0.50822223  0.30352316  1
  F  F60  1  0.12902132  0.39155678  0.54582826  1
  F  F61  1  0.87097868  0.60844322  0.04582826  1
  F  F62  1  0.15899515  0.65574086  0.57721667  1
  F  F63  1  0.84100485  0.34425914  0.07721667  1
  F  F64  1  0.41296222  0.36319063  0.68926702  1
  F  F65  1  0.58703778  0.63680937  0.18926702  1
