# generated using pymatgen
data_NiAgF3
_symmetry_space_group_name_H-M   'P 1'
_cell_length_a   3.04885883
_cell_length_b   5.67145733
_cell_length_c   7.63391055
_cell_angle_alpha   90.00000000
_cell_angle_beta   90.00000000
_cell_angle_gamma   105.52649370
_symmetry_Int_Tables_number   1
_chemical_formula_structural   NiAgF3
_chemical_formula_sum   'Ni2 Ag2 F6'
_cell_volume   127.18439426
_cell_formula_units_Z   2
loop_
 _symmetry_equiv_pos_site_id
 _symmetry_equiv_pos_as_xyz
  1  'x, y, z'
loop_
 _atom_site_type_symbol
 _atom_site_label
 _atom_site_symmetry_multiplicity
 _atom_site_fract_x
 _atom_site_fract_y
 _atom_site_fract_z
 _atom_site_occupancy
  Ni  Ni0  1  0.99999936  0.00004930  0.74995159  1
  Ni  Ni1  1  0.00000064  0.99995070  0.24995159  1
  Ag  Ag2  1  0.25464954  0.50905128  0.00000810  1
  Ag  Ag3  1  0.74535046  0.49094872  0.50000810  1
  F  F4  1  0.38027529  0.75948019  0.70196944  1
  F  F5  1  0.61972471  0.24051981  0.20196944  1
  F  F6  1  0.38029639  0.75949604  0.29801577  1
  F  F7  1  0.61970361  0.24050396  0.79801577  1
  F  F8  1  0.93957810  0.87863275  0.99999510  1
  F  F9  1  0.06042190  0.12136725  0.49999510  1
