# generated using pymatgen
data_ErLu3
_symmetry_space_group_name_H-M   'P 1'
_cell_length_a   7.07462842
_cell_length_b   7.07462890
_cell_length_c   5.50597586
_cell_angle_alpha   90.00000000
_cell_angle_beta   90.00000000
_cell_angle_gamma   119.99999775
_symmetry_Int_Tables_number   1
_chemical_formula_structural   ErLu3
_chemical_formula_sum   'Er2 Lu6'
_cell_volume   238.65593708
_cell_formula_units_Z   2
loop_
 _symmetry_equiv_pos_site_id
 _symmetry_equiv_pos_as_xyz
  1  'x, y, z'
loop_
 _atom_site_type_symbol
 _atom_site_label
 _atom_site_symmetry_multiplicity
 _atom_site_fract_x
 _atom_site_fract_y
 _atom_site_fract_z
 _atom_site_occupancy
  Er  Er0  1  0.33333300  0.66666500  0.75000000  1
  Er  Er1  1  0.66666600  0.33333300  0.25000000  1
  Lu  Lu2  1  0.16630163  0.33260227  0.25000000  1
  Lu  Lu3  1  0.66739573  0.83369737  0.25000000  1
  Lu  Lu4  1  0.16630263  0.83369737  0.25000000  1
  Lu  Lu5  1  0.83369837  0.66739673  0.75000000  1
  Lu  Lu6  1  0.33260427  0.16630263  0.75000000  1
  Lu  Lu7  1  0.83369737  0.16630263  0.75000000  1
