# generated using pymatgen
data_K(SbSe2)2
_symmetry_space_group_name_H-M   'P 1'
_cell_length_a   6.93511275
_cell_length_b   7.04106371
_cell_length_c   9.46914968
_cell_angle_alpha   79.53627564
_cell_angle_beta   83.00626555
_cell_angle_gamma   75.85371973
_symmetry_Int_Tables_number   1
_chemical_formula_structural   K(SbSe2)2
_chemical_formula_sum   'K2 Sb4 Se8'
_cell_volume   439.45198916
_cell_formula_units_Z   2
loop_
 _symmetry_equiv_pos_site_id
 _symmetry_equiv_pos_as_xyz
  1  'x, y, z'
loop_
 _atom_site_type_symbol
 _atom_site_label
 _atom_site_symmetry_multiplicity
 _atom_site_fract_x
 _atom_site_fract_y
 _atom_site_fract_z
 _atom_site_occupancy
  K  K0  1  0.79816574  0.81155874  0.43218842  1
  K  K1  1  0.20183426  0.18844126  0.56781158  1
  Se  Se2  1  0.21360449  0.85344636  0.87855690  1
  Se  Se3  1  0.78639551  0.14655364  0.12144310  1
  Se  Se4  1  0.08484955  0.48131722  0.22597213  1
  Se  Se5  1  0.91515045  0.51868278  0.77402787  1
  Se  Se6  1  0.59525164  0.41035690  0.40621192  1
  Se  Se7  1  0.40474836  0.58964310  0.59378808  1
  Se  Se8  1  0.69553402  0.06433748  0.72667832  1
  Se  Se9  1  0.30446598  0.93566252  0.27332168  1
  Sb  Sb10  1  0.58303913  0.39432354  0.83686627  1
  Sb  Sb11  1  0.41696087  0.60567646  0.16313373  1
  Sb  Sb12  1  0.85251599  0.81123821  0.95582336  1
  Sb  Sb13  1  0.14748401  0.18876179  0.04417664  1
