# generated using pymatgen
data_CaTi2O5
_symmetry_space_group_name_H-M   'P 1'
_cell_length_a   3.62599043
_cell_length_b   5.06222531
_cell_length_c   11.67549791
_cell_angle_alpha   90.00000000
_cell_angle_beta   90.00000000
_cell_angle_gamma   90.00000000
_symmetry_Int_Tables_number   1
_chemical_formula_structural   CaTi2O5
_chemical_formula_sum   'Ca2 Ti4 O10'
_cell_volume   214.31054210
_cell_formula_units_Z   2
loop_
 _symmetry_equiv_pos_site_id
 _symmetry_equiv_pos_as_xyz
  1  'x, y, z'
loop_
 _atom_site_type_symbol
 _atom_site_label
 _atom_site_symmetry_multiplicity
 _atom_site_fract_x
 _atom_site_fract_y
 _atom_site_fract_z
 _atom_site_occupancy
  Ca  Ca0  1  0.75000000  0.86034447  0.25000000  1
  Ca  Ca1  1  0.24999900  0.13965453  0.75000000  1
  Ti  Ti2  1  0.24999900  0.39792801  0.09876011  1
  Ti  Ti3  1  0.75000000  0.60207099  0.90123989  1
  Ti  Ti4  1  0.75000000  0.60207099  0.59876011  1
  Ti  Ti5  1  0.24999900  0.39792801  0.40123989  1
  O  O6  1  0.75000000  0.45093575  0.75000000  1
  O  O7  1  0.24999900  0.54906325  0.25000000  1
  O  O8  1  0.75000000  0.53716881  0.07574124  1
  O  O9  1  0.24999900  0.46283219  0.92425776  1
  O  O10  1  0.75000000  0.53716881  0.42425776  1
  O  O11  1  0.24999900  0.46283219  0.57574224  1
  O  O12  1  0.24999900  0.06537645  0.37182680  1
  O  O13  1  0.75000000  0.93462455  0.62817320  1
  O  O14  1  0.75000000  0.93462455  0.87182580  1
  O  O15  1  0.24999900  0.06537645  0.12817420  1
