# generated using pymatgen
data_Mg(NiO2)2
_symmetry_space_group_name_H-M   'P 1'
_cell_length_a   5.82429312
_cell_length_b   5.92371852
_cell_length_c   5.91984164
_cell_angle_alpha   90.04686438
_cell_angle_beta   120.47641580
_cell_angle_gamma   120.50569463
_symmetry_Int_Tables_number   1
_chemical_formula_structural   Mg(NiO2)2
_chemical_formula_sum   'Mg2 Ni4 O8'
_cell_volume   142.18921778
_cell_formula_units_Z   2
loop_
 _symmetry_equiv_pos_site_id
 _symmetry_equiv_pos_as_xyz
  1  'x, y, z'
loop_
 _atom_site_type_symbol
 _atom_site_label
 _atom_site_symmetry_multiplicity
 _atom_site_fract_x
 _atom_site_fract_y
 _atom_site_fract_z
 _atom_site_occupancy
  Mg  Mg0  1  0.24999660  0.12568866  0.87553366  1
  Mg  Mg1  1  0.75000464  0.87432057  0.12445601  1
  Ni  Ni2  1  0.49999042  0.00000023  0.49998877  1
  Ni  Ni3  1  0.50000910  0.50000952  0.50000971  1
  Ni  Ni4  1  -0.00000089  0.49997734  0.00000981  1
  Ni  Ni5  1  0.00000344  0.50000137  0.50000838  1
  O  O6  1  0.03229701  0.74484468  0.23883411  1
  O  O7  1  0.46921409  0.76170401  0.71306323  1
  O  O8  1  0.46800466  0.70539756  0.25438030  1
  O  O9  1  0.96933762  0.71407902  0.70627994  1
  O  O10  1  0.53200171  0.29460411  0.74562109  1
  O  O11  1  0.53078285  0.23830970  0.28693051  1
  O  O12  1  0.03066901  0.28592255  0.29373475  1
  O  O13  1  0.96769075  0.25514066  0.76114973  1
