# generated using pymatgen
data_MgCuF5
_symmetry_space_group_name_H-M   'P 1'
_cell_length_a   5.19029467
_cell_length_b   7.24065338
_cell_length_c   9.64682646
_cell_angle_alpha   90.00000000
_cell_angle_beta   90.00000000
_cell_angle_gamma   109.87442357
_symmetry_Int_Tables_number   1
_chemical_formula_structural   MgCuF5
_chemical_formula_sum   'Mg4 Cu4 F20'
_cell_volume   340.94578098
_cell_formula_units_Z   4
loop_
 _symmetry_equiv_pos_site_id
 _symmetry_equiv_pos_as_xyz
  1  'x, y, z'
loop_
 _atom_site_type_symbol
 _atom_site_label
 _atom_site_symmetry_multiplicity
 _atom_site_fract_x
 _atom_site_fract_y
 _atom_site_fract_z
 _atom_site_occupancy
  Mg  Mg0  1  0.47810064  0.74797123  0.01357025  1
  Mg  Mg1  1  0.52189936  0.75202877  0.51357025  1
  Mg  Mg2  1  0.52189936  0.25202877  0.98642975  1
  Mg  Mg3  1  0.47810064  0.24797123  0.48642975  1
  Cu  Cu4  1  0.90297695  0.60284860  0.75423942  1
  Cu  Cu5  1  0.09702305  0.89715140  0.25423942  1
  Cu  Cu6  1  0.09702305  0.39715140  0.24576058  1
  Cu  Cu7  1  0.90297695  0.10284860  0.74576058  1
  F  F8  1  0.60214027  0.56131129  0.88814888  1
  F  F9  1  0.39785973  0.93868871  0.38814888  1
  F  F10  1  0.39785973  0.43868871  0.11185112  1
  F  F11  1  0.60214027  0.06131129  0.61185112  1
  F  F12  1  0.63578870  0.49867479  0.60650374  1
  F  F13  1  0.36421130  0.00132521  0.10650374  1
  F  F14  1  0.36421130  0.50132521  0.39349626  1
  F  F15  1  0.63578870  -0.00132521  0.89349626  1
  F  F16  1  0.85807176  0.80353611  0.40529820  1
  F  F17  1  0.14192824  0.69646389  0.90529820  1
  F  F18  1  0.14192824  0.19646389  0.59470180  1
  F  F19  1  0.85807176  0.30353611  0.09470180  1
  F  F20  1  0.80187141  0.85327062  0.12997551  1
  F  F21  1  0.19812859  0.64672938  0.62997551  1
  F  F22  1  0.19812859  0.14672938  0.87002449  1
  F  F23  1  0.80187141  0.35327062  0.37002449  1
  F  F24  1  0.84268525  0.83704183  0.68785555  1
  F  F25  1  0.15731475  0.66295817  0.18785555  1
  F  F26  1  0.15731475  0.16295817  0.31214445  1
  F  F27  1  0.84268525  0.33704183  0.81214445  1
