# generated using pymatgen
data_Pr3Ag
_symmetry_space_group_name_H-M   'P 1'
_cell_length_a   7.26195975
_cell_length_b   7.25997130
_cell_length_c   5.38850163
_cell_angle_alpha   89.99870237
_cell_angle_beta   90.00220924
_cell_angle_gamma   119.92319698
_symmetry_Int_Tables_number   1
_chemical_formula_structural   Pr3Ag
_chemical_formula_sum   'Pr6 Ag2'
_cell_volume   246.21980322
_cell_formula_units_Z   2
loop_
 _symmetry_equiv_pos_site_id
 _symmetry_equiv_pos_as_xyz
  1  'x, y, z'
loop_
 _atom_site_type_symbol
 _atom_site_label
 _atom_site_symmetry_multiplicity
 _atom_site_fract_x
 _atom_site_fract_y
 _atom_site_fract_z
 _atom_site_occupancy
  Pr  Pr0  1  0.17542724  0.35091879  0.25022484  1
  Pr  Pr1  1  0.64902802  0.82455305  0.25017554  1
  Pr  Pr2  1  0.17541379  0.82458850  0.25021706  1
  Pr  Pr3  1  0.82472922  0.64944827  0.74976749  1
  Pr  Pr4  1  0.35059935  0.17527537  0.74981883  1
  Pr  Pr5  1  0.82478287  0.17523210  0.74979077  1
  Ag  Ag6  1  0.33342959  0.66658794  0.74998959  1
  Ag  Ag7  1  0.66658993  0.33339598  0.25001589  1
