# generated using pymatgen
data_CaVP2O7
_symmetry_space_group_name_H-M   'P 1'
_cell_length_a   6.60061184
_cell_length_b   6.67704235
_cell_length_c   6.79949657
_cell_angle_alpha   66.12313436
_cell_angle_beta   86.59397164
_cell_angle_gamma   82.33467350
_symmetry_Int_Tables_number   1
_chemical_formula_structural   CaVP2O7
_chemical_formula_sum   'Ca2 V2 P4 O14'
_cell_volume   271.57111424
_cell_formula_units_Z   2
loop_
 _symmetry_equiv_pos_site_id
 _symmetry_equiv_pos_as_xyz
  1  'x, y, z'
loop_
 _atom_site_type_symbol
 _atom_site_label
 _atom_site_symmetry_multiplicity
 _atom_site_fract_x
 _atom_site_fract_y
 _atom_site_fract_z
 _atom_site_occupancy
  Ca  Ca0  1  0.85750216  0.27329946  0.17188279  1
  Ca  Ca1  1  0.14249784  0.72670054  0.82811721  1
  V  V2  1  0.65013240  0.10063878  0.77684614  1
  V  V3  1  0.34986760  0.89936122  0.22315386  1
  P  P4  1  0.14454970  0.22976057  0.74885863  1
  P  P5  1  0.85545030  0.77023943  0.25114137  1
  P  P6  1  0.62781058  0.64202094  0.66968151  1
  P  P7  1  0.37218942  0.35797906  0.33031849  1
  O  O8  1  0.77432856  0.61096283  0.47921376  1
  O  O9  1  0.22567144  0.38903717  0.52078624  1
  O  O10  1  0.97942157  0.10250583  0.71791394  1
  O  O11  1  0.02057843  0.89749417  0.28208606  1
  O  O12  1  0.58577352  0.25780162  0.42854568  1
  O  O13  1  0.41422648  0.74219838  0.57145432  1
  O  O14  1  0.37252044  0.59511988  0.16072470  1
  O  O15  1  0.62747956  0.40488012  0.83927430  1
  O  O16  1  0.93075936  0.61840456  0.13988607  1
  O  O17  1  0.06924064  0.38159544  0.86011393  1
  O  O18  1  0.67401789  0.94702059  0.13614427  1
  O  O19  1  0.32598211  0.05297941  0.86385573  1
  O  O20  1  0.27038126  0.20947583  0.25654162  1
  O  O21  1  0.72961874  0.79052417  0.74345838  1
