# generated using pymatgen
data_B9H20C5I2N
_symmetry_space_group_name_H-M   'P 1'
_cell_length_a   7.71516372
_cell_length_b   15.40618635
_cell_length_c   17.81039877
_cell_angle_alpha   90.00000000
_cell_angle_beta   90.00000000
_cell_angle_gamma   90.00000000
_symmetry_Int_Tables_number   1
_chemical_formula_structural   B9H20C5I2N
_chemical_formula_sum   'B36 H80 C20 I8 N4'
_cell_volume   2116.96626064
_cell_formula_units_Z   4
loop_
 _symmetry_equiv_pos_site_id
 _symmetry_equiv_pos_as_xyz
  1  'x, y, z'
loop_
 _atom_site_type_symbol
 _atom_site_label
 _atom_site_symmetry_multiplicity
 _atom_site_fract_x
 _atom_site_fract_y
 _atom_site_fract_z
 _atom_site_occupancy
  B  B0  1  0.27573981  0.35899327  0.64018242  1
  B  B1  1  0.72426019  0.64100673  0.14018242  1
  B  B2  1  0.27573981  0.14100673  0.14018242  1
  B  B3  1  0.72426019  0.85899327  0.64018242  1
  B  B4  1  0.06710773  0.37390506  0.67624327  1
  B  B5  1  0.93289227  0.62609494  0.17624327  1
  B  B6  1  0.06710773  0.12609494  0.17624327  1
  B  B7  1  0.93289227  0.87390506  0.67624327  1
  B  B8  1  0.11574915  0.27656079  0.62975474  1
  B  B9  1  0.88425085  0.72343921  0.12975474  1
  B  B10  1  0.11574915  0.22343921  0.12975474  1
  B  B11  1  0.88425085  0.77656079  0.62975474  1
  B  B12  1  0.25264509  0.30314128  0.55390759  1
  B  B13  1  0.74735491  0.69685872  0.05390759  1
  B  B14  1  0.25264509  0.19685872  0.05390759  1
  B  B15  1  0.74735491  0.80314128  0.55390759  1
  B  B16  1  0.28697064  0.41501836  0.55246489  1
  B  B17  1  0.71302936  0.58498164  0.05246489  1
  B  B18  1  0.28697064  0.08498164  0.05246489  1
  B  B19  1  0.71302936  0.91501836  0.55246489  1
  B  B20  1  0.16683142  0.46190731  0.63034065  1
  B  B21  1  0.83316858  0.53809269  0.13034065  1
  B  B22  1  0.16683142  0.03809269  0.13034065  1
  B  B23  1  0.83316858  0.96190731  0.63034065  1
  B  B24  1  0.13408712  0.36902067  0.49152558  1
  B  B25  1  0.86591288  0.63097933  0.99152558  1
  B  B26  1  0.13408712  0.13097933  0.99152558  1
  B  B27  1  0.86591288  0.86902067  0.49152558  1
  B  B28  1  0.09088116  0.47223316  0.53622917  1
  B  B29  1  0.90911884  0.52776684  0.03622917  1
  B  B30  1  0.09088116  0.02776684  0.03622917  1
  B  B31  1  0.90911884  0.97223316  0.53622917  1
  B  B32  1  0.94313453  0.43998274  0.61281226  1
  B  B33  1  0.05686547  0.56001726  0.11281226  1
  B  B34  1  0.94313453  0.06001726  0.11281226  1
  B  B35  1  0.05686547  0.93998274  0.61281226  1
  H  H36  1  0.39787146  0.34901940  0.68030401  1
  H  H37  1  0.60212854  0.65098060  0.18030401  1
  H  H38  1  0.39787146  0.15098060  0.18030401  1
  H  H39  1  0.60212854  0.84901940  0.68030401  1
  H  H40  1  0.10719454  0.20665637  0.65790188  1
  H  H41  1  0.89280546  0.79334363  0.15790188  1
  H  H42  1  0.10719454  0.29334363  0.15790188  1
  H  H43  1  0.89280546  0.70665637  0.65790188  1
  H  H44  1  0.41911177  0.44808730  0.53179853  1
  H  H45  1  0.58088823  0.55191270  0.03179853  1
  H  H46  1  0.41911177  0.05191270  0.03179853  1
  H  H47  1  0.58088823  0.94808730  0.53179853  1
  H  H48  1  0.21816317  0.52370628  0.66438149  1
  H  H49  1  0.78183683  0.47629372  0.16438149  1
  H  H50  1  0.21816317  0.97629372  0.16438149  1
  H  H51  1  0.78183683  0.02370628  0.66438149  1
  H  H52  1  0.81497548  0.29927609  0.62660776  1
  H  H53  1  0.18502452  0.70072391  0.12660776  1
  H  H54  1  0.81497548  0.20072391  0.12660776  1
  H  H55  1  0.18502452  0.79927609  0.62660776  1
  H  H56  1  0.97799677  0.23926818  0.51647127  1
  H  H57  1  0.02200323  0.76073182  0.01647127  1
  H  H58  1  0.97799677  0.26073182  0.01647127  1
  H  H59  1  0.02200323  0.73926818  0.51647127  1
  H  H60  1  0.15656653  0.35762337  0.42544591  1
  H  H61  1  0.84343347  0.64237663  0.92544591  1
  H  H62  1  0.15656653  0.14237663  0.92544591  1
  H  H63  1  0.84343347  0.85762337  0.42544591  1
  H  H64  1  0.09566832  0.54303985  0.50871769  1
  H  H65  1  0.90433168  0.45696015  0.00871769  1
  H  H66  1  0.09566832  0.95696015  0.00871769  1
  H  H67  1  0.90433168  0.04303985  0.50871769  1
  H  H68  1  0.83069664  0.48354219  0.63925100  1
  H  H69  1  0.16930336  0.51645781  0.13925100  1
  H  H70  1  0.83069664  0.01645781  0.13925100  1
  H  H71  1  0.16930336  0.98354219  0.63925100  1
  H  H72  1  0.93423370  0.44570188  0.53507989  1
  H  H73  1  0.06576630  0.55429812  0.03507989  1
  H  H74  1  0.93423370  0.05429812  0.03507989  1
  H  H75  1  0.06576630  0.94570188  0.53507989  1
  H  H76  1  0.56145573  0.62827737  0.89254327  1
  H  H77  1  0.43854427  0.37172263  0.39254327  1
  H  H78  1  0.56145573  0.87172263  0.39254327  1
  H  H79  1  0.43854427  0.12827737  0.89254327  1
  H  H80  1  0.50252709  0.74145076  0.81336147  1
  H  H81  1  0.49747291  0.25854924  0.31336147  1
  H  H82  1  0.50252709  0.75854924  0.31336147  1
  H  H83  1  0.49747291  0.24145076  0.81336147  1
  H  H84  1  0.63956813  0.66867978  0.76172317  1
  H  H85  1  0.36043187  0.33132022  0.26172317  1
  H  H86  1  0.63956813  0.83132022  0.26172317  1
  H  H87  1  0.36043187  0.16867978  0.76172317  1
  H  H88  1  0.41022199  0.66925994  0.74471801  1
  H  H89  1  0.58977801  0.33074006  0.24471801  1
  H  H90  1  0.41022199  0.83074006  0.24471801  1
  H  H91  1  0.58977801  0.16925994  0.74471801  1
  H  H92  1  0.67513676  0.52668117  0.79822268  1
  H  H93  1  0.32486324  0.47331883  0.29822268  1
  H  H94  1  0.67513676  0.97331883  0.29822268  1
  H  H95  1  0.32486324  0.02668117  0.79822268  1
  H  H96  1  0.54914343  0.47975999  0.87248000  1
  H  H97  1  0.45085657  0.52024001  0.37248000  1
  H  H98  1  0.54914343  0.02024001  0.37248000  1
  H  H99  1  0.45085657  0.97975999  0.87248000  1
  H  H100  1  0.45321177  0.49615370  0.78155719  1
  H  H101  1  0.54678823  0.50384630  0.28155719  1
  H  H102  1  0.45321177  0.00384630  0.28155719  1
  H  H103  1  0.54678823  0.99615370  0.78155719  1
  H  H104  1  0.22077065  0.59174289  0.82307166  1
  H  H105  1  0.77922935  0.40825711  0.32307166  1
  H  H106  1  0.22077065  0.90825711  0.32307166  1
  H  H107  1  0.77922935  0.09174289  0.82307166  1
  H  H108  1  0.28646608  0.55649813  0.91460325  1
  H  H109  1  0.71353392  0.44350187  0.41460325  1
  H  H110  1  0.28646608  0.94350187  0.41460325  1
  H  H111  1  0.71353392  0.05649813  0.91460325  1
  H  H112  1  0.26546744  0.67064726  0.89518364  1
  H  H113  1  0.73453256  0.32935274  0.39518364  1
  H  H114  1  0.26546744  0.82935274  0.39518364  1
  H  H115  1  0.73453256  0.17064726  0.89518364  1
  C  C116  1  0.93163816  0.33405900  0.61001832  1
  C  C117  1  0.06836184  0.66594100  0.11001832  1
  C  C118  1  0.93163816  0.16594100  0.11001832  1
  C  C119  1  0.06836184  0.83405900  0.61001832  1
  C  C120  1  0.03217741  0.29797586  0.54130294  1
  C  C121  1  0.96782259  0.70202414  0.04130294  1
  C  C122  1  0.03217741  0.20202414  0.04130294  1
  C  C123  1  0.96782259  0.79797586  0.54130294  1
  C  C124  1  0.51173621  0.67733798  0.78719809  1
  C  C125  1  0.48826379  0.32266202  0.28719809  1
  C  C126  1  0.51173621  0.82266202  0.28719809  1
  C  C127  1  0.48826379  0.17733798  0.78719809  1
  C  C128  1  0.54565599  0.52164469  0.82283807  1
  C  C129  1  0.45434401  0.47835531  0.32283807  1
  C  C130  1  0.54565599  0.97835531  0.32283807  1
  C  C131  1  0.45434401  0.02164469  0.82283807  1
  C  C132  1  0.30090979  0.60729886  0.87212727  1
  C  C133  1  0.69909021  0.39270114  0.37212727  1
  C  C134  1  0.30090979  0.89270114  0.37212727  1
  C  C135  1  0.69909021  0.10729886  0.87212727  1
  I  I136  1  0.00215530  0.37011103  0.79650698  1
  I  I137  1  0.99784470  0.62988897  0.29650698  1
  I  I138  1  0.00215530  0.12988897  0.29650698  1
  I  I139  1  0.99784470  0.87011103  0.79650698  1
  I  I140  1  0.43803180  0.20419023  0.51424018  1
  I  I141  1  0.56196820  0.79580977  0.01424018  1
  I  I142  1  0.43803180  0.29580977  0.01424018  1
  I  I143  1  0.56196820  0.70419023  0.51424018  1
  N  N144  1  0.48595664  0.60991828  0.84688378  1
  N  N145  1  0.51404336  0.39008172  0.34688378  1
  N  N146  1  0.48595664  0.89008172  0.34688378  1
  N  N147  1  0.51404336  0.10991828  0.84688378  1
