# generated using pymatgen
data_NaBe(BO2)3
_symmetry_space_group_name_H-M   'P 1'
_cell_length_a   9.24166219
_cell_length_b   12.03962409
_cell_length_c   4.45233846
_cell_angle_alpha   90.00000000
_cell_angle_beta   90.00000000
_cell_angle_gamma   90.00000000
_symmetry_Int_Tables_number   1
_chemical_formula_structural   NaBe(BO2)3
_chemical_formula_sum   'Na4 Be4 B12 O24'
_cell_volume   495.39450878
_cell_formula_units_Z   4
loop_
 _symmetry_equiv_pos_site_id
 _symmetry_equiv_pos_as_xyz
  1  'x, y, z'
loop_
 _atom_site_type_symbol
 _atom_site_label
 _atom_site_symmetry_multiplicity
 _atom_site_fract_x
 _atom_site_fract_y
 _atom_site_fract_z
 _atom_site_occupancy
  Na  Na0  1  0.17595842  0.11323442  0.28004940  1
  Na  Na1  1  0.82404158  0.88676558  0.78004940  1
  Na  Na2  1  0.32404158  0.61323442  0.78004940  1
  Na  Na3  1  0.67595842  0.38676558  0.28004940  1
  Be  Be4  1  0.40807666  0.04202547  0.82652420  1
  Be  Be5  1  0.59192334  0.95797453  0.32652420  1
  Be  Be6  1  0.09192334  0.54202547  0.32652420  1
  Be  Be7  1  0.90807666  0.45797453  0.82652420  1
  B  B8  1  0.43048266  0.25440203  0.88086746  1
  B  B9  1  0.56951734  0.74559797  0.38086746  1
  B  B10  1  0.06951734  0.75440203  0.38086746  1
  B  B11  1  0.93048266  0.24559797  0.88086746  1
  B  B12  1  0.08321571  0.33623838  0.50276266  1
  B  B13  1  0.91678429  0.66376162  0.00276266  1
  B  B14  1  0.41678429  0.83623838  0.00276266  1
  B  B15  1  0.58321571  0.16376162  0.50276266  1
  B  B16  1  0.27748162  0.39478037  0.15877886  1
  B  B17  1  0.72251838  0.60521963  0.65877886  1
  B  B18  1  0.22251838  0.89478037  0.65877886  1
  B  B19  1  0.77748162  0.10521963  0.15877886  1
  O  O20  1  0.38260603  0.15823254  0.99277718  1
  O  O21  1  0.61739397  0.84176746  0.49277718  1
  O  O22  1  0.11739397  0.65823254  0.49277718  1
  O  O23  1  0.88260603  0.34176746  0.99277718  1
  O  O24  1  0.02968849  0.24120607  0.64045722  1
  O  O25  1  0.97031151  0.75879393  0.14045722  1
  O  O26  1  0.47031151  0.74120607  0.14045722  1
  O  O27  1  0.52968849  0.25879393  0.64045722  1
  O  O28  1  0.03671259  0.44122396  0.56228603  1
  O  O29  1  0.96328741  0.55877604  0.06228603  1
  O  O30  1  0.46328741  0.94122396  0.06228603  1
  O  O31  1  0.53671259  0.05877604  0.56228603  1
  O  O32  1  0.19517341  0.31232774  0.30369731  1
  O  O33  1  0.80482659  0.68767226  0.80369731  1
  O  O34  1  0.30482659  0.81232774  0.80369731  1
  O  O35  1  0.69517341  0.18767226  0.30369731  1
  O  O36  1  0.25647107  0.00259453  0.67940896  1
  O  O37  1  0.74352893  0.99740547  0.17940896  1
  O  O38  1  0.24352893  0.50259453  0.17940896  1
  O  O39  1  0.75647107  0.49740547  0.67940896  1
  O  O40  1  0.89559440  0.13919834  0.98619073  1
  O  O41  1  0.10440560  0.86080166  0.48619073  1
  O  O42  1  0.60440560  0.63919834  0.48619073  1
  O  O43  1  0.39559440  0.36080166  0.98619073  1
