# generated using pymatgen
data_LaGe2Ir3
_symmetry_space_group_name_H-M   'P 1'
_cell_length_a   5.69417389
_cell_length_b   5.69417424
_cell_length_c   3.85579690
_cell_angle_alpha   90.00000000
_cell_angle_beta   90.00000000
_cell_angle_gamma   119.99977113
_symmetry_Int_Tables_number   1
_chemical_formula_structural   LaGe2Ir3
_chemical_formula_sum   'La1 Ge2 Ir3'
_cell_volume   108.26978160
_cell_formula_units_Z   1
loop_
 _symmetry_equiv_pos_site_id
 _symmetry_equiv_pos_as_xyz
  1  'x, y, z'
loop_
 _atom_site_type_symbol
 _atom_site_label
 _atom_site_symmetry_multiplicity
 _atom_site_fract_x
 _atom_site_fract_y
 _atom_site_fract_z
 _atom_site_occupancy
  La  La0  1  0.00001434  0.00001434  0.00000000  1
  Ge  Ge1  1  0.66669743  0.33337468  0.00000000  1
  Ge  Ge2  1  0.33337468  0.66669743  0.00000000  1
  Ir  Ir3  1  0.49999794  0.49999794  0.50000000  1
  Ir  Ir4  1  0.50000396  0.00001166  0.50000000  1
  Ir  Ir5  1  0.00001166  0.50000396  0.50000000  1
