# generated using pymatgen
data_CsMgBO3
_symmetry_space_group_name_H-M   'P 1'
_cell_length_a   20.50868220
_cell_length_b   4.94028128
_cell_length_c   16.91670763
_cell_angle_alpha   90.00000000
_cell_angle_beta   114.32037774
_cell_angle_gamma   90.00000000
_symmetry_Int_Tables_number   1
_chemical_formula_structural   CsMgBO3
_chemical_formula_sum   'Cs16 Mg16 B16 O48'
_cell_volume   1561.87432753
_cell_formula_units_Z   16
loop_
 _symmetry_equiv_pos_site_id
 _symmetry_equiv_pos_as_xyz
  1  'x, y, z'
loop_
 _atom_site_type_symbol
 _atom_site_label
 _atom_site_symmetry_multiplicity
 _atom_site_fract_x
 _atom_site_fract_y
 _atom_site_fract_z
 _atom_site_occupancy
  Cs  Cs0  1  0.27166550  0.73667049  0.14162349  1
  Cs  Cs1  1  0.72833450  0.23667049  0.35837651  1
  Cs  Cs2  1  0.72833450  0.26332951  0.85837651  1
  Cs  Cs3  1  0.27166550  0.76332951  0.64162349  1
  Cs  Cs4  1  0.44204367  0.72271021  0.40037928  1
  Cs  Cs5  1  0.55795633  0.22271021  0.09962072  1
  Cs  Cs6  1  0.55795633  0.27728979  0.59962072  1
  Cs  Cs7  1  0.44204367  0.77728979  0.90037928  1
  Cs  Cs8  1  0.05771176  0.72542248  0.95847673  1
  Cs  Cs9  1  0.94228824  0.22542248  0.54152327  1
  Cs  Cs10  1  0.94228824  0.27457752  0.04152327  1
  Cs  Cs11  1  0.05771176  0.77457752  0.45847673  1
  Cs  Cs12  1  0.22812402  0.75470054  0.37009873  1
  Cs  Cs13  1  0.77187598  0.25470054  0.12990127  1
  Cs  Cs14  1  0.77187598  0.24529946  0.62990127  1
  Cs  Cs15  1  0.22812402  0.74529946  0.87009873  1
  Mg  Mg16  1  0.05858021  0.27300101  0.28081795  1
  Mg  Mg17  1  0.94141979  0.77300101  0.21918205  1
  Mg  Mg18  1  0.94141979  0.72699899  0.71918205  1
  Mg  Mg19  1  0.05858021  0.22699899  0.78081795  1
  Mg  Mg20  1  0.65534891  0.73434366  0.49072340  1
  Mg  Mg21  1  0.34465109  0.23434366  0.00927660  1
  Mg  Mg22  1  0.34465109  0.26565634  0.50927660  1
  Mg  Mg23  1  0.65534891  0.76565634  0.99072340  1
  Mg  Mg24  1  0.44125236  0.21921686  0.22193573  1
  Mg  Mg25  1  0.55874764  0.71921686  0.27806427  1
  Mg  Mg26  1  0.55874764  0.78078314  0.77806427  1
  Mg  Mg27  1  0.44125236  0.28078314  0.72193573  1
  Mg  Mg28  1  0.15520576  0.25695558  0.16510494  1
  Mg  Mg29  1  0.84479424  0.75695558  0.33489506  1
  Mg  Mg30  1  0.84479424  0.74304442  0.83489506  1
  Mg  Mg31  1  0.15520576  0.24304442  0.66510494  1
  B  B32  1  0.82333088  0.73276049  0.51487568  1
  B  B33  1  0.17666912  0.23276049  0.98512432  1
  B  B34  1  0.17666912  0.26723951  0.48512432  1
  B  B35  1  0.82333088  0.76723951  0.01487568  1
  B  B36  1  0.58038002  0.21740158  0.38469332  1
  B  B37  1  0.41961998  0.71740158  0.11530668  1
  B  B38  1  0.41961998  0.78259842  0.61530668  1
  B  B39  1  0.58038002  0.28259842  0.88469332  1
  B  B40  1  0.67694367  0.77530535  0.69208189  1
  B  B41  1  0.32305633  0.27530535  0.80791811  1
  B  B42  1  0.32305633  0.22469465  0.30791811  1
  B  B43  1  0.67694367  0.72469465  0.19208189  1
  B  B44  1  0.08055356  0.77455609  0.19577710  1
  B  B45  1  0.91944644  0.27455609  0.30422290  1
  B  B46  1  0.91944644  0.22544391  0.80422290  1
  B  B47  1  0.08055356  0.72544391  0.69577710  1
  O  O48  1  0.87269916  0.73577785  0.60142730  1
  O  O49  1  0.12730084  0.23577785  0.89857270  1
  O  O50  1  0.12730084  0.26422215  0.39857270  1
  O  O51  1  0.87269916  0.76422215  0.10142730  1
  O  O52  1  0.75083624  0.75710678  0.49351368  1
  O  O53  1  0.24916376  0.25710678  0.00648632  1
  O  O54  1  0.24916376  0.24289322  0.50648632  1
  O  O55  1  0.75083624  0.74289322  0.99351368  1
  O  O56  1  0.37132688  0.22935964  0.26922065  1
  O  O57  1  0.62867312  0.72935964  0.23077935  1
  O  O58  1  0.62867312  0.77064036  0.73077935  1
  O  O59  1  0.37132688  0.27064036  0.76922065  1
  O  O60  1  0.25008694  0.22927906  0.25808313  1
  O  O61  1  0.74991306  0.72927906  0.24191687  1
  O  O62  1  0.74991306  0.77072094  0.74191687  1
  O  O63  1  0.25008694  0.27072094  0.75808313  1
  O  O64  1  0.15085399  0.20494425  0.04904639  1
  O  O65  1  0.84914601  0.70494425  0.45095361  1
  O  O66  1  0.84914601  0.79505575  0.95095361  1
  O  O67  1  0.15085399  0.29505575  0.54904639  1
  O  O68  1  0.64960893  0.78782925  0.60181506  1
  O  O69  1  0.35039107  0.28782925  0.89818494  1
  O  O70  1  0.35039107  0.21217075  0.39818494  1
  O  O71  1  0.64960893  0.71217075  0.10181506  1
  O  O72  1  0.41649393  0.43403630  0.11360684  1
  O  O73  1  0.58350607  0.93403630  0.38639316  1
  O  O74  1  0.58350607  0.56596370  0.88639316  1
  O  O75  1  0.41649393  0.06596370  0.61360684  1
  O  O76  1  0.61851859  0.36303113  0.45742381  1
  O  O77  1  0.38148141  0.86303113  0.04257619  1
  O  O78  1  0.38148141  0.63696887  0.54257619  1
  O  O79  1  0.61851859  0.13696887  0.95742381  1
  O  O80  1  0.11912986  0.62931180  0.16164576  1
  O  O81  1  0.88087014  0.12931180  0.33835424  1
  O  O82  1  0.88087014  0.37068820  0.83835424  1
  O  O83  1  0.11912986  0.87068820  0.66164576  1
  O  O84  1  0.08332387  0.05791643  0.19714116  1
  O  O85  1  0.91667613  0.55791643  0.30285884  1
  O  O86  1  0.91667613  0.94208357  0.80285884  1
  O  O87  1  0.08332387  0.44208357  0.69714116  1
  O  O88  1  0.03835070  0.64870523  0.23311053  1
  O  O89  1  0.96164930  0.14870523  0.26688947  1
  O  O90  1  0.96164930  0.35129477  0.76688947  1
  O  O91  1  0.03835070  0.85129477  0.73311053  1
  O  O92  1  0.46167503  0.84295128  0.19495576  1
  O  O93  1  0.53832497  0.34295128  0.30504424  1
  O  O94  1  0.53832497  0.15704872  0.80504424  1
  O  O95  1  0.46167503  0.65704872  0.69495576  1
