# generated using pymatgen
data_Ca5(SiN3)2
_symmetry_space_group_name_H-M   'P 1'
_cell_length_a   5.93097547
_cell_length_b   5.93097547
_cell_length_c   12.06260163
_cell_angle_alpha   94.82051884
_cell_angle_beta   94.82051884
_cell_angle_gamma   116.13718249
_symmetry_Int_Tables_number   1
_chemical_formula_structural   Ca5(SiN3)2
_chemical_formula_sum   'Ca10 Si4 N12'
_cell_volume   376.09071360
_cell_formula_units_Z   2
loop_
 _symmetry_equiv_pos_site_id
 _symmetry_equiv_pos_as_xyz
  1  'x, y, z'
loop_
 _atom_site_type_symbol
 _atom_site_label
 _atom_site_symmetry_multiplicity
 _atom_site_fract_x
 _atom_site_fract_y
 _atom_site_fract_z
 _atom_site_occupancy
  Ca  Ca0  1  0.73120492  0.38032797  0.26142428  1
  Ca  Ca1  1  0.38032797  0.73120492  0.26142428  1
  Ca  Ca2  1  0.26879508  0.61967203  0.73857572  1
  Ca  Ca3  1  0.61967203  0.26879508  0.73857572  1
  Ca  Ca4  1  0.08877102  0.08877102  0.20680120  1
  Ca  Ca5  1  0.91122898  0.91122898  0.79319880  1
  Ca  Ca6  1  0.81368437  0.18631563  0.50000000  1
  Ca  Ca7  1  0.18631563  0.81368437  0.50000000  1
  Ca  Ca8  1  0.75838197  0.24161803  0.00000000  1
  Ca  Ca9  1  0.24161803  0.75838197  0.00000000  1
  Si  Si10  1  0.35107129  0.35107129  0.42460198  1
  Si  Si11  1  0.64892871  0.64892871  0.57539802  1
  Si  Si12  1  0.67546762  0.67546762  0.06839118  1
  Si  Si13  1  0.32453238  0.32453238  0.93160882  1
  N  N14  1  0.09541195  0.38904418  0.36167636  1
  N  N15  1  0.38904418  0.09541195  0.36167636  1
  N  N16  1  0.90458805  0.61095582  0.63832364  1
  N  N17  1  0.61095582  0.90458805  0.63832364  1
  N  N18  1  0.94596713  0.65740623  0.12666327  1
  N  N19  1  0.65740623  0.94596713  0.12666327  1
  N  N20  1  0.05403287  0.34259377  0.87333673  1
  N  N21  1  0.34259377  0.05403287  0.87333673  1
  N  N22  1  0.39068140  0.39068140  0.08517067  1
  N  N23  1  0.60931860  0.60931860  0.91482933  1
  N  N24  1  0.35542884  0.35542884  0.57376228  1
  N  N25  1  0.64457116  0.64457116  0.42623772  1
