# generated using pymatgen
data_CaCuF5
_symmetry_space_group_name_H-M   'P 1'
_cell_length_a   5.55540236
_cell_length_b   5.54428834
_cell_length_c   7.75562856
_cell_angle_alpha   96.58195095
_cell_angle_beta   111.48103133
_cell_angle_gamma   108.84211212
_symmetry_Int_Tables_number   1
_chemical_formula_structural   CaCuF5
_chemical_formula_sum   'Ca2 Cu2 F10'
_cell_volume   202.88529625
_cell_formula_units_Z   2
loop_
 _symmetry_equiv_pos_site_id
 _symmetry_equiv_pos_as_xyz
  1  'x, y, z'
loop_
 _atom_site_type_symbol
 _atom_site_label
 _atom_site_symmetry_multiplicity
 _atom_site_fract_x
 _atom_site_fract_y
 _atom_site_fract_z
 _atom_site_occupancy
  Ca  Ca0  1  0.29310138  0.54174215  0.74964085  1
  Ca  Ca1  1  0.70465415  0.45509985  0.25339422  1
  Cu  Cu2  1  0.99798654  0.00279659  0.99806845  1
  Cu  Cu3  1  0.49765025  -0.00051316  0.49945067  1
  F  F4  1  0.31698059  0.07160787  0.25403429  1
  F  F5  1  0.67408284  0.93268139  0.74620971  1
  F  F6  1  0.58572719  0.74999834  0.37822674  1
  F  F7  1  0.87813333  0.21448348  0.11378987  1
  F  F8  1  0.73525366  0.69390776  0.02228872  1
  F  F9  1  0.16732837  0.71289988  0.47816893  1
  F  F10  1  0.26710692  0.30804311  0.97543475  1
  F  F11  1  0.83499518  0.28079127  0.52277764  1
  F  F12  1  0.12096630  0.79318825  0.88202608  1
  F  F13  1  0.41506928  0.25307323  0.62066008  1
