# generated using pymatgen
data_K2ZrSi2O7
_symmetry_space_group_name_H-M   'P 1'
_cell_length_a   11.25771247
_cell_length_b   11.27597813
_cell_length_c   14.39542066
_cell_angle_alpha   66.58978404
_cell_angle_beta   66.98219630
_cell_angle_gamma   60.05357057
_symmetry_Int_Tables_number   1
_chemical_formula_structural   K2ZrSi2O7
_chemical_formula_sum   'K16 Zr8 Si16 O56'
_cell_volume   1409.76419737
_cell_formula_units_Z   8
loop_
 _symmetry_equiv_pos_site_id
 _symmetry_equiv_pos_as_xyz
  1  'x, y, z'
loop_
 _atom_site_type_symbol
 _atom_site_label
 _atom_site_symmetry_multiplicity
 _atom_site_fract_x
 _atom_site_fract_y
 _atom_site_fract_z
 _atom_site_occupancy
  K  K0  1  0.38237652  0.13759276  0.59022912  1
  K  K1  1  0.88980161  0.13759276  0.59022912  1
  K  K2  1  0.61762348  0.86240724  0.40977088  1
  K  K3  1  0.11019839  0.86240724  0.40977088  1
  K  K4  1  0.60857801  0.35624800  0.91845633  1
  K  K5  1  0.11671765  0.35624800  0.91845633  1
  K  K6  1  0.39142199  0.64375200  0.08154367  1
  K  K7  1  0.88328235  0.64375200  0.08154367  1
  K  K8  1  0.39036946  0.64264623  0.57661485  1
  K  K9  1  0.60963054  0.35735377  0.42338515  1
  K  K10  1  0.11122086  0.85628554  0.92127274  1
  K  K11  1  0.88877914  0.14371446  0.07872726  1
  K  K12  1  0.62143682  0.86792601  0.88920036  1
  K  K13  1  0.37856318  0.13207399  0.11079964  1
  K  K14  1  0.88214840  0.63143444  0.60426877  1
  K  K15  1  0.11785160  0.36856556  0.39573123  1
  Zr  Zr16  1  0.98849246  0.24136578  0.78164930  1
  Zr  Zr17  1  0.01150754  0.75863422  0.21835070  1
  Zr  Zr18  1  0.51237298  0.25634460  0.71890944  1
  Zr  Zr19  1  0.48762702  0.74365540  0.28109056  1
  Zr  Zr20  1  0.49803832  0.74788971  0.75025081  1
  Zr  Zr21  1  0.00382116  0.74788971  0.75025081  1
  Zr  Zr22  1  0.50196168  0.25211029  0.24974919  1
  Zr  Zr23  1  0.99617884  0.25211029  0.24974919  1
  Si  Si24  1  0.19837228  0.45997901  0.62080246  1
  Si  Si25  1  0.72084625  0.45997901  0.62080246  1
  Si  Si26  1  0.80162772  0.54002099  0.37919754  1
  Si  Si27  1  0.27915375  0.54002099  0.37919754  1
  Si  Si28  1  0.30288294  0.03721700  0.87956592  1
  Si  Si29  1  0.78033415  0.03721700  0.87956592  1
  Si  Si30  1  0.69711706  0.96278300  0.12043408  1
  Si  Si31  1  0.21966585  0.96278300  0.12043408  1
  Si  Si32  1  0.19965247  0.96781884  0.63287621  1
  Si  Si33  1  0.80034753  0.03218116  0.36712379  1
  Si  Si34  1  0.30139801  0.52938852  0.86781546  1
  Si  Si35  1  0.69860199  0.47061148  0.13218454  1
  Si  Si36  1  0.71607657  0.95683587  0.61101099  1
  Si  Si37  1  0.28392343  0.04316413  0.38898901  1
  Si  Si38  1  0.78528172  0.54024575  0.88919081  1
  Si  Si39  1  0.21471828  0.45975425  0.11080919  1
  O  O40  1  0.86769433  0.37203232  0.89257901  1
  O  O41  1  0.13230567  0.62796768  0.10742099  1
  O  O42  1  0.13520683  0.12241267  0.87969375  1
  O  O43  1  0.86268676  0.12241267  0.87969375  1
  O  O44  1  0.86479317  0.87758733  0.12030625  1
  O  O45  1  0.13731324  0.87758733  0.12030625  1
  O  O46  1  0.66608161  0.13292154  0.80643680  1
  O  O47  1  0.39456005  0.13292154  0.80643680  1
  O  O48  1  0.33391839  0.86707846  0.19356320  1
  O  O49  1  0.60543995  0.86707846  0.19356320  1
  O  O50  1  0.63860240  0.37498188  0.62027978  1
  O  O51  1  0.36613594  0.37498188  0.62027978  1
  O  O52  1  0.36139760  0.62501812  0.37972022  1
  O  O53  1  0.63386406  0.62501812  0.37972022  1
  O  O54  1  0.18075515  0.50000000  0.50000000  1
  O  O55  1  0.81924485  0.50000000  0.50000000  1
  O  O56  1  0.31969124  -0.00000000  0.00000000  1
  O  O57  1  0.68030876  -0.00000000  0.00000000  1
  O  O58  1  0.39436130  0.40978280  0.80149461  1
  O  O59  1  0.60563870  0.59021720  0.19850539  1
  O  O60  1  0.63302108  0.12455028  0.60940755  1
  O  O61  1  0.36697892  0.87544972  0.39059245  1
  O  O62  1  0.37520866  0.88483313  0.85190721  1
  O  O63  1  0.88805100  0.88483313  0.85190721  1
  O  O64  1  0.62479134  0.11516687  0.14809279  1
  O  O65  1  0.11194900  0.11516687  0.14809279  1
  O  O66  1  0.61243406  0.61127283  0.64967489  1
  O  O67  1  0.12661822  0.61127283  0.64967489  1
  O  O68  1  0.38756594  0.38872717  0.35032511  1
  O  O69  1  0.87338178  0.38872717  0.35032511  1
  O  O70  1  0.65210076  0.61908734  0.83625576  1
  O  O71  1  0.89255614  0.61908734  0.83625576  1
  O  O72  1  0.34789924  0.38091266  0.16374424  1
  O  O73  1  0.10744386  0.38091266  0.16374424  1
  O  O74  1  0.84916029  0.87702153  0.66423883  1
  O  O75  1  0.60957936  0.87702153  0.66423883  1
  O  O76  1  0.15083971  0.12297847  0.33576117  1
  O  O77  1  0.39042064  0.12297847  0.33576117  1
  O  O78  1  0.38197873  0.62530007  0.85018371  1
  O  O79  1  0.14253750  0.62530007  0.85018371  1
  O  O80  1  0.61802127  0.37469993  0.14981629  1
  O  O81  1  0.85746250  0.37469993  0.14981629  1
  O  O82  1  0.11899947  0.87173268  0.65110072  1
  O  O83  1  0.35816713  0.87173268  0.65110072  1
  O  O84  1  0.88100053  0.12826732  0.34889928  1
  O  O85  1  0.64183287  0.12826732  0.34889928  1
  O  O86  1  0.21220863  0.06570477  0.50987796  1
  O  O87  1  0.78779137  0.93429523  0.49012204  1
  O  O88  1  0.28822090  0.43242693  0.99113128  1
  O  O89  1  0.71177910  0.56757307  0.00886872  1
  O  O90  1  0.83652488  0.36380981  0.69255171  1
  O  O91  1  0.10711360  0.36380981  0.69255171  1
  O  O92  1  0.16347512  0.63619019  0.30744829  1
  O  O93  1  0.89288640  0.63619019  0.30744829  1
  O  O94  1  0.10658747  0.08742559  0.69939947  1
  O  O95  1  0.89341253  0.91257441  0.30060053  1
