# generated using pymatgen
data_Na4Zn3S5
_symmetry_space_group_name_H-M   'P 1'
_cell_length_a   3.93137095
_cell_length_b   13.18878382
_cell_length_c   18.87495155
_cell_angle_alpha   90.00000000
_cell_angle_beta   90.00000000
_cell_angle_gamma   90.00000000
_symmetry_Int_Tables_number   1
_chemical_formula_structural   Na4Zn3S5
_chemical_formula_sum   'Na16 Zn12 S20'
_cell_volume   978.66626761
_cell_formula_units_Z   4
loop_
 _symmetry_equiv_pos_site_id
 _symmetry_equiv_pos_as_xyz
  1  'x, y, z'
loop_
 _atom_site_type_symbol
 _atom_site_label
 _atom_site_symmetry_multiplicity
 _atom_site_fract_x
 _atom_site_fract_y
 _atom_site_fract_z
 _atom_site_occupancy
  Na  Na0  1  0.75000000  0.50232220  0.73519453  1
  Na  Na1  1  0.75000000  0.00232220  0.76480547  1
  Na  Na2  1  0.25000000  0.49767780  0.26480547  1
  Na  Na3  1  0.25000000  0.99767780  0.23519453  1
  Na  Na4  1  0.75000000  0.49253832  0.08280774  1
  Na  Na5  1  0.75000000  0.99253832  0.41719226  1
  Na  Na6  1  0.25000000  0.50746168  0.91719226  1
  Na  Na7  1  0.25000000  0.00746168  0.58280774  1
  Na  Na8  1  0.75000000  0.39057636  0.54941499  1
  Na  Na9  1  0.75000000  0.89057636  0.95058501  1
  Na  Na10  1  0.25000000  0.60942364  0.45058501  1
  Na  Na11  1  0.25000000  0.10942364  0.04941499  1
  Na  Na12  1  0.75000000  0.22677595  0.66624825  1
  Na  Na13  1  0.75000000  0.72677595  0.83375175  1
  Na  Na14  1  0.25000000  0.77322405  0.33375175  1
  Na  Na15  1  0.25000000  0.27322405  0.16624825  1
  Zn  Zn16  1  0.75000000  0.29067625  0.95899195  1
  Zn  Zn17  1  0.75000000  0.79067625  0.54100805  1
  Zn  Zn18  1  0.25000000  0.70932375  0.04100805  1
  Zn  Zn19  1  0.25000000  0.20932375  0.45899195  1
  Zn  Zn20  1  0.75000000  0.18072419  0.28301948  1
  Zn  Zn21  1  0.75000000  0.68072419  0.21698052  1
  Zn  Zn22  1  0.25000000  0.81927581  0.71698052  1
  Zn  Zn23  1  0.25000000  0.31927581  0.78301948  1
  Zn  Zn24  1  0.75000000  0.92410385  0.13120423  1
  Zn  Zn25  1  0.75000000  0.42410385  0.36879577  1
  Zn  Zn26  1  0.25000000  0.07589615  0.86879577  1
  Zn  Zn27  1  0.25000000  0.57589615  0.63120423  1
  S  S28  1  0.75000000  0.37493133  0.84674333  1
  S  S29  1  0.75000000  0.87493133  0.65325667  1
  S  S30  1  0.25000000  0.62506867  0.15325667  1
  S  S31  1  0.25000000  0.12506867  0.34674333  1
  S  S32  1  0.75000000  0.35173497  0.25477906  1
  S  S33  1  0.75000000  0.85173497  0.24522094  1
  S  S34  1  0.25000000  0.64826503  0.74522094  1
  S  S35  1  0.25000000  0.14826503  0.75477906  1
  S  S36  1  0.75000000  0.15734175  0.52259027  1
  S  S37  1  0.75000000  0.65734175  0.97740973  1
  S  S38  1  0.25000000  0.84265825  0.47740973  1
  S  S39  1  0.25000000  0.34265825  0.02259027  1
  S  S40  1  0.75000000  0.10692325  0.16151858  1
  S  S41  1  0.75000000  0.60692325  0.33848142  1
  S  S42  1  0.25000000  0.89307675  0.83848142  1
  S  S43  1  0.25000000  0.39307675  0.66151858  1
  S  S44  1  0.75000000  0.11168959  0.93667489  1
  S  S45  1  0.75000000  0.61168959  0.56332511  1
  S  S46  1  0.25000000  0.88831041  0.06332511  1
  S  S47  1  0.25000000  0.38831041  0.43667489  1
