# generated using pymatgen
data_CeAl2Pd5
_symmetry_space_group_name_H-M   'P 1'
_cell_length_a   4.20462401
_cell_length_b   4.20462401
_cell_length_c   8.03190122
_cell_angle_alpha   105.17364447
_cell_angle_beta   105.17364447
_cell_angle_gamma   90.00000000
_symmetry_Int_Tables_number   1
_chemical_formula_structural   CeAl2Pd5
_chemical_formula_sum   'Ce1 Al2 Pd5'
_cell_volume   131.90849502
_cell_formula_units_Z   1
loop_
 _symmetry_equiv_pos_site_id
 _symmetry_equiv_pos_as_xyz
  1  'x, y, z'
loop_
 _atom_site_type_symbol
 _atom_site_label
 _atom_site_symmetry_multiplicity
 _atom_site_fract_x
 _atom_site_fract_y
 _atom_site_fract_z
 _atom_site_occupancy
  Ce  Ce0  1  0.50000000  0.50000000  0.00000000  1
  Al  Al1  1  0.24684473  0.24684473  0.49368946  1
  Al  Al2  1  0.75315527  0.75315527  0.50631054  1
  Pd  Pd3  1  0.14511963  0.64511963  0.29023926  1
  Pd  Pd4  1  0.85488037  0.35488037  0.70976074  1
  Pd  Pd5  1  0.64511963  0.14511963  0.29023926  1
  Pd  Pd6  1  0.35488037  0.85488037  0.70976074  1
  Pd  Pd7  1  -0.00000000  0.00000000  0.00000000  1
