# generated using pymatgen
data_Mg3(SiO3)4
_symmetry_space_group_name_H-M   'P 1'
_cell_length_a   5.35942527
_cell_length_b   5.35942527
_cell_length_c   19.32616087
_cell_angle_alpha   92.97997188
_cell_angle_beta   92.97997188
_cell_angle_gamma   119.65249319
_symmetry_Int_Tables_number   1
_chemical_formula_structural   Mg3(SiO3)4
_chemical_formula_sum   'Mg6 Si8 O24'
_cell_volume   479.82984839
_cell_formula_units_Z   2
loop_
 _symmetry_equiv_pos_site_id
 _symmetry_equiv_pos_as_xyz
  1  'x, y, z'
loop_
 _atom_site_type_symbol
 _atom_site_label
 _atom_site_symmetry_multiplicity
 _atom_site_fract_x
 _atom_site_fract_y
 _atom_site_fract_z
 _atom_site_occupancy
  Mg  Mg0  1  0.50000000  0.50000000  0.50000000  1
  Mg  Mg1  1  -0.00000000  -0.00000000  -0.00000000  1
  Mg  Mg2  1  0.17709834  0.85408899  0.50012360  1
  Mg  Mg3  1  0.64591101  0.32290166  0.99987640  1
  Mg  Mg4  1  0.82290166  0.14591101  0.49987640  1
  Mg  Mg5  1  0.35408899  0.67709834  0.00012360  1
  Si  Si6  1  0.11422278  0.11429996  0.35496023  1
  Si  Si7  1  0.38570004  0.38577722  0.14503977  1
  Si  Si8  1  0.88577722  0.88570004  0.64503977  1
  Si  Si9  1  0.61429996  0.61422278  0.85496023  1
  Si  Si10  1  0.44754617  0.78076873  0.35499169  1
  Si  Si11  1  0.71923127  0.05245383  0.14500831  1
  Si  Si12  1  0.55245383  0.21923127  0.64500831  1
  Si  Si13  1  0.28076873  0.94754617  0.85499169  1
  O  O14  1  0.14889068  0.14408185  0.44086748  1
  O  O15  1  0.35591815  0.35110932  0.05913252  1
  O  O16  1  0.85110932  0.85591815  0.55913252  1
  O  O17  1  0.64408185  0.64889068  0.94086748  1
  O  O18  1  0.48224642  0.81273635  0.44090896  1
  O  O19  1  0.68726365  0.01775358  0.05909104  1
  O  O20  1  0.51775358  0.18726365  0.55909104  1
  O  O21  1  0.31273635  0.98224642  0.94090896  1
  O  O22  1  0.83394413  0.48468844  0.45592229  1
  O  O23  1  0.01531156  0.66605587  0.04407771  1
  O  O24  1  0.16605587  0.51531156  0.54407771  1
  O  O25  1  0.98468844  0.33394413  0.95592229  1
  O  O26  1  0.27401957  0.43745873  0.32732414  1
  O  O27  1  0.06254127  0.22598043  0.17267586  1
  O  O28  1  0.72598043  0.56254127  0.67267586  1
  O  O29  1  0.93745873  0.77401957  0.82732414  1
  O  O30  1  0.77083664  0.94141590  0.32736757  1
  O  O31  1  0.55858410  0.72916336  0.17263243  1
  O  O32  1  0.22916336  0.05858410  0.67263243  1
  O  O33  1  0.44141590  0.27083664  0.82736757  1
  O  O34  1  0.26676986  0.93326103  0.32641567  1
  O  O35  1  0.56673897  0.23323014  0.17358433  1
  O  O36  1  0.73323014  0.06673897  0.67358433  1
  O  O37  1  0.43326103  0.76676986  0.82641567  1
