# generated using pymatgen
data_Mo3WS8
_symmetry_space_group_name_H-M   'P 1'
_cell_length_a   3.19147522
_cell_length_b   3.19144270
_cell_length_c   35.82707084
_cell_angle_alpha   89.99953539
_cell_angle_beta   90.00000000
_cell_angle_gamma   120.00033712
_symmetry_Int_Tables_number   1
_chemical_formula_structural   Mo3WS8
_chemical_formula_sum   'Mo3 W1 S8'
_cell_volume   316.02321452
_cell_formula_units_Z   1
loop_
 _symmetry_equiv_pos_site_id
 _symmetry_equiv_pos_as_xyz
  1  'x, y, z'
loop_
 _atom_site_type_symbol
 _atom_site_label
 _atom_site_symmetry_multiplicity
 _atom_site_fract_x
 _atom_site_fract_y
 _atom_site_fract_z
 _atom_site_occupancy
  Mo  Mo0  1  0.33327493  0.66654987  0.09389670  1
  Mo  Mo1  1  0.33332108  0.66664216  0.46964538  1
  Mo  Mo2  1  0.66669329  0.33338657  0.28177441  1
  W  W3  1  0.66669485  0.33338970  0.65755528  1
  S  S4  1  0.33336074  0.66672249  0.32548716  1
  S  S5  1  0.33336343  0.66672787  0.70145766  1
  S  S6  1  0.66662706  0.33325311  0.05022771  1
  S  S7  1  0.66665384  0.33330668  0.42599083  1
  S  S8  1  0.66662943  0.33325785  0.13759107  1
  S  S9  1  0.66664983  0.33329866  0.51333982  1
  S  S10  1  0.33336462  0.66673024  0.23812295  1
  S  S11  1  0.33336690  0.66673481  0.61365903  1
