# generated using pymatgen
data_MoWS4
_symmetry_space_group_name_H-M   'P 1'
_cell_length_a   3.19100180
_cell_length_b   3.19100246
_cell_length_c   35.84344928
_cell_angle_alpha   89.99987689
_cell_angle_beta   90.00000000
_cell_angle_gamma   119.99999311
_symmetry_Int_Tables_number   1
_chemical_formula_structural   MoWS4
_chemical_formula_sum   'Mo2 W2 S8'
_cell_volume   316.07827508
_cell_formula_units_Z   2
loop_
 _symmetry_equiv_pos_site_id
 _symmetry_equiv_pos_as_xyz
  1  'x, y, z'
loop_
 _atom_site_type_symbol
 _atom_site_label
 _atom_site_symmetry_multiplicity
 _atom_site_fract_x
 _atom_site_fract_y
 _atom_site_fract_z
 _atom_site_occupancy
  Mo  Mo0  1  0.33330881  0.66661763  0.09389722  1
  Mo  Mo1  1  0.66669119  0.33338237  0.65756078  1
  W  W2  1  0.33330524  0.66661048  0.46965954  1
  W  W3  1  0.66669476  0.33338952  0.28179846  1
  S  S4  1  0.33335064  0.66670228  0.32564428  1
  S  S5  1  0.33335448  0.66670996  0.70120936  1
  S  S6  1  0.66664552  0.33329004  0.05024864  1
  S  S7  1  0.66664936  0.33329772  0.42581372  1
  S  S8  1  0.66664721  0.33329341  0.13757785  1
  S  S9  1  0.66664658  0.33329217  0.51352637  1
  S  S10  1  0.33335342  0.66670783  0.23793163  1
  S  S11  1  0.33335279  0.66670659  0.61388015  1
