# generated using pymatgen
data_MoWS4
_symmetry_space_group_name_H-M   'P 1'
_cell_length_a   3.19175196
_cell_length_b   3.19174054
_cell_length_c   35.84706481
_cell_angle_alpha   90.00023607
_cell_angle_beta   90.00000000
_cell_angle_gamma   120.00011839
_symmetry_Int_Tables_number   1
_chemical_formula_structural   MoWS4
_chemical_formula_sum   'Mo2 W2 S8'
_cell_volume   316.25720457
_cell_formula_units_Z   2
loop_
 _symmetry_equiv_pos_site_id
 _symmetry_equiv_pos_as_xyz
  1  'x, y, z'
loop_
 _atom_site_type_symbol
 _atom_site_label
 _atom_site_symmetry_multiplicity
 _atom_site_fract_x
 _atom_site_fract_y
 _atom_site_fract_z
 _atom_site_occupancy
  Mo  Mo0  1  0.33330919  0.66661838  0.09390635  1
  Mo  Mo1  1  0.66669223  0.33338446  0.28178057  1
  W  W2  1  0.33330791  0.66661582  0.46963028  1
  W  W3  1  0.66669393  0.33338786  0.65755024  1
  S  S4  1  0.33335269  0.66670639  0.32546961  1
  S  S5  1  0.33335530  0.66671160  0.70143797  1
  S  S6  1  0.66664599  0.33329099  0.05024811  1
  S  S7  1  0.66664703  0.33329305  0.42581230  1
  S  S8  1  0.66664747  0.33329394  0.13758891  1
  S  S9  1  0.66664340  0.33328580  0.51352988  1
  S  S10  1  0.33335255  0.66670610  0.23813013  1
  S  S11  1  0.33335230  0.66670560  0.61366365  1
