# generated using pymatgen
data_MoW3S8
_symmetry_space_group_name_H-M   'P 1'
_cell_length_a   3.19101683
_cell_length_b   3.19101541
_cell_length_c   35.85175866
_cell_angle_alpha   90.00033145
_cell_angle_beta   90.00002692
_cell_angle_gamma   119.99995514
_symmetry_Int_Tables_number   1
_chemical_formula_structural   MoW3S8
_chemical_formula_sum   'Mo1 W3 S8'
_cell_volume   316.15444253
_cell_formula_units_Z   1
loop_
 _symmetry_equiv_pos_site_id
 _symmetry_equiv_pos_as_xyz
  1  'x, y, z'
loop_
 _atom_site_type_symbol
 _atom_site_label
 _atom_site_symmetry_multiplicity
 _atom_site_fract_x
 _atom_site_fract_y
 _atom_site_fract_z
 _atom_site_occupancy
  Mo  Mo0  1  0.33330412  0.66660721  0.09390005  1
  W  W1  1  0.33330937  0.66661743  0.46965689  1
  W  W2  1  0.66669252  0.33338569  0.28178855  1
  W  W3  1  0.66669248  0.33338563  0.65755973  1
  S  S4  1  0.33335315  0.66670617  0.32565314  1
  S  S5  1  0.33335389  0.66670899  0.70141591  1
  S  S6  1  0.66664250  0.33328451  0.05025371  1
  S  S7  1  0.66664773  0.33329499  0.42580967  1
  S  S8  1  0.66664806  0.33329670  0.13757316  1
  S  S9  1  0.66664636  0.33329187  0.51351973  1
  S  S10  1  0.33335448  0.66670834  0.23793828  1
  S  S11  1  0.33335534  0.66671247  0.61367918  1
