# generated using pymatgen
data_Mo2WS6
_symmetry_space_group_name_H-M   'P 1'
_cell_length_a   3.18793931
_cell_length_b   3.18779422
_cell_length_c   29.10050022
_cell_angle_alpha   89.99994354
_cell_angle_beta   90.00000000
_cell_angle_gamma   120.00150570
_symmetry_Int_Tables_number   1
_chemical_formula_structural   Mo2WS6
_chemical_formula_sum   'Mo2 W1 S6'
_cell_volume   256.10898826
_cell_formula_units_Z   1
loop_
 _symmetry_equiv_pos_site_id
 _symmetry_equiv_pos_as_xyz
  1  'x, y, z'
loop_
 _atom_site_type_symbol
 _atom_site_label
 _atom_site_symmetry_multiplicity
 _atom_site_fract_x
 _atom_site_fract_y
 _atom_site_fract_z
 _atom_site_occupancy
  Mo  Mo0  1  0.33331293  0.66662587  0.11565958  1
  Mo  Mo1  1  0.66668664  0.33337329  0.34698212  1
  W  W2  1  0.33331419  0.66662838  0.57830766  1
  S  S3  1  0.33335496  0.66671092  0.40083187  1
  S  S4  1  0.66664348  0.33328597  0.06177186  1
  S  S5  1  0.66664220  0.33328340  0.52422910  1
  S  S6  1  0.66664461  0.33328821  0.16951753  1
  S  S7  1  0.66664315  0.33328530  0.63241365  1
  S  S8  1  0.33335883  0.66671867  0.29312764  1
