# generated using pymatgen
data_MoWS4
_symmetry_space_group_name_H-M   'P 1'
_cell_length_a   3.19108162
_cell_length_b   3.19109492
_cell_length_c   35.83878565
_cell_angle_alpha   90.00008489
_cell_angle_beta   90.00000000
_cell_angle_gamma   119.99986209
_symmetry_Int_Tables_number   1
_chemical_formula_structural   MoWS4
_chemical_formula_sum   'Mo2 W2 S8'
_cell_volume   316.05462977
_cell_formula_units_Z   2
loop_
 _symmetry_equiv_pos_site_id
 _symmetry_equiv_pos_as_xyz
  1  'x, y, z'
loop_
 _atom_site_type_symbol
 _atom_site_label
 _atom_site_symmetry_multiplicity
 _atom_site_fract_x
 _atom_site_fract_y
 _atom_site_fract_z
 _atom_site_occupancy
  Mo  Mo0  1  0.33330876  0.66661751  0.09389264  1
  Mo  Mo1  1  0.33330824  0.66661648  0.46965532  1
  W  W2  1  0.66669566  0.33339132  0.28178439  1
  W  W3  1  0.66669240  0.33338480  0.65755242  1
  S  S4  1  0.33335028  0.66670156  0.32568536  1
  S  S5  1  0.33335141  0.66670382  0.70143276  1
  S  S6  1  0.66664771  0.33329442  0.05025025  1
  S  S7  1  0.66664847  0.33329593  0.42601157  1
  S  S8  1  0.66664719  0.33329338  0.13759537  1
  S  S9  1  0.66664739  0.33329378  0.51330454  1
  S  S10  1  0.33335068  0.66670236  0.23793209  1
  S  S11  1  0.33335182  0.66670463  0.61365129  1
