# generated using pymatgen
data_Ti2H2CSe4Cl16O5
_symmetry_space_group_name_H-M   'P 1'
_cell_length_a   8.89928667
_cell_length_b   13.23239968
_cell_length_c   14.10304234
_cell_angle_alpha   96.77192426
_cell_angle_beta   90.00000000
_cell_angle_gamma   90.00000000
_symmetry_Int_Tables_number   1
_chemical_formula_structural   Ti2H2CSe4Cl16O5
_chemical_formula_sum   'Ti4 H4 C2 Se8 Cl32 O10'
_cell_volume   1649.17257050
_cell_formula_units_Z   2
loop_
 _symmetry_equiv_pos_site_id
 _symmetry_equiv_pos_as_xyz
  1  'x, y, z'
loop_
 _atom_site_type_symbol
 _atom_site_label
 _atom_site_symmetry_multiplicity
 _atom_site_fract_x
 _atom_site_fract_y
 _atom_site_fract_z
 _atom_site_occupancy
  Ti  Ti0  1  0.00243589  0.88597415  0.27499563  1
  Ti  Ti1  1  0.99756411  0.11402585  0.72500437  1
  Ti  Ti2  1  0.00243589  0.61402585  0.22500437  1
  Ti  Ti3  1  0.99756411  0.38597415  0.77499563  1
  H  H4  1  0.14769268  0.31366492  0.23185594  1
  H  H5  1  0.85230732  0.68633508  0.76814406  1
  H  H6  1  0.14769268  0.18633508  0.26814406  1
  H  H7  1  0.85230732  0.81366492  0.73185594  1
  C  C8  1  0.21626869  0.25000000  0.25000000  1
  C  C9  1  0.78373131  0.75000000  0.75000000  1
  Se  Se10  1  0.73347529  0.86109061  0.11050060  1
  Se  Se11  1  0.26652471  0.13890939  0.88949940  1
  Se  Se12  1  0.73347529  0.63890939  0.38949940  1
  Se  Se13  1  0.26652471  0.36109061  0.61050060  1
  Se  Se14  1  0.83230931  0.08031177  0.41172919  1
  Se  Se15  1  0.16769069  0.91968823  0.58827081  1
  Se  Se16  1  0.83230931  0.41968823  0.08827081  1
  Se  Se17  1  0.16769069  0.58031177  0.91172919  1
  Cl  Cl18  1  0.88828932  0.86490161  0.42953147  1
  Cl  Cl19  1  0.11171068  0.13509839  0.57046853  1
  Cl  Cl20  1  0.88828932  0.63509839  0.07046853  1
  Cl  Cl21  1  0.11171068  0.36490161  0.92953147  1
  Cl  Cl22  1  0.22909382  0.92835410  0.34006610  1
  Cl  Cl23  1  0.77090618  0.07164590  0.65993390  1
  Cl  Cl24  1  0.22909382  0.57164590  0.15993390  1
  Cl  Cl25  1  0.77090618  0.42835410  0.84006610  1
  Cl  Cl26  1  0.05240397  0.93053611  0.12483728  1
  Cl  Cl27  1  0.94759603  0.06946389  0.87516272  1
  Cl  Cl28  1  0.05240397  0.56946389  0.37516272  1
  Cl  Cl29  1  0.94759603  0.43053611  0.62483728  1
  Cl  Cl30  1  0.51169327  0.78834298  0.11231510  1
  Cl  Cl31  1  0.48830673  0.21165702  0.88768490  1
  Cl  Cl32  1  0.51169327  0.71165702  0.38768490  1
  Cl  Cl33  1  0.48830673  0.28834298  0.61231510  1
  Cl  Cl34  1  0.64982270  0.01638860  0.09775427  1
  Cl  Cl35  1  0.35017730  0.98361140  0.90224573  1
  Cl  Cl36  1  0.64982270  0.48361140  0.40224573  1
  Cl  Cl37  1  0.35017730  0.51638860  0.59775427  1
  Cl  Cl38  1  0.59307384  0.05024899  0.37822282  1
  Cl  Cl39  1  0.40692616  0.94975101  0.62177718  1
  Cl  Cl40  1  0.59307384  0.44975101  0.12177718  1
  Cl  Cl41  1  0.40692616  0.55024899  0.87822282  1
  Cl  Cl42  1  0.82932052  0.24475602  0.39614686  1
  Cl  Cl43  1  0.17067948  0.75524398  0.60385314  1
  Cl  Cl44  1  0.82932052  0.25524398  0.10385314  1
  Cl  Cl45  1  0.17067948  0.74475602  0.89614686  1
  Cl  Cl46  1  0.32847342  0.29429498  0.35059928  1
  Cl  Cl47  1  0.67152658  0.70570502  0.64940072  1
  Cl  Cl48  1  0.32847342  0.20570502  0.14940072  1
  Cl  Cl49  1  0.67152658  0.79429498  0.85059928  1
  O  O50  1  0.03354736  0.75000000  0.25000000  1
  O  O51  1  0.96645264  0.25000000  0.75000000  1
  O  O52  1  0.77744696  0.86441871  0.22646936  1
  O  O53  1  0.22255304  0.13558129  0.77353064  1
  O  O54  1  0.77744696  0.63558129  0.27353064  1
  O  O55  1  0.22255304  0.36441871  0.72646936  1
  O  O56  1  0.92511261  0.03990666  0.31090922  1
  O  O57  1  0.07488739  0.96009334  0.68909078  1
  O  O58  1  0.92511261  0.46009334  0.18909078  1
  O  O59  1  0.07488739  0.53990666  0.81090922  1
