# generated using pymatgen
data_Mo3WS8
_symmetry_space_group_name_H-M   'P 1'
_cell_length_a   3.18731341
_cell_length_b   3.18718755
_cell_length_c   35.84580249
_cell_angle_alpha   89.99991935
_cell_angle_beta   90.00000000
_cell_angle_gamma   120.00130624
_symmetry_Int_Tables_number   1
_chemical_formula_structural   Mo3WS8
_chemical_formula_sum   'Mo3 W1 S8'
_cell_volume   315.35201646
_cell_formula_units_Z   1
loop_
 _symmetry_equiv_pos_site_id
 _symmetry_equiv_pos_as_xyz
  1  'x, y, z'
loop_
 _atom_site_type_symbol
 _atom_site_label
 _atom_site_symmetry_multiplicity
 _atom_site_fract_x
 _atom_site_fract_y
 _atom_site_fract_z
 _atom_site_occupancy
  Mo  Mo0  1  0.33331619  0.66663238  0.09392843  1
  Mo  Mo1  1  0.66668556  0.33337112  0.28180056  1
  Mo  Mo2  1  0.66668328  0.33336657  0.65753317  1
  W  W3  1  0.33331688  0.66663376  0.46966372  1
  S  S4  1  0.33335716  0.66671532  0.32549973  1
  S  S5  1  0.33335668  0.66671435  0.70125676  1
  S  S6  1  0.66664330  0.33328560  0.05020291  1
  S  S7  1  0.66664196  0.33328292  0.42577171  1
  S  S8  1  0.66664355  0.33328610  0.13764167  1
  S  S9  1  0.66664133  0.33328166  0.51353471  1
  S  S10  1  0.33335693  0.66671487  0.23808699  1
  S  S11  1  0.33335718  0.66671535  0.61382765  1
