# generated using pymatgen
data_MgTiMo(PO4)3
_symmetry_space_group_name_H-M   'P 1'
_cell_length_a   8.65866945
_cell_length_b   8.65866979
_cell_length_c   8.65867014
_cell_angle_alpha   60.60775912
_cell_angle_beta   60.60776122
_cell_angle_gamma   60.60776125
_symmetry_Int_Tables_number   1
_chemical_formula_structural   MgTiMo(PO4)3
_chemical_formula_sum   'Mg2 Ti2 Mo2 P6 O24'
_cell_volume   465.32775587
_cell_formula_units_Z   2
loop_
 _symmetry_equiv_pos_site_id
 _symmetry_equiv_pos_as_xyz
  1  'x, y, z'
loop_
 _atom_site_type_symbol
 _atom_site_label
 _atom_site_symmetry_multiplicity
 _atom_site_fract_x
 _atom_site_fract_y
 _atom_site_fract_z
 _atom_site_occupancy
  Mg  Mg0  1  0.00097707  0.00097707  0.00097707  1
  Mg  Mg1  1  0.50097707  0.50097707  0.50097707  1
  Ti  Ti2  1  0.14591943  0.14591943  0.14591943  1
  Ti  Ti3  1  0.64591943  0.64591943  0.64591943  1
  Mo  Mo4  1  0.35779489  0.35779489  0.35779489  1
  Mo  Mo5  1  0.85779489  0.85779489  0.85779489  1
  P  P6  1  0.04362304  0.44869317  0.75727806  1
  P  P7  1  0.44869317  0.75727806  0.04362304  1
  P  P8  1  0.75727806  0.04362304  0.44869317  1
  P  P9  1  0.25727806  0.94869317  0.54362304  1
  P  P10  1  0.54362304  0.25727806  0.94869317  1
  P  P11  1  0.94869317  0.54362304  0.25727806  1
  O  O12  1  0.09603933  0.50487263  0.32773939  1
  O  O13  1  0.32773939  0.09603933  0.50487263  1
  O  O14  1  0.05276196  0.25327256  0.91492148  1
  O  O15  1  0.50487263  0.32773939  0.09603933  1
  O  O16  1  0.00487263  0.59603933  0.82773939  1
  O  O17  1  0.23919634  0.43478772  0.60115986  1
  O  O18  1  0.25327256  0.91492148  0.05276196  1
  O  O19  1  0.43478772  0.60115986  0.23919634  1
  O  O20  1  0.19005319  0.00173606  0.37917081  1
  O  O21  1  0.60115986  0.23919634  0.43478772  1
  O  O22  1  0.10115986  0.93478772  0.73919634  1
  O  O23  1  0.37917081  0.19005319  0.00173606  1
  O  O24  1  0.59603933  0.82773939  0.00487263  1
  O  O25  1  0.91492148  0.05276196  0.25327256  1
  O  O26  1  0.41492148  0.75327256  0.55276196  1
  O  O27  1  0.82773939  0.00487263  0.59603933  1
  O  O28  1  0.55276196  0.41492148  0.75327256  1
  O  O29  1  0.73919634  0.10115986  0.93478772  1
  O  O30  1  0.75327256  0.55276196  0.41492148  1
  O  O31  1  0.00173606  0.37917081  0.19005319  1
  O  O32  1  0.50173606  0.69005319  0.87917081  1
  O  O33  1  0.93478772  0.73919634  0.10115986  1
  O  O34  1  0.69005319  0.87917081  0.50173606  1
  O  O35  1  0.87917081  0.50173606  0.69005319  1
