# generated using pymatgen
data_CaAg3P3O13
_symmetry_space_group_name_H-M   'P 1'
_cell_length_a   6.63268579
_cell_length_b   7.54795383
_cell_length_c   10.80565584
_cell_angle_alpha   99.21414287
_cell_angle_beta   90.00000000
_cell_angle_gamma   90.00000000
_symmetry_Int_Tables_number   1
_chemical_formula_structural   CaAg3P3O13
_chemical_formula_sum   'Ca2 Ag6 P6 O26'
_cell_volume   533.98556955
_cell_formula_units_Z   2
loop_
 _symmetry_equiv_pos_site_id
 _symmetry_equiv_pos_as_xyz
  1  'x, y, z'
loop_
 _atom_site_type_symbol
 _atom_site_label
 _atom_site_symmetry_multiplicity
 _atom_site_fract_x
 _atom_site_fract_y
 _atom_site_fract_z
 _atom_site_occupancy
  Ca  Ca0  1  0.75000000  0.66473725  0.18984614  1
  Ca  Ca1  1  0.25000000  0.33526275  0.81015386  1
  Ag  Ag2  1  0.25000000  0.28356864  0.24815494  1
  Ag  Ag3  1  0.75000000  0.71643136  0.75184506  1
  Ag  Ag4  1  0.25000000  0.74186068  0.41758850  1
  Ag  Ag5  1  0.50000000  -0.00000000  0.00000000  1
  Ag  Ag6  1  0.75000000  0.25813932  0.58241150  1
  Ag  Ag7  1  -0.00000000  -0.00000000  0.00000000  1
  P  P8  1  0.25000000  0.23802361  0.50831690  1
  P  P9  1  0.75000000  0.76197639  0.49168310  1
  P  P10  1  0.25000000  0.77642250  0.73150547  1
  P  P11  1  0.75000000  0.22357750  0.26849453  1
  P  P12  1  0.75000000  0.31738159  0.89720343  1
  P  P13  1  0.25000000  0.68261841  0.10279657  1
  O  O14  1  0.75000000  0.39496050  0.77085737  1
  O  O15  1  0.57229095  0.74509778  0.39570130  1
  O  O16  1  0.25000000  0.85006586  0.60491043  1
  O  O17  1  0.55512234  0.19892265  0.88827625  1
  O  O18  1  0.75000000  0.59773865  0.56512748  1
  O  O19  1  0.75000000  0.85254530  0.93203371  1
  O  O20  1  0.25000000  0.40226135  0.43487252  1
  O  O21  1  0.05512234  0.80107735  0.11172375  1
  O  O22  1  0.25000000  0.07516475  0.40407987  1
  O  O23  1  0.75000000  0.92483525  0.59592013  1
  O  O24  1  0.07056305  0.65127020  0.75141040  1
  O  O25  1  0.25000000  0.14745470  0.06796629  1
  O  O26  1  0.57056305  0.34872980  0.24858960  1
  O  O27  1  0.75000000  0.46683982  0.00681776  1
  O  O28  1  0.75000000  0.14993414  0.39508957  1
  O  O29  1  0.44487766  0.80107735  0.11172375  1
  O  O30  1  0.92770905  0.74509778  0.39570130  1
  O  O31  1  0.42770905  0.25490222  0.60429870  1
  O  O32  1  0.42943695  0.65127020  0.75141040  1
  O  O33  1  0.25000000  0.60503950  0.22914263  1
  O  O34  1  0.75000000  0.04660737  0.17612230  1
  O  O35  1  0.25000000  0.95339263  0.82387770  1
  O  O36  1  0.92943695  0.34872980  0.24858960  1
  O  O37  1  0.94487766  0.19892265  0.88827625  1
  O  O38  1  0.07229095  0.25490222  0.60429870  1
  O  O39  1  0.25000000  0.53316018  0.99318224  1
