# generated using pymatgen
data_Mn2Sb2H8S5N4
_symmetry_space_group_name_H-M   'P 1'
_cell_length_a   8.93081910
_cell_length_b   9.06493721
_cell_length_c   9.02584375
_cell_angle_alpha   69.33124855
_cell_angle_beta   86.11517189
_cell_angle_gamma   64.78248276
_symmetry_Int_Tables_number   1
_chemical_formula_structural   Mn2Sb2H8S5N4
_chemical_formula_sum   'Mn4 Sb4 H16 S10 N8'
_cell_volume   615.56650191
_cell_formula_units_Z   2
loop_
 _symmetry_equiv_pos_site_id
 _symmetry_equiv_pos_as_xyz
  1  'x, y, z'
loop_
 _atom_site_type_symbol
 _atom_site_label
 _atom_site_symmetry_multiplicity
 _atom_site_fract_x
 _atom_site_fract_y
 _atom_site_fract_z
 _atom_site_occupancy
  Mn  Mn0  1  0.11729865  0.81046926  0.95606743  1
  Mn  Mn1  1  0.88270135  0.18953074  0.04393257  1
  Mn  Mn2  1  0.45635382  0.82066138  0.59819324  1
  Mn  Mn3  1  0.54364618  0.17933862  0.40180676  1
  Sb  Sb4  1  0.18085381  0.23040428  0.69846204  1
  Sb  Sb5  1  0.81914619  0.76959572  0.30153796  1
  Sb  Sb6  1  0.65876807  0.99803720  0.84363502  1
  Sb  Sb7  1  0.34123193  0.00196280  0.15636498  1
  H  H8  1  0.39260052  0.44876969  0.03567007  1
  H  H9  1  0.60739948  0.55123031  0.96432993  1
  H  H10  1  0.22740530  0.46044510  0.12394522  1
  H  H11  1  0.77259470  0.53955490  0.87605478  1
  H  H12  1  0.18699092  0.75310136  0.51086359  1
  H  H13  1  0.81300908  0.24689864  0.48913641  1
  H  H14  1  0.13405348  0.91792044  0.57121926  1
  H  H15  1  0.86594652  0.08207956  0.42878074  1
  H  H16  1  0.53626979  0.45849436  0.76733968  1
  H  H17  1  0.46373021  0.54150564  0.23266032  1
  H  H18  1  0.68915371  0.48633435  0.67957928  1
  H  H19  1  0.31084629  0.51366565  0.32042072  1
  H  H20  1  0.02278138  0.72570362  0.71815538  1
  H  H21  1  0.97721862  0.27429638  0.28184462  1
  H  H22  1  0.21174767  0.57104863  0.77896262  1
  H  H23  1  0.78825233  0.42895137  0.22103738  1
  S  S24  1  0.10721388  0.31029013  0.93874168  1
  S  S25  1  0.89278612  0.68970987  0.06125832  1
  S  S26  1  0.41986788  0.30959223  0.63556666  1
  S  S27  1  0.58013212  0.69040777  0.36443334  1
  S  S28  1  0.34135285  0.91081022  0.83657011  1
  S  S29  1  0.65864715  0.08918978  0.16342989  1
  S  S30  1  0.87802739  0.10735293  0.79781398  1
  S  S31  1  0.12197261  0.89264707  0.20218602  1
  S  S32  1  0.71185013  0.88040801  0.62243308  1
  S  S33  1  0.28814987  0.11959199  0.37756692  1
  N  N34  1  0.30852025  0.51805961  0.09716643  1
  N  N35  1  0.69147975  0.48194039  0.90283357  1
  N  N36  1  0.20595318  0.78587752  0.60400466  1
  N  N37  1  0.79404682  0.21412248  0.39599534  1
  N  N38  1  0.60053032  0.53379014  0.75027921  1
  N  N39  1  0.39946968  0.46620986  0.24972079  1
  N  N40  1  0.14261104  0.70380966  0.74641779  1
  N  N41  1  0.85738896  0.29619034  0.25358221  1
