# generated using pymatgen
data_RbBSe3
_symmetry_space_group_name_H-M   'P 1'
_cell_length_a   6.28383902
_cell_length_b   7.50395859
_cell_length_c   12.70116287
_cell_angle_alpha   90.00000000
_cell_angle_beta   90.00000000
_cell_angle_gamma   104.65736614
_symmetry_Int_Tables_number   1
_chemical_formula_structural   RbBSe3
_chemical_formula_sum   'Rb4 B4 Se12'
_cell_volume   579.41578817
_cell_formula_units_Z   4
loop_
 _symmetry_equiv_pos_site_id
 _symmetry_equiv_pos_as_xyz
  1  'x, y, z'
loop_
 _atom_site_type_symbol
 _atom_site_label
 _atom_site_symmetry_multiplicity
 _atom_site_fract_x
 _atom_site_fract_y
 _atom_site_fract_z
 _atom_site_occupancy
  B  B0  1  0.69049040  0.70597714  0.23191232  1
  B  B1  1  0.80950960  0.29402286  0.73191232  1
  B  B2  1  0.30950960  0.29402286  0.76808768  1
  B  B3  1  0.19049040  0.70597714  0.26808768  1
  Se  Se4  1  0.18314715  0.93966100  0.17934282  1
  Se  Se5  1  0.31685285  0.06033900  0.67934282  1
  Se  Se6  1  0.81685285  0.06033900  0.82065718  1
  Se  Se7  1  0.68314715  0.93966100  0.32065718  1
  Se  Se8  1  0.34114098  0.80398317  0.40764814  1
  Se  Se9  1  0.15885902  0.19601683  0.90764814  1
  Se  Se10  1  0.65885902  0.19601683  0.59235186  1
  Se  Se11  1  0.84114098  0.80398317  0.09235186  1
  Se  Se12  1  0.37994671  0.54775029  0.19663680  1
  Se  Se13  1  0.12005329  0.45224971  0.69663680  1
  Se  Se14  1  0.62005329  0.45224971  0.80336320  1
  Se  Se15  1  0.87994671  0.54775029  0.30336320  1
  Rb  Rb16  1  0.70986460  0.25809463  0.07781128  1
  Rb  Rb17  1  0.79013540  0.74190537  0.57781128  1
  Rb  Rb18  1  0.29013540  0.74190537  0.92218872  1
  Rb  Rb19  1  0.20986460  0.25809463  0.42218872  1
