# generated using pymatgen
data_Ba(NiAs)2
_symmetry_space_group_name_H-M   'P 1'
_cell_length_a   4.18833574
_cell_length_b   4.17352166
_cell_length_c   6.47709917
_cell_angle_alpha   108.76168477
_cell_angle_beta   108.25147846
_cell_angle_gamma   90.04094807
_symmetry_Int_Tables_number   1
_chemical_formula_structural   Ba(NiAs)2
_chemical_formula_sum   'Ba1 Ni2 As2'
_cell_volume   101.16109084
_cell_formula_units_Z   1
loop_
 _symmetry_equiv_pos_site_id
 _symmetry_equiv_pos_as_xyz
  1  'x, y, z'
loop_
 _atom_site_type_symbol
 _atom_site_label
 _atom_site_symmetry_multiplicity
 _atom_site_fract_x
 _atom_site_fract_y
 _atom_site_fract_z
 _atom_site_occupancy
  Ba  Ba0  1  0.00000000  0.00000000  0.00000000  1
  Ni  Ni1  1  0.77889484  0.25163651  0.50050109  1
  Ni  Ni2  1  0.22110516  0.74836349  0.49949891  1
  As  As3  1  0.63395538  0.65511821  0.30964318  1
  As  As4  1  0.36604462  0.34488179  0.69035682  1
