# generated using pymatgen
data_Zn4Ni5(TeO6)3
_symmetry_space_group_name_H-M   'P 1'
_cell_length_a   8.64851739
_cell_length_b   8.64851732
_cell_length_c   10.40095973
_cell_angle_alpha   85.89018875
_cell_angle_beta   85.89018859
_cell_angle_gamma   61.87809170
_symmetry_Int_Tables_number   1
_chemical_formula_structural   Zn4Ni5(TeO6)3
_chemical_formula_sum   'Zn8 Ni10 Te6 O36'
_cell_volume   683.71904856
_cell_formula_units_Z   2
loop_
 _symmetry_equiv_pos_site_id
 _symmetry_equiv_pos_as_xyz
  1  'x, y, z'
loop_
 _atom_site_type_symbol
 _atom_site_label
 _atom_site_symmetry_multiplicity
 _atom_site_fract_x
 _atom_site_fract_y
 _atom_site_fract_z
 _atom_site_occupancy
  Zn  Zn0  1  0.86214190  0.54009519  0.32615733  1
  Zn  Zn1  1  0.48039763  0.55957645  0.20645685  1
  Zn  Zn2  1  0.45990481  0.13785810  0.67384267  1
  Zn  Zn3  1  0.44042355  0.51960237  0.79354315  1
  Zn  Zn4  1  0.16786641  0.87226552  0.70622379  1
  Zn  Zn5  1  0.14843789  0.25387710  0.82631860  1
  Zn  Zn6  1  0.74612290  0.85156211  0.17368140  1
  Zn  Zn7  1  0.12773448  0.83213359  0.29377621  1
  Ni  Ni8  1  0.79610619  0.50139896  0.98198653  1
  Ni  Ni9  1  0.10945379  0.18786199  0.48165733  1
  Ni  Ni10  1  0.32936384  0.33892721  0.30001169  1
  Ni  Ni11  1  0.94727434  0.72106348  0.80005518  1
  Ni  Ni12  1  0.66107279  0.67063616  0.69998831  1
  Ni  Ni13  1  0.98138725  0.01861275  0.00000000  1
  Ni  Ni14  1  0.62750244  0.37249756  0.50000000  1
  Ni  Ni15  1  0.27893652  0.05272666  0.19994482  1
  Ni  Ni16  1  0.81213801  0.89054621  0.51834267  1
  Ni  Ni17  1  0.49860104  0.20389381  0.01801347  1
  Te  Te18  1  0.46273150  0.86107950  0.95164392  1
  Te  Te19  1  0.80404049  0.19577438  0.24988465  1
  Te  Te20  1  0.80422562  0.19595951  0.75011535  1
  Te  Te21  1  0.46947284  0.85419789  0.45150011  1
  Te  Te22  1  0.14580211  0.53052716  0.54849989  1
  Te  Te23  1  0.13892050  0.53726850  0.04835608  1
  O  O24  1  0.40126681  0.09308533  0.86204714  1
  O  O25  1  0.71712816  0.43641376  0.81174803  1
  O  O26  1  0.56265385  0.62890704  0.54371531  1
  O  O27  1  0.72912213  0.12794764  0.41409807  1
  O  O28  1  0.56358624  0.28287184  0.18825197  1
  O  O29  1  0.87205236  0.27087787  0.58590193  1
  O  O30  1  0.38265448  0.79147277  0.30372457  1
  O  O31  1  0.04137118  0.09997530  0.81788553  1
  O  O32  1  0.56718296  0.29156415  0.68216795  1
  O  O33  1  0.08083126  0.42515447  0.40994799  1
  O  O34  1  0.55144037  0.63918885  0.04702703  1
  O  O35  1  0.52735995  0.96660423  0.09001025  1
  O  O36  1  0.89122820  0.95535270  0.68840819  1
  O  O37  1  0.70084436  0.75321452  0.86925137  1
  O  O38  1  0.36081115  0.44855963  0.95297297  1
  O  O39  1  0.22541019  0.60042144  0.19631831  1
  O  O40  1  0.05664553  0.75258038  0.45305818  1
  O  O41  1  0.24678548  0.29915564  0.13074863  1
  O  O42  1  0.37109296  0.43734615  0.45628469  1
  O  O43  1  0.24741962  0.94335447  0.54694182  1
  O  O44  1  0.70115734  0.79283794  0.36188628  1
  O  O45  1  0.90736614  0.63856872  0.63079412  1
  O  O46  1  0.90002470  0.95862882  0.18211447  1
  O  O47  1  0.39957756  0.77458981  0.80368169  1
  O  O48  1  0.04546453  0.76286058  0.95627817  1
  O  O49  1  0.73645391  0.12069938  0.91430544  1
  O  O50  1  0.03339577  0.47264005  0.90998975  1
  O  O51  1  0.20852723  0.61734552  0.69627543  1
  O  O52  1  0.04464730  0.10877180  0.31159181  1
  O  O53  1  0.36143128  0.09263386  0.36920588  1
  O  O54  1  0.20716206  0.29884266  0.63811372  1
  O  O55  1  0.87930062  0.26354609  0.08569456  1
  O  O56  1  0.70843585  0.43281704  0.31783205  1
  O  O57  1  0.57484553  0.91916874  0.59005201  1
  O  O58  1  0.23713942  0.95453547  0.04372183  1
  O  O59  1  0.90691467  0.59873319  0.13795286  1
