# generated using pymatgen
data_MoWS4
_symmetry_space_group_name_H-M   'P 1'
_cell_length_a   3.18969602
_cell_length_b   3.18961925
_cell_length_c   35.79230946
_cell_angle_alpha   89.99991260
_cell_angle_beta   90.00000000
_cell_angle_gamma   120.00079616
_symmetry_Int_Tables_number   1
_chemical_formula_structural   MoWS4
_chemical_formula_sum   'Mo2 W2 S8'
_cell_volume   315.35884018
_cell_formula_units_Z   2
loop_
 _symmetry_equiv_pos_site_id
 _symmetry_equiv_pos_as_xyz
  1  'x, y, z'
loop_
 _atom_site_type_symbol
 _atom_site_label
 _atom_site_symmetry_multiplicity
 _atom_site_fract_x
 _atom_site_fract_y
 _atom_site_fract_z
 _atom_site_occupancy
  Mo  Mo0  1  0.33330682  0.66661364  0.46964932  1
  Mo  Mo1  1  0.66669318  0.33338636  0.28180868  1
  W  W2  1  0.33331015  0.66662031  0.09392069  1
  W  W3  1  0.66668985  0.33337969  0.65753731  1
  S  S4  1  0.33335398  0.66670896  0.32553409  1
  S  S5  1  0.33335433  0.66670967  0.70148399  1
  S  S6  1  0.66664567  0.33329033  0.04997401  1
  S  S7  1  0.66664602  0.33329104  0.42592391  1
  S  S8  1  0.66664610  0.33329120  0.13785834  1
  S  S9  1  0.66664521  0.33328942  0.51338932  1
  S  S10  1  0.33335479  0.66671058  0.23806868  1
  S  S11  1  0.33335390  0.66670880  0.61359966  1
