# generated using pymatgen
data_MoWSe4
_symmetry_space_group_name_H-M   'P 1'
_cell_length_a   3.32285309
_cell_length_b   3.32275732
_cell_length_c   37.85055606
_cell_angle_alpha   90.00054060
_cell_angle_beta   90.00000000
_cell_angle_gamma   120.00095339
_symmetry_Int_Tables_number   1
_chemical_formula_structural   MoWSe4
_chemical_formula_sum   'Mo2 W2 Se8'
_cell_volume   361.91658628
_cell_formula_units_Z   2
loop_
 _symmetry_equiv_pos_site_id
 _symmetry_equiv_pos_as_xyz
  1  'x, y, z'
loop_
 _atom_site_type_symbol
 _atom_site_label
 _atom_site_symmetry_multiplicity
 _atom_site_fract_x
 _atom_site_fract_y
 _atom_site_fract_z
 _atom_site_occupancy
  Mo  Mo0  1  0.33330642  0.66661283  0.09392027  1
  Mo  Mo1  1  0.66669358  0.33338717  0.65753773  1
  W  W2  1  0.33331180  0.66662361  0.46965649  1
  W  W3  1  0.66668820  0.33337639  0.28180151  1
  Se  Se4  1  0.33335777  0.66671655  0.32630245  1
  Se  Se5  1  0.33335965  0.66672031  0.70181970  1
  Se  Se6  1  0.66664035  0.33327969  0.04963830  1
  Se  Se7  1  0.66664223  0.33328345  0.42515555  1
  Se  Se8  1  0.66663435  0.33326771  0.13821392  1
  Se  Se9  1  0.66664798  0.33329495  0.51416018  1
  Se  Se10  1  0.33335202  0.66670505  0.23729782  1
  Se  Se11  1  0.33336565  0.66673229  0.61324408  1
