# generated using pymatgen
data_MoW3S8
_symmetry_space_group_name_H-M   'P 1'
_cell_length_a   3.19106105
_cell_length_b   3.19107083
_cell_length_c   35.84507177
_cell_angle_alpha   90.00009245
_cell_angle_beta   90.00000000
_cell_angle_gamma   119.99989852
_symmetry_Int_Tables_number   1
_chemical_formula_structural   MoW3S8
_chemical_formula_sum   'Mo1 W3 S8'
_cell_volume   316.10552534
_cell_formula_units_Z   1
loop_
 _symmetry_equiv_pos_site_id
 _symmetry_equiv_pos_as_xyz
  1  'x, y, z'
loop_
 _atom_site_type_symbol
 _atom_site_label
 _atom_site_symmetry_multiplicity
 _atom_site_fract_x
 _atom_site_fract_y
 _atom_site_fract_z
 _atom_site_occupancy
  Mo  Mo0  1  0.66669249  0.33338498  0.28181072  1
  W  W1  1  0.33330711  0.66661421  0.09390813  1
  W  W2  1  0.33330711  0.66661421  0.46966360  1
  W  W3  1  0.66669200  0.33338399  0.65755167  1
  S  S4  1  0.33335237  0.66670573  0.32544781  1
  S  S5  1  0.33335272  0.66670643  0.70141243  1
  S  S6  1  0.66664774  0.33329448  0.05003089  1
  S  S7  1  0.66664774  0.33329447  0.42580906  1
  S  S8  1  0.66664706  0.33329312  0.13778917  1
  S  S9  1  0.66664704  0.33329308  0.51350475  1
  S  S10  1  0.33335293  0.66670685  0.23814091  1
  S  S11  1  0.33335372  0.66670843  0.61367886  1
