# generated using pymatgen
data_Te2Mo
_symmetry_space_group_name_H-M   'P 1'
_cell_length_a   3.55871100
_cell_length_b   3.55871064
_cell_length_c   40.69329000
_cell_angle_alpha   90.00000000
_cell_angle_beta   90.00000000
_cell_angle_gamma   119.99999408
_symmetry_Int_Tables_number   1
_chemical_formula_structural   Te2Mo
_chemical_formula_sum   'Te8 Mo4'
_cell_volume   446.31230243
_cell_formula_units_Z   4
loop_
 _symmetry_equiv_pos_site_id
 _symmetry_equiv_pos_as_xyz
  1  'x, y, z'
loop_
 _atom_site_type_symbol
 _atom_site_label
 _atom_site_symmetry_multiplicity
 _atom_site_fract_x
 _atom_site_fract_y
 _atom_site_fract_z
 _atom_site_occupancy
  Te  Te0  1  0.33333300  0.66666700  0.23837600  1
  Te  Te1  1  0.33333300  0.66666700  0.61550600  1
  Te  Te2  1  0.66666700  0.33333300  0.04981100  1
  Te  Te3  1  0.66666700  0.33333300  0.42694100  1
  Te  Te4  1  0.66666700  0.33333300  0.13875400  1
  Te  Te5  1  0.66666700  0.33333300  0.51588300  1
  Te  Te6  1  0.33333300  0.66666700  0.32731800  1
  Te  Te7  1  0.33333300  0.66666700  0.70444800  1
  Mo  Mo8  1  0.33333300  0.66666700  0.09428200  1
  Mo  Mo9  1  0.33333300  0.66666700  0.47141200  1
  Mo  Mo10  1  0.66666700  0.33333300  0.28284700  1
  Mo  Mo11  1  0.66666700  0.33333300  0.65997700  1
