# generated using pymatgen
data_HgO
_symmetry_space_group_name_H-M   'P 1'
_cell_length_a   3.74730595
_cell_length_b   3.74730595
_cell_length_c   8.89903511
_cell_angle_alpha   90.00000000
_cell_angle_beta   90.00000000
_cell_angle_gamma   119.99999811
_symmetry_Int_Tables_number   1
_chemical_formula_structural   HgO
_chemical_formula_sum   'Hg3 O3'
_cell_volume   108.22108062
_cell_formula_units_Z   3
loop_
 _symmetry_equiv_pos_site_id
 _symmetry_equiv_pos_as_xyz
  1  'x, y, z'
loop_
 _atom_site_type_symbol
 _atom_site_label
 _atom_site_symmetry_multiplicity
 _atom_site_fract_x
 _atom_site_fract_y
 _atom_site_fract_z
 _atom_site_occupancy
  Hg  Hg0  1  0.23467321  1.00000000  0.00003300  1
  Hg  Hg1  1  0.76532679  0.76532679  0.33336700  1
  Hg  Hg2  1  1.00000000  0.23467321  0.66670000  1
  O  O3  1  0.55507514  1.00000000  0.50003300  1
  O  O4  1  0.44492486  0.44492486  0.83336700  1
  O  O5  1  1.00000000  0.55507514  0.16670000  1
