# generated using pymatgen
data_CeNiGe
_symmetry_space_group_name_H-M   'P 1'
_cell_length_a   4.20958702
_cell_length_b   4.20958702
_cell_length_c   7.68675520
_cell_angle_alpha   90.00000000
_cell_angle_beta   90.00000000
_cell_angle_gamma   120.14458685
_symmetry_Int_Tables_number   1
_chemical_formula_structural   CeNiGe
_chemical_formula_sum   'Ce2 Ni2 Ge2'
_cell_volume   117.79261788
_cell_formula_units_Z   2
loop_
 _symmetry_equiv_pos_site_id
 _symmetry_equiv_pos_as_xyz
  1  'x, y, z'
loop_
 _atom_site_type_symbol
 _atom_site_label
 _atom_site_symmetry_multiplicity
 _atom_site_fract_x
 _atom_site_fract_y
 _atom_site_fract_z
 _atom_site_occupancy
  Ce  Ce0  1  -0.00000000  0.00000000  0.50000000  1
  Ce  Ce1  1  -0.00000000  0.00000000  0.00000000  1
  Ni  Ni2  1  0.66675763  0.33324237  0.75000000  1
  Ni  Ni3  1  0.33324237  0.66675763  0.25000000  1
  Ge  Ge4  1  0.66667485  0.33332515  0.25000000  1
  Ge  Ge5  1  0.33332515  0.66667485  0.75000000  1
