# generated using pymatgen
data_Eu4As2O
_symmetry_space_group_name_H-M   'P 1'
_cell_length_a   4.75339067
_cell_length_b   4.75339067
_cell_length_c   8.67913594
_cell_angle_alpha   105.89290278
_cell_angle_beta   105.89290278
_cell_angle_gamma   90.00000000
_symmetry_Int_Tables_number   1
_chemical_formula_structural   Eu4As2O
_chemical_formula_sum   'Eu4 As2 O1'
_cell_volume   180.80019838
_cell_formula_units_Z   1
loop_
 _symmetry_equiv_pos_site_id
 _symmetry_equiv_pos_as_xyz
  1  'x, y, z'
loop_
 _atom_site_type_symbol
 _atom_site_label
 _atom_site_symmetry_multiplicity
 _atom_site_fract_x
 _atom_site_fract_y
 _atom_site_fract_z
 _atom_site_occupancy
  Eu  Eu0  1  0.50000000  0.00000000  0.00000000  1
  Eu  Eu1  1  0.00000000  0.50000000  0.00000000  1
  Eu  Eu2  1  0.67380801  0.67380801  0.34761603  1
  Eu  Eu3  1  0.32619199  0.32619199  0.65238397  1
  As  As4  1  0.86468267  0.86468267  0.72936534  1
  As  As5  1  0.13531733  0.13531733  0.27063466  1
  O  O6  1  0.50000000  0.50000000  0.00000000  1
