# generated using pymatgen
data_Dy4(SiS4)3
_symmetry_space_group_name_H-M   'P 1'
_cell_length_a   9.93735254
_cell_length_b   11.10975080
_cell_length_c   16.56081484
_cell_angle_alpha   90.00000000
_cell_angle_beta   103.68364246
_cell_angle_gamma   90.00000000
_symmetry_Int_Tables_number   1
_chemical_formula_structural   Dy4(SiS4)3
_chemical_formula_sum   'Dy16 Si12 S48'
_cell_volume   1776.44467048
_cell_formula_units_Z   4
loop_
 _symmetry_equiv_pos_site_id
 _symmetry_equiv_pos_as_xyz
  1  'x, y, z'
loop_
 _atom_site_type_symbol
 _atom_site_label
 _atom_site_symmetry_multiplicity
 _atom_site_fract_x
 _atom_site_fract_y
 _atom_site_fract_z
 _atom_site_occupancy
  Si  Si0  1  0.20734171  0.78591072  0.73306670  1
  Si  Si1  1  0.29265829  0.28591072  0.76693330  1
  Si  Si2  1  0.79265829  0.21408928  0.26693330  1
  Si  Si3  1  0.70734171  0.71408928  0.23306670  1
  Si  Si4  1  0.19666382  0.62030488  0.44086890  1
  Si  Si5  1  0.30333618  0.12030488  0.05913110  1
  Si  Si6  1  0.80333618  0.37969512  0.55913110  1
  Si  Si7  1  0.69666382  0.87969512  0.94086890  1
  Si  Si8  1  0.71861662  0.95133734  0.61921224  1
  Si  Si9  1  0.78138338  0.45133734  0.88078776  1
  Si  Si10  1  0.28138338  0.04866266  0.38078776  1
  Si  Si11  1  0.21861662  0.54866266  0.11921224  1
  S  S12  1  0.25037473  0.95832078  0.68613828  1
  S  S13  1  0.24962527  0.45832078  0.81386172  1
  S  S14  1  0.74962527  0.04167922  0.31386172  1
  S  S15  1  0.75037473  0.54167922  0.18613828  1
  S  S16  1  0.15693470  0.44524884  0.47426067  1
  S  S17  1  0.34306530  0.94524884  0.02573933  1
  S  S18  1  0.84306530  0.55475116  0.52573933  1
  S  S19  1  0.65693470  0.05475116  0.97426067  1
  S  S20  1  0.64933564  0.77448061  0.62905226  1
  S  S21  1  0.85066436  0.27448061  0.87094774  1
  S  S22  1  0.35066436  0.22551939  0.37094774  1
  S  S23  1  0.14933564  0.72551939  0.12905226  1
  S  S24  1  0.16763703  0.02076522  0.47304624  1
  S  S25  1  0.33236297  0.52076522  0.02695376  1
  S  S26  1  0.83236297  0.97923478  0.52695376  1
  S  S27  1  0.66763703  0.47923478  0.97304624  1
  S  S28  1  0.84717247  0.02778511  0.73026735  1
  S  S29  1  0.65282753  0.52778511  0.76973265  1
  S  S30  1  0.15282753  0.97221489  0.26973265  1
  S  S31  1  0.34717247  0.47221489  0.23026735  1
  S  S32  1  0.53792253  0.06502968  0.59294768  1
  S  S33  1  0.96207747  0.56502968  0.90705232  1
  S  S34  1  0.46207747  0.93497032  0.40705232  1
  S  S35  1  0.03792253  0.43497032  0.09294768  1
  S  S36  1  0.40524248  0.65971132  0.44856485  1
  S  S37  1  0.09475752  0.15971132  0.05143515  1
  S  S38  1  0.59475752  0.34028868  0.55143515  1
  S  S39  1  0.90524248  0.84028868  0.94856485  1
  S  S40  1  0.10878565  0.74206408  0.51378592  1
  S  S41  1  0.39121435  0.24206408  0.98621408  1
  S  S42  1  0.89121435  0.25793592  0.48621408  1
  S  S43  1  0.60878565  0.75793592  0.01378592  1
  S  S44  1  0.34285367  0.66622712  0.68632950  1
  S  S45  1  0.15714633  0.16622712  0.81367050  1
  S  S46  1  0.65714633  0.33377288  0.31367050  1
  S  S47  1  0.84285367  0.83377288  0.18632950  1
  S  S48  1  0.23893900  0.28973247  0.63578015  1
  S  S49  1  0.26106100  0.78973247  0.86421985  1
  S  S50  1  0.76106100  0.71026753  0.36421985  1
  S  S51  1  0.73893900  0.21026753  0.13578015  1
  S  S52  1  0.91855633  0.34780040  0.68413503  1
  S  S53  1  0.58144367  0.84780040  0.81586497  1
  S  S54  1  0.08144367  0.65219960  0.31586497  1
  S  S55  1  0.41855633  0.15219960  0.18413503  1
  S  S56  1  0.00222184  0.72064284  0.69204097  1
  S  S57  1  0.49777816  0.22064284  0.80795903  1
  S  S58  1  0.99777816  0.27935716  0.30795903  1
  S  S59  1  0.50222184  0.77935716  0.19204097  1
  Dy  Dy60  1  0.82017148  0.73705946  0.79079876  1
  Dy  Dy61  1  0.67982852  0.23705946  0.70920124  1
  Dy  Dy62  1  0.17982852  0.26294054  0.20920124  1
  Dy  Dy63  1  0.32017148  0.76294054  0.29079876  1
  Dy  Dy64  1  0.02687159  0.12778231  0.63510708  1
  Dy  Dy65  1  0.47312841  0.62778231  0.86489292  1
  Dy  Dy66  1  0.97312841  0.87221769  0.36489292  1
  Dy  Dy67  1  0.52687159  0.37221769  0.13510708  1
  Dy  Dy68  1  0.37321998  0.85051628  0.55918080  1
  Dy  Dy69  1  0.12678002  0.35051628  0.94081920  1
  Dy  Dy70  1  0.62678002  0.14948372  0.44081920  1
  Dy  Dy71  1  0.87321998  0.64948372  0.05918080  1
  Dy  Dy72  1  0.10816892  0.51857980  0.62557375  1
  Dy  Dy73  1  0.39183108  0.01857980  0.87442625  1
  Dy  Dy74  1  0.89183108  0.48142020  0.37442625  1
  Dy  Dy75  1  0.60816892  0.98142020  0.12557375  1
