# generated using pymatgen
data_ZnB10(H13O4)2
_symmetry_space_group_name_H-M   'P 1'
_cell_length_a   6.90872927
_cell_length_b   7.43949483
_cell_length_c   18.47886993
_cell_angle_alpha   80.44131069
_cell_angle_beta   79.22597803
_cell_angle_gamma   62.33326977
_symmetry_Int_Tables_number   1
_chemical_formula_structural   ZnB10(H13O4)2
_chemical_formula_sum   'Zn2 B20 H52 O16'
_cell_volume   822.90980044
_cell_formula_units_Z   2
loop_
 _symmetry_equiv_pos_site_id
 _symmetry_equiv_pos_as_xyz
  1  'x, y, z'
loop_
 _atom_site_type_symbol
 _atom_site_label
 _atom_site_symmetry_multiplicity
 _atom_site_fract_x
 _atom_site_fract_y
 _atom_site_fract_z
 _atom_site_occupancy
  Zn  Zn0  1  0.00000000  -0.00000000  0.50000000  1
  Zn  Zn1  1  0.50000000  0.50000000  0.00000000  1
  B  B2  1  0.31130248  0.38002819  0.65474481  1
  B  B3  1  0.34607549  0.11997181  0.84525519  1
  B  B4  1  0.68869752  0.61997181  0.34525519  1
  B  B5  1  0.65392451  0.88002819  0.15474481  1
  B  B6  1  0.10973780  0.36957714  0.72157732  1
  B  B7  1  0.20089227  0.13042286  0.77842268  1
  B  B8  1  0.89026220  0.63042286  0.27842268  1
  B  B9  1  0.79910773  0.86957714  0.22157732  1
  B  B10  1  0.30070549  0.46473254  0.73625419  1
  B  B11  1  0.50169222  0.03526746  0.76374581  1
  B  B12  1  0.69929451  0.53526746  0.26374581  1
  B  B13  1  0.49830778  0.96473254  0.23625419  1
  B  B14  1  0.53301885  0.23513062  0.70104973  1
  B  B15  1  0.46919920  0.26486938  0.79895027  1
  B  B16  1  0.46698115  0.76486938  0.29895027  1
  B  B17  1  0.53080080  0.73513062  0.20104973  1
  B  B18  1  0.16950678  0.35881744  0.81342171  1
  B  B19  1  0.34174593  0.14118256  0.68657829  1
  B  B20  1  0.83049322  0.64118256  0.18657829  1
  B  B21  1  0.65825407  0.85881744  0.31342171  1
  H  H22  1  0.33822926  0.28879268  0.94352860  1
  H  H23  1  0.57055054  0.21120732  0.55647140  1
  H  H24  1  0.66177074  0.71120732  0.05647140  1
  H  H25  1  0.42944946  0.78879268  0.44352860  1
  H  H26  1  0.27100596  0.25315316  0.02905374  1
  H  H27  1  0.55321286  0.24684684  0.47094626  1
  H  H28  1  0.72899404  0.74684684  0.97094626  1
  H  H29  1  0.44678714  0.75315316  0.52905374  1
  H  H30  1  0.12017068  0.19473810  0.58256797  1
  H  H31  1  0.89747675  0.30526190  0.91743203  1
  H  H32  1  0.87982932  0.80526190  0.41743203  1
  H  H33  1  0.10252325  0.69473810  0.08256797  1
  H  H34  1  0.89111874  0.35905793  0.55691388  1
  H  H35  1  0.80709056  0.14094207  0.94308612  1
  H  H36  1  0.10888126  0.64094207  0.44308612  1
  H  H37  1  0.19290944  0.85905793  0.05691388  1
  H  H38  1  0.06382342  0.72548748  0.62758936  1
  H  H39  1  0.41690026  0.77451252  0.87241064  1
  H  H40  1  0.93617658  0.27451252  0.37241064  1
  H  H41  1  0.58309974  0.22548748  0.12758936  1
  H  H42  1  0.87019518  0.94005417  0.64868369  1
  H  H43  1  0.45893305  0.55994583  0.85131631  1
  H  H44  1  0.12980482  0.05994583  0.35131631  1
  H  H45  1  0.54106695  0.44005417  0.14868369  1
  H  H46  1  0.00914106  0.80851156  0.91328928  1
  H  H47  1  0.73094190  0.69148844  0.58671072  1
  H  H48  1  0.99085894  0.19148844  0.08671072  1
  H  H49  1  0.26905810  0.30851156  0.41328928  1
  H  H50  1  0.80242017  0.92839836  0.87003304  1
  H  H51  1  0.60085157  0.57160164  0.62996696  1
  H  H52  1  0.19757983  0.07160164  0.12996696  1
  H  H53  1  0.39914843  0.42839836  0.37003304  1
  H  H54  1  0.30049793  0.46326327  0.59304305  1
  H  H55  1  0.35680425  0.03673673  0.90695695  1
  H  H56  1  0.69950207  0.53673673  0.40695695  1
  H  H57  1  0.64319575  0.96326327  0.09304305  1
  H  H58  1  0.92136893  0.45615700  0.71011428  1
  H  H59  1  0.08764021  0.04384300  0.78988572  1
  H  H60  1  0.07863107  0.54384300  0.28988572  1
  H  H61  1  0.91235979  0.95615700  0.21011428  1
  H  H62  1  0.28029466  0.63374486  0.73727098  1
  H  H63  1  0.65131050  0.86625514  0.76272902  1
  H  H64  1  0.71970534  0.36625514  0.26272902  1
  H  H65  1  0.34868950  0.13374486  0.23727098  1
  H  H66  1  0.71592399  0.20367402  0.67207713  1
  H  H67  1  0.59167514  0.29632598  0.82792287  1
  H  H68  1  0.28407601  0.79632598  0.32792287  1
  H  H69  1  0.40832486  0.70367402  0.17207713  1
  H  H70  1  0.02874270  0.47368420  0.85586220  1
  H  H71  1  0.35828910  0.02631580  0.64413780  1
  H  H72  1  0.97125730  0.52631580  0.14413780  1
  H  H73  1  0.64171090  0.97368420  0.35586220  1
  O  O74  1  0.33420988  0.33100400  0.99164724  1
  O  O75  1  0.65686112  0.16899600  0.50835276  1
  O  O76  1  0.66579012  0.66899600  0.00835276  1
  O  O77  1  0.34313888  0.83100400  0.49164724  1
  O  O78  1  0.02543906  0.23319479  0.54351205  1
  O  O79  1  0.80214591  0.26680521  0.95648795  1
  O  O80  1  0.97456094  0.76680521  0.45648795  1
  O  O81  1  0.19785409  0.73319479  0.04351205  1
  O  O82  1  0.94337332  0.85027916  0.60818669  1
  O  O83  1  0.40183916  0.64972084  0.89181331  1
  O  O84  1  0.05662668  0.14972084  0.39181331  1
  O  O85  1  0.59816084  0.35027916  0.10818669  1
  O  O86  1  0.84912402  0.89311957  0.91957455  1
  O  O87  1  0.66181814  0.60688043  0.58042545  1
  O  O88  1  0.15087598  0.10688043  0.08042545  1
  O  O89  1  0.33818186  0.39311957  0.41957455  1
