# generated using pymatgen
data_YbCdPb
_symmetry_space_group_name_H-M   'P 1'
_cell_length_a   4.79310710
_cell_length_b   7.79951726
_cell_length_c   7.80256649
_cell_angle_alpha   119.98707766
_cell_angle_beta   90.00000000
_cell_angle_gamma   90.00000000
_symmetry_Int_Tables_number   1
_chemical_formula_structural   YbCdPb
_chemical_formula_sum   'Yb3 Cd3 Pb3'
_cell_volume   252.64429917
_cell_formula_units_Z   3
loop_
 _symmetry_equiv_pos_site_id
 _symmetry_equiv_pos_as_xyz
  1  'x, y, z'
loop_
 _atom_site_type_symbol
 _atom_site_label
 _atom_site_symmetry_multiplicity
 _atom_site_fract_x
 _atom_site_fract_y
 _atom_site_fract_z
 _atom_site_occupancy
  Yb  Yb0  1  0.50000000  0.57377147  0.00000000  1
  Yb  Yb1  1  0.50000000  0.42622573  0.42622669  1
  Yb  Yb2  1  0.50000000  0.99999904  0.57377331  1
  Cd  Cd3  1  0.00000000  0.24962158  1.00000000  1
  Cd  Cd4  1  0.00000000  0.75036034  0.75037583  1
  Cd  Cd5  1  -0.00000000  -0.00001548  0.24962417  1
  Pb  Pb6  1  -0.00000000  0.33326368  0.66664635  1
  Pb  Pb7  1  -0.00000000  0.66661734  0.33335365  1
  Pb  Pb8  1  0.50000000  0.00005631  1.00000000  1
