# generated using pymatgen
data_Ca2SiO4F
_symmetry_space_group_name_H-M   'P 1'
_cell_length_a   5.95959890
_cell_length_b   6.65706907
_cell_length_c   10.72562972
_cell_angle_alpha   90.00000000
_cell_angle_beta   90.00000000
_cell_angle_gamma   99.40768681
_symmetry_Int_Tables_number   1
_chemical_formula_structural   Ca2SiO4F
_chemical_formula_sum   'Ca8 Si4 O16 F4'
_cell_volume   419.79967765
_cell_formula_units_Z   4
loop_
 _symmetry_equiv_pos_site_id
 _symmetry_equiv_pos_as_xyz
  1  'x, y, z'
loop_
 _atom_site_type_symbol
 _atom_site_label
 _atom_site_symmetry_multiplicity
 _atom_site_fract_x
 _atom_site_fract_y
 _atom_site_fract_z
 _atom_site_occupancy
  Ca  Ca0  1  0.73573701  0.43923571  0.58487338  1
  Ca  Ca1  1  0.26426299  0.06076429  0.08487338  1
  Ca  Ca2  1  0.26426299  0.56076429  0.41512662  1
  Ca  Ca3  1  0.73573701  0.93923571  0.91512662  1
  Ca  Ca4  1  0.80884370  0.33106409  0.18996743  1
  Ca  Ca5  1  0.19115630  0.16893591  0.68996743  1
  Ca  Ca6  1  0.19115630  0.66893591  0.81003257  1
  Ca  Ca7  1  0.80884370  0.83106409  0.31003257  1
  Si  Si8  1  0.66515748  0.38889324  0.87163843  1
  Si  Si9  1  0.33484252  0.11110676  0.37163843  1
  Si  Si10  1  0.33484252  0.61110676  0.12836157  1
  Si  Si11  1  0.66515748  0.88889324  0.62836157  1
  O  O12  1  0.59895726  0.24422450  0.99297082  1
  O  O13  1  0.40104274  0.25577550  0.49297082  1
  O  O14  1  0.40104274  0.75577550  0.00702918  1
  O  O15  1  0.59895726  0.74422450  0.50702918  1
  O  O16  1  0.46138384  0.42536197  0.77830566  1
  O  O17  1  0.53861616  0.07463803  0.27830566  1
  O  O18  1  0.53861616  0.57463803  0.22169434  1
  O  O19  1  0.46138384  0.92536197  0.72169434  1
  O  O20  1  0.85958911  0.28994393  0.78797680  1
  O  O21  1  0.14041089  0.21005607  0.28797680  1
  O  O22  1  0.14041089  0.71005607  0.21202320  1
  O  O23  1  0.85958911  0.78994393  0.71202320  1
  O  O24  1  0.82634315  0.60470119  0.91666154  1
  O  O25  1  0.17365685  0.89529881  0.41666154  1
  O  O26  1  0.17365685  0.39529881  0.08333846  1
  O  O27  1  0.82634315  0.10470119  0.58333846  1
  F  F28  1  0.87229570  0.49114815  0.38742286  1
  F  F29  1  0.12770430  0.00885185  0.88742286  1
  F  F30  1  0.12770430  0.50885185  0.61257714  1
  F  F31  1  0.87229570  0.99114815  0.11257714  1
