# generated using pymatgen
data_Ho3Ni2
_symmetry_space_group_name_H-M   'P 1'
_cell_length_a   3.68876609
_cell_length_b   6.81104718
_cell_length_c   9.38684092
_cell_angle_alpha   105.15362309
_cell_angle_beta   90.00000000
_cell_angle_gamma   105.71145289
_symmetry_Int_Tables_number   1
_chemical_formula_structural   Ho3Ni2
_chemical_formula_sum   'Ho6 Ni4'
_cell_volume   218.49595567
_cell_formula_units_Z   2
loop_
 _symmetry_equiv_pos_site_id
 _symmetry_equiv_pos_as_xyz
  1  'x, y, z'
loop_
 _atom_site_type_symbol
 _atom_site_label
 _atom_site_symmetry_multiplicity
 _atom_site_fract_x
 _atom_site_fract_y
 _atom_site_fract_z
 _atom_site_occupancy
  Ho  Ho0  1  0.13226566  0.26453132  0.99686635  1
  Ho  Ho1  1  0.86773434  0.73546868  0.00313365  1
  Ho  Ho2  1  0.40263339  0.80526678  0.32742023  1
  Ho  Ho3  1  0.59736661  0.19473322  0.67257977  1
  Ho  Ho4  1  0.14364148  0.28728295  0.36838169  1
  Ho  Ho5  1  0.85635852  0.71271705  0.63161831  1
  Ni  Ni6  1  0.53574091  0.07148183  0.14361436  1
  Ni  Ni7  1  0.46425909  0.92851817  0.85638564  1
  Ni  Ni8  1  0.74278901  0.48557802  0.22651879  1
  Ni  Ni9  1  0.25721099  0.51442198  0.77348121  1
