# generated using pymatgen
data_ErSi
_symmetry_space_group_name_H-M   'P 1'
_cell_length_a   3.81682863
_cell_length_b   5.65093993
_cell_length_c   7.81052578
_cell_angle_alpha   90.00000000
_cell_angle_beta   90.00000000
_cell_angle_gamma   90.00000000
_symmetry_Int_Tables_number   1
_chemical_formula_structural   ErSi
_chemical_formula_sum   'Er4 Si4'
_cell_volume   168.46264770
_cell_formula_units_Z   4
loop_
 _symmetry_equiv_pos_site_id
 _symmetry_equiv_pos_as_xyz
  1  'x, y, z'
loop_
 _atom_site_type_symbol
 _atom_site_label
 _atom_site_symmetry_multiplicity
 _atom_site_fract_x
 _atom_site_fract_y
 _atom_site_fract_z
 _atom_site_occupancy
  Er  Er0  1  0.25000000  0.38598111  0.67937158  1
  Er  Er1  1  0.25000000  0.11401889  0.17937158  1
  Er  Er2  1  0.75000000  0.61401889  0.32062842  1
  Er  Er3  1  0.75000000  0.88598111  0.82062842  1
  Si  Si4  1  0.25000000  0.86983241  0.53818397  1
  Si  Si5  1  0.25000000  0.63016759  0.03818397  1
  Si  Si6  1  0.75000000  0.13016759  0.46181603  1
  Si  Si7  1  0.75000000  0.36983241  0.96181603  1
