# generated using pymatgen
data_KIO3
_symmetry_space_group_name_H-M   'P 1'
_cell_length_a   6.45503886
_cell_length_b   6.45503880
_cell_length_c   6.45503858
_cell_angle_alpha   59.12206544
_cell_angle_beta   59.12206570
_cell_angle_gamma   59.12206669
_symmetry_Int_Tables_number   1
_chemical_formula_structural   KIO3
_chemical_formula_sum   'K2 I2 O6'
_cell_volume   186.38133965
_cell_formula_units_Z   2
loop_
 _symmetry_equiv_pos_site_id
 _symmetry_equiv_pos_as_xyz
  1  'x, y, z'
loop_
 _atom_site_type_symbol
 _atom_site_label
 _atom_site_symmetry_multiplicity
 _atom_site_fract_x
 _atom_site_fract_y
 _atom_site_fract_z
 _atom_site_occupancy
  K  K0  1  0.25228093  0.25228093  0.25228093  1
  K  K1  1  0.75000301  0.75000301  0.75000301  1
  I  I2  1  0.99756873  0.99756873  0.99756873  1
  I  I3  1  0.49574562  0.49574562  0.49574562  1
  O  O4  1  0.23260239  0.74311425  0.85687156  1
  O  O5  1  0.85687156  0.23260239  0.74311425  1
  O  O6  1  0.74311425  0.85687156  0.23260239  1
  O  O7  1  0.72904594  0.35782895  0.23980861  1
  O  O8  1  0.23980861  0.72904594  0.35782895  1
  O  O9  1  0.35782895  0.23980861  0.72904594  1
