# generated using pymatgen
data_U3Si
_symmetry_space_group_name_H-M   'P 1'
_cell_length_a   6.02171464
_cell_length_b   6.02846031
_cell_length_c   6.01582848
_cell_angle_alpha   120.28224251
_cell_angle_beta   120.23883380
_cell_angle_gamma   89.66168163
_symmetry_Int_Tables_number   1
_chemical_formula_structural   U3Si
_chemical_formula_sum   'U6 Si2'
_cell_volume   153.65764247
_cell_formula_units_Z   2
loop_
 _symmetry_equiv_pos_site_id
 _symmetry_equiv_pos_as_xyz
  1  'x, y, z'
loop_
 _atom_site_type_symbol
 _atom_site_label
 _atom_site_symmetry_multiplicity
 _atom_site_fract_x
 _atom_site_fract_y
 _atom_site_fract_z
 _atom_site_occupancy
  U  U0  1  0.71516973  0.71966524  0.99888842  1
  U  U1  1  0.28465207  0.27984954  0.00131777  1
  U  U2  1  0.23383151  0.77008906  0.99936909  1
  U  U3  1  0.76509825  0.23050073  0.00013271  1
  U  U4  1  0.23743744  0.23728145  0.47329613  1
  U  U5  1  0.76301682  0.76259910  0.52686289  1
  Si  Si6  1  0.24725844  0.74841062  0.49497487  1
  Si  Si7  1  0.75353575  0.25160426  0.50515812  1
