# generated using pymatgen
data_LiV2(PO4)3
_symmetry_space_group_name_H-M   'P 1'
_cell_length_a   8.49267297
_cell_length_b   8.49267323
_cell_length_c   8.53716939
_cell_angle_alpha   60.50881131
_cell_angle_beta   60.50881028
_cell_angle_gamma   60.74128706
_symmetry_Int_Tables_number   1
_chemical_formula_structural   LiV2(PO4)3
_chemical_formula_sum   'Li2 V4 P6 O24'
_cell_volume   441.16046952
_cell_formula_units_Z   2
loop_
 _symmetry_equiv_pos_site_id
 _symmetry_equiv_pos_as_xyz
  1  'x, y, z'
loop_
 _atom_site_type_symbol
 _atom_site_label
 _atom_site_symmetry_multiplicity
 _atom_site_fract_x
 _atom_site_fract_y
 _atom_site_fract_z
 _atom_site_occupancy
  Li  Li0  1  0.50000000  -0.00000000  0.00000000  1
  Li  Li1  1  -0.00000000  0.50000000  0.50000000  1
  V  V2  1  0.36252019  0.86326978  0.85252774  1
  V  V3  1  0.13673022  0.63747981  0.64747226  1
  V  V4  1  0.86326978  0.36252019  0.35252774  1
  V  V5  1  0.63747981  0.13673022  0.14747226  1
  P  P6  1  0.95953236  0.04046764  0.75000000  1
  P  P7  1  0.25296587  0.45747339  0.03581115  1
  P  P8  1  0.45747339  0.25296587  0.53581115  1
  P  P9  1  0.74703413  0.54252661  0.96418885  1
  P  P10  1  0.54252661  0.74703413  0.46418885  1
  P  P11  1  0.04046764  0.95953236  0.25000000  1
  O  O12  1  0.41828171  0.26457963  0.05399987  1
  O  O13  1  0.73542037  0.58171829  0.44600013  1
  O  O14  1  0.48466611  0.18727139  0.38216611  1
  O  O15  1  0.76935579  0.05955755  0.91849256  1
  O  O16  1  0.00823792  0.12784462  0.29808165  1
  O  O17  1  0.55419231  0.91061715  0.26911086  1
  O  O18  1  0.26457963  0.41828171  0.55399987  1
  O  O19  1  0.91061715  0.55419231  0.76911086  1
  O  O20  1  0.58171829  0.73542037  0.94600013  1
  O  O21  1  0.18727139  0.48466611  0.88216611  1
  O  O22  1  0.68558811  0.37579491  0.01668076  1
  O  O23  1  0.08938285  0.44580769  0.23088914  1
  O  O24  1  0.44580769  0.08938285  0.73088914  1
  O  O25  1  0.31441189  0.62420509  0.98331924  1
  O  O26  1  0.05955755  0.76935579  0.41849256  1
  O  O27  1  0.62420509  0.31441189  0.48331924  1
  O  O28  1  0.99176208  0.87215538  0.70191835  1
  O  O29  1  0.94044245  0.23064421  0.58150744  1
  O  O30  1  0.12784462  0.00823792  0.79808165  1
  O  O31  1  0.81272861  0.51533389  0.11783389  1
  O  O32  1  0.23064421  0.94044245  0.08150744  1
  O  O33  1  0.37579491  0.68558811  0.51668076  1
  O  O34  1  0.87215538  0.99176208  0.20191835  1
  O  O35  1  0.51533389  0.81272861  0.61783389  1
