# generated using pymatgen
data_DyNbO4
_symmetry_space_group_name_H-M   'P 1'
_cell_length_a   5.23236129
_cell_length_b   5.27304224
_cell_length_c   6.67232506
_cell_angle_alpha   112.90614872
_cell_angle_beta   112.71380697
_cell_angle_gamma   90.86509844
_symmetry_Int_Tables_number   1
_chemical_formula_structural   DyNbO4
_chemical_formula_sum   'Dy2 Nb2 O8'
_cell_volume   153.43251940
_cell_formula_units_Z   2
loop_
 _symmetry_equiv_pos_site_id
 _symmetry_equiv_pos_as_xyz
  1  'x, y, z'
loop_
 _atom_site_type_symbol
 _atom_site_label
 _atom_site_symmetry_multiplicity
 _atom_site_fract_x
 _atom_site_fract_y
 _atom_site_fract_z
 _atom_site_occupancy
  Dy  Dy0  1  0.37576223  0.12576223  0.75152445  1
  Dy  Dy1  1  0.62423777  0.87423777  0.24847555  1
  Nb  Nb2  1  0.87166812  0.62166812  0.74333624  1
  Nb  Nb3  1  0.12833188  0.37833188  0.25666376  1
  O  O4  1  0.78323744  0.11476960  0.07299731  1
  O  O5  1  0.28975987  0.45822771  0.07299731  1
  O  O6  1  0.21676256  0.88523040  0.92700269  1
  O  O7  1  0.71024013  0.54177229  0.92700269  1
  O  O8  1  0.60583845  0.78859382  0.56962003  1
  O  O9  1  0.96378158  0.28102621  0.56962003  1
  O  O10  1  0.39416155  0.21140618  0.43037997  1
  O  O11  1  0.03621842  0.71897379  0.43037997  1
