# generated using pymatgen
data_Sr12Al14O33
_symmetry_space_group_name_H-M   'P 1'
_cell_length_a   10.77497296
_cell_length_b   10.77497361
_cell_length_c   10.77565265
_cell_angle_alpha   109.30403767
_cell_angle_beta   109.30772275
_cell_angle_gamma   109.79986952
_symmetry_Int_Tables_number   1
_chemical_formula_structural   Sr12Al14O33
_chemical_formula_sum   'Sr12 Al14 O33'
_cell_volume   963.06789426
_cell_formula_units_Z   1
loop_
 _symmetry_equiv_pos_site_id
 _symmetry_equiv_pos_as_xyz
  1  'x, y, z'
loop_
 _atom_site_type_symbol
 _atom_site_label
 _atom_site_symmetry_multiplicity
 _atom_site_fract_x
 _atom_site_fract_y
 _atom_site_fract_z
 _atom_site_occupancy
  Sr  Sr0  1  0.94024119  0.69024119  0.25000000  1
  Sr  Sr1  1  0.74790100  0.35670115  0.60071893  1
  Sr  Sr2  1  0.85155051  0.25061615  0.10875456  1
  Sr  Sr3  1  0.75698420  0.89266170  0.14576859  1
  Sr  Sr4  1  0.64186158  0.74279594  0.39124544  1
  Sr  Sr5  1  0.30665877  0.05665877  0.25000000  1
  Sr  Sr6  1  0.25598222  0.14718207  0.89928107  1
  Sr  Sr7  1  0.38794566  0.24253219  0.63637907  1
  Sr  Sr8  1  0.60423061  0.85423061  0.75000000  1
  Sr  Sr9  1  0.10615312  0.75156659  0.86362193  1
  Sr  Sr10  1  0.14437546  0.39437546  0.75000000  1
  Sr  Sr11  1  0.24689211  0.61121461  0.35423041  1
  Al  Al12  1  0.87439394  0.12439394  0.75000000  1
  Al  Al13  1  0.62441568  0.37441568  0.25000000  1
  Al  Al14  1  0.74889483  0.62273324  0.87361992  1
  Al  Al15  1  0.96334595  0.99941471  0.99805471  1
  Al  Al16  1  0.49739558  0.46339442  0.49738348  1
  Al  Al17  1  0.46600995  0.00001110  0.00261552  1
  Al  Al18  1  0.37612998  0.74974163  0.12603778  1
  Al  Al19  1  0.53536292  0.53287415  0.03403478  1
  Al  Al20  1  0.50136000  0.96529124  0.50194529  1
  Al  Al21  1  0.24911333  0.87527491  0.62638008  1
  Al  Al22  1  0.99928406  0.49745358  0.96381929  1
  Al  Al23  1  0.99883937  0.50132814  0.46596422  1
  Al  Al24  1  0.12370386  0.25009220  0.37396222  1
  Al  Al25  1  0.03363429  0.03546477  0.53618071  1
  O  O26  1  0.89135689  0.57280886  0.88058091  1
  O  O27  1  0.91646074  0.31404343  0.80132742  1
  O  O28  1  0.81281725  0.40790421  0.30951738  1
  O  O29  1  0.59120508  0.40086334  0.40502515  1
  O  O30  1  0.69510660  0.61099886  0.00974380  1
  O  O31  1  0.59838584  0.50329888  0.19048262  1
  O  O32  1  0.68474398  0.98619636  0.60247964  1
  O  O33  1  0.98846771  0.10749220  0.18153733  1
  O  O34  1  0.86553401  0.87872822  0.37903029  1
  O  O35  1  0.88371672  0.08226435  0.89752036  1
  O  O36  1  0.49583819  0.18617992  0.09497485  1
  O  O37  1  0.59734449  0.48973713  0.68385095  1
  O  O38  1  0.62551568  0.99350851  0.00006554  1
  O  O39  1  0.80291820  0.81314133  0.91298158  1
  O  O40  1  0.42595487  0.80693038  0.31846267  1
  O  O41  1  0.38741307  0.89749156  0.08394582  1
  O  O42  1  0.50928934  0.69315085  0.10772019  1
  O  O43  1  0.51178161  0.13315419  0.51319106  1
  O  O44  1  0.11996313  0.99859055  0.98680894  1
  O  O45  1  0.30588617  0.91349353  0.81614905  1
  O  O46  1  0.31354474  0.30346625  0.41605418  1
  O  O47  1  0.40015975  0.88993662  0.58701942  1
  O  O48  1  0.19222794  0.01077597  0.61941909  1
  O  O49  1  0.18570695  0.59858917  0.98985377  1
  O  O50  1  0.49344298  0.62545015  0.49993446  1
  O  O51  1  0.37318135  0.37335943  0.86831000  1
  O  O52  1  0.10125506  0.68536280  0.49025620  1
  O  O53  1  0.12349109  0.87349109  0.25000000  1
  O  O54  1  0.00504943  0.50487135  0.63169000  1
  O  O55  1  0.08543066  0.40156916  0.39227981  1
  O  O56  1  0.10873540  0.19585318  0.51014623  1
  O  O57  1  0.01271702  0.11513432  0.69867258  1
  O  O58  1  0.99969793  0.48650372  0.12096971  1
