# generated using pymatgen
data_YNbO4
_symmetry_space_group_name_H-M   'P 1'
_cell_length_a   5.25953008
_cell_length_b   5.25953008
_cell_length_c   6.70852553
_cell_angle_alpha   113.07921645
_cell_angle_beta   113.07921645
_cell_angle_gamma   90.00000000
_symmetry_Int_Tables_number   1
_chemical_formula_structural   YNbO4
_chemical_formula_sum   'Y2 Nb2 O8'
_cell_volume   154.44828549
_cell_formula_units_Z   2
loop_
 _symmetry_equiv_pos_site_id
 _symmetry_equiv_pos_as_xyz
  1  'x, y, z'
loop_
 _atom_site_type_symbol
 _atom_site_label
 _atom_site_symmetry_multiplicity
 _atom_site_fract_x
 _atom_site_fract_y
 _atom_site_fract_z
 _atom_site_occupancy
  Y  Y0  1  0.62500000  0.87500000  0.25000000  1
  Y  Y1  1  0.37500000  0.12500000  0.75000000  1
  Nb  Nb2  1  0.12500000  0.37500000  0.25000000  1
  Nb  Nb3  1  0.87500000  0.62500000  0.75000000  1
  O  O4  1  0.78300440  0.46144468  0.07200416  1
  O  O5  1  0.28899976  0.11055948  0.07200416  1
  O  O6  1  0.96144468  0.78899976  0.57200416  1
  O  O7  1  0.61055948  0.28300440  0.57200416  1
  O  O8  1  0.21699560  0.53855532  0.92799584  1
  O  O9  1  0.71100024  0.88944052  0.92799584  1
  O  O10  1  0.03855532  0.21100024  0.42799584  1
  O  O11  1  0.38944052  0.71699560  0.42799584  1
