# generated using pymatgen
data_Zr8MnCu2(PO4)12
_symmetry_space_group_name_H-M   'P 1'
_cell_length_a   9.04731618
_cell_length_b   9.07371091
_cell_length_c   18.11688767
_cell_angle_alpha   59.85468606
_cell_angle_beta   59.82810957
_cell_angle_gamma   59.65144874
_symmetry_Int_Tables_number   1
_chemical_formula_structural   Zr8MnCu2(PO4)12
_chemical_formula_sum   'Zr8 Mn1 Cu2 P12 O48'
_cell_volume   1046.34851457
_cell_formula_units_Z   1
loop_
 _symmetry_equiv_pos_site_id
 _symmetry_equiv_pos_as_xyz
  1  'x, y, z'
loop_
 _atom_site_type_symbol
 _atom_site_label
 _atom_site_symmetry_multiplicity
 _atom_site_fract_x
 _atom_site_fract_y
 _atom_site_fract_z
 _atom_site_occupancy
  Zr  Zr0  1  0.14481717  0.14037063  0.06853459  1
  Zr  Zr1  1  0.36605207  0.36702756  0.17746456  1
  Zr  Zr2  1  0.13257745  0.13957379  0.57075719  1
  Zr  Zr3  1  0.35180829  0.34924921  0.67824389  1
  Zr  Zr4  1  0.63394793  0.63297244  0.32253544  1
  Zr  Zr5  1  0.85518283  0.85962937  0.43146541  1
  Zr  Zr6  1  0.64819171  0.65075079  0.82175611  1
  Zr  Zr7  1  0.86742255  0.86042621  0.92924281  1
  Mn  Mn8  1  0.50000000  0.50000000  0.75000000  1
  Cu  Cu9  1  0.08648754  0.08440515  0.41999530  1
  Cu  Cu10  1  0.91351246  0.91559485  0.08000470  1
  P  P11  1  0.03275351  0.74816766  0.23325077  1
  P  P12  1  0.46359464  0.03733620  0.37207975  1
  P  P13  1  0.75318185  0.46811866  0.01861906  1
  P  P14  1  0.24681815  0.53188134  0.48138094  1
  P  P15  1  0.53640536  0.96266380  0.12792025  1
  P  P16  1  0.05136872  0.74134538  0.73357166  1
  P  P17  1  0.96724649  0.25183234  0.26674923  1
  P  P18  1  0.46922226  0.04922496  0.87246818  1
  P  P19  1  0.73879610  0.46710431  0.52320778  1
  P  P20  1  0.26120390  0.53289569  0.97679222  1
  P  P21  1  0.53077774  0.95077504  0.62753182  1
  P  P22  1  0.94863128  0.25865462  0.76642834  1
  O  O23  1  0.12363940  0.30664103  0.24483894  1
  O  O24  1  0.32202706  0.49701009  0.05092019  1
  O  O25  1  0.04175644  0.91316038  0.13998710  1
  O  O26  1  0.49700778  0.12312154  0.15023648  1
  O  O27  1  0.99635230  0.80802438  0.30822579  1
  O  O28  1  0.21584948  0.59621384  0.21718097  1
  O  O29  1  0.27350049  0.05797160  0.45259351  1
  O  O30  1  0.43853196  0.21607580  0.29347167  1
  O  O31  1  0.20925623  0.36729528  0.49975648  1
  O  O32  1  0.59517740  0.43882267  0.10706652  1
  O  O33  1  0.07924232  0.70500305  0.47517008  1
  O  O34  1  0.38845981  0.99587480  0.09749089  1
  O  O35  1  0.10265288  0.31472767  0.74850712  1
  O  O36  1  0.61154019  0.00412520  0.40250911  1
  O  O37  1  0.92075768  0.29499695  0.02482992  1
  O  O38  1  0.40482260  0.56117733  0.39293348  1
  O  O39  1  0.79074377  0.63270472  0.00024352  1
  O  O40  1  0.29681188  0.49346851  0.56164336  1
  O  O41  1  0.56146804  0.78392420  0.20652833  1
  O  O42  1  0.06300075  0.90518004  0.64651044  1
  O  O43  1  0.48960901  0.10327045  0.65856755  1
  O  O44  1  0.72649951  0.94202840  0.04740649  1
  O  O45  1  0.01299746  0.78431891  0.81455825  1
  O  O46  1  0.78415052  0.40378616  0.28281903  1
  O  O47  1  0.23818595  0.58219403  0.72240720  1
  O  O48  1  0.00364770  0.19197562  0.19177421  1
  O  O49  1  0.29267527  0.06010505  0.95366679  1
  O  O50  1  0.50299222  0.87687846  0.34976352  1
  O  O51  1  0.95824356  0.08683962  0.36001290  1
  O  O52  1  0.44460471  0.23584338  0.79350673  1
  O  O53  1  0.67797294  0.50298991  0.44907981  1
  O  O54  1  0.21319542  0.37328341  0.99673832  1
  O  O55  1  0.58458189  0.44119446  0.61880686  1
  O  O56  1  0.09555049  0.71004207  0.97057547  1
  O  O57  1  0.36955849  0.98992502  0.60513486  1
  O  O58  1  0.87636060  0.69335897  0.25516106  1
  O  O59  1  0.63044151  0.01007498  0.89486514  1
  O  O60  1  0.90444951  0.28995793  0.52942453  1
  O  O61  1  0.41541811  0.55880554  0.88119314  1
  O  O62  1  0.78680458  0.62671659  0.50326168  1
  O  O63  1  0.55539529  0.76415662  0.70649327  1
  O  O64  1  0.70732473  0.93989495  0.54633321  1
  O  O65  1  0.76181405  0.41780597  0.77759280  1
  O  O66  1  0.98700254  0.21568109  0.68544175  1
  O  O67  1  0.51039099  0.89672955  0.84143245  1
  O  O68  1  0.93699925  0.09481996  0.85348956  1
  O  O69  1  0.70318812  0.50653149  0.93835664  1
  O  O70  1  0.89734712  0.68527233  0.75149288  1
