# generated using pymatgen
data_Ni11As8
_symmetry_space_group_name_H-M   'P 1'
_cell_length_a   6.91172151
_cell_length_b   6.91201792
_cell_length_c   11.21626412
_cell_angle_alpha   81.23005469
_cell_angle_beta   98.75516668
_cell_angle_gamma   89.98275900
_symmetry_Int_Tables_number   1
_chemical_formula_structural   Ni11As8
_chemical_formula_sum   'Ni22 As16'
_cell_volume   523.25793827
_cell_formula_units_Z   2
loop_
 _symmetry_equiv_pos_site_id
 _symmetry_equiv_pos_as_xyz
  1  'x, y, z'
loop_
 _atom_site_type_symbol
 _atom_site_label
 _atom_site_symmetry_multiplicity
 _atom_site_fract_x
 _atom_site_fract_y
 _atom_site_fract_z
 _atom_site_occupancy
  Ni  Ni0  1  0.53326618  0.14470194  0.40731651  1
  Ni  Ni1  1  0.14466435  0.53329153  0.09270569  1
  Ni  Ni2  1  0.46674065  0.85532220  0.59267030  1
  Ni  Ni3  1  0.85535753  0.46670566  0.90730485  1
  Ni  Ni4  1  0.91548265  0.65120352  0.40797483  1
  Ni  Ni5  1  0.65121387  0.91546775  0.09204737  1
  Ni  Ni6  1  0.08451996  0.34880691  0.59202628  1
  Ni  Ni7  1  0.34880221  0.08452749  0.90795122  1
  Ni  Ni8  1  0.53995128  0.65210702  0.40762653  1
  Ni  Ni9  1  0.65209009  0.54000415  0.09238551  1
  Ni  Ni10  1  0.46003530  0.34787051  0.59236341  1
  Ni  Ni11  1  0.34789171  0.45998533  0.90762233  1
  Ni  Ni12  1  0.19796784  0.67773289  0.28655451  1
  Ni  Ni13  1  0.67777207  0.19796775  0.21343921  1
  Ni  Ni14  1  0.80203754  0.32228048  0.71344686  1
  Ni  Ni15  1  0.32224092  0.80204522  0.78656744  1
  Ni  Ni16  1  0.92133958  0.14518218  0.40669593  1
  Ni  Ni17  1  0.14517063  0.92132615  0.09334142  1
  Ni  Ni18  1  0.85482329  0.07867857  0.90667868  1
  Ni  Ni19  1  0.07865595  0.85481686  0.59327838  1
  Ni  Ni20  1  0.18953564  0.18951285  0.24998500  1
  Ni  Ni21  1  0.81045332  0.81047284  0.75001907  1
  As  As22  1  0.25089275  0.62415937  0.50127885  1
  As  As23  1  0.62413093  0.25090277  0.99871551  1
  As  As24  1  0.74910261  0.37585327  0.49871032  1
  As  As25  1  0.37587243  0.74909433  0.00129074  1
  As  As26  1  0.12699545  0.24811952  0.00836456  1
  As  As27  1  0.24811681  0.12701394  0.49160646  1
  As  As28  1  0.87299881  0.75188398  0.99163221  1
  As  As29  1  0.75188735  0.87297389  0.50840076  1
  As  As30  1  0.93287433  0.93287831  0.24999676  1
  As  As31  1  0.06713439  0.06711634  0.75000415  1
  As  As32  1  0.44297040  0.44297659  0.25000793  1
  As  As33  1  0.55701419  0.55701716  0.74999294  1
  As  As34  1  0.44339178  0.93393794  0.24901044  1
  As  As35  1  0.93392985  0.44339187  0.25099038  1
  As  As36  1  0.55659518  0.06606429  0.75099122  1
  As  As37  1  0.06608618  0.55660464  0.74900545  1
