# generated using pymatgen
data_CaP2H10(NO4)2
_symmetry_space_group_name_H-M   'P 1'
_cell_length_a   9.67054864
_cell_length_b   10.95284333
_cell_length_c   17.19089498
_cell_angle_alpha   90.00000000
_cell_angle_beta   90.00000000
_cell_angle_gamma   90.00000000
_symmetry_Int_Tables_number   1
_chemical_formula_structural   CaP2H10(NO4)2
_chemical_formula_sum   'Ca8 P16 H80 N16 O64'
_cell_volume   1820.85966795
_cell_formula_units_Z   8
loop_
 _symmetry_equiv_pos_site_id
 _symmetry_equiv_pos_as_xyz
  1  'x, y, z'
loop_
 _atom_site_type_symbol
 _atom_site_label
 _atom_site_symmetry_multiplicity
 _atom_site_fract_x
 _atom_site_fract_y
 _atom_site_fract_z
 _atom_site_occupancy
  Ca  Ca0  1  0.49603156  0.27959641  0.64942519  1
  Ca  Ca1  1  0.99603156  0.22040359  0.85057481  1
  Ca  Ca2  1  0.50396844  0.22040359  0.14942519  1
  Ca  Ca3  1  0.00396844  0.27959641  0.35057481  1
  Ca  Ca4  1  0.50396844  0.72040359  0.35057481  1
  Ca  Ca5  1  0.00396844  0.77959641  0.14942519  1
  Ca  Ca6  1  0.49603156  0.77959641  0.85057481  1
  Ca  Ca7  1  0.99603156  0.72040359  0.64942519  1
  P  P8  1  0.30612586  0.55593441  0.61824710  1
  P  P9  1  0.80612586  0.94406559  0.88175290  1
  P  P10  1  0.69387414  0.94406559  0.11824710  1
  P  P11  1  0.19387414  0.55593441  0.38175290  1
  P  P12  1  0.69387414  0.44406559  0.38175290  1
  P  P13  1  0.19387414  0.05593441  0.11824710  1
  P  P14  1  0.30612586  0.05593441  0.88175290  1
  P  P15  1  0.80612586  0.44406559  0.61824710  1
  P  P16  1  0.25000000  0.36041967  0.50000000  1
  P  P17  1  0.75000000  0.13958033  0.00000000  1
  P  P18  1  0.75000000  0.63958033  0.50000000  1
  P  P19  1  0.25000000  0.86041967  0.00000000  1
  P  P20  1  0.75000000  0.24485606  0.50000000  1
  P  P21  1  0.25000000  0.25514394  0.00000000  1
  P  P22  1  0.25000000  0.75514394  0.50000000  1
  P  P23  1  0.75000000  0.74485606  0.00000000  1
  H  H24  1  0.45468027  0.66336239  0.53389197  1
  H  H25  1  0.95468027  0.83663761  0.96610803  1
  H  H26  1  0.54531973  0.83663761  0.03389197  1
  H  H27  1  0.04531973  0.66336239  0.46610803  1
  H  H28  1  0.54531973  0.33663761  0.46610803  1
  H  H29  1  0.04531973  0.16336239  0.03389197  1
  H  H30  1  0.45468027  0.16336239  0.96610803  1
  H  H31  1  0.95468027  0.33663761  0.53389197  1
  H  H32  1  0.10255927  0.45684104  0.59066718  1
  H  H33  1  0.60255927  0.04315896  0.90933282  1
  H  H34  1  0.89744073  0.04315896  0.09066718  1
  H  H35  1  0.39744073  0.45684104  0.40933282  1
  H  H36  1  0.89744073  0.54315896  0.40933282  1
  H  H37  1  0.39744073  0.95684104  0.09066718  1
  H  H38  1  0.10255927  0.95684104  0.90933282  1
  H  H39  1  0.60255927  0.54315896  0.59066718  1
  H  H40  1  0.55917355  0.07584791  0.76993534  1
  H  H41  1  0.05917355  0.42415209  0.73006466  1
  H  H42  1  0.44082645  0.42415209  0.26993534  1
  H  H43  1  0.94082645  0.07584791  0.23006466  1
  H  H44  1  0.44082645  0.92415209  0.23006466  1
  H  H45  1  0.94082645  0.57584791  0.26993534  1
  H  H46  1  0.55917355  0.57584791  0.73006466  1
  H  H47  1  0.05917355  0.92415209  0.76993534  1
  H  H48  1  0.69816122  0.11360377  0.72736068  1
  H  H49  1  0.19816122  0.38639623  0.77263932  1
  H  H50  1  0.30183878  0.38639623  0.22736068  1
  H  H51  1  0.80183878  0.11360377  0.27263932  1
  H  H52  1  0.30183878  0.88639623  0.27263932  1
  H  H53  1  0.80183878  0.61360377  0.22736068  1
  H  H54  1  0.69816122  0.61360377  0.77263932  1
  H  H55  1  0.19816122  0.88639623  0.72736068  1
  H  H56  1  0.38527718  0.99455234  0.43838405  1
  H  H57  1  0.88527718  0.50544766  0.06161595  1
  H  H58  1  0.61472282  0.50544766  0.93838405  1
  H  H59  1  0.11472282  0.99455234  0.56161595  1
  H  H60  1  0.61472282  0.00544766  0.56161595  1
  H  H61  1  0.11472282  0.49455234  0.93838405  1
  H  H62  1  0.38527718  0.49455234  0.06161595  1
  H  H63  1  0.88527718  0.00544766  0.43838405  1
  H  H64  1  0.40807360  0.13385830  0.46278568  1
  H  H65  1  0.90807360  0.36614170  0.03721432  1
  H  H66  1  0.59192640  0.36614170  0.96278568  1
  H  H67  1  0.09192640  0.13385830  0.53721432  1
  H  H68  1  0.59192640  0.86614170  0.53721432  1
  H  H69  1  0.09192640  0.63385830  0.96278568  1
  H  H70  1  0.40807360  0.63385830  0.03721432  1
  H  H71  1  0.90807360  0.86614170  0.46278568  1
  H  H72  1  0.45377638  0.39925023  0.82243599  1
  H  H73  1  0.95377638  0.10074977  0.67756401  1
  H  H74  1  0.54622362  0.10074977  0.32243599  1
  H  H75  1  0.04622362  0.39925023  0.17756401  1
  H  H76  1  0.54622362  0.60074977  0.17756401  1
  H  H77  1  0.04622362  0.89925023  0.32243599  1
  H  H78  1  0.45377638  0.89925023  0.67756401  1
  H  H79  1  0.95377638  0.60074977  0.82243599  1
  H  H80  1  0.37998228  0.27473623  0.81939051  1
  H  H81  1  0.87998228  0.22526377  0.68060949  1
  H  H82  1  0.62001772  0.22526377  0.31939051  1
  H  H83  1  0.12001772  0.27473623  0.18060949  1
  H  H84  1  0.62001772  0.72526377  0.18060949  1
  H  H85  1  0.12001772  0.77473623  0.31939051  1
  H  H86  1  0.37998228  0.77473623  0.68060949  1
  H  H87  1  0.87998228  0.72526377  0.81939051  1
  H  H88  1  0.23359858  0.12873473  0.63570546  1
  H  H89  1  0.73359858  0.37126527  0.86429454  1
  H  H90  1  0.76640142  0.37126527  0.13570546  1
  H  H91  1  0.26640142  0.12873473  0.36429454  1
  H  H92  1  0.76640142  0.87126527  0.36429454  1
  H  H93  1  0.26640142  0.62873473  0.13570546  1
  H  H94  1  0.23359858  0.62873473  0.86429454  1
  H  H95  1  0.73359858  0.87126527  0.63570546  1
  H  H96  1  0.27041818  0.14036474  0.72511257  1
  H  H97  1  0.77041818  0.35963526  0.77488743  1
  H  H98  1  0.72958182  0.35963526  0.22511257  1
  H  H99  1  0.22958182  0.14036474  0.27488743  1
  H  H100  1  0.72958182  0.85963526  0.27488743  1
  H  H101  1  0.22958182  0.64036474  0.22511257  1
  H  H102  1  0.27041818  0.64036474  0.77488743  1
  H  H103  1  0.77041818  0.85963526  0.72511257  1
  N  N104  1  0.35345897  0.66230939  0.55325202  1
  N  N105  1  0.85345897  0.83769061  0.94674798  1
  N  N106  1  0.64654103  0.83769061  0.05325202  1
  N  N107  1  0.14654103  0.66230939  0.44674798  1
  N  N108  1  0.64654103  0.33769061  0.44674798  1
  N  N109  1  0.14654103  0.16230939  0.05325202  1
  N  N110  1  0.35345897  0.16230939  0.94674798  1
  N  N111  1  0.85345897  0.33769061  0.55325202  1
  N  N112  1  0.20564091  0.45126574  0.57475846  1
  N  N113  1  0.70564091  0.04873426  0.92524154  1
  N  N114  1  0.79435909  0.04873426  0.07475846  1
  N  N115  1  0.29435909  0.45126574  0.42524154  1
  N  N116  1  0.79435909  0.54873426  0.42524154  1
  N  N117  1  0.29435909  0.95126574  0.07475846  1
  N  N118  1  0.20564091  0.95126574  0.92524154  1
  N  N119  1  0.70564091  0.54873426  0.57475846  1
  O  O120  1  0.21376255  0.61642244  0.67839725  1
  O  O121  1  0.71376255  0.88357756  0.82160275  1
  O  O122  1  0.78623745  0.88357756  0.17839725  1
  O  O123  1  0.28623745  0.61642244  0.32160275  1
  O  O124  1  0.78623745  0.38357756  0.32160275  1
  O  O125  1  0.28623745  0.11642244  0.17839725  1
  O  O126  1  0.21376255  0.11642244  0.82160275  1
  O  O127  1  0.71376255  0.38357756  0.67839725  1
  O  O128  1  0.65245126  0.17761843  0.55396228  1
  O  O129  1  0.15245126  0.32238157  0.94603772  1
  O  O130  1  0.34754874  0.32238157  0.05396228  1
  O  O131  1  0.84754874  0.17761843  0.44603772  1
  O  O132  1  0.34754874  0.82238157  0.44603772  1
  O  O133  1  0.84754874  0.67761843  0.05396228  1
  O  O134  1  0.65245126  0.67761843  0.94603772  1
  O  O135  1  0.15245126  0.82238157  0.55396228  1
  O  O136  1  0.38043438  0.29029533  0.52083720  1
  O  O137  1  0.88043438  0.20970467  0.97916280  1
  O  O138  1  0.61956562  0.20970467  0.02083720  1
  O  O139  1  0.11956562  0.29029533  0.47916280  1
  O  O140  1  0.61956562  0.70970467  0.47916280  1
  O  O141  1  0.11956562  0.79029533  0.02083720  1
  O  O142  1  0.38043438  0.79029533  0.97916280  1
  O  O143  1  0.88043438  0.70970467  0.52083720  1
  O  O144  1  0.44029351  0.49632943  0.64462554  1
  O  O145  1  0.94029351  0.00367057  0.85537446  1
  O  O146  1  0.55970649  0.00367057  0.14462554  1
  O  O147  1  0.05970649  0.49632943  0.35537446  1
  O  O148  1  0.55970649  0.50367057  0.35537446  1
  O  O149  1  0.05970649  0.99632943  0.14462554  1
  O  O150  1  0.44029351  0.99632943  0.85537446  1
  O  O151  1  0.94029351  0.50367057  0.64462554  1
  O  O152  1  0.59734729  0.12365841  0.72704967  1
  O  O153  1  0.09734729  0.37634159  0.77295033  1
  O  O154  1  0.40265271  0.37634159  0.22704967  1
  O  O155  1  0.90265271  0.12365841  0.27295033  1
  O  O156  1  0.40265271  0.87634159  0.27295033  1
  O  O157  1  0.90265271  0.62365841  0.22704967  1
  O  O158  1  0.59734729  0.62365841  0.77295033  1
  O  O159  1  0.09734729  0.87634159  0.72704967  1
  O  O160  1  0.40255686  0.07741848  0.41835635  1
  O  O161  1  0.90255686  0.42258152  0.08164365  1
  O  O162  1  0.59744314  0.42258152  0.91835635  1
  O  O163  1  0.09744314  0.07741848  0.58164365  1
  O  O164  1  0.59744314  0.92258152  0.58164365  1
  O  O165  1  0.09744314  0.57741848  0.91835635  1
  O  O166  1  0.40255686  0.57741848  0.08164365  1
  O  O167  1  0.90255686  0.92258152  0.41835635  1
  O  O168  1  0.40359492  0.34494648  0.78664572  1
  O  O169  1  0.90359492  0.15505352  0.71335428  1
  O  O170  1  0.59640508  0.15505352  0.28664572  1
  O  O171  1  0.09640508  0.34494648  0.21335428  1
  O  O172  1  0.59640508  0.65505352  0.21335428  1
  O  O173  1  0.09640508  0.84494648  0.28664572  1
  O  O174  1  0.40359492  0.84494648  0.71335428  1
  O  O175  1  0.90359492  0.65505352  0.78664572  1
  O  O176  1  0.30612013  0.15775601  0.67241424  1
  O  O177  1  0.80612013  0.34224399  0.82758576  1
  O  O178  1  0.69387987  0.34224399  0.17241424  1
  O  O179  1  0.19387987  0.15775601  0.32758576  1
  O  O180  1  0.69387987  0.84224399  0.32758576  1
  O  O181  1  0.19387987  0.65775601  0.17241424  1
  O  O182  1  0.30612013  0.65775601  0.82758576  1
  O  O183  1  0.80612013  0.84224399  0.67241424  1
