# generated using pymatgen
data_LaS2
_symmetry_space_group_name_H-M   'P 1'
_cell_length_a   4.14171748
_cell_length_b   8.22150718
_cell_length_c   8.20223516
_cell_angle_alpha   90.05529873
_cell_angle_beta   90.00000000
_cell_angle_gamma   90.00000000
_symmetry_Int_Tables_number   1
_chemical_formula_structural   LaS2
_chemical_formula_sum   'La4 S8'
_cell_volume   279.29549155
_cell_formula_units_Z   4
loop_
 _symmetry_equiv_pos_site_id
 _symmetry_equiv_pos_as_xyz
  1  'x, y, z'
loop_
 _atom_site_type_symbol
 _atom_site_label
 _atom_site_symmetry_multiplicity
 _atom_site_fract_x
 _atom_site_fract_y
 _atom_site_fract_z
 _atom_site_occupancy
  La  La0  1  0.71230974  0.72282216  0.37020529  1
  La  La1  1  0.21230974  0.27717784  0.12979471  1
  La  La2  1  0.28769026  0.27717784  0.62979471  1
  La  La3  1  0.78769026  0.72282216  0.87020529  1
  S  S4  1  0.65197899  0.00233418  0.10514557  1
  S  S5  1  0.15197899  0.99766582  0.39485443  1
  S  S6  1  0.34802101  0.99766582  0.89485443  1
  S  S7  1  0.84802101  0.00233418  0.60514557  1
  S  S8  1  0.73765158  0.36521158  0.37440906  1
  S  S9  1  0.23765158  0.63478842  0.12559094  1
  S  S10  1  0.26234842  0.63478842  0.62559094  1
  S  S11  1  0.76234842  0.36521158  0.87440906  1
