# generated using pymatgen
data_Nb5B6
_symmetry_space_group_name_H-M   'P 1'
_cell_length_a   3.16796705
_cell_length_b   3.32028178
_cell_length_c   11.57300547
_cell_angle_alpha   90.00000000
_cell_angle_beta   97.86669555
_cell_angle_gamma   90.00000000
_symmetry_Int_Tables_number   1
_chemical_formula_structural   Nb5B6
_chemical_formula_sum   'Nb5 B6'
_cell_volume   120.58556991
_cell_formula_units_Z   1
loop_
 _symmetry_equiv_pos_site_id
 _symmetry_equiv_pos_as_xyz
  1  'x, y, z'
loop_
 _atom_site_type_symbol
 _atom_site_label
 _atom_site_symmetry_multiplicity
 _atom_site_fract_x
 _atom_site_fract_y
 _atom_site_fract_z
 _atom_site_occupancy
  Nb  Nb0  1  -0.00000000  0.00000000  0.00000000  1
  Nb  Nb1  1  0.38579381  0.00000000  0.77158762  1
  Nb  Nb2  1  0.61420619  0.00000000  0.22841238  1
  Nb  Nb3  1  0.19434057  0.50000000  0.38868114  1
  Nb  Nb4  1  0.80565943  0.50000000  0.61131886  1
  B  B5  1  0.08157937  0.50000000  0.16315875  1
  B  B6  1  0.91842063  0.50000000  0.83684125  1
  B  B7  1  0.27221225  0.00000000  0.54442451  1
  B  B8  1  0.72778775  0.00000000  0.45557549  1
  B  B9  1  0.46024299  0.50000000  0.92048598  1
  B  B10  1  0.53975701  0.50000000  0.07951402  1
