# generated using pymatgen
data_Na5SbO5
_symmetry_space_group_name_H-M   'P 1'
_cell_length_a   4.46976798
_cell_length_b   5.89821500
_cell_length_c   6.48939550
_cell_angle_alpha   72.75778892
_cell_angle_beta   90.00000000
_cell_angle_gamma   67.73390897
_symmetry_Int_Tables_number   1
_chemical_formula_structural   Na5SbO5
_chemical_formula_sum   'Na5 Sb1 O5'
_cell_volume   149.98612509
_cell_formula_units_Z   1
loop_
 _symmetry_equiv_pos_site_id
 _symmetry_equiv_pos_as_xyz
  1  'x, y, z'
loop_
 _atom_site_type_symbol
 _atom_site_label
 _atom_site_symmetry_multiplicity
 _atom_site_fract_x
 _atom_site_fract_y
 _atom_site_fract_z
 _atom_site_occupancy
  Na  Na0  1  0.67850912  0.64298175  0.86019544  1
  Na  Na1  1  0.69803312  0.60393377  0.32373982  1
  Na  Na2  1  0.30196688  0.39606623  0.67626018  1
  Na  Na3  1  0.32149088  0.35701825  0.13980456  1
  Na  Na4  1  -0.00000000  0.00000000  0.50000000  1
  Sb  Sb5  1  -0.00000000  0.00000000  -0.00000000  1
  O  O6  1  0.13185327  0.73629346  0.84404596  1
  O  O7  1  0.14359573  0.71280954  0.29244234  1
  O  O8  1  0.85640427  0.28719046  0.70755766  1
  O  O9  1  0.86814673  0.26370654  0.15595404  1
  O  O10  1  0.50000000  0.00000000  -0.00000000  1
