# generated using pymatgen
data_UCo3
_symmetry_space_group_name_H-M   'P 1'
_cell_length_a   4.79468990
_cell_length_b   4.79468990
_cell_length_c   8.58048267
_cell_angle_alpha   73.77589218
_cell_angle_beta   73.77589218
_cell_angle_gamma   59.99999311
_symmetry_Int_Tables_number   1
_chemical_formula_structural   UCo3
_chemical_formula_sum   'U3 Co9'
_cell_volume   161.69532186
_cell_formula_units_Z   3
loop_
 _symmetry_equiv_pos_site_id
 _symmetry_equiv_pos_as_xyz
  1  'x, y, z'
loop_
 _atom_site_type_symbol
 _atom_site_label
 _atom_site_symmetry_multiplicity
 _atom_site_fract_x
 _atom_site_fract_y
 _atom_site_fract_z
 _atom_site_occupancy
  U  U0  1  0.14061419  0.14061419  0.57815743  1
  U  U1  1  0.85938581  0.85938581  0.42184257  1
  U  U2  1  -0.00000000  0.00000000  0.00000000  1
  Co  Co3  1  0.08382988  0.58270624  0.75075764  1
  Co  Co4  1  0.58270624  0.58270624  0.75075764  1
  Co  Co5  1  0.58270624  0.08382988  0.75075764  1
  Co  Co6  1  0.91617012  0.41729376  0.24924236  1
  Co  Co7  1  0.41729376  0.41729376  0.24924236  1
  Co  Co8  1  0.41729376  0.91617012  0.24924236  1
  Co  Co9  1  0.33371244  0.33371244  0.99886267  1
  Co  Co10  1  0.66628756  0.66628756  0.00113733  1
  Co  Co11  1  0.50000000  0.50000000  0.50000000  1
