# generated using pymatgen
data_UB4W
_symmetry_space_group_name_H-M   'P 1'
_cell_length_a   3.64827485
_cell_length_b   5.95970704
_cell_length_c   5.95970704
_cell_angle_alpha   103.82288953
_cell_angle_beta   90.00000000
_cell_angle_gamma   90.00000000
_symmetry_Int_Tables_number   1
_chemical_formula_structural   UB4W
_chemical_formula_sum   'U2 B8 W2'
_cell_volume   125.82704695
_cell_formula_units_Z   2
loop_
 _symmetry_equiv_pos_site_id
 _symmetry_equiv_pos_as_xyz
  1  'x, y, z'
loop_
 _atom_site_type_symbol
 _atom_site_label
 _atom_site_symmetry_multiplicity
 _atom_site_fract_x
 _atom_site_fract_y
 _atom_site_fract_z
 _atom_site_occupancy
  U  U0  1  -0.00000000  0.30098157  0.69901843  1
  U  U1  1  -0.00000000  0.69901843  0.30098157  1
  B  B2  1  0.50000000  0.93577631  0.61612726  1
  B  B3  1  0.50000000  0.06422369  0.38387274  1
  B  B4  1  0.50000000  0.61612726  0.93577631  1
  B  B5  1  0.50000000  0.38387274  0.06422369  1
  B  B6  1  0.50000000  0.61843598  0.61843598  1
  B  B7  1  0.50000000  0.38156402  0.38156402  1
  B  B8  1  0.50000000  0.09362723  0.90637277  1
  B  B9  1  0.50000000  0.90637277  0.09362723  1
  W  W10  1  0.00000000  0.81773435  0.81773435  1
  W  W11  1  0.00000000  0.18226565  0.18226565  1
