# generated using pymatgen
data_ScSeO3F
_symmetry_space_group_name_H-M   'P 1'
_cell_length_a   4.11558069
_cell_length_b   6.37260633
_cell_length_c   6.66367755
_cell_angle_alpha   92.26925415
_cell_angle_beta   94.79343248
_cell_angle_gamma   95.33101186
_symmetry_Int_Tables_number   1
_chemical_formula_structural   ScSeO3F
_chemical_formula_sum   'Sc2 Se2 O6 F2'
_cell_volume   173.20589109
_cell_formula_units_Z   2
loop_
 _symmetry_equiv_pos_site_id
 _symmetry_equiv_pos_as_xyz
  1  'x, y, z'
loop_
 _atom_site_type_symbol
 _atom_site_label
 _atom_site_symmetry_multiplicity
 _atom_site_fract_x
 _atom_site_fract_y
 _atom_site_fract_z
 _atom_site_occupancy
  Sc  Sc0  1  0.53515508  0.62898287  0.75623419  1
  Sc  Sc1  1  0.46484492  0.37101713  0.24376581  1
  Se  Se2  1  0.68347550  0.85755579  0.27918442  1
  Se  Se3  1  0.31652450  0.14244421  0.72081558  1
  O  O4  1  0.59861283  0.96914430  0.77165088  1
  O  O5  1  0.40138717  0.03085570  0.22834912  1
  O  O6  1  0.60978609  0.67016825  0.07861906  1
  O  O7  1  0.39021391  0.32983175  0.92138094  1
  O  O8  1  0.48404504  0.67668704  0.43095442  1
  O  O9  1  0.51595496  0.32331296  0.56904558  1
  F  F10  1  0.03539378  0.64949927  0.74224806  1
  F  F11  1  0.96460622  0.35050073  0.25775194  1
