# generated using pymatgen
data_Tm5S7
_symmetry_space_group_name_H-M   'P 1'
_cell_length_a   3.74437373
_cell_length_b   6.58491328
_cell_length_c   11.46878316
_cell_angle_alpha   103.84695948
_cell_angle_beta   90.00000000
_cell_angle_gamma   106.51787762
_symmetry_Int_Tables_number   1
_chemical_formula_structural   Tm5S7
_chemical_formula_sum   'Tm5 S7'
_cell_volume   262.52561871
_cell_formula_units_Z   1
loop_
 _symmetry_equiv_pos_site_id
 _symmetry_equiv_pos_as_xyz
  1  'x, y, z'
loop_
 _atom_site_type_symbol
 _atom_site_label
 _atom_site_symmetry_multiplicity
 _atom_site_fract_x
 _atom_site_fract_y
 _atom_site_fract_z
 _atom_site_occupancy
  Tm  Tm0  1  0.00000000  -0.00000000  0.00000000  1
  Tm  Tm1  1  0.11206629  0.22413258  0.42152902  1
  Tm  Tm2  1  0.88793371  0.77586742  0.57847098  1
  Tm  Tm3  1  0.30014892  0.60029784  0.18682892  1
  Tm  Tm4  1  0.69985108  0.39970216  0.81317108  1
  S  S5  1  0.50000000  -0.00000000  0.50000000  1
  S  S6  1  0.65909648  0.31819296  0.05073969  1
  S  S7  1  0.34090352  0.68180704  0.94926031  1
  S  S8  1  0.95849967  0.91699933  0.21500054  1
  S  S9  1  0.04150033  0.08300067  0.78499946  1
  S  S10  1  0.25909466  0.51818933  0.64709930  1
  S  S11  1  0.74090534  0.48181067  0.35290070  1
