# generated using pymatgen
data_CaH4Ir(OF3)2
_symmetry_space_group_name_H-M   'P 1'
_cell_length_a   6.05470980
_cell_length_b   9.65535934
_cell_length_c   11.19734172
_cell_angle_alpha   90.00000000
_cell_angle_beta   99.80051260
_cell_angle_gamma   90.00000000
_symmetry_Int_Tables_number   1
_chemical_formula_structural   CaH4Ir(OF3)2
_chemical_formula_sum   'Ca4 H16 Ir4 O8 F24'
_cell_volume   645.04806065
_cell_formula_units_Z   4
loop_
 _symmetry_equiv_pos_site_id
 _symmetry_equiv_pos_as_xyz
  1  'x, y, z'
loop_
 _atom_site_type_symbol
 _atom_site_label
 _atom_site_symmetry_multiplicity
 _atom_site_fract_x
 _atom_site_fract_y
 _atom_site_fract_z
 _atom_site_occupancy
  Ca  Ca0  1  0.83755529  0.68343207  0.04639473  1
  Ca  Ca1  1  0.33755529  0.81656793  0.54639473  1
  Ca  Ca2  1  0.16244471  0.31656793  0.95360527  1
  Ca  Ca3  1  0.66244471  0.18343207  0.45360527  1
  H  H4  1  0.44040748  0.85970094  0.92584561  1
  H  H5  1  0.94040748  0.64029906  0.42584561  1
  H  H6  1  0.55959252  0.14029906  0.07415439  1
  H  H7  1  0.05959252  0.35970094  0.57415439  1
  H  H8  1  0.40557471  0.83698024  0.05985222  1
  H  H9  1  0.90557471  0.66301976  0.55985222  1
  H  H10  1  0.59442529  0.16301976  0.94014778  1
  H  H11  1  0.09442529  0.33698024  0.44014778  1
  H  H12  1  0.24930340  0.63661481  0.93876098  1
  H  H13  1  0.74930340  0.86338519  0.43876098  1
  H  H14  1  0.75069660  0.36338519  0.06123902  1
  H  H15  1  0.25069660  0.13661481  0.56123902  1
  H  H16  1  0.05698670  0.59041346  0.83360077  1
  H  H17  1  0.55698670  0.90958654  0.33360077  1
  H  H18  1  0.94301330  0.40958654  0.16639923  1
  H  H19  1  0.44301330  0.09041346  0.66639923  1
  Ir  Ir20  1  0.09935347  0.03841574  0.23640730  1
  Ir  Ir21  1  0.59935347  0.46158426  0.73640730  1
  Ir  Ir22  1  0.90064653  0.96158426  0.76359270  1
  Ir  Ir23  1  0.40064653  0.53841574  0.26359270  1
  O  O24  1  0.46108754  0.79198020  0.99139386  1
  O  O25  1  0.96108754  0.70801980  0.49139386  1
  O  O26  1  0.53891246  0.20801980  0.00860614  1
  O  O27  1  0.03891246  0.29198020  0.50860614  1
  O  O28  1  0.11610389  0.57642233  0.92024327  1
  O  O29  1  0.61610389  0.92357767  0.42024327  1
  O  O30  1  0.88389611  0.42357767  0.07975673  1
  O  O31  1  0.38389611  0.07642233  0.57975673  1
  F  F32  1  0.84681063  0.14093233  0.28971530  1
  F  F33  1  0.34681063  0.35906767  0.78971530  1
  F  F34  1  0.15318937  0.85906767  0.71028470  1
  F  F35  1  0.65318937  0.64093233  0.21028470  1
  F  F36  1  0.88306853  0.90628817  0.15264138  1
  F  F37  1  0.38306853  0.59371183  0.65264138  1
  F  F38  1  0.11693147  0.09371183  0.84735862  1
  F  F39  1  0.61693147  0.40628817  0.34735862  1
  F  F40  1  0.35695356  0.94127187  0.18520365  1
  F  F41  1  0.85695356  0.55872813  0.68520365  1
  F  F42  1  0.64304644  0.05872813  0.81479635  1
  F  F43  1  0.14304644  0.44127187  0.31479635  1
  F  F44  1  0.31939751  0.16788991  0.32385634  1
  F  F45  1  0.81939751  0.33211009  0.82385634  1
  F  F46  1  0.68060249  0.83211009  0.67614366  1
  F  F47  1  0.18060249  0.66788991  0.17614366  1
  F  F48  1  0.12319530  0.92619442  0.38310901  1
  F  F49  1  0.62319530  0.57380558  0.88310901  1
  F  F50  1  0.87680470  0.07380558  0.61689099  1
  F  F51  1  0.37680470  0.42619442  0.11689099  1
  F  F52  1  0.07049463  0.15359814  0.09122760  1
  F  F53  1  0.57049463  0.34640186  0.59122760  1
  F  F54  1  0.92950537  0.84640186  0.90877240  1
  F  F55  1  0.42950537  0.65359814  0.40877240  1
