# generated using pymatgen
data_Mo2P2O11
_symmetry_space_group_name_H-M   'P 1'
_cell_length_a   7.60702112
_cell_length_b   6.43769597
_cell_length_c   9.15373891
_cell_angle_alpha   90.16664191
_cell_angle_beta   105.18961504
_cell_angle_gamma   89.90042153
_symmetry_Int_Tables_number   1
_chemical_formula_structural   Mo2P2O11
_chemical_formula_sum   'Mo4 P4 O22'
_cell_volume   432.61110417
_cell_formula_units_Z   2
loop_
 _symmetry_equiv_pos_site_id
 _symmetry_equiv_pos_as_xyz
  1  'x, y, z'
loop_
 _atom_site_type_symbol
 _atom_site_label
 _atom_site_symmetry_multiplicity
 _atom_site_fract_x
 _atom_site_fract_y
 _atom_site_fract_z
 _atom_site_occupancy
  Mo  Mo0  1  0.39139979  0.24672567  0.29506467  1
  Mo  Mo1  1  0.60860021  0.75327433  0.70493533  1
  Mo  Mo2  1  0.18417479  0.24782851  0.86068983  1
  Mo  Mo3  1  0.81582521  0.75217149  0.13931017  1
  P  P4  1  0.07001383  0.74881056  0.88370971  1
  P  P5  1  0.49076683  0.74889802  0.32931122  1
  P  P6  1  0.50923317  0.25110198  0.67068878  1
  P  P7  1  0.92998617  0.25118944  0.11629029  1
  O  O8  1  0.98236477  0.25471951  0.96224948  1
  O  O9  1  0.04251493  0.24038497  0.68442943  1
  O  O10  1  0.90641619  0.75321544  0.74889925  1
  O  O11  1  0.01763523  0.74528049  0.03775052  1
  O  O12  1  0.63874115  0.06250663  0.69510660  1
  O  O13  1  0.37632350  0.75811867  0.64202305  1
  O  O14  1  0.95748507  0.75961503  0.31557057  1
  O  O15  1  0.09358381  0.24678456  0.25110075  1
  O  O16  1  0.80317704  0.05845930  0.10796712  1
  O  O17  1  0.63351633  0.44346569  0.69309932  1
  O  O18  1  0.63673599  0.75152254  0.47986824  1
  O  O19  1  0.35619638  0.24871880  0.09333198  1
  O  O20  1  0.58784738  0.75048080  0.19598871  1
  O  O21  1  0.64380362  0.75128120  0.90666802  1
  O  O22  1  0.19461014  0.55582142  0.88431193  1
  O  O23  1  0.36125885  0.93749337  0.30489340  1
  O  O24  1  0.41215262  0.24951920  0.80401129  1
  O  O25  1  0.36648367  0.55653431  0.30690068  1
  O  O26  1  0.62367650  0.24188133  0.35797695  1
  O  O27  1  0.36326401  0.24847746  0.52013176  1
  O  O28  1  0.80538986  0.44417858  0.11568807  1
  O  O29  1  0.19682296  0.94154070  0.89203288  1
