# generated using pymatgen
data_UIr
_symmetry_space_group_name_H-M   'P 1'
_cell_length_a   5.61447117
_cell_length_b   5.59781096
_cell_length_c   10.63033509
_cell_angle_alpha   90.00000000
_cell_angle_beta   90.00000000
_cell_angle_gamma   98.38755427
_symmetry_Int_Tables_number   1
_chemical_formula_structural   UIr
_chemical_formula_sum   'U8 Ir8'
_cell_volume   330.52462542
_cell_formula_units_Z   8
loop_
 _symmetry_equiv_pos_site_id
 _symmetry_equiv_pos_as_xyz
  1  'x, y, z'
loop_
 _atom_site_type_symbol
 _atom_site_label
 _atom_site_symmetry_multiplicity
 _atom_site_fract_x
 _atom_site_fract_y
 _atom_site_fract_z
 _atom_site_occupancy
  U  U0  1  0.13128841  0.10266849  0.50385831  1
  U  U1  1  0.86871159  0.89733151  0.00385831  1
  U  U2  1  0.61275111  0.65346035  0.50782288  1
  U  U3  1  0.38724889  0.34653965  0.00782288  1
  U  U4  1  0.85683392  0.40054719  0.77768507  1
  U  U5  1  0.14316608  0.59945281  0.27768507  1
  U  U6  1  0.39563541  0.84332874  0.77474233  1
  U  U7  1  0.60436459  0.15667126  0.27474233  1
  Ir  Ir8  1  0.09872292  0.09481847  0.24201445  1
  Ir  Ir9  1  0.90127708  0.90518153  0.74201445  1
  Ir  Ir10  1  0.65083225  0.66032865  0.24471140  1
  Ir  Ir11  1  0.34916775  0.33967135  0.74471140  1
  Ir  Ir12  1  0.89281287  0.39830442  0.04130974  1
  Ir  Ir13  1  0.10718713  0.60169558  0.54130974  1
  Ir  Ir14  1  0.36138788  0.84669844  0.03985583  1
  Ir  Ir15  1  0.63861212  0.15330156  0.53985583  1
