# generated using pymatgen
data_Tm2Ge5Rh3
_symmetry_space_group_name_H-M   'P 1'
_cell_length_a   5.90121028
_cell_length_b   8.33572994
_cell_length_c   8.33572994
_cell_angle_alpha   92.60070594
_cell_angle_beta   109.29474939
_cell_angle_gamma   109.29474939
_symmetry_Int_Tables_number   1
_chemical_formula_structural   Tm2Ge5Rh3
_chemical_formula_sum   'Tm4 Ge10 Rh6'
_cell_volume   359.73271593
_cell_formula_units_Z   2
loop_
 _symmetry_equiv_pos_site_id
 _symmetry_equiv_pos_as_xyz
  1  'x, y, z'
loop_
 _atom_site_type_symbol
 _atom_site_label
 _atom_site_symmetry_multiplicity
 _atom_site_fract_x
 _atom_site_fract_y
 _atom_site_fract_z
 _atom_site_occupancy
  Tm  Tm0  1  0.23260607  0.86577003  0.59134634  1
  Tm  Tm1  1  0.26739393  0.40865366  0.13422997  1
  Tm  Tm2  1  0.76739393  0.13422997  0.40865366  1
  Tm  Tm3  1  0.73260607  0.59134634  0.86577003  1
  Ge  Ge4  1  0.16706323  0.07202851  0.26296013  1
  Ge  Ge5  1  0.33293677  0.73703987  0.92797149  1
  Ge  Ge6  1  0.83293677  0.92797149  0.73703987  1
  Ge  Ge7  1  0.66706323  0.26296013  0.07202851  1
  Ge  Ge8  1  0.25000000  0.21219540  0.78780460  1
  Ge  Ge9  1  0.75000000  0.78780460  0.21219540  1
  Ge  Ge10  1  0.25000000  0.50791386  0.49208614  1
  Ge  Ge11  1  0.75000000  0.49208614  0.50791386  1
  Ge  Ge12  1  0.25000000  0.77821374  0.22178626  1
  Ge  Ge13  1  0.75000000  0.22178626  0.77821374  1
  Rh  Rh14  1  0.38173296  0.25299030  0.53993737  1
  Rh  Rh15  1  0.11826704  0.46006263  0.74700970  1
  Rh  Rh16  1  0.61826704  0.74700970  0.46006263  1
  Rh  Rh17  1  0.88173296  0.53993737  0.25299030  1
  Rh  Rh18  1  0.25000000  0.00199007  0.99800993  1
  Rh  Rh19  1  0.75000000  0.99800993  0.00199007  1
