# generated using pymatgen
data_URuS3
_symmetry_space_group_name_H-M   'P 1'
_cell_length_a   5.91849479
_cell_length_b   6.93117764
_cell_length_c   8.70851798
_cell_angle_alpha   90.00000000
_cell_angle_beta   90.00000000
_cell_angle_gamma   90.00000000
_symmetry_Int_Tables_number   1
_chemical_formula_structural   URuS3
_chemical_formula_sum   'U4 Ru4 S12'
_cell_volume   357.24203289
_cell_formula_units_Z   4
loop_
 _symmetry_equiv_pos_site_id
 _symmetry_equiv_pos_as_xyz
  1  'x, y, z'
loop_
 _atom_site_type_symbol
 _atom_site_label
 _atom_site_symmetry_multiplicity
 _atom_site_fract_x
 _atom_site_fract_y
 _atom_site_fract_z
 _atom_site_occupancy
  U  U0  1  0.42911842  0.87645964  0.25000000  1
  U  U1  1  0.07088158  0.37645964  0.25000000  1
  U  U2  1  0.57088158  0.12354036  0.75000000  1
  U  U3  1  0.92911842  0.62354036  0.75000000  1
  Ru  Ru4  1  0.50000000  0.50000000  0.00000000  1
  Ru  Ru5  1  -0.00000000  -0.00000000  0.50000000  1
  Ru  Ru6  1  0.50000000  0.50000000  0.50000000  1
  Ru  Ru7  1  -0.00000000  -0.00000000  0.00000000  1
  S  S8  1  0.66128919  0.55069833  0.25000000  1
  S  S9  1  0.83871081  0.05069833  0.25000000  1
  S  S10  1  0.33871081  0.44930167  0.75000000  1
  S  S11  1  0.16128919  0.94930167  0.75000000  1
  S  S12  1  0.65036513  0.81839783  0.55780898  1
  S  S13  1  0.84963487  0.31839783  0.94219102  1
  S  S14  1  0.34963487  0.18160217  0.05780898  1
  S  S15  1  0.15036513  0.68160217  0.44219102  1
  S  S16  1  0.34963487  0.18160217  0.44219102  1
  S  S17  1  0.15036513  0.68160217  0.05780898  1
  S  S18  1  0.65036513  0.81839783  0.94219102  1
  S  S19  1  0.84963487  0.31839783  0.55780898  1
