# generated using pymatgen
data_MnP4
_symmetry_space_group_name_H-M   'P 1'
_cell_length_a   5.10366947
_cell_length_b   5.85849729
_cell_length_c   10.88226489
_cell_angle_alpha   88.36539787
_cell_angle_beta   86.24509547
_cell_angle_gamma   64.17789780
_symmetry_Int_Tables_number   1
_chemical_formula_structural   MnP4
_chemical_formula_sum   'Mn4 P16'
_cell_volume   292.26045155
_cell_formula_units_Z   4
loop_
 _symmetry_equiv_pos_site_id
 _symmetry_equiv_pos_as_xyz
  1  'x, y, z'
loop_
 _atom_site_type_symbol
 _atom_site_label
 _atom_site_symmetry_multiplicity
 _atom_site_fract_x
 _atom_site_fract_y
 _atom_site_fract_z
 _atom_site_occupancy
  Mn  Mn0  1  0.01545593  0.54416400  0.97593215  1
  Mn  Mn1  1  0.55961993  0.45583600  0.47593215  1
  Mn  Mn2  1  0.90609546  0.20037733  0.25388515  1
  Mn  Mn3  1  0.10647278  0.79962267  0.75388515  1
  P  P4  1  0.05601133  0.50612649  0.19441116  1
  P  P5  1  0.56213782  0.49387351  0.69441116  1
  P  P6  1  0.44878712  0.50708631  0.27490538  1
  P  P7  1  0.95587343  0.49291369  0.77490538  1
  P  P8  1  0.77298555  0.88949516  0.27589381  1
  P  P9  1  0.66248072  0.11050484  0.77589381  1
  P  P10  1  0.36830433  0.89967513  0.21137704  1
  P  P11  1  0.26797946  0.10032487  0.71137704  1
  P  P12  1  0.00944738  0.14426168  0.45107889  1
  P  P13  1  0.15370906  0.85573832  0.95107889  1
  P  P14  1  0.87283662  0.23123629  0.04173477  1
  P  P15  1  0.10407291  0.76876371  0.54173477  1
  P  P16  1  0.71209706  0.76003205  0.46572091  1
  P  P17  1  0.47212911  0.23996795  0.96572091  1
  P  P18  1  0.55873044  0.83624310  0.01664075  1
  P  P19  1  0.39497354  0.16375690  0.51664075  1
