# generated using pymatgen
data_Na(MoSe)3
_symmetry_space_group_name_H-M   'P 1'
_cell_length_a   4.52226123
_cell_length_b   8.87847964
_cell_length_c   8.87474629
_cell_angle_alpha   119.96603394
_cell_angle_beta   90.00000000
_cell_angle_gamma   90.00000000
_symmetry_Int_Tables_number   1
_chemical_formula_structural   Na(MoSe)3
_chemical_formula_sum   'Na2 Mo6 Se6'
_cell_volume   308.69483942
_cell_formula_units_Z   2
loop_
 _symmetry_equiv_pos_site_id
 _symmetry_equiv_pos_as_xyz
  1  'x, y, z'
loop_
 _atom_site_type_symbol
 _atom_site_label
 _atom_site_symmetry_multiplicity
 _atom_site_fract_x
 _atom_site_fract_y
 _atom_site_fract_z
 _atom_site_occupancy
  Na  Na0  1  0.75000000  0.33335881  0.66668149  1
  Na  Na1  1  0.25000000  0.66664119  0.33331851  1
  Mo  Mo2  1  0.75000000  0.02552130  0.84087969  1
  Mo  Mo3  1  0.75000000  0.15894126  0.18451850  1
  Mo  Mo4  1  0.75000000  0.81552801  0.97462213  1
  Mo  Mo5  1  0.25000000  0.97447870  0.15912031  1
  Mo  Mo6  1  0.25000000  0.84105874  0.81548150  1
  Mo  Mo7  1  0.25000000  0.18447199  0.02537787  1
  Se  Se8  1  0.75000000  0.68375767  0.63423067  1
  Se  Se9  1  0.75000000  0.36570907  0.04930408  1
  Se  Se10  1  0.75000000  0.95050837  0.31653579  1
  Se  Se11  1  0.25000000  0.31624233  0.36576933  1
  Se  Se12  1  0.25000000  0.63429093  0.95069592  1
  Se  Se13  1  0.25000000  0.04949163  0.68346421  1
