# generated using pymatgen
data_Ca2Ni7
_symmetry_space_group_name_H-M   'P 1'
_cell_length_a   4.98853917
_cell_length_b   4.98853917
_cell_length_c   12.29302172
_cell_angle_alpha   78.29332970
_cell_angle_beta   78.29332970
_cell_angle_gamma   60.00000060
_symmetry_Int_Tables_number   1
_chemical_formula_structural   Ca2Ni7
_chemical_formula_sum   'Ca4 Ni14'
_cell_volume   257.55903963
_cell_formula_units_Z   2
loop_
 _symmetry_equiv_pos_site_id
 _symmetry_equiv_pos_as_xyz
  1  'x, y, z'
loop_
 _atom_site_type_symbol
 _atom_site_label
 _atom_site_symmetry_multiplicity
 _atom_site_fract_x
 _atom_site_fract_y
 _atom_site_fract_z
 _atom_site_occupancy
  Ca  Ca0  1  0.05140562  0.05140562  0.84578314  1
  Ca  Ca1  1  0.94859438  0.94859438  0.15421686  1
  Ca  Ca2  1  0.14816745  0.14816745  0.55549765  1
  Ca  Ca3  1  0.85183255  0.85183255  0.44450235  1
  Ni  Ni4  1  0.50000000  0.50000000  0.50000000  1
  Ni  Ni5  1  0.27821269  0.27821269  0.16536194  1
  Ni  Ni6  1  0.72178731  0.72178731  0.83463806  1
  Ni  Ni7  1  0.38773413  0.38773413  0.83679762  1
  Ni  Ni8  1  0.61226587  0.61226587  0.16320238  1
  Ni  Ni9  1  0.50000000  0.50000000  0.00000000  1
  Ni  Ni10  1  0.50000000  -0.00000000  0.00000000  1
  Ni  Ni11  1  0.00000000  0.50000000  -0.00000000  1
  Ni  Ni12  1  0.11029716  0.60844719  0.67280847  1
  Ni  Ni13  1  0.60844719  0.60844719  0.67280847  1
  Ni  Ni14  1  0.60844719  0.11029716  0.67280847  1
  Ni  Ni15  1  0.88970284  0.39155281  0.32719153  1
  Ni  Ni16  1  0.39155281  0.39155281  0.32719153  1
  Ni  Ni17  1  0.39155281  0.88970284  0.32719153  1
