# generated using pymatgen
data_Ta7Co6
_symmetry_space_group_name_H-M   'P 1'
_cell_length_a   4.95215859
_cell_length_b   4.95215859
_cell_length_c   9.18149182
_cell_angle_alpha   74.35467775
_cell_angle_beta   74.35467775
_cell_angle_gamma   59.99999640
_symmetry_Int_Tables_number   1
_chemical_formula_structural   Ta7Co6
_chemical_formula_sum   'Ta7 Co6'
_cell_volume   185.30358844
_cell_formula_units_Z   1
loop_
 _symmetry_equiv_pos_site_id
 _symmetry_equiv_pos_as_xyz
  1  'x, y, z'
loop_
 _atom_site_type_symbol
 _atom_site_label
 _atom_site_symmetry_multiplicity
 _atom_site_fract_x
 _atom_site_fract_y
 _atom_site_fract_z
 _atom_site_occupancy
  Ta  Ta0  1  -0.00000000  0.00000000  0.00000000  1
  Ta  Ta1  1  0.16683603  0.16683603  0.49949192  1
  Ta  Ta2  1  0.83316397  0.83316397  0.50050808  1
  Ta  Ta3  1  0.34569784  0.34569784  0.96290647  1
  Ta  Ta4  1  0.65430216  0.65430216  0.03709353  1
  Ta  Ta5  1  0.45086117  0.45086117  0.64741649  1
  Ta  Ta6  1  0.54913883  0.54913883  0.35258351  1
  Co  Co7  1  0.58130322  0.09298937  0.23271804  1
  Co  Co8  1  0.09298937  0.09298937  0.23271804  1
  Co  Co9  1  0.09298937  0.58130322  0.23271804  1
  Co  Co10  1  0.41869678  0.90701063  0.76728196  1
  Co  Co11  1  0.90701063  0.90701063  0.76728196  1
  Co  Co12  1  0.90701063  0.41869678  0.76728196  1
