# generated using pymatgen
data_Mg3(SO5)2
_symmetry_space_group_name_H-M   'P 1'
_cell_length_a   7.55622074
_cell_length_b   7.55622074
_cell_length_c   13.10224877
_cell_angle_alpha   90.00000000
_cell_angle_beta   90.00000000
_cell_angle_gamma   90.00000000
_symmetry_Int_Tables_number   1
_chemical_formula_structural   Mg3(SO5)2
_chemical_formula_sum   'Mg12 S8 O40'
_cell_volume   748.09217835
_cell_formula_units_Z   4
loop_
 _symmetry_equiv_pos_site_id
 _symmetry_equiv_pos_as_xyz
  1  'x, y, z'
loop_
 _atom_site_type_symbol
 _atom_site_label
 _atom_site_symmetry_multiplicity
 _atom_site_fract_x
 _atom_site_fract_y
 _atom_site_fract_z
 _atom_site_occupancy
  Mg  Mg0  1  0.61719299  0.38280701  0.75000000  1
  Mg  Mg1  1  0.38280701  0.61719299  0.25000000  1
  Mg  Mg2  1  0.88280701  0.88280701  -0.00000000  1
  Mg  Mg3  1  0.11719299  0.11719299  0.50000000  1
  Mg  Mg4  1  0.59774309  0.15227464  0.99644769  1
  Mg  Mg5  1  0.40225691  0.84772536  0.49644769  1
  Mg  Mg6  1  0.65227464  0.90225691  0.24644769  1
  Mg  Mg7  1  0.34772536  0.09774309  0.74644769  1
  Mg  Mg8  1  0.84772536  0.40225691  0.50355231  1
  Mg  Mg9  1  0.15227464  0.59774309  0.00355231  1
  Mg  Mg10  1  0.90225691  0.65227464  0.75355231  1
  Mg  Mg11  1  0.09774309  0.34772536  0.25355231  1
  S  S12  1  0.75246244  0.50427162  0.12237413  1
  S  S13  1  0.24753756  0.49572838  0.62237413  1
  S  S14  1  0.00427162  0.74753756  0.37237413  1
  S  S15  1  0.99572838  0.25246244  0.87237413  1
  S  S16  1  0.49572838  0.24753756  0.37762587  1
  S  S17  1  0.50427162  0.75246244  0.87762587  1
  S  S18  1  0.74753756  0.00427162  0.62762587  1
  S  S19  1  0.25246244  0.99572838  0.12762587  1
  O  O20  1  0.64156503  0.39497824  0.05530418  1
  O  O21  1  0.35843497  0.60502176  0.55530418  1
  O  O22  1  0.89497824  0.85843497  0.30530418  1
  O  O23  1  0.10502176  0.14156503  0.80530418  1
  O  O24  1  0.60502176  0.35843497  0.44469582  1
  O  O25  1  0.39497824  0.64156503  0.94469582  1
  O  O26  1  0.85843497  0.89497824  0.69469582  1
  O  O27  1  0.14156503  0.10502176  0.19469582  1
  O  O28  1  0.87440446  0.61976202  0.06001631  1
  O  O29  1  0.12559554  0.38023798  0.56001631  1
  O  O30  1  0.11976202  0.62559554  0.31001631  1
  O  O31  1  0.88023798  0.37440446  0.81001631  1
  O  O32  1  0.38023798  0.12559554  0.43998369  1
  O  O33  1  0.61976202  0.87440446  0.93998369  1
  O  O34  1  0.62559554  0.11976202  0.68998369  1
  O  O35  1  0.37440446  0.88023798  0.18998369  1
  O  O36  1  0.72606348  0.99797660  0.10722942  1
  O  O37  1  0.27393652  0.00202340  0.60722942  1
  O  O38  1  0.49797660  0.77393652  0.35722942  1
  O  O39  1  0.50202340  0.22606348  0.85722942  1
  O  O40  1  0.00202340  0.27393652  0.39277058  1
  O  O41  1  0.99797660  0.72606348  0.89277058  1
  O  O42  1  0.77393652  0.49797660  0.64277058  1
  O  O43  1  0.22606348  0.50202340  0.14277058  1
  O  O44  1  0.63434698  0.62616055  0.18242257  1
  O  O45  1  0.36565302  0.37383945  0.68242257  1
  O  O46  1  0.12616055  0.86565302  0.43242257  1
  O  O47  1  0.87383945  0.13434698  0.93242257  1
  O  O48  1  0.37383945  0.36565302  0.31757743  1
  O  O49  1  0.62616055  0.63434698  0.81757743  1
  O  O50  1  0.86565302  0.12616055  0.56757743  1
  O  O51  1  0.13434698  0.87383945  0.06757743  1
  O  O52  1  0.85769486  0.39450412  0.19159974  1
  O  O53  1  0.14230514  0.60549588  0.69159974  1
  O  O54  1  0.89450412  0.64230514  0.44159974  1
  O  O55  1  0.10549588  0.35769486  0.94159974  1
  O  O56  1  0.60549588  0.14230514  0.30840026  1
  O  O57  1  0.39450412  0.85769486  0.80840026  1
  O  O58  1  0.64230514  0.89450412  0.55840026  1
  O  O59  1  0.35769486  0.10549588  0.05840026  1
