# generated using pymatgen
data_SnH14C4(NCl2)2
_symmetry_space_group_name_H-M   'P 1'
_cell_length_a   6.68994101
_cell_length_b   8.58439904
_cell_length_c   12.25251067
_cell_angle_alpha   90.00000000
_cell_angle_beta   98.77064689
_cell_angle_gamma   90.00000000
_symmetry_Int_Tables_number   1
_chemical_formula_structural   SnH14C4(NCl2)2
_chemical_formula_sum   'Sn2 H28 C8 N4 Cl8'
_cell_volume   695.42289193
_cell_formula_units_Z   2
loop_
 _symmetry_equiv_pos_site_id
 _symmetry_equiv_pos_as_xyz
  1  'x, y, z'
loop_
 _atom_site_type_symbol
 _atom_site_label
 _atom_site_symmetry_multiplicity
 _atom_site_fract_x
 _atom_site_fract_y
 _atom_site_fract_z
 _atom_site_occupancy
  Sn  Sn0  1  -0.00000000  -0.00000000  0.50000000  1
  Sn  Sn1  1  0.50000000  0.50000000  -0.00000000  1
  H  H2  1  0.34824956  0.86552977  0.47702188  1
  H  H3  1  0.84824956  0.63447023  0.97702188  1
  H  H4  1  0.65175044  0.13447023  0.52297812  1
  H  H5  1  0.15175044  0.36552977  0.02297812  1
  H  H6  1  0.36068165  0.77720494  0.29450760  1
  H  H7  1  0.86068165  0.72279506  0.79450760  1
  H  H8  1  0.63931835  0.22279506  0.70549240  1
  H  H9  1  0.13931835  0.27720494  0.20549240  1
  H  H10  1  0.25595446  0.96885600  0.29609293  1
  H  H11  1  0.75595446  0.53114400  0.79609293  1
  H  H12  1  0.74404554  0.03114400  0.70390707  1
  H  H13  1  0.24404554  0.46885600  0.20390707  1
  H  H14  1  0.09175572  0.80537527  0.26351459  1
  H  H15  1  0.59175572  0.69462473  0.76351459  1
  H  H16  1  0.90824428  0.19462473  0.73648541  1
  H  H17  1  0.40824428  0.30537527  0.23648541  1
  H  H18  1  0.04589802  0.61833441  0.41434683  1
  H  H19  1  0.54589802  0.88166559  0.91434683  1
  H  H20  1  0.95410198  0.38166559  0.58565317  1
  H  H21  1  0.45410198  0.11833441  0.08565317  1
  H  H22  1  0.19250497  0.64664680  0.54785887  1
  H  H23  1  0.69250497  0.85335320  0.04785887  1
  H  H24  1  0.80749503  0.35335320  0.45214113  1
  H  H25  1  0.30749503  0.14664680  0.95214113  1
  H  H26  1  0.31524117  0.59431748  0.43283459  1
  H  H27  1  0.81524117  0.90568252  0.93283459  1
  H  H28  1  0.68475883  0.40568252  0.56716541  1
  H  H29  1  0.18475883  0.09431748  0.06716541  1
  C  C30  1  0.23152631  0.84618594  0.31352997  1
  C  C31  1  0.73152631  0.65381406  0.81352997  1
  C  C32  1  0.76847369  0.15381406  0.68647003  1
  C  C33  1  0.26847369  0.34618594  0.18647003  1
  C  C34  1  0.19037765  0.66092479  0.45880826  1
  C  C35  1  0.69037765  0.83907521  0.95880826  1
  C  C36  1  0.80962235  0.33907521  0.54119174  1
  C  C37  1  0.30962235  0.16092479  0.04119174  1
  N  N38  1  0.21482065  0.82709511  0.43200840  1
  N  N39  1  0.71482065  0.67290489  0.93200840  1
  N  N40  1  0.78517935  0.17290489  0.56799160  1
  N  N41  1  0.28517935  0.32709511  0.06799160  1
  Cl  Cl42  1  0.81557978  0.06202755  0.31775634  1
  Cl  Cl43  1  0.31557978  0.43797245  0.81775634  1
  Cl  Cl44  1  0.18442022  0.93797245  0.68224366  1
  Cl  Cl45  1  0.68442022  0.56202755  0.18224366  1
  Cl  Cl46  1  0.25398686  0.20164165  0.47680798  1
  Cl  Cl47  1  0.75398686  0.29835835  0.97680798  1
  Cl  Cl48  1  0.74601314  0.79835835  0.52319202  1
  Cl  Cl49  1  0.24601314  0.70164165  0.02319202  1
