# generated using pymatgen
data_SrP3
_symmetry_space_group_name_H-M   'P 1'
_cell_length_a   5.74408841
_cell_length_b   5.90416269
_cell_length_c   5.90416268
_cell_angle_alpha   77.02214046
_cell_angle_beta   71.89738576
_cell_angle_gamma   71.89738582
_symmetry_Int_Tables_number   1
_chemical_formula_structural   SrP3
_chemical_formula_sum   'Sr2 P6'
_cell_volume   179.07641160
_cell_formula_units_Z   2
loop_
 _symmetry_equiv_pos_site_id
 _symmetry_equiv_pos_as_xyz
  1  'x, y, z'
loop_
 _atom_site_type_symbol
 _atom_site_label
 _atom_site_symmetry_multiplicity
 _atom_site_fract_x
 _atom_site_fract_y
 _atom_site_fract_z
 _atom_site_occupancy
  P  P0  1  0.30918560  0.98859679  0.98859679  1
  P  P1  1  0.69081440  0.01140321  0.01140321  1
  P  P2  1  0.67905952  0.39500971  0.88524062  1
  P  P3  1  0.32094048  0.11475938  0.60499029  1
  P  P4  1  0.32094048  0.60499029  0.11475938  1
  P  P5  1  0.67905952  0.88524062  0.39500971  1
  Sr  Sr6  1  0.14750723  0.66298963  0.66298963  1
  Sr  Sr7  1  0.85249277  0.33701037  0.33701037  1
