# generated using pymatgen
data_KCeSiS4
_symmetry_space_group_name_H-M   'P 1'
_cell_length_a   6.57774446
_cell_length_b   6.60657294
_cell_length_c   8.83689203
_cell_angle_alpha   90.00000000
_cell_angle_beta   106.96645775
_cell_angle_gamma   90.00000000
_symmetry_Int_Tables_number   1
_chemical_formula_structural   KCeSiS4
_chemical_formula_sum   'K2 Ce2 Si2 S8'
_cell_volume   367.30491984
_cell_formula_units_Z   2
loop_
 _symmetry_equiv_pos_site_id
 _symmetry_equiv_pos_as_xyz
  1  'x, y, z'
loop_
 _atom_site_type_symbol
 _atom_site_label
 _atom_site_symmetry_multiplicity
 _atom_site_fract_x
 _atom_site_fract_y
 _atom_site_fract_z
 _atom_site_occupancy
  Si  Si0  1  0.21636535  0.25000000  0.31843958  1
  Si  Si1  1  0.78363465  0.75000000  0.68156042  1
  S  S2  1  0.99620173  0.49857834  0.72088248  1
  S  S3  1  0.00379827  0.99857834  0.27911752  1
  S  S4  1  0.00379827  0.50142166  0.27911752  1
  S  S5  1  0.99620173  0.00142166  0.72088248  1
  S  S6  1  0.41422559  0.25000000  0.16832890  1
  S  S7  1  0.58577441  0.75000000  0.83167110  1
  S  S8  1  0.39789110  0.25000000  0.56269641  1
  S  S9  1  0.60210890  0.75000000  0.43730359  1
  K  K10  1  0.72617664  0.25000000  0.93392119  1
  K  K11  1  0.27382336  0.75000000  0.06607881  1
  Ce  Ce12  1  0.76789732  0.25000000  0.44891318  1
  Ce  Ce13  1  0.23210268  0.75000000  0.55108682  1
