# generated using pymatgen
data_TiPbO3
_symmetry_space_group_name_H-M   'P 1'
_cell_length_a   3.80474100
_cell_length_b   9.19883627
_cell_length_c   9.19883627
_cell_angle_alpha   87.54879549
_cell_angle_beta   78.06478463
_cell_angle_gamma   78.06478463
_symmetry_Int_Tables_number   1
_chemical_formula_structural   TiPbO3
_chemical_formula_sum   'Ti4 Pb4 O12'
_cell_volume   308.18240446
_cell_formula_units_Z   4
loop_
 _symmetry_equiv_pos_site_id
 _symmetry_equiv_pos_as_xyz
  1  'x, y, z'
loop_
 _atom_site_type_symbol
 _atom_site_label
 _atom_site_symmetry_multiplicity
 _atom_site_fract_x
 _atom_site_fract_y
 _atom_site_fract_z
 _atom_site_occupancy
  Ti  Ti0  1  0.35691473  0.61093877  0.67523177  1
  Ti  Ti1  1  0.64308527  0.38906123  0.32476823  1
  Ti  Ti2  1  0.96785350  0.67523177  0.38906123  1
  Ti  Ti3  1  0.03214650  0.32476823  0.61093877  1
  Pb  Pb4  1  0.35049235  0.31997746  0.97903784  1
  Pb  Pb5  1  0.64950765  0.68002254  0.02096216  1
  Pb  Pb6  1  0.67046981  0.97903784  0.68002254  1
  Pb  Pb7  1  0.32953019  0.02096216  0.31997746  1
  O  O8  1  0.47053302  0.63316299  0.42577097  1
  O  O9  1  0.52946698  0.36683701  0.57422903  1
  O  O10  1  0.10369601  0.42577097  0.36683701  1
  O  O11  1  0.89630399  0.57422903  0.63316299  1
  O  O12  1  0.24178594  0.80520675  0.71122138  1
  O  O13  1  0.75821406  0.19479325  0.28877862  1
  O  O14  1  0.04699268  0.71122138  0.19479325  1
  O  O15  1  0.95300732  0.28877862  0.80520675  1
  O  O16  1  0.28905980  0.54786005  0.87402036  1
  O  O17  1  0.71094020  0.45213995  0.12597964  1
  O  O18  1  0.83691984  0.87402036  0.45213995  1
  O  O19  1  0.16308016  0.12597964  0.54786005  1
