# generated using pymatgen
data_La5AgPb3
_symmetry_space_group_name_H-M   'P 1'
_cell_length_a   6.97075868
_cell_length_b   9.88037434
_cell_length_c   9.88626575
_cell_angle_alpha   119.98029353
_cell_angle_beta   89.99968809
_cell_angle_gamma   90.00062415
_symmetry_Int_Tables_number   1
_chemical_formula_structural   La5AgPb3
_chemical_formula_sum   'La10 Ag2 Pb6'
_cell_volume   589.79700882
_cell_formula_units_Z   2
loop_
 _symmetry_equiv_pos_site_id
 _symmetry_equiv_pos_as_xyz
  1  'x, y, z'
loop_
 _atom_site_type_symbol
 _atom_site_label
 _atom_site_symmetry_multiplicity
 _atom_site_fract_x
 _atom_site_fract_y
 _atom_site_fract_z
 _atom_site_occupancy
  La  La0  1  0.74999946  0.27255783  1.00000000  1
  La  La1  1  0.75000631  0.72749030  0.72759914  1
  La  La2  1  0.75000631  0.99989117  0.27240086  1
  La  La3  1  0.24998433  0.72743307  0.00000000  1
  La  La4  1  0.25000908  0.27249792  0.27238793  1
  La  La5  1  0.25000908  0.00010999  0.72761207  1
  La  La6  1  0.50001087  0.33334406  0.66670061  1
  La  La7  1  0.50001087  0.66664345  0.33329939  1
  La  La8  1  -0.00000074  0.66665155  0.33326889  1
  La  La9  1  -0.00000074  0.33338266  0.66673111  1
  Ag  Ag10  1  0.49999254  0.99999185  1.00000000  1
  Ag  Ag11  1  0.99999300  0.00000803  0.00000000  1
  Pb  Pb12  1  0.74999763  0.62216803  0.00000000  1
  Pb  Pb13  1  0.74999686  0.37797044  0.37801666  1
  Pb  Pb14  1  0.74999686  0.99995378  0.62198334  1
  Pb  Pb15  1  0.24999348  0.37783327  1.00000000  1
  Pb  Pb16  1  0.24999741  0.62202828  0.62198396  1
  Pb  Pb17  1  0.24999741  0.00004432  0.37801604  1
