# generated using pymatgen
data_Cs2KNdI6
_symmetry_space_group_name_H-M   'P 1'
_cell_length_a   9.19628288
_cell_length_b   9.19628347
_cell_length_c   9.19628345
_cell_angle_alpha   59.99999833
_cell_angle_beta   59.99999758
_cell_angle_gamma   59.99999764
_symmetry_Int_Tables_number   1
_chemical_formula_structural   Cs2KNdI6
_chemical_formula_sum   'Cs2 K1 Nd1 I6'
_cell_volume   549.94847357
_cell_formula_units_Z   1
loop_
 _symmetry_equiv_pos_site_id
 _symmetry_equiv_pos_as_xyz
  1  'x, y, z'
loop_
 _atom_site_type_symbol
 _atom_site_label
 _atom_site_symmetry_multiplicity
 _atom_site_fract_x
 _atom_site_fract_y
 _atom_site_fract_z
 _atom_site_occupancy
  Cs  Cs0  1  0.25000000  0.25000000  0.25000000  1
  Cs  Cs1  1  0.75000000  0.75000000  0.75000000  1
  K  K2  1  0.50000000  0.50000000  0.50000000  1
  Nd  Nd3  1  -0.00000000  0.00000000  0.00000000  1
  I  I4  1  0.23915901  0.76084099  0.23915901  1
  I  I5  1  0.76084099  0.76084099  0.23915901  1
  I  I6  1  0.76084099  0.23915901  0.76084099  1
  I  I7  1  0.76084099  0.23915901  0.23915901  1
  I  I8  1  0.23915901  0.76084099  0.76084099  1
  I  I9  1  0.23915901  0.23915901  0.76084099  1
