# generated using pymatgen
data_Mn8Si6O25
_symmetry_space_group_name_H-M   'P 1'
_cell_length_a   7.64434258
_cell_length_b   12.84727115
_cell_length_c   12.85579091
_cell_angle_alpha   120.02193888
_cell_angle_beta   90.00000000
_cell_angle_gamma   89.93331579
_symmetry_Int_Tables_number   1
_chemical_formula_structural   Mn8Si6O25
_chemical_formula_sum   'Mn16 Si12 O50'
_cell_volume   1093.16072407
_cell_formula_units_Z   2
loop_
 _symmetry_equiv_pos_site_id
 _symmetry_equiv_pos_as_xyz
  1  'x, y, z'
loop_
 _atom_site_type_symbol
 _atom_site_label
 _atom_site_symmetry_multiplicity
 _atom_site_fract_x
 _atom_site_fract_y
 _atom_site_fract_z
 _atom_site_occupancy
  Mn  Mn0  1  -0.00000000  0.00000000  -0.00000000  1
  Mn  Mn1  1  0.00025160  0.75850209  0.75824764  1
  Mn  Mn2  1  0.99974840  0.24149791  0.99974556  1
  Mn  Mn3  1  0.00000000  1.00000000  0.24228345  1
  Mn  Mn4  1  0.00025160  0.75850209  0.00025444  1
  Mn  Mn5  1  1.00000000  0.00000000  0.75771655  1
  Mn  Mn6  1  0.99974840  0.24149791  0.24175236  1
  Mn  Mn7  1  -0.00000000  0.50000000  0.50000000  1
  Mn  Mn8  1  -0.00000000  0.50000000  -0.00000000  1
  Mn  Mn9  1  -0.00000000  0.00000000  0.50000000  1
  Mn  Mn10  1  0.04022839  0.74735939  0.49492217  1
  Mn  Mn11  1  0.04064006  0.50469326  0.25234663  1
  Mn  Mn12  1  0.04022839  0.74735939  0.25243722  1
  Mn  Mn13  1  0.95977161  0.25264061  0.50507783  1
  Mn  Mn14  1  0.95935994  0.49530674  0.74765337  1
  Mn  Mn15  1  0.95977161  0.25264061  0.74756278  1
  Si  Si16  1  0.64006828  0.66733290  0.57720650  1
  Si  Si17  1  0.64001435  0.42270116  0.09032714  1
  Si  Si18  1  0.63995060  0.90938394  0.33236542  1
  Si  Si19  1  0.64006828  0.66733290  0.09012640  1
  Si  Si20  1  0.63995060  0.90938394  0.57701852  1
  Si  Si21  1  0.64001435  0.42270116  0.33237402  1
  Si  Si22  1  0.35993172  0.33266710  0.42279350  1
  Si  Si23  1  0.35998565  0.57729884  0.90967286  1
  Si  Si24  1  0.36004940  0.09061606  0.66763458  1
  Si  Si25  1  0.35993172  0.33266710  0.90987360  1
  Si  Si26  1  0.36004940  0.09061606  0.42298148  1
  Si  Si27  1  0.35998565  0.57729884  0.66762598  1
  O  O28  1  0.50006802  0.67681118  0.67690733  1
  O  O29  1  0.49993198  0.32318882  0.00009615  1
  O  O30  1  0.50000000  0.00000000  0.32315376  1
  O  O31  1  0.50006802  0.67681118  0.99990385  1
  O  O32  1  0.50000000  1.00000000  0.67684624  1
  O  O33  1  0.49993198  0.32318882  0.32309267  1
  O  O34  1  0.59798392  0.55022518  0.44968912  1
  O  O35  1  0.59798392  0.55022518  0.10053605  1
  O  O36  1  0.59767590  0.89896384  0.44948192  1
  O  O37  1  0.40201608  0.44977482  0.55031088  1
  O  O38  1  0.40201608  0.44977482  0.89946395  1
  O  O39  1  0.40232410  0.10103616  0.55051808  1
  O  O40  1  0.60058252  0.77988090  0.55980245  1
  O  O41  1  0.60067413  0.44027687  0.22013843  1
  O  O42  1  0.60058252  0.77988090  0.22007845  1
  O  O43  1  0.39941748  0.22011910  0.44019755  1
  O  O44  1  0.39932587  0.55972313  0.77986157  1
  O  O45  1  0.39941748  0.22011910  0.77992155  1
  O  O46  1  0.84969363  0.66339165  0.60458170  1
  O  O47  1  0.84965921  0.39502668  0.05878056  1
  O  O48  1  0.84942315  0.94079154  0.33656690  1
  O  O49  1  0.84969363  0.66339165  0.05880995  1
  O  O50  1  0.84942315  0.94079154  0.60422464  1
  O  O51  1  0.84965921  0.39502668  0.33624612  1
  O  O52  1  0.15030637  0.33660835  0.39541830  1
  O  O53  1  0.15034079  0.60497332  0.94121944  1
  O  O54  1  0.15057685  0.05920846  0.66343310  1
  O  O55  1  0.15030637  0.33660835  0.94119005  1
  O  O56  1  0.15057685  0.05920846  0.39577536  1
  O  O57  1  0.15034079  0.60497332  0.66375388  1
  O  O58  1  0.88316303  0.91924128  0.83932036  1
  O  O59  1  0.88257527  0.16068365  0.08034182  1
  O  O60  1  0.88316303  0.91924128  0.07992092  1
  O  O61  1  0.11683697  0.08075872  0.16067964  1
  O  O62  1  0.11742473  0.83931635  0.91965818  1
  O  O63  1  0.11683697  0.08075872  0.92007908  1
  O  O64  1  0.10420422  0.83490613  0.66968129  1
  O  O65  1  0.10379430  0.32987398  0.16493699  1
  O  O66  1  0.10420422  0.83490613  0.16522484  1
  O  O67  1  0.89579578  0.16509387  0.33031871  1
  O  O68  1  0.89620570  0.67012602  0.83506301  1
  O  O69  1  0.89579578  0.16509387  0.83477516  1
  O  O70  1  0.11839590  0.57436813  0.42564214  1
  O  O71  1  0.11839590  0.57436813  0.14872600  1
  O  O72  1  0.11817111  0.85100271  0.42550135  1
  O  O73  1  0.88160410  0.42563187  0.57435786  1
  O  O74  1  0.88160410  0.42563187  0.85127400  1
  O  O75  1  0.88182889  0.14899729  0.57449865  1
  O  O76  1  0.93449748  0.66676285  0.33338143  1
  O  O77  1  0.06550252  0.33323715  0.66661857  1
