# generated using pymatgen
data_MgTi2O5
_symmetry_space_group_name_H-M   'P 1'
_cell_length_a   11.32629334
_cell_length_b   5.26591303
_cell_length_c   10.07558376
_cell_angle_alpha   90.00000000
_cell_angle_beta   90.00000000
_cell_angle_gamma   110.98308270
_symmetry_Int_Tables_number   1
_chemical_formula_structural   MgTi2O5
_chemical_formula_sum   'Mg6 Ti12 O30'
_cell_volume   561.09014945
_cell_formula_units_Z   6
loop_
 _symmetry_equiv_pos_site_id
 _symmetry_equiv_pos_as_xyz
  1  'x, y, z'
loop_
 _atom_site_type_symbol
 _atom_site_label
 _atom_site_symmetry_multiplicity
 _atom_site_fract_x
 _atom_site_fract_y
 _atom_site_fract_z
 _atom_site_occupancy
  Mg  Mg0  1  0.06691131  0.39309883  0.25172642  1
  Mg  Mg1  1  0.28575054  0.71977084  0.43295165  1
  Mg  Mg2  1  0.38091546  0.28022916  0.93295165  1
  Mg  Mg3  1  0.59975569  0.60690117  0.75172642  1
  Mg  Mg4  1  0.73121400  0.38627579  0.25101928  1
  Mg  Mg5  1  0.93545200  0.61372421  0.75101928  1
  Ti  Ti6  1  0.04254108  0.26357527  0.55990404  1
  Ti  Ti7  1  0.04465669  0.26731170  0.93882220  1
  Ti  Ti8  1  0.26953820  0.61777578  0.75110421  1
  Ti  Ti9  1  0.29045254  0.73359924  0.06151837  1
  Ti  Ti10  1  0.37621346  0.26640076  0.56151837  1
  Ti  Ti11  1  0.39712880  0.38222422  0.25110421  1
  Ti  Ti12  1  0.62412592  0.73642473  0.05990404  1
  Ti  Ti13  1  0.62201031  0.73268830  0.43882220  1
  Ti  Ti14  1  0.71007546  0.26674331  0.56887747  1
  Ti  Ti15  1  0.70944285  0.27391008  0.93454310  1
  Ti  Ti16  1  0.95659154  0.73325669  0.06887747  1
  Ti  Ti17  1  0.95722415  0.72608992  0.43454310  1
  O  O18  1  0.01663273  0.09468362  0.11374947  1
  O  O19  1  0.01924730  0.08633313  0.38592500  1
  O  O20  1  0.08391762  0.46519521  0.74707558  1
  O  O21  1  0.10749982  0.63588132  0.07033501  1
  O  O22  1  0.09622619  0.61428640  0.43420979  1
  O  O23  1  0.22688538  0.36975789  0.56933974  1
  O  O24  1  0.22468026  0.38348610  0.93011743  1
  O  O25  1  0.26344951  0.52362141  0.24284466  1
  O  O26  1  0.31739250  0.91149275  0.62315624  1
  O  O27  1  0.31662249  0.88672861  0.88319394  1
  O  O28  1  0.35004351  0.11327139  0.38319394  1
  O  O29  1  0.34927350  0.08850725  0.12315624  1
  O  O30  1  0.40321749  0.47637859  0.74284466  1
  O  O31  1  0.43978062  0.63024211  0.06933974  1
  O  O32  1  0.44198574  0.61651390  0.43011743  1
  O  O33  1  0.55916718  0.36411868  0.57033501  1
  O  O34  1  0.57044081  0.38571360  0.93420979  1
  O  O35  1  0.58274938  0.53480479  0.24707558  1
  O  O36  1  0.65003427  0.90531638  0.61374947  1
  O  O37  1  0.64741970  0.91366687  0.88592500  1
  O  O38  1  0.68244241  0.08251639  0.38618494  1
  O  O39  1  0.68805372  0.09045710  0.11273543  1
  O  O40  1  0.74158801  0.43780868  0.74807919  1
  O  O41  1  0.77179050  0.63115959  0.06634347  1
  O  O42  1  0.76620381  0.61114296  0.43624336  1
  O  O43  1  0.89487650  0.36884041  0.56634347  1
  O  O44  1  0.90046319  0.38885704  0.93624336  1
  O  O45  1  0.92507799  0.56219132  0.24807919  1
  O  O46  1  0.97861328  0.90954290  0.61273543  1
  O  O47  1  0.98422459  0.91748361  0.88618494  1
