# generated using pymatgen
data_Na3V2P2O10F
_symmetry_space_group_name_H-M   'P 1'
_cell_length_a   6.47285784
_cell_length_b   6.47274862
_cell_length_c   14.02854581
_cell_angle_alpha   117.51276823
_cell_angle_beta   117.52711984
_cell_angle_gamma   89.97114016
_symmetry_Int_Tables_number   1
_chemical_formula_structural   Na3V2P2O10F
_chemical_formula_sum   'Na6 V4 P4 O20 F2'
_cell_volume   444.99839528
_cell_formula_units_Z   2
loop_
 _symmetry_equiv_pos_site_id
 _symmetry_equiv_pos_as_xyz
  1  'x, y, z'
loop_
 _atom_site_type_symbol
 _atom_site_label
 _atom_site_symmetry_multiplicity
 _atom_site_fract_x
 _atom_site_fract_y
 _atom_site_fract_z
 _atom_site_occupancy
  Na  Na0  1  0.25393226  0.31542682  0.49871559  1
  Na  Na1  1  0.25053172  0.31589203  0.99876367  1
  Na  Na2  1  0.72905587  0.25921356  0.49974414  1
  Na  Na3  1  0.72261906  0.74235789  0.50191246  1
  Na  Na4  1  0.68612321  0.74859280  0.00126665  1
  Na  Na5  1  0.73466054  0.26638988  0.99996838  1
  V  V6  1  0.20503049  0.19646309  0.69942324  1
  V  V7  1  0.20393822  0.19354805  0.19866034  1
  V  V8  1  0.80643936  0.79608035  0.80121516  1
  V  V9  1  0.80616991  0.79747679  0.30058643  1
  P  P10  1  0.24802016  0.75345924  0.75042150  1
  P  P11  1  0.24851512  0.75274457  0.25052528  1
  P  P12  1  0.74637197  0.25281194  0.74948862  1
  P  P13  1  0.74621031  0.25359197  0.24949596  1
  O  O14  1  0.14913933  0.84509336  0.83976731  1
  O  O15  1  0.16073654  0.47304318  0.66307997  1
  O  O16  1  0.15798869  0.85328852  0.66123548  1
  O  O17  1  0.36618869  0.34458693  0.85670249  1
  O  O18  1  0.52827155  0.83834901  0.83680268  1
  O  O19  1  0.14809211  0.84580731  0.33925260  1
  O  O20  1  0.46842561  0.16843096  0.65975819  1
  O  O21  1  0.16178635  0.47227976  0.16376861  1
  O  O22  1  0.15777815  0.85110555  0.16072356  1
  O  O23  1  0.36701583  0.34085914  0.35585961  1
  O  O24  1  0.65913701  0.63305305  0.64401706  1
  O  O25  1  0.83134845  0.14368320  0.83508914  1
  O  O26  1  0.83502674  0.53095419  0.84027289  1
  O  O27  1  0.52900310  0.83721733  0.33721425  1
  O  O28  1  0.85577946  0.16620064  0.66406283  1
  O  O29  1  0.46848417  0.16698617  0.15930785  1
  O  O30  1  0.65579794  0.63463214  0.14328936  1
  O  O31  1  0.83157804  0.14565977  0.33569479  1
  O  O32  1  0.83490131  0.53193890  0.33973066  1
  O  O33  1  0.85550464  0.16739166  0.16416243  1
  F  F34  1  0.99179675  0.01056460  0.50006186  1
  F  F35  1  0.98960136  0.00982566  0.99995894  1
