# generated using pymatgen
data_Na5Mn2P2(CO7)2
_symmetry_space_group_name_H-M   'P 1'
_cell_length_a   8.49264291
_cell_length_b   8.53612232
_cell_length_c   10.54468809
_cell_angle_alpha   71.54961897
_cell_angle_beta   108.59138034
_cell_angle_gamma   76.99197412
_symmetry_Int_Tables_number   1
_chemical_formula_structural   Na5Mn2P2(CO7)2
_chemical_formula_sum   'Na10 Mn4 P4 C4 O28'
_cell_volume   640.52916984
_cell_formula_units_Z   2
loop_
 _symmetry_equiv_pos_site_id
 _symmetry_equiv_pos_as_xyz
  1  'x, y, z'
loop_
 _atom_site_type_symbol
 _atom_site_label
 _atom_site_symmetry_multiplicity
 _atom_site_fract_x
 _atom_site_fract_y
 _atom_site_fract_z
 _atom_site_occupancy
  Na  Na0  1  0.97233909  0.28015481  0.92009211  1
  Na  Na1  1  0.01742444  0.97825290  0.76203933  1
  Na  Na2  1  0.48849734  0.52340441  0.74717665  1
  Na  Na3  1  0.24731159  0.24408899  0.74534559  1
  Na  Na4  1  0.74765140  0.75438845  0.76388242  1
  Na  Na5  1  0.75234860  0.74561155  0.23611758  1
  Na  Na6  1  0.25268841  0.25591101  0.25465441  1
  Na  Na7  1  0.48257556  0.52174710  0.23796067  1
  Na  Na8  1  0.01150266  0.97659559  0.25282335  1
  Na  Na9  1  0.52766091  0.21984519  0.07990789  1
  Mn  Mn10  1  0.58400114  0.16841121  0.64067231  1
  Mn  Mn11  1  0.08334858  0.66212867  0.64130752  1
  Mn  Mn12  1  0.91599886  0.33158879  0.35932769  1
  Mn  Mn13  1  0.41665142  0.83787133  0.35869248  1
  P  P14  1  0.76471098  0.48053877  0.58040146  1
  P  P15  1  0.26547061  0.98856260  0.57599123  1
  P  P16  1  0.73528902  0.01946123  0.41959854  1
  P  P17  1  0.23452939  0.51143740  0.42400877  1
  C  C18  1  0.69588234  0.05647513  0.92634928  1
  C  C19  1  0.21214711  0.53482685  0.93359865  1
  C  C20  1  0.80411766  0.44352487  0.07365072  1
  C  C21  1  0.28785289  0.96517315  0.06640135  1
  O  O22  1  0.21781477  0.03734652  0.92477016  1
  O  O23  1  0.73355218  0.51214166  0.93320874  1
  O  O24  1  0.28812996  0.46248451  0.86443192  1
  O  O25  1  0.76346875  0.98768947  0.85042617  1
  O  O26  1  0.55505350  0.20040746  0.84808645  1
  O  O27  1  0.06685997  0.67453698  0.85246266  1
  O  O28  1  0.94797478  0.47544923  0.67801085  1
  O  O29  1  0.75159422  0.30182472  0.67138351  1
  O  O30  1  0.44059726  0.00877198  0.66423957  1
  O  O31  1  0.25825837  0.81283614  0.66885453  1
  O  O32  1  0.74925189  0.00517539  0.57333155  1
  O  O33  1  0.10198142  0.14664806  0.55245363  1
  O  O34  1  0.61304715  0.63842634  0.56383081  1
  O  O35  1  0.24766697  0.49800291  0.57638775  1
  O  O36  1  0.75074811  0.49482461  0.42666845  1
  O  O37  1  0.88695285  0.86157366  0.43616919  1
  O  O38  1  0.39801858  0.35335194  0.44754637  1
  O  O39  1  0.25233303  0.00199709  0.42361225  1
  O  O40  1  0.55202522  0.02455077  0.32198915  1
  O  O41  1  0.74840578  0.19817528  0.32861649  1
  O  O42  1  0.05940274  0.49122802  0.33576043  1
  O  O43  1  0.24174163  0.68716386  0.33114547  1
  O  O44  1  0.94494650  0.29959254  0.15191355  1
  O  O45  1  0.43314003  0.82546302  0.14753734  1
  O  O46  1  0.73653125  0.51231053  0.14957383  1
  O  O47  1  0.21187004  0.03751549  0.13556808  1
  O  O48  1  0.76644782  0.98785834  0.06679126  1
  O  O49  1  0.28218523  0.46265348  0.07522984  1
