# generated using pymatgen
data_MnF3
_symmetry_space_group_name_H-M   'P 1'
_cell_length_a   5.32107882
_cell_length_b   5.58565324
_cell_length_c   7.54186298
_cell_angle_alpha   90.00000000
_cell_angle_beta   90.00000000
_cell_angle_gamma   90.00000000
_symmetry_Int_Tables_number   1
_chemical_formula_structural   MnF3
_chemical_formula_sum   'Mn4 F12'
_cell_volume   224.15699762
_cell_formula_units_Z   4
loop_
 _symmetry_equiv_pos_site_id
 _symmetry_equiv_pos_as_xyz
  1  'x, y, z'
loop_
 _atom_site_type_symbol
 _atom_site_label
 _atom_site_symmetry_multiplicity
 _atom_site_fract_x
 _atom_site_fract_y
 _atom_site_fract_z
 _atom_site_occupancy
  Mn  Mn0  1  -0.00000000  0.50000000  0.00000000  1
  Mn  Mn1  1  0.00000000  0.50000000  0.50000000  1
  Mn  Mn2  1  0.50000000  0.00000000  0.00000000  1
  Mn  Mn3  1  0.50000000  -0.00000000  0.50000000  1
  F  F4  1  0.08422668  0.51178431  0.25000000  1
  F  F5  1  0.22335205  0.80565078  0.96087855  1
  F  F6  1  0.22335205  0.80565078  0.53912145  1
  F  F7  1  0.27664795  0.30565078  0.96087855  1
  F  F8  1  0.27664795  0.30565078  0.53912145  1
  F  F9  1  0.41577332  0.01178431  0.25000000  1
  F  F10  1  0.58422668  0.98821569  0.75000000  1
  F  F11  1  0.72335205  0.69434922  0.03912145  1
  F  F12  1  0.72335205  0.69434922  0.46087855  1
  F  F13  1  0.77664795  0.19434922  0.03912145  1
  F  F14  1  0.77664795  0.19434922  0.46087855  1
  F  F15  1  0.91577332  0.48821569  0.75000000  1
