# generated using pymatgen
data_NaMg3Si4HO12
_symmetry_space_group_name_H-M   'P 1'
_cell_length_a   10.74423287
_cell_length_b   9.85108229
_cell_length_c   10.31874879
_cell_angle_alpha   61.52614968
_cell_angle_beta   84.52751877
_cell_angle_gamma   78.48184269
_symmetry_Int_Tables_number   1
_chemical_formula_structural   NaMg3Si4HO12
_chemical_formula_sum   'Na4 Mg12 Si16 H4 O48'
_cell_volume   940.71298758
_cell_formula_units_Z   4
loop_
 _symmetry_equiv_pos_site_id
 _symmetry_equiv_pos_as_xyz
  1  'x, y, z'
loop_
 _atom_site_type_symbol
 _atom_site_label
 _atom_site_symmetry_multiplicity
 _atom_site_fract_x
 _atom_site_fract_y
 _atom_site_fract_z
 _atom_site_occupancy
  Na  Na0  1  0.00000000  0.50000000  0.00000000  1
  Na  Na1  1  0.24991845  0.72900855  0.54179240  1
  Na  Na2  1  0.50000000  0.50000000  0.00000000  1
  Na  Na3  1  0.75008155  0.27099145  0.45820760  1
  Mg  Mg4  1  0.00000000  -0.00000000  0.00000000  1
  Mg  Mg5  1  0.00436366  0.82017859  0.36005063  1
  Mg  Mg6  1  0.24997977  0.08777936  0.82442642  1
  Mg  Mg7  1  0.24994738  0.25481961  0.48987843  1
  Mg  Mg8  1  0.25005807  0.90984582  0.18033584  1
  Mg  Mg9  1  0.50000000  -0.00000000  0.00000000  1
  Mg  Mg10  1  0.50411939  0.18079212  0.63978892  1
  Mg  Mg11  1  0.49588061  0.81920788  0.36021108  1
  Mg  Mg12  1  0.74994193  0.09015418  0.81966416  1
  Mg  Mg13  1  0.75005262  0.74518039  0.51012157  1
  Mg  Mg14  1  0.75002023  0.91222064  0.17557358  1
  Mg  Mg15  1  0.99563634  0.17982141  0.63994937  1
  Si  Si16  1  0.11299775  0.12296981  0.33989627  1
  Si  Si17  1  0.11230543  0.45866166  0.65448140  1
  Si  Si18  1  0.13394601  0.63645125  0.17051191  1
  Si  Si19  1  0.13483219  0.80697245  0.82796234  1
  Si  Si20  1  0.36611022  0.19264451  0.17122813  1
  Si  Si21  1  0.36492523  0.36491672  0.82859384  1
  Si  Si22  1  0.38708943  0.53724403  0.33908114  1
  Si  Si23  1  0.38758205  0.88709600  0.65407340  1
  Si  Si24  1  0.61241795  0.11290400  0.34592660  1
  Si  Si25  1  0.61291057  0.46275597  0.66091886  1
  Si  Si26  1  0.63507477  0.63508328  0.17140616  1
  Si  Si27  1  0.63388978  0.80735549  0.82877187  1
  Si  Si28  1  0.86516781  0.19302755  0.17203766  1
  Si  Si29  1  0.86605399  0.36354875  0.82948809  1
  Si  Si30  1  0.88769457  0.54133834  0.34551860  1
  Si  Si31  1  0.88700225  0.87703019  0.66010373  1
  H  H32  1  0.12504048  0.20732384  0.99812726  1
  H  H33  1  0.37477649  0.79482880  0.99796956  1
  H  H34  1  0.62522351  0.20517120  0.00203044  1
  H  H35  1  0.87495952  0.79267616  0.00187274  1
  O  O36  1  0.01706658  0.53805070  0.24120697  1
  O  O37  1  0.11222518  0.13452130  0.49095176  1
  O  O38  1  0.02155063  0.77217852  0.75615816  1
  O  O39  1  0.14793712  0.10704027  0.99861871  1
  O  O40  1  0.10542169  0.80254910  0.17294497  1
  O  O41  1  0.10274254  0.61131687  0.49894179  1
  O  O42  1  0.14510399  0.28905639  0.65292784  1
  O  O43  1  0.14078229  0.66087769  0.99930541  1
  O  O44  1  0.10287897  0.97555245  0.82581458  1
  O  O45  1  0.22991475  0.22527109  0.24754014  1
  O  O46  1  0.13828617  0.95509712  0.34032722  1
  O  O47  1  0.22681172  0.46476004  0.75273808  1
  O  O48  1  0.27041555  0.52804665  0.24597503  1
  O  O49  1  0.35874640  0.33950102  0.00008292  1
  O  O50  1  0.35488397  0.05808838  0.65283148  1
  O  O51  1  0.27304737  0.78284660  0.75226783  1
  O  O52  1  0.39465589  0.02443766  0.17301597  1
  O  O53  1  0.35209607  0.89419987  0.99865072  1
  O  O54  1  0.36190065  0.70430693  0.34029423  1
  O  O55  1  0.38760591  0.37456447  0.48986526  1
  O  O56  1  0.39701672  0.19881386  0.82579803  1
  O  O57  1  0.48311071  0.22044671  0.24167568  1
  O  O58  1  0.39710693  0.88999666  0.49843990  1
  O  O59  1  0.47824637  0.47148124  0.75701502  1
  O  O60  1  0.52175363  0.52851876  0.24298498  1
  O  O61  1  0.60289307  0.11000334  0.50156010  1
  O  O62  1  0.51688929  0.77955329  0.75832432  1
  O  O63  1  0.64790393  0.10580013  0.00134928  1
  O  O64  1  0.60298328  0.80118614  0.17420197  1
  O  O65  1  0.61239409  0.62543553  0.51013474  1
  O  O66  1  0.63809935  0.29569307  0.65970577  1
  O  O67  1  0.64125360  0.66049898  -0.00008292  1
  O  O68  1  0.60534411  0.97556234  0.82698403  1
  O  O69  1  0.72695263  0.21715340  0.24773217  1
  O  O70  1  0.64511603  0.94191162  0.34716852  1
  O  O71  1  0.72958445  0.47195335  0.75402497  1
  O  O72  1  0.77318828  0.53523996  0.24726192  1
  O  O73  1  0.85921771  0.33912231  0.00069459  1
  O  O74  1  0.86171383  0.04490288  0.65967278  1
  O  O75  1  0.77008525  0.77472891  0.75245986  1
  O  O76  1  0.89712103  0.02444755  0.17418542  1
  O  O77  1  0.85206288  0.89295973  0.00138129  1
  O  O78  1  0.85489601  0.71094361  0.34707216  1
  O  O79  1  0.89725746  0.38868313  0.50105821  1
  O  O80  1  0.89457831  0.19745090  0.82705503  1
  O  O81  1  0.97844937  0.22782148  0.24384184  1
  O  O82  1  0.88777482  0.86547870  0.50904824  1
  O  O83  1  0.98293342  0.46194930  0.75879303  1
