# generated using pymatgen
data_KMnF3
_symmetry_space_group_name_H-M   'P 1'
_cell_length_a   6.01160486
_cell_length_b   6.02230266
_cell_length_c   8.49730524
_cell_angle_alpha   90.00000000
_cell_angle_beta   90.00000000
_cell_angle_gamma   90.00000000
_symmetry_Int_Tables_number   1
_chemical_formula_structural   KMnF3
_chemical_formula_sum   'K4 Mn4 F12'
_cell_volume   307.63392319
_cell_formula_units_Z   4
loop_
 _symmetry_equiv_pos_site_id
 _symmetry_equiv_pos_as_xyz
  1  'x, y, z'
loop_
 _atom_site_type_symbol
 _atom_site_label
 _atom_site_symmetry_multiplicity
 _atom_site_fract_x
 _atom_site_fract_y
 _atom_site_fract_z
 _atom_site_occupancy
  K  K0  1  0.50711418  0.51075718  0.25000000  1
  K  K1  1  0.99288582  0.01075718  0.25000000  1
  K  K2  1  0.49288582  0.48924282  0.75000000  1
  K  K3  1  0.00711418  0.98924282  0.75000000  1
  Mn  Mn4  1  0.00000000  0.50000000  -0.00000000  1
  Mn  Mn5  1  0.50000000  -0.00000000  0.50000000  1
  Mn  Mn6  1  0.00000000  0.50000000  0.50000000  1
  Mn  Mn7  1  0.50000000  -0.00000000  -0.00000000  1
  F  F8  1  0.45471158  0.99443409  0.25000000  1
  F  F9  1  0.04528842  0.49443409  0.25000000  1
  F  F10  1  0.54528842  0.00556591  0.75000000  1
  F  F11  1  0.95471158  0.50556591  0.75000000  1
  F  F12  1  0.75249074  0.75213011  0.02509699  1
  F  F13  1  0.74750926  0.25213011  0.47490301  1
  F  F14  1  0.24750926  0.24786989  0.52509699  1
  F  F15  1  0.25249074  0.74786989  0.97490301  1
  F  F16  1  0.24750926  0.24786989  0.97490301  1
  F  F17  1  0.25249074  0.74786989  0.52509699  1
  F  F18  1  0.75249074  0.75213011  0.47490301  1
  F  F19  1  0.74750926  0.25213011  0.02509699  1
