# generated using pymatgen
data_RbF3
_symmetry_space_group_name_H-M   'P 1'
_cell_length_a   6.75043411
_cell_length_b   4.54617788
_cell_length_c   9.95042746
_cell_angle_alpha   89.87645271
_cell_angle_beta   90.01345589
_cell_angle_gamma   89.86607206
_symmetry_Int_Tables_number   1
_chemical_formula_structural   RbF3
_chemical_formula_sum   'Rb4 F12'
_cell_volume   305.36387406
_cell_formula_units_Z   4
loop_
 _symmetry_equiv_pos_site_id
 _symmetry_equiv_pos_as_xyz
  1  'x, y, z'
loop_
 _atom_site_type_symbol
 _atom_site_label
 _atom_site_symmetry_multiplicity
 _atom_site_fract_x
 _atom_site_fract_y
 _atom_site_fract_z
 _atom_site_occupancy
  Rb  Rb0  1  0.77858630  0.82624044  0.38255954  1
  Rb  Rb1  1  0.72107775  0.17246014  0.88280103  1
  Rb  Rb2  1  0.27859052  0.67532401  0.61723139  1
  Rb  Rb3  1  0.22056244  0.32634540  0.11690737  1
  F  F4  1  0.94707658  0.80346373  0.07054640  1
  F  F5  1  0.55279224  0.19874980  0.57067633  1
  F  F6  1  0.44757541  0.69714363  0.93035061  1
  F  F7  1  0.05303575  0.30069259  0.42977947  1
  F  F8  1  0.36452627  0.74990524  0.31099575  1
  F  F9  1  0.13614850  0.24898950  0.81172284  1
  F  F10  1  0.86446129  0.74863242  0.68844296  1
  F  F11  1  0.63539302  0.25230692  0.18784184  1
  F  F12  1  0.78911380  0.52470083  0.12912125  1
  F  F13  1  0.71050853  0.47668740  0.62953421  1
  F  F14  1  0.29018696  0.97543870  0.87109703  1
  F  F15  1  0.21036464  0.02291824  0.37039097  1
