# generated using pymatgen
data_Cr5S8
_symmetry_space_group_name_H-M   'P 1'
_cell_length_a   6.88395053
_cell_length_b   11.15710214
_cell_length_c   6.87943482
_cell_angle_alpha   91.20072965
_cell_angle_beta   120.02172163
_cell_angle_gamma   90.00000000
_symmetry_Int_Tables_number   1
_chemical_formula_structural   Cr5S8
_chemical_formula_sum   'Cr10 S16'
_cell_volume   457.35160809
_cell_formula_units_Z   2
loop_
 _symmetry_equiv_pos_site_id
 _symmetry_equiv_pos_as_xyz
  1  'x, y, z'
loop_
 _atom_site_type_symbol
 _atom_site_label
 _atom_site_symmetry_multiplicity
 _atom_site_fract_x
 _atom_site_fract_y
 _atom_site_fract_z
 _atom_site_occupancy
  Cr  Cr0  1  0.99993654  0.00004255  0.99987408  1
  Cr  Cr1  1  0.49999684  0.49979601  -0.00000631  1
  Cr  Cr2  1  0.00464104  0.72921310  0.00928207  1
  Cr  Cr3  1  0.99517069  0.27088843  0.99034138  1
  Cr  Cr4  1  0.49464420  0.76614329  0.98928739  1
  Cr  Cr5  1  0.50556173  0.23389189  0.01112346  1
  Cr  Cr6  1  0.47803065  0.74822151  0.49982796  1
  Cr  Cr7  1  0.02179732  0.74822151  0.49982796  1
  Cr  Cr8  1  0.52210207  0.25179078  0.50016829  1
  Cr  Cr9  1  0.97806622  0.25179078  0.50016829  1
  S  S10  1  0.15946407  0.14412062  0.31892815  1
  S  S11  1  0.83315785  0.37997592  0.66631669  1
  S  S12  1  0.16675012  0.62010949  0.33349923  1
  S  S13  1  0.66036861  0.64055986  0.32073722  1
  S  S14  1  0.33958063  0.35924833  0.67916127  1
  S  S15  1  0.66693503  0.12401136  0.33386906  1
  S  S16  1  0.33322248  0.87593206  0.66644496  1
  S  S17  1  0.17586185  0.62695913  0.82952875  1
  S  S18  1  0.65366690  0.62695913  0.82952875  1
  S  S19  1  0.82429645  0.37301661  0.17061060  1
  S  S20  1  0.34631415  0.37301661  0.17061060  1
  S  S21  1  0.15359252  0.13181492  0.83174556  1
  S  S22  1  0.67815304  0.13181492  0.83174556  1
  S  S23  1  0.84644849  0.86822963  0.16820262  1
  S  S24  1  0.32175412  0.86822963  0.16820262  1
  S  S25  1  0.84048740  0.85600293  0.68097481  1
