# generated using pymatgen
data_CrH12C2(N3O2)2
_symmetry_space_group_name_H-M   'P 1'
_cell_length_a   6.80621902
_cell_length_b   6.75456717
_cell_length_c   11.29588242
_cell_angle_alpha   94.19725418
_cell_angle_beta   97.26570767
_cell_angle_gamma   97.19616979
_symmetry_Int_Tables_number   1
_chemical_formula_structural   CrH12C2(N3O2)2
_chemical_formula_sum   'Cr2 H24 C4 N12 O8'
_cell_volume   508.98309336
_cell_formula_units_Z   2
loop_
 _symmetry_equiv_pos_site_id
 _symmetry_equiv_pos_as_xyz
  1  'x, y, z'
loop_
 _atom_site_type_symbol
 _atom_site_label
 _atom_site_symmetry_multiplicity
 _atom_site_fract_x
 _atom_site_fract_y
 _atom_site_fract_z
 _atom_site_occupancy
  Cr  Cr0  1  0.75290380  0.76288819  0.75452309  1
  Cr  Cr1  1  0.24709620  0.23711181  0.24547691  1
  H  H2  1  0.16595373  0.99524980  0.88002552  1
  H  H3  1  0.83404627  0.00475020  0.11997448  1
  H  H4  1  0.39992077  0.91645806  0.86698420  1
  H  H5  1  0.60007923  0.08354194  0.13301580  1
  H  H6  1  0.33966759  0.50807517  0.86231745  1
  H  H7  1  0.66033241  0.49192483  0.13768255  1
  H  H8  1  0.13399171  0.34031406  0.88687647  1
  H  H9  1  0.86600829  0.65968594  0.11312353  1
  H  H10  1  0.67717476  0.15344110  0.85590978  1
  H  H11  1  0.32282524  0.84655890  0.14409022  1
  H  H12  1  0.64698824  0.40724820  0.85483731  1
  H  H13  1  0.35301176  0.59275180  0.14516269  1
  H  H14  1  0.65774142  0.37973955  0.36763480  1
  H  H15  1  0.34225858  0.62026045  0.63236520  1
  H  H16  1  0.75508055  0.53620029  0.50021824  1
  H  H17  1  0.24491945  0.46379971  0.49978176  1
  H  H18  1  0.74186546  0.93317629  0.49691242  1
  H  H19  1  0.25813454  0.06682371  0.50308758  1
  H  H20  1  0.65861845  0.04099653  0.36459314  1
  H  H21  1  0.34138155  0.95900347  0.63540686  1
  H  H22  1  0.87377180  0.13662816  0.66774084  1
  H  H23  1  0.12622820  0.86337184  0.33225916  1
  H  H24  1  0.88224991  0.39506839  0.67055442  1
  H  H25  1  0.11775009  0.60493161  0.32944558  1
  C  C26  1  0.39501321  0.22014178  0.87723987  1
  C  C27  1  0.60498679  0.77985822  0.12276013  1
  C  C28  1  0.78010775  0.23947718  0.50615616  1
  C  C29  1  0.21989225  0.76052282  0.49384384  1
  N  N30  1  0.31764127  0.03011276  0.88635496  1
  N  N31  1  0.68235873  0.96988724  0.11364504  1
  N  N32  1  0.28232237  0.36926761  0.88248502  1
  N  N33  1  0.71767763  0.63073239  0.11751498  1
  N  N34  1  0.58776947  0.26419990  0.86590275  1
  N  N35  1  0.41223053  0.73580010  0.13409725  1
  N  N36  1  0.74516710  0.40121464  0.44951752  1
  N  N37  1  0.25483290  0.59878536  0.55048248  1
  N  N38  1  0.73729343  0.05586960  0.44774395  1
  N  N39  1  0.26270657  0.94413040  0.55225605  1
  N  N40  1  0.86598267  0.25961182  0.62046655  1
  N  N41  1  0.13401733  0.74038818  0.37953345  1
  O  O42  1  0.74851224  0.75443822  0.60664265  1
  O  O43  1  0.25148776  0.24556178  0.39335735  1
  O  O44  1  0.51673267  0.71900993  0.78674556  1
  O  O45  1  0.48326733  0.28099007  0.21325444  1
  O  O46  1  0.86193657  0.98947769  0.81558054  1
  O  O47  1  0.13806343  0.01052231  0.18441946  1
  O  O48  1  0.88160329  0.58702055  0.80597013  1
  O  O49  1  0.11839671  0.41297945  0.19402987  1
