# generated using pymatgen
data_Y5Bi3
_symmetry_space_group_name_H-M   'P 1'
_cell_length_a   12.09311550
_cell_length_b   9.55877524
_cell_length_c   8.33149201
_cell_angle_alpha   90.00000000
_cell_angle_beta   90.00000000
_cell_angle_gamma   90.00000000
_symmetry_Int_Tables_number   1
_chemical_formula_structural   Y5Bi3
_chemical_formula_sum   'Y20 Bi12'
_cell_volume   963.08192667
_cell_formula_units_Z   4
loop_
 _symmetry_equiv_pos_site_id
 _symmetry_equiv_pos_as_xyz
  1  'x, y, z'
loop_
 _atom_site_type_symbol
 _atom_site_label
 _atom_site_symmetry_multiplicity
 _atom_site_fract_x
 _atom_site_fract_y
 _atom_site_fract_z
 _atom_site_occupancy
  Y  Y0  1  0.56596930  0.05962413  0.30778675  1
  Y  Y1  1  0.06596930  0.44037587  0.19221325  1
  Y  Y2  1  0.43403070  0.55962413  0.69221325  1
  Y  Y3  1  0.93403070  0.94037587  0.80778675  1
  Y  Y4  1  0.43403070  0.94037587  0.69221325  1
  Y  Y5  1  0.93403070  0.55962413  0.80778675  1
  Y  Y6  1  0.56596930  0.44037587  0.30778675  1
  Y  Y7  1  0.06596930  0.05962413  0.19221325  1
  Y  Y8  1  0.72979633  0.25000000  0.66722805  1
  Y  Y9  1  0.22979633  0.25000000  0.83277195  1
  Y  Y10  1  0.27020367  0.75000000  0.33277195  1
  Y  Y11  1  0.77020367  0.75000000  0.16722805  1
  Y  Y12  1  0.50647647  0.25000000  0.97630460  1
  Y  Y13  1  0.00647647  0.25000000  0.52369540  1
  Y  Y14  1  0.49352353  0.75000000  0.02369540  1
  Y  Y15  1  0.99352353  0.75000000  0.47630460  1
  Y  Y16  1  0.78949686  0.25000000  0.15686290  1
  Y  Y17  1  0.28949686  0.25000000  0.34313710  1
  Y  Y18  1  0.21050314  0.75000000  0.84313710  1
  Y  Y19  1  0.71050314  0.75000000  0.65686290  1
  Bi  Bi20  1  0.97484567  0.25000000  0.90400442  1
  Bi  Bi21  1  0.47484567  0.25000000  0.59599558  1
  Bi  Bi22  1  0.02515433  0.75000000  0.09599558  1
  Bi  Bi23  1  0.52515433  0.75000000  0.40400442  1
  Bi  Bi24  1  0.82575892  0.00857046  0.43373805  1
  Bi  Bi25  1  0.32575892  0.49142954  0.06626195  1
  Bi  Bi26  1  0.17424108  0.50857046  0.56626195  1
  Bi  Bi27  1  0.67424108  0.99142954  0.93373805  1
  Bi  Bi28  1  0.17424108  0.99142954  0.56626195  1
  Bi  Bi29  1  0.67424108  0.50857046  0.93373805  1
  Bi  Bi30  1  0.82575892  0.49142954  0.43373805  1
  Bi  Bi31  1  0.32575892  0.00857046  0.06626195  1
