# generated using pymatgen
data_Li2VFeP2(HO5)2
_symmetry_space_group_name_H-M   'P 1'
_cell_length_a   5.43420085
_cell_length_b   14.53160254
_cell_length_c   7.47967834
_cell_angle_alpha   95.50876229
_cell_angle_beta   69.36059546
_cell_angle_gamma   87.58097386
_symmetry_Int_Tables_number   1
_chemical_formula_structural   Li2VFeP2(HO5)2
_chemical_formula_sum   'Li6 V3 Fe3 P6 H6 O30'
_cell_volume   548.35361158
_cell_formula_units_Z   3
loop_
 _symmetry_equiv_pos_site_id
 _symmetry_equiv_pos_as_xyz
  1  'x, y, z'
loop_
 _atom_site_type_symbol
 _atom_site_label
 _atom_site_symmetry_multiplicity
 _atom_site_fract_x
 _atom_site_fract_y
 _atom_site_fract_z
 _atom_site_occupancy
  Li  Li0  1  0.73404158  0.69199493  0.86892445  1
  Li  Li1  1  0.93267168  0.64174784  0.46446573  1
  Li  Li2  1  0.59957803  0.97438543  0.79694836  1
  Li  Li3  1  0.40014078  0.02512152  0.20307565  1
  Li  Li4  1  0.06755418  0.35848141  0.53541719  1
  Li  Li5  1  0.26601070  0.30833086  0.13109398  1
  V  V6  1  0.33285186  0.16642318  0.66680686  1
  V  V7  1  0.99994075  0.50008720  0.00008548  1
  V  V8  1  0.00025094  0.99961334  0.99952681  1
  Fe  Fe9  1  0.66674683  0.83347664  0.33357334  1
  Fe  Fe10  1  0.66701279  0.33328044  0.33329632  1
  Fe  Fe11  1  0.33260824  0.66717548  0.66726948  1
  P  P12  1  0.98098043  0.14812071  0.37976396  1
  P  P13  1  0.68510213  0.18533245  0.95441612  1
  P  P14  1  0.64854502  0.48142874  0.71280390  1
  P  P15  1  0.35159308  0.51880895  0.28718201  1
  P  P16  1  0.31497932  0.81450923  0.04711253  1
  P  P17  1  0.01884897  0.85182350  0.61882155  1
  H  H18  1  0.95353349  0.32537872  0.98827163  1
  H  H19  1  0.71006008  0.00705490  0.34737541  1
  H  H20  1  0.61971214  0.65997296  0.32115272  1
  H  H21  1  0.38008853  0.34125047  0.67842774  1
  H  H22  1  0.29049913  0.99147361  0.65260231  1
  H  H23  1  0.04615863  0.67482382  0.01187960  1
  O  O24  1  0.91869975  0.90042014  0.82811274  1
  O  O25  1  0.95566240  0.21819735  0.83879770  1
  O  O26  1  0.86398308  0.45042075  0.79186476  1
  O  O27  1  0.80250191  0.88248410  0.54118514  1
  O  O28  1  0.70026136  0.07780968  0.95824734  1
  O  O29  1  0.96614903  0.25539811  0.37625178  1
  O  O30  1  0.63296564  0.58871786  0.70863471  1
  O  O31  1  0.74735870  0.43267188  0.50301504  1
  O  O32  1  0.95400455  0.36992850  0.09697423  1
  O  O33  1  0.71035616  0.11497742  0.49521565  1
  O  O34  1  0.71158266  0.96157827  0.23946838  1
  O  O35  1  0.41322667  0.76594006  0.83682732  1
  O  O36  1  0.46977937  0.21634643  0.87498364  1
  O  O37  1  0.62151693  0.70471026  0.42920064  1
  O  O38  1  0.37750066  0.44831819  0.82845513  1
  O  O39  1  0.62267577  0.55196471  0.17168505  1
  O  O40  1  0.37980896  0.29648618  0.56989614  1
  O  O41  1  0.53116892  0.78403873  0.12466610  1
  O  O42  1  0.58626999  0.23382889  0.16422266  1
  O  O43  1  0.28730794  0.03690389  0.76103862  1
  O  O44  1  0.29099600  0.88438598  0.50360684  1
  O  O45  1  0.04593548  0.63021194  0.90312549  1
  O  O46  1  0.25318132  0.56754558  0.49700006  1
  O  O47  1  0.36714469  0.41151726  0.29084942  1
  O  O48  1  0.03464593  0.74445097  0.62335200  1
  O  O49  1  0.29901069  0.92212120  0.04251337  1
  O  O50  1  0.19665040  0.11689182  0.45915442  1
  O  O51  1  0.13600580  0.54983077  0.20824169  1
  O  O52  1  0.04285653  0.78220822  0.16230522  1
  O  O53  1  0.08128142  0.09959752  0.17081459  1
