# generated using pymatgen
data_Li2CrF6
_symmetry_space_group_name_H-M   'P 1'
_cell_length_a   4.67371933
_cell_length_b   4.66108475
_cell_length_c   8.99565731
_cell_angle_alpha   90.38250169
_cell_angle_beta   90.00000000
_cell_angle_gamma   90.00000000
_symmetry_Int_Tables_number   1
_chemical_formula_structural   Li2CrF6
_chemical_formula_sum   'Li4 Cr2 F12'
_cell_volume   195.96244645
_cell_formula_units_Z   2
loop_
 _symmetry_equiv_pos_site_id
 _symmetry_equiv_pos_as_xyz
  1  'x, y, z'
loop_
 _atom_site_type_symbol
 _atom_site_label
 _atom_site_symmetry_multiplicity
 _atom_site_fract_x
 _atom_site_fract_y
 _atom_site_fract_z
 _atom_site_occupancy
  Li  Li0  1  0.48128328  0.50517700  0.16580433  1
  Li  Li1  1  0.98128328  0.99482300  0.33419567  1
  Li  Li2  1  0.51871672  0.49482300  0.83419567  1
  Li  Li3  1  0.01871672  0.00517700  0.66580433  1
  Cr  Cr4  1  0.00000000  -0.00000000  0.00000000  1
  Cr  Cr5  1  0.50000000  0.50000000  0.50000000  1
  F  F6  1  0.78028223  0.77911755  0.50035256  1
  F  F7  1  0.71971777  0.27911755  0.00035256  1
  F  F8  1  0.28028223  0.72088245  0.99964744  1
  F  F9  1  0.30714235  0.69297319  0.34876864  1
  F  F10  1  0.80714235  0.80702681  0.15123136  1
  F  F11  1  0.18847336  0.19258158  0.15270397  1
  F  F12  1  0.31152664  0.69258158  0.65270397  1
  F  F13  1  0.69285765  0.30702681  0.65123136  1
  F  F14  1  0.81152664  0.80741842  0.84729603  1
  F  F15  1  0.21971777  0.22088245  0.49964744  1
  F  F16  1  0.19285765  0.19297319  0.84876864  1
  F  F17  1  0.68847336  0.30741842  0.34729603  1
