# generated using pymatgen
data_Sr5Cr3ClO12
_symmetry_space_group_name_H-M   'P 1'
_cell_length_a   10.28256677
_cell_length_b   10.28256693
_cell_length_c   7.37930077
_cell_angle_alpha   90.00000000
_cell_angle_beta   90.00000000
_cell_angle_gamma   119.99999952
_symmetry_Int_Tables_number   1
_chemical_formula_structural   Sr5Cr3ClO12
_chemical_formula_sum   'Sr10 Cr6 Cl2 O24'
_cell_volume   675.69223651
_cell_formula_units_Z   2
loop_
 _symmetry_equiv_pos_site_id
 _symmetry_equiv_pos_as_xyz
  1  'x, y, z'
loop_
 _atom_site_type_symbol
 _atom_site_label
 _atom_site_symmetry_multiplicity
 _atom_site_fract_x
 _atom_site_fract_y
 _atom_site_fract_z
 _atom_site_occupancy
  Sr  Sr0  1  0.99804857  0.74601557  0.75572853  1
  Sr  Sr1  1  0.33333300  0.66666700  0.49777329  1
  Sr  Sr2  1  0.74601557  0.74796700  0.25572853  1
  Sr  Sr3  1  0.66666700  0.33333300  0.49997333  1
  Sr  Sr4  1  0.25203300  0.99804857  0.25572853  1
  Sr  Sr5  1  0.25398443  0.25203300  0.75572853  1
  Sr  Sr6  1  0.00195143  0.25398443  0.25572853  1
  Sr  Sr7  1  0.66666700  0.33333300  0.99777329  1
  Sr  Sr8  1  0.74796700  0.00195143  0.75572853  1
  Sr  Sr9  1  0.33333300  0.66666700  0.99997333  1
  Cr  Cr10  1  0.03210157  0.40536340  0.75348511  1
  Cr  Cr11  1  0.37326183  0.96789843  0.75348511  1
  Cr  Cr12  1  0.59463660  0.62673817  0.75348511  1
  Cr  Cr13  1  0.96789843  0.59463660  0.25348511  1
  Cr  Cr14  1  0.62673817  0.03210157  0.25348511  1
  Cr  Cr15  1  0.40536340  0.37326183  0.25348511  1
  Cl  Cl16  1  0.00000000  0.00000000  0.50994137  1
  Cl  Cl17  1  0.00000000  0.00000000  0.00994137  1
  O  O18  1  0.16174307  0.68152553  0.25059506  1
  O  O19  1  0.73577275  0.09795306  0.44483139  1
  O  O20  1  0.09329779  0.34688515  0.57031013  1
  O  O21  1  0.26422725  0.90204694  0.94483139  1
  O  O22  1  0.13041896  0.59969429  0.74632046  1
  O  O23  1  0.25358736  0.90670221  0.57031013  1
  O  O24  1  0.51978246  0.83825693  0.25059506  1
  O  O25  1  0.48021754  0.16174307  0.75059506  1
  O  O26  1  0.65311485  0.74641264  0.57031013  1
  O  O27  1  0.40030571  0.53072467  0.74632046  1
  O  O28  1  0.31847447  0.48021754  0.25059506  1
  O  O29  1  0.36218031  0.26422725  0.44483139  1
  O  O30  1  0.90670221  0.65311485  0.07031013  1
  O  O31  1  0.83825693  0.31847447  0.75059506  1
  O  O32  1  0.86958104  0.40030571  0.24632046  1
  O  O33  1  0.09795306  0.36218031  0.94483139  1
  O  O34  1  0.90204694  0.63781969  0.44483139  1
  O  O35  1  0.59969429  0.46927533  0.24632046  1
  O  O36  1  0.34688515  0.25358736  0.07031013  1
  O  O37  1  0.68152553  0.51978246  0.75059506  1
  O  O38  1  0.63781969  0.73577275  0.94483139  1
  O  O39  1  0.74641264  0.09329779  0.07031013  1
  O  O40  1  0.46927533  0.86958104  0.74632046  1
  O  O41  1  0.53072467  0.13041896  0.24632046  1
