# generated using pymatgen
data_Dy5SbAu2
_symmetry_space_group_name_H-M   'P 1'
_cell_length_a   8.66905435
_cell_length_b   8.66905435
_cell_length_c   8.66905435
_cell_angle_alpha   124.17207308
_cell_angle_beta   124.17207308
_cell_angle_gamma   82.91392171
_symmetry_Int_Tables_number   1
_chemical_formula_structural   Dy5SbAu2
_chemical_formula_sum   'Dy10 Sb2 Au4'
_cell_volume   428.03652757
_cell_formula_units_Z   2
loop_
 _symmetry_equiv_pos_site_id
 _symmetry_equiv_pos_as_xyz
  1  'x, y, z'
loop_
 _atom_site_type_symbol
 _atom_site_label
 _atom_site_symmetry_multiplicity
 _atom_site_fract_x
 _atom_site_fract_y
 _atom_site_fract_z
 _atom_site_occupancy
  Dy  Dy0  1  0.50000000  0.50000000  0.00000000  1
  Dy  Dy1  1  -0.00000000  0.00000000  0.00000000  1
  Dy  Dy2  1  0.51482221  0.01482221  0.81397563  1
  Dy  Dy3  1  0.20084658  0.70084658  0.18602437  1
  Dy  Dy4  1  0.01482221  0.20084658  0.50000000  1
  Dy  Dy5  1  0.70084658  0.51482221  0.50000000  1
  Dy  Dy6  1  0.48517779  0.98517779  0.18602437  1
  Dy  Dy7  1  0.79915342  0.29915342  0.81397563  1
  Dy  Dy8  1  0.98517779  0.79915342  0.50000000  1
  Dy  Dy9  1  0.29915342  0.48517779  0.50000000  1
  Sb  Sb10  1  0.25000000  0.25000000  0.00000000  1
  Sb  Sb11  1  0.75000000  0.75000000  0.00000000  1
  Au  Au12  1  0.13620966  0.63620966  0.77241933  1
  Au  Au13  1  0.86379034  0.36379034  0.22758067  1
  Au  Au14  1  0.63620966  0.86379034  0.50000000  1
  Au  Au15  1  0.36379034  0.13620966  0.50000000  1
