# generated using pymatgen
data_LiSc(SiO3)2
_symmetry_space_group_name_H-M   'P 1'
_cell_length_a   5.40788581
_cell_length_b   9.04772409
_cell_length_c   9.49824997
_cell_angle_alpha   90.00000000
_cell_angle_beta   101.86895821
_cell_angle_gamma   90.00000000
_symmetry_Int_Tables_number   1
_chemical_formula_structural   LiSc(SiO3)2
_chemical_formula_sum   'Li4 Sc4 Si8 O24'
_cell_volume   454.80453983
_cell_formula_units_Z   4
loop_
 _symmetry_equiv_pos_site_id
 _symmetry_equiv_pos_as_xyz
  1  'x, y, z'
loop_
 _atom_site_type_symbol
 _atom_site_label
 _atom_site_symmetry_multiplicity
 _atom_site_fract_x
 _atom_site_fract_y
 _atom_site_fract_z
 _atom_site_occupancy
  Li  Li0  1  0.49708764  0.50436100  0.74992136  1
  Li  Li1  1  0.99708764  0.99563900  0.74992136  1
  Li  Li2  1  0.50291236  0.49563900  0.25007864  1
  Li  Li3  1  0.00291236  0.00436100  0.25007864  1
  Sc  Sc4  1  0.99686982  0.35584314  0.75004943  1
  Sc  Sc5  1  0.49686982  0.14415686  0.75004943  1
  Sc  Sc6  1  0.50313018  0.85584314  0.24995057  1
  Sc  Sc7  1  0.00313018  0.64415686  0.24995057  1
  Si  Si8  1  0.26843155  0.16350759  0.04884341  1
  Si  Si9  1  0.73156845  0.83649241  0.95115659  1
  Si  Si10  1  0.23156845  0.66350759  0.95115659  1
  Si  Si11  1  0.27443574  0.83648956  0.54879059  1
  Si  Si12  1  0.22556426  0.33648956  0.45120941  1
  Si  Si13  1  0.76843155  0.33649241  0.04884341  1
  Si  Si14  1  0.72556426  0.16351044  0.45120941  1
  Si  Si15  1  0.77443574  0.66351044  0.54879059  1
  O  O16  1  0.22797382  0.49792336  0.37773763  1
  O  O17  1  0.54003184  0.24880451  0.10491023  1
  O  O18  1  0.04003184  0.25119549  0.10491023  1
  O  O19  1  0.72797382  0.00207664  0.37773763  1
  O  O20  1  0.95996816  0.74880451  0.89508977  1
  O  O21  1  0.44436529  0.23841081  0.39658011  1
  O  O22  1  0.45996816  0.75119549  0.89508977  1
  O  O23  1  0.21005366  0.16664645  0.87102298  1
  O  O24  1  0.78402967  0.16608045  0.62915978  1
  O  O25  1  0.71597033  0.66608045  0.37084022  1
  O  O26  1  0.94436529  0.26158919  0.39658011  1
  O  O27  1  0.21989235  0.50061677  0.87946523  1
  O  O28  1  0.28994634  0.66664645  0.12897702  1
  O  O29  1  0.05563471  0.73841081  0.60341989  1
  O  O30  1  0.71989235  0.99938323  0.87946523  1
  O  O31  1  0.28402967  0.33391955  0.62915978  1
  O  O32  1  0.77202618  0.50207664  0.62226237  1
  O  O33  1  0.27202618  0.99792336  0.62226237  1
  O  O34  1  0.71005366  0.33335355  0.87102298  1
  O  O35  1  0.78010765  0.49938323  0.12053477  1
  O  O36  1  0.55563471  0.76158919  0.60341989  1
  O  O37  1  0.78994634  0.83335355  0.12897702  1
  O  O38  1  0.21597033  0.83391955  0.37084022  1
  O  O39  1  0.28010765  0.00061677  0.12053477  1
