# generated using pymatgen
data_ZnCu5P2O15
_symmetry_space_group_name_H-M   'P 1'
_cell_length_a   8.59533287
_cell_length_b   10.86353291
_cell_length_c   11.74861126
_cell_angle_alpha   95.87871082
_cell_angle_beta   90.00000000
_cell_angle_gamma   90.00000000
_symmetry_Int_Tables_number   1
_chemical_formula_structural   ZnCu5P2O15
_chemical_formula_sum   'Zn4 Cu20 P8 O60'
_cell_volume   1091.26521601
_cell_formula_units_Z   4
loop_
 _symmetry_equiv_pos_site_id
 _symmetry_equiv_pos_as_xyz
  1  'x, y, z'
loop_
 _atom_site_type_symbol
 _atom_site_label
 _atom_site_symmetry_multiplicity
 _atom_site_fract_x
 _atom_site_fract_y
 _atom_site_fract_z
 _atom_site_occupancy
  Zn  Zn0  1  0.40422128  0.83116136  0.03317844  1
  Zn  Zn1  1  0.90422128  0.66883864  0.96682156  1
  Zn  Zn2  1  0.59577872  0.16883864  0.96682156  1
  Zn  Zn3  1  0.09577872  0.33116136  0.03317844  1
  Cu  Cu4  1  0.09188987  0.69936141  0.30301922  1
  Cu  Cu5  1  0.59188987  0.80063859  0.69698078  1
  Cu  Cu6  1  0.90811013  0.30063859  0.69698078  1
  Cu  Cu7  1  0.40811013  0.19936141  0.30301922  1
  Cu  Cu8  1  0.24828654  0.95267564  0.28914079  1
  Cu  Cu9  1  0.74828654  0.54732436  0.71085921  1
  Cu  Cu10  1  0.75171346  0.04732436  0.71085921  1
  Cu  Cu11  1  0.25171346  0.45267564  0.28914079  1
  Cu  Cu12  1  0.90702304  0.94085013  0.30723545  1
  Cu  Cu13  1  0.40702304  0.55914987  0.69276455  1
  Cu  Cu14  1  0.09297696  0.05914987  0.69276455  1
  Cu  Cu15  1  0.59297696  0.44085013  0.30723545  1
  Cu  Cu16  1  0.73731135  0.69165827  0.30935555  1
  Cu  Cu17  1  0.23731135  0.80834173  0.69064445  1
  Cu  Cu18  1  0.26268865  0.30834173  0.69064445  1
  Cu  Cu19  1  0.76268865  0.19165827  0.30935555  1
  Cu  Cu20  1  0.57286114  0.94920020  0.28966861  1
  Cu  Cu21  1  0.07286114  0.55079980  0.71033139  1
  Cu  Cu22  1  0.42713886  0.05079980  0.71033139  1
  Cu  Cu23  1  0.92713886  0.44920020  0.28966861  1
  P  P24  1  0.25984108  0.57641734  0.04280123  1
  P  P25  1  0.75984108  0.92358266  0.95719877  1
  P  P26  1  0.74015892  0.42358266  0.95719877  1
  P  P27  1  0.24015892  0.07641734  0.04280123  1
  P  P28  1  0.40727256  0.67805669  0.43571707  1
  P  P29  1  0.90727256  0.82194331  0.56428293  1
  P  P30  1  0.59272744  0.32194331  0.56428293  1
  P  P31  1  0.09272744  0.17805669  0.43571707  1
  O  O32  1  0.08596445  0.84755744  0.23860035  1
  O  O33  1  0.58596445  0.65244256  0.76139965  1
  O  O34  1  0.91403555  0.15244256  0.76139965  1
  O  O35  1  0.41403555  0.34755744  0.23860035  1
  O  O36  1  0.89681486  0.81393941  0.43189471  1
  O  O37  1  0.39681486  0.68606059  0.56810529  1
  O  O38  1  0.10318514  0.18606059  0.56810529  1
  O  O39  1  0.60318514  0.31393941  0.43189471  1
  O  O40  1  0.91460889  0.65861256  0.22307421  1
  O  O41  1  0.41460889  0.84138744  0.77692579  1
  O  O42  1  0.08539111  0.34138744  0.77692579  1
  O  O43  1  0.58539111  0.15861256  0.22307421  1
  O  O44  1  0.08846164  0.54659188  0.35704225  1
  O  O45  1  0.58846164  0.95340812  0.64295775  1
  O  O46  1  0.91153836  0.45340812  0.64295775  1
  O  O47  1  0.41153836  0.04659188  0.35704225  1
  O  O48  1  0.30635059  0.58148717  0.17277197  1
  O  O49  1  0.80635059  0.91851283  0.82722803  1
  O  O50  1  0.69364941  0.41851283  0.82722803  1
  O  O51  1  0.19364941  0.08148717  0.17277197  1
  O  O52  1  0.26923041  0.74960734  0.38956090  1
  O  O53  1  0.76923041  0.75039266  0.61043910  1
  O  O54  1  0.73076959  0.25039266  0.61043910  1
  O  O55  1  0.23076959  0.24960734  0.38956090  1
  O  O56  1  0.09271428  0.03521252  0.38946404  1
  O  O57  1  0.59271428  0.46478748  0.61053596  1
  O  O58  1  0.90728572  0.96478748  0.61053596  1
  O  O59  1  0.40728572  0.53521252  0.38946404  1
  O  O60  1  0.41043875  0.87167273  0.20552781  1
  O  O61  1  0.91043875  0.62832727  0.79447219  1
  O  O62  1  0.58956125  0.12832727  0.79447219  1
  O  O63  1  0.08956125  0.37167273  0.20552781  1
  O  O64  1  0.72848794  0.84227787  0.23754784  1
  O  O65  1  0.22848794  0.65772213  0.76245216  1
  O  O66  1  0.27151206  0.15772213  0.76245216  1
  O  O67  1  0.77151206  0.34227787  0.23754784  1
  O  O68  1  0.72846493  0.03888245  0.37172170  1
  O  O69  1  0.22846493  0.46111755  0.62827830  1
  O  O70  1  0.27153507  0.96111755  0.62827830  1
  O  O71  1  0.77153507  0.53888245  0.37172170  1
  O  O72  1  0.89965919  0.06811877  0.20343862  1
  O  O73  1  0.39965919  0.43188123  0.79656138  1
  O  O74  1  0.10034081  0.93188123  0.79656138  1
  O  O75  1  0.60034081  0.56811877  0.20343862  1
  O  O76  1  0.56117716  0.73880883  0.40307384  1
  O  O77  1  0.06117716  0.76119117  0.59692616  1
  O  O78  1  0.43882284  0.26119117  0.59692616  1
  O  O79  1  0.93882284  0.23880883  0.40307384  1
  O  O80  1  0.09815972  0.63366156  0.03738738  1
  O  O81  1  0.59815972  0.86633844  0.96261262  1
  O  O82  1  0.90184028  0.36633844  0.96261262  1
  O  O83  1  0.40184028  0.13366156  0.03738738  1
  O  O84  1  0.26125300  0.44094084  0.98738279  1
  O  O85  1  0.76125300  0.05905916  0.01261721  1
  O  O86  1  0.73874700  0.55905916  0.01261721  1
  O  O87  1  0.23874700  0.94094084  0.98738279  1
  O  O88  1  0.38479015  0.65502074  0.99063949  1
  O  O89  1  0.88479015  0.84497926  0.00936051  1
  O  O90  1  0.61520985  0.34497926  0.00936051  1
  O  O91  1  0.11520985  0.15502074  0.99063949  1
