# generated using pymatgen
data_Cs5Bi(MoO4)4
_symmetry_space_group_name_H-M   'P 1'
_cell_length_a   8.61044318
_cell_length_b   10.70945920
_cell_length_c   13.74806804
_cell_angle_alpha   83.77646874
_cell_angle_beta   71.75077062
_cell_angle_gamma   69.74595931
_symmetry_Int_Tables_number   1
_chemical_formula_structural   Cs5Bi(MoO4)4
_chemical_formula_sum   'Cs10 Bi2 Mo8 O32'
_cell_volume   1129.54308385
_cell_formula_units_Z   2
loop_
 _symmetry_equiv_pos_site_id
 _symmetry_equiv_pos_as_xyz
  1  'x, y, z'
loop_
 _atom_site_type_symbol
 _atom_site_label
 _atom_site_symmetry_multiplicity
 _atom_site_fract_x
 _atom_site_fract_y
 _atom_site_fract_z
 _atom_site_occupancy
  Cs  Cs0  1  0.42212252  0.54886139  0.37624014  1
  Cs  Cs1  1  0.83332506  0.44212362  0.12024358  1
  Cs  Cs2  1  0.17067003  0.55111524  0.87848229  1
  Cs  Cs3  1  0.19735962  0.95492633  0.37686737  1
  Cs  Cs4  1  0.04915232  0.05111524  0.12151771  1
  Cs  Cs5  1  0.56455400  0.74989774  0.87725134  1
  Cs  Cs6  1  0.95356863  0.94212362  0.87975642  1
  Cs  Cs7  1  0.79836267  0.04886139  0.62375986  1
  Cs  Cs8  1  0.44180534  0.24989774  0.12274866  1
  Cs  Cs9  1  0.57422699  0.45492633  0.62313263  1
  Bi  Bi10  1  0.81045517  0.74698939  0.38683413  1
  Bi  Bi11  1  0.19728930  0.24698939  0.61316587  1
  Mo  Mo12  1  0.34533919  0.14291380  0.85707477  1
  Mo  Mo13  1  0.40266900  0.86054926  0.62245874  1
  Mo  Mo14  1  0.02512773  0.36054926  0.37754126  1
  Mo  Mo15  1  0.20241396  0.64291380  0.14292523  1
  Mo  Mo16  1  0.98492690  0.63225992  0.62165635  1
  Mo  Mo17  1  0.60658325  0.13225992  0.37834365  1
  Mo  Mo18  1  0.80118706  0.34892715  0.85521007  1
  Mo  Mo19  1  0.65639713  0.84892715  0.14478993  1
  O  O20  1  0.13921327  0.51243566  0.11655178  1
  O  O21  1  0.81174136  0.23675173  0.96053060  1
  O  O22  1  0.57776689  0.89689274  0.63907650  1
  O  O23  1  0.21684339  0.39689274  0.36092350  1
  O  O24  1  0.47972881  0.76986766  0.50290143  1
  O  O25  1  0.05468689  0.73296670  0.26426186  1
  O  O26  1  0.98263024  0.26986766  0.49709857  1
  O  O27  1  0.43594100  0.09128821  0.35997434  1
  O  O28  1  0.67509177  0.23847040  0.27739929  1
  O  O29  1  0.84526851  0.51893230  0.38162372  1
  O  O30  1  0.22689223  0.01893230  0.61837628  1
  O  O31  1  0.85774929  0.48416473  0.88041112  1
  O  O32  1  0.41714438  0.57099581  0.15298796  1
  O  O33  1  0.25576505  0.01243566  0.88344822  1
  O  O34  1  0.43191600  0.91214789  0.15321625  1
  O  O35  1  0.19969636  0.75559539  0.03748978  1
  O  O36  1  0.79591534  0.59128821  0.64002566  1
  O  O37  1  0.23718614  0.25559539  0.96251022  1
  O  O38  1  0.77227196  0.73675173  0.03946940  1
  O  O39  1  0.68393444  0.76078226  0.26642790  1
  O  O40  1  0.95249106  0.73847040  0.72260071  1
  O  O41  1  0.58513225  0.41214789  0.84678375  1
  O  O42  1  0.73816041  0.98416473  0.11958888  1
  O  O43  1  0.33161840  0.75763391  0.72533603  1
  O  O44  1  0.31894874  0.23296670  0.73573814  1
  O  O45  1  0.57013234  0.07099581  0.84701204  1
  O  O46  1  0.16753217  0.47646164  0.61929670  1
  O  O47  1  0.02662654  0.71924915  0.50006677  1
  O  O48  1  0.78682887  0.97646164  0.38070330  1
  O  O49  1  0.05695443  0.25763391  0.27466397  1
  O  O50  1  0.95036234  0.26078226  0.73357210  1
  O  O51  1  0.52669331  0.21924915  0.49993323  1
