# generated using pymatgen
data_CdPd3
_symmetry_space_group_name_H-M   'P 1'
_cell_length_a   5.72541422
_cell_length_b   5.72545242
_cell_length_c   4.66100888
_cell_angle_alpha   89.98462323
_cell_angle_beta   90.01524720
_cell_angle_gamma   120.00531510
_symmetry_Int_Tables_number   1
_chemical_formula_structural   CdPd3
_chemical_formula_sum   'Cd2 Pd6'
_cell_volume   132.31345203
_cell_formula_units_Z   2
loop_
 _symmetry_equiv_pos_site_id
 _symmetry_equiv_pos_as_xyz
  1  'x, y, z'
loop_
 _atom_site_type_symbol
 _atom_site_label
 _atom_site_symmetry_multiplicity
 _atom_site_fract_x
 _atom_site_fract_y
 _atom_site_fract_z
 _atom_site_occupancy
  Cd  Cd0  1  0.33333087  0.66666627  0.75000058  1
  Cd  Cd1  1  0.66666911  0.33333071  0.25000236  1
  Pd  Pd2  1  0.16454505  0.32908608  0.25002948  1
  Pd  Pd3  1  0.67091938  0.83545477  0.25003166  1
  Pd  Pd4  1  0.16455357  0.83545477  0.24991387  1
  Pd  Pd5  1  0.83545414  0.67091098  0.74997327  1
  Pd  Pd6  1  0.32908602  0.16454604  0.74996132  1
  Pd  Pd7  1  0.83544085  0.16454737  0.75008345  1
