# generated using pymatgen
data_GaNi3
_symmetry_space_group_name_H-M   'P 1'
_cell_length_a   5.08695510
_cell_length_b   5.08692604
_cell_length_c   4.08995742
_cell_angle_alpha   90.00000000
_cell_angle_beta   90.00000000
_cell_angle_gamma   119.98068735
_symmetry_Int_Tables_number   1
_chemical_formula_structural   GaNi3
_chemical_formula_sum   'Ga2 Ni6'
_cell_volume   91.67422138
_cell_formula_units_Z   2
loop_
 _symmetry_equiv_pos_site_id
 _symmetry_equiv_pos_as_xyz
  1  'x, y, z'
loop_
 _atom_site_type_symbol
 _atom_site_label
 _atom_site_symmetry_multiplicity
 _atom_site_fract_x
 _atom_site_fract_y
 _atom_site_fract_z
 _atom_site_occupancy
  Ga  Ga0  1  0.33332178  0.66666743  0.75000200  1
  Ga  Ga1  1  0.66671490  0.33333854  0.25000200  1
  Ni  Ni2  1  0.16460973  0.32926235  0.25000200  1
  Ni  Ni3  1  0.67074864  0.83536817  0.25000200  1
  Ni  Ni4  1  0.16460540  0.83533703  0.25000200  1
  Ni  Ni5  1  0.83537572  0.67069708  0.75000200  1
  Ni  Ni6  1  0.32930807  0.16463059  0.75000200  1
  Ni  Ni7  1  0.83531477  0.16469681  0.75000200  1
