# generated using pymatgen
data_TiSi3H30C10(N2Cl)2
_symmetry_space_group_name_H-M   'P 1'
_cell_length_a   9.90931608
_cell_length_b   10.41884624
_cell_length_c   12.88444140
_cell_angle_alpha   90.11869032
_cell_angle_beta   94.71217565
_cell_angle_gamma   108.37430967
_symmetry_Int_Tables_number   1
_chemical_formula_structural   TiSi3H30C10(N2Cl)2
_chemical_formula_sum   'Ti2 Si6 H60 C20 N8 Cl4'
_cell_volume   1257.60058362
_cell_formula_units_Z   2
loop_
 _symmetry_equiv_pos_site_id
 _symmetry_equiv_pos_as_xyz
  1  'x, y, z'
loop_
 _atom_site_type_symbol
 _atom_site_label
 _atom_site_symmetry_multiplicity
 _atom_site_fract_x
 _atom_site_fract_y
 _atom_site_fract_z
 _atom_site_occupancy
  Ti  Ti0  1  0.01166883  0.59136799  0.85200243  1
  Ti  Ti1  1  0.98833117  0.40863201  0.14799757  1
  Si  Si2  1  0.17908540  0.90385669  0.77820113  1
  Si  Si3  1  0.82091460  0.09614331  0.22179887  1
  Si  Si4  1  0.67695959  0.38967016  0.76150738  1
  Si  Si5  1  0.32304041  0.61032984  0.23849262  1
  Si  Si6  1  0.85655277  0.70048030  0.72919501  1
  Si  Si7  1  0.14344723  0.29951970  0.27080499  1
  H  H8  1  0.16896217  0.88798312  0.58385722  1
  H  H9  1  0.83103783  0.11201688  0.41614278  1
  H  H10  1  0.34280900  0.98142410  0.63920652  1
  H  H11  1  0.65719100  0.01857590  0.36079348  1
  H  H12  1  0.28354352  0.80146857  0.64241570  1
  H  H13  1  0.71645648  0.19853143  0.35758430  1
  H  H14  1  0.03915724  0.05765058  0.72173224  1
  H  H15  1  0.96084276  0.94234942  0.27826776  1
  H  H16  1  0.07997018  0.06999003  0.85911277  1
  H  H17  1  0.92002982  0.93000997  0.14088723  1
  H  H18  1  0.21394287  0.14965097  0.77600675  1
  H  H19  1  0.78605713  0.85034903  0.22399325  1
  H  H20  1  0.29018721  0.92728663  0.96209408  1
  H  H21  1  0.70981279  0.07271337  0.03790592  1
  H  H22  1  0.36089942  0.82595326  0.88459911  1
  H  H23  1  0.63910058  0.17404674  0.11540089  1
  H  H24  1  0.41596838  0.00418379  0.87216335  1
  H  H25  1  0.58403162  0.99581621  0.12783665  1
  H  H26  1  0.77548718  0.24565473  0.65254737  1
  H  H27  1  0.22451282  0.75434527  0.34745263  1
  H  H28  1  0.79473447  0.20806018  0.78678848  1
  H  H29  1  0.20526553  0.79193982  0.21321152  1
  H  H30  1  0.62480985  0.14904791  0.71482538  1
  H  H31  1  0.37519015  0.85095209  0.28517462  1
  H  H32  1  0.55300253  0.45139915  0.90516612  1
  H  H33  1  0.44699747  0.54860085  0.09483388  1
  H  H34  1  0.48675410  0.27567582  0.87262314  1
  H  H35  1  0.51324590  0.72432418  0.12737686  1
  H  H36  1  0.65131192  0.34274603  0.95100380  1
  H  H37  1  0.34868808  0.65725397  0.04899620  1
  H  H38  1  0.59197933  0.42514433  0.57792140  1
  H  H39  1  0.40802067  0.57485567  0.42207860  1
  H  H40  1  0.45233345  0.32255883  0.64855395  1
  H  H41  1  0.54766655  0.67744117  0.35144605  1
  H  H42  1  0.51187453  0.50050182  0.66961700  1
  H  H43  1  0.48812547  0.49949818  0.33038300  1
  H  H44  1  0.87699091  0.84806201  0.91820407  1
  H  H45  1  0.12300909  0.15193799  0.08179593  1
  H  H46  1  0.76390000  0.94696804  0.88072390  1
  H  H47  1  0.23610000  0.05303196  0.11927610  1
  H  H48  1  0.68941733  0.78131805  0.92816065  1
  H  H49  1  0.31058267  0.21868195  0.07183935  1
  H  H50  1  0.59972985  0.74525786  0.64392333  1
  H  H51  1  0.40027015  0.25474214  0.35607667  1
  H  H52  1  0.52684557  0.72114685  0.76729073  1
  H  H53  1  0.47315443  0.27885315  0.23270927  1
  H  H54  1  0.60425876  0.88785757  0.72292762  1
  H  H55  1  0.39574124  0.11214243  0.27707238  1
  H  H56  1  0.81314553  0.89699501  0.58762818  1
  H  H57  1  0.18685447  0.10300499  0.41237182  1
  H  H58  1  0.94037190  0.87346945  0.50525296  1
  H  H59  1  0.05962810  0.12653055  0.49474704  1
  H  H60  1  0.75499011  0.79306901  0.47171411  1
  H  H61  1  0.24500989  0.20693099  0.52828589  1
  H  H62  1  0.88153285  0.51916553  0.57246511  1
  H  H63  1  0.11846715  0.48083447  0.42753489  1
  H  H64  1  0.79491079  0.57513537  0.46246663  1
  H  H65  1  0.20508921  0.42486463  0.53753337  1
  H  H66  1  0.98069501  0.65319910  0.49654672  1
  H  H67  1  0.01930499  0.34680090  0.50345328  1
  C  C68  1  0.24973982  0.89185214  0.64863399  1
  C  C69  1  0.75026018  0.10814786  0.35136601  1
  C  C70  1  0.12187322  0.05888575  0.78438772  1
  C  C71  1  0.87812678  0.94111425  0.21561228  1
  C  C72  1  0.32390278  0.91492597  0.88456185  1
  C  C73  1  0.67609722  0.08507403  0.11543815  1
  C  C74  1  0.72454065  0.23478646  0.72614744  1
  C  C75  1  0.27545935  0.76521354  0.27385256  1
  C  C76  1  0.58464754  0.36304152  0.88476884  1
  C  C77  1  0.41535246  0.63695848  0.11523116  1
  C  C78  1  0.54747170  0.41320139  0.65394762  1
  C  C79  1  0.45252830  0.58679861  0.34605238  1
  C  C80  1  0.77248470  0.84382436  0.88058730  1
  C  C81  1  0.22751530  0.15617564  0.11941270  1
  C  C82  1  0.61440940  0.78525417  0.72413203  1
  C  C83  1  0.38559060  0.21474583  0.27586797  1
  C  C84  1  0.83758982  0.82327787  0.53815495  1
  C  C85  1  0.16241018  0.17672213  0.46184505  1
  C  C86  1  0.87671343  0.60787120  0.52915086  1
  C  C87  1  0.12328657  0.39212880  0.47084914  1
  N  N88  1  0.03085203  0.75859771  0.79220797  1
  N  N89  1  0.96914797  0.24140229  0.20779203  1
  N  N90  1  0.82991336  0.53529452  0.77574417  1
  N  N91  1  0.17008664  0.46470548  0.22425583  1
  N  N92  1  0.75363929  0.79052852  0.77377187  1
  N  N93  1  0.24636071  0.20947148  0.22622813  1
  N  N94  1  0.84264533  0.70450428  0.59552208  1
  N  N95  1  0.15735467  0.29549572  0.40447792  1
  Cl  Cl96  1  0.18391173  0.52511456  0.78526805  1
  Cl  Cl97  1  0.81608827  0.47488544  0.21473195  1
  Cl  Cl98  1  0.03563625  0.65786994  0.02870120  1
  Cl  Cl99  1  0.96436375  0.34213006  0.97129880  1
