# generated using pymatgen
data_Eu3Ga5
_symmetry_space_group_name_H-M   'P 1'
_cell_length_a   4.62707041
_cell_length_b   5.95983444
_cell_length_c   15.09931342
_cell_angle_alpha   90.00000000
_cell_angle_beta   90.00000000
_cell_angle_gamma   112.84178789
_symmetry_Int_Tables_number   1
_chemical_formula_structural   Eu3Ga5
_chemical_formula_sum   'Eu6 Ga10'
_cell_volume   383.73434914
_cell_formula_units_Z   2
loop_
 _symmetry_equiv_pos_site_id
 _symmetry_equiv_pos_as_xyz
  1  'x, y, z'
loop_
 _atom_site_type_symbol
 _atom_site_label
 _atom_site_symmetry_multiplicity
 _atom_site_fract_x
 _atom_site_fract_y
 _atom_site_fract_z
 _atom_site_occupancy
  Eu  Eu0  1  0.72791076  0.45582152  -0.00000000  1
  Eu  Eu1  1  0.47651389  0.95302779  0.50000000  1
  Eu  Eu2  1  0.00987692  0.01975385  0.14280886  1
  Eu  Eu3  1  0.00987692  0.01975385  0.85719114  1
  Eu  Eu4  1  0.19487581  0.38975162  0.64190203  1
  Eu  Eu5  1  0.19487581  0.38975162  0.35809797  1
  Ga  Ga6  1  0.43410643  0.86821286  -0.00000000  1
  Ga  Ga7  1  0.77035481  0.54070962  0.50000000  1
  Ga  Ga8  1  0.48699079  0.97398159  0.28376617  1
  Ga  Ga9  1  0.48699079  0.97398159  0.71623383  1
  Ga  Ga10  1  0.89528812  0.79057624  0.34813652  1
  Ga  Ga11  1  0.89528812  0.79057624  0.65186348  1
  Ga  Ga12  1  0.30981344  0.61962688  0.15244160  1
  Ga  Ga13  1  0.30981344  0.61962688  0.84755840  1
  Ga  Ga14  1  0.71771196  0.43542393  0.21669938  1
  Ga  Ga15  1  0.71771196  0.43542393  0.78330062  1
