# generated using pymatgen
data_Eu2BIN2
_symmetry_space_group_name_H-M   'P 1'
_cell_length_a   10.24126254
_cell_length_b   4.15600898
_cell_length_c   13.17440420
_cell_angle_alpha   90.63953192
_cell_angle_beta   91.14915638
_cell_angle_gamma   91.00724259
_symmetry_Int_Tables_number   1
_chemical_formula_structural   Eu2BIN2
_chemical_formula_sum   'Eu8 B4 I4 N8'
_cell_volume   560.50266318
_cell_formula_units_Z   4
loop_
 _symmetry_equiv_pos_site_id
 _symmetry_equiv_pos_as_xyz
  1  'x, y, z'
loop_
 _atom_site_type_symbol
 _atom_site_label
 _atom_site_symmetry_multiplicity
 _atom_site_fract_x
 _atom_site_fract_y
 _atom_site_fract_z
 _atom_site_occupancy
  Eu  Eu0  1  0.60692037  0.27748751  0.82385913  1
  Eu  Eu1  1  0.39307963  0.72251249  0.17614087  1
  Eu  Eu2  1  0.07913821  0.25169218  0.90550611  1
  Eu  Eu3  1  0.92086179  0.74830782  0.09449389  1
  Eu  Eu4  1  0.19684801  0.23888071  0.39022590  1
  Eu  Eu5  1  0.80315099  0.76112229  0.60977410  1
  Eu  Eu6  1  0.65203219  0.23715475  0.36361407  1
  Eu  Eu7  1  0.34796681  0.76284325  0.63638493  1
  B  B8  1  0.15799239  0.23524871  0.15058365  1
  B  B9  1  0.84200761  0.76475129  0.84941535  1
  B  B10  1  0.58136678  0.25981246  0.60198817  1
  B  B11  1  0.41863322  0.74018654  0.39801083  1
  I  I12  1  0.07604740  0.25422580  0.64311650  1
  I  I13  1  0.92395160  0.74577620  0.35688350  1
  I  I14  1  0.64941548  0.24103046  0.09196079  1
  I  I15  1  0.35058452  0.75896854  0.90803821  1
  N  N16  1  0.26575947  0.21616131  0.21129188  1
  N  N17  1  0.73424053  0.78383869  0.78870912  1
  N  N18  1  0.47709559  0.27229568  0.66312851  1
  N  N19  1  0.52290541  0.72770332  0.33687149  1
  N  N20  1  0.69217993  0.24866223  0.54799651  1
  N  N21  1  0.30782007  0.75133777  0.45200349  1
  N  N22  1  0.05091525  0.25704250  0.09005659  1
  N  N23  1  0.94908275  0.74295850  0.90994441  1
