# generated using pymatgen
data_LaP5
_symmetry_space_group_name_H-M   'P 1'
_cell_length_a   9.67303778
_cell_length_b   9.73411146
_cell_length_c   5.64307810
_cell_angle_alpha   90.00000000
_cell_angle_beta   106.71658896
_cell_angle_gamma   90.00000000
_symmetry_Int_Tables_number   1
_chemical_formula_structural   LaP5
_chemical_formula_sum   'La4 P20'
_cell_volume   508.88839572
_cell_formula_units_Z   4
loop_
 _symmetry_equiv_pos_site_id
 _symmetry_equiv_pos_as_xyz
  1  'x, y, z'
loop_
 _atom_site_type_symbol
 _atom_site_label
 _atom_site_symmetry_multiplicity
 _atom_site_fract_x
 _atom_site_fract_y
 _atom_site_fract_z
 _atom_site_occupancy
  La  La0  1  0.04838480  0.25000000  0.40725352  1
  La  La1  1  0.95161520  0.75000000  0.59274448  1
  La  La2  1  0.52204202  0.25000000  0.37220586  1
  La  La3  1  0.47795698  0.75000000  0.62779414  1
  P  P4  1  0.68915861  0.58604437  0.04532075  1
  P  P5  1  0.31084139  0.08604537  0.95468025  1
  P  P6  1  0.31084139  0.41395463  0.95468025  1
  P  P7  1  0.68915861  0.91395563  0.04532075  1
  P  P8  1  0.13635884  0.54902350  0.36479095  1
  P  P9  1  0.86364016  0.04902350  0.63521005  1
  P  P10  1  0.86364016  0.45097650  0.63521005  1
  P  P11  1  0.13635884  0.95097650  0.36479095  1
  P  P12  1  0.18759163  0.59547595  0.01964338  1
  P  P13  1  0.81240837  0.09547495  0.98035862  1
  P  P14  1  0.81240837  0.40452505  0.98035862  1
  P  P15  1  0.18759163  0.90452505  0.01964338  1
  P  P16  1  0.63647045  0.25000000  0.92405879  1
  P  P17  1  0.36352955  0.75000000  0.07594221  1
  P  P18  1  0.65823565  0.54513358  0.40901527  1
  P  P19  1  0.34176435  0.04513358  0.59098373  1
  P  P20  1  0.34176435  0.45486742  0.59098373  1
  P  P21  1  0.65823565  0.95486742  0.40901527  1
  P  P22  1  0.15039845  0.25000000  0.95476644  1
  P  P23  1  0.84960055  0.75000000  0.04523256  1
