# generated using pymatgen
data_Dy3Lu
_symmetry_space_group_name_H-M   'P 1'
_cell_length_a   7.18500168
_cell_length_b   7.18448304
_cell_length_c   5.65257764
_cell_angle_alpha   90.00398732
_cell_angle_beta   89.99236395
_cell_angle_gamma   119.99776104
_symmetry_Int_Tables_number   1
_chemical_formula_structural   Dy3Lu
_chemical_formula_sum   'Dy6 Lu2'
_cell_volume   252.70239618
_cell_formula_units_Z   2
loop_
 _symmetry_equiv_pos_site_id
 _symmetry_equiv_pos_as_xyz
  1  'x, y, z'
loop_
 _atom_site_type_symbol
 _atom_site_label
 _atom_site_symmetry_multiplicity
 _atom_site_fract_x
 _atom_site_fract_y
 _atom_site_fract_z
 _atom_site_occupancy
  Dy  Dy0  1  0.83253500  0.16746037  0.74999553  1
  Dy  Dy1  1  0.33490212  0.16741478  0.74996266  1
  Dy  Dy2  1  0.83255737  0.66506748  0.74995742  1
  Dy  Dy3  1  0.16724161  0.83262534  0.25000303  1
  Dy  Dy4  1  0.66544024  0.83273544  0.25003796  1
  Dy  Dy5  1  0.16722085  0.33461362  0.25003378  1
  Lu  Lu6  1  0.66676280  0.33339026  0.25002150  1
  Lu  Lu7  1  0.33334102  0.66669271  0.74999211  1
