# generated using pymatgen
data_Li10Co4O9
_symmetry_space_group_name_H-M   'P 1'
_cell_length_a   9.82151734
_cell_length_b   9.82151734
_cell_length_c   4.70031211
_cell_angle_alpha   90.00000000
_cell_angle_beta   90.00000000
_cell_angle_gamma   90.00000000
_symmetry_Int_Tables_number   1
_chemical_formula_structural   Li10Co4O9
_chemical_formula_sum   'Li20 Co8 O18'
_cell_volume   453.40246026
_cell_formula_units_Z   2
loop_
 _symmetry_equiv_pos_site_id
 _symmetry_equiv_pos_as_xyz
  1  'x, y, z'
loop_
 _atom_site_type_symbol
 _atom_site_label
 _atom_site_symmetry_multiplicity
 _atom_site_fract_x
 _atom_site_fract_y
 _atom_site_fract_z
 _atom_site_occupancy
  Li  Li0  1  0.75000000  0.75000000  0.08170273  1
  Li  Li1  1  0.25000000  0.25000000  0.91830027  1
  Li  Li2  1  0.25000000  0.25000000  0.41829827  1
  Li  Li3  1  0.75000000  0.75000000  0.58170173  1
  Li  Li4  1  0.89454235  0.93679670  0.04046514  1
  Li  Li5  1  0.60545765  0.56320230  0.04046514  1
  Li  Li6  1  0.39454235  0.06320330  0.95953486  1
  Li  Li7  1  0.10545865  0.43679570  0.95953486  1
  Li  Li8  1  0.06320330  0.10545865  0.45953586  1
  Li  Li9  1  0.43679570  0.39454235  0.45953586  1
  Li  Li10  1  0.93679670  0.60545765  0.54046514  1
  Li  Li11  1  0.56320230  0.89454235  0.54046514  1
  Li  Li12  1  0.10545865  0.06320330  0.95953486  1
  Li  Li13  1  0.39454235  0.43679570  0.95953486  1
  Li  Li14  1  0.60545765  0.93679670  0.04046514  1
  Li  Li15  1  0.89454235  0.56320230  0.04046514  1
  Li  Li16  1  0.93679670  0.89454235  0.54046514  1
  Li  Li17  1  0.56320230  0.60545765  0.54046514  1
  Li  Li18  1  0.06320330  0.39454235  0.45953586  1
  Li  Li19  1  0.43679570  0.10545865  0.45953586  1
  Co  Co20  1  0.08869274  0.75000000  0.01934662  1
  Co  Co21  1  0.41130926  0.75000000  0.01934662  1
  Co  Co22  1  0.58869274  0.25000000  0.98065238  1
  Co  Co23  1  0.91130826  0.25000000  0.98065238  1
  Co  Co24  1  0.25000000  0.91130826  0.48065538  1
  Co  Co25  1  0.25000000  0.58869274  0.48065538  1
  Co  Co26  1  0.75000000  0.41130926  0.51934562  1
  Co  Co27  1  0.75000000  0.08869274  0.51934562  1
  O  O28  1  0.07661642  0.92338258  0.25000000  1
  O  O29  1  0.42338258  0.57661642  0.25000000  1
  O  O30  1  0.57661642  0.07661642  0.75000100  1
  O  O31  1  0.92338258  0.42338258  0.75000100  1
  O  O32  1  0.92338258  0.07661642  0.75000100  1
  O  O33  1  0.57661642  0.42338258  0.75000100  1
  O  O34  1  0.42338258  0.92338258  0.25000000  1
  O  O35  1  0.07661642  0.57661642  0.25000000  1
  O  O36  1  0.75000000  0.25000000  0.25000000  1
  O  O37  1  0.25000000  0.75000000  0.75000100  1
  O  O38  1  0.09208072  0.25000000  0.17735541  1
  O  O39  1  0.40791928  0.25000000  0.17735541  1
  O  O40  1  0.59208072  0.75000000  0.82264359  1
  O  O41  1  0.90791928  0.75000000  0.82264359  1
  O  O42  1  0.75000000  0.90791928  0.32264659  1
  O  O43  1  0.75000000  0.59208072  0.32264659  1
  O  O44  1  0.25000000  0.40791928  0.67735441  1
  O  O45  1  0.25000000  0.09208072  0.67735441  1
