# generated using pymatgen
data_H10C4SN2
_symmetry_space_group_name_H-M   'P 1'
_cell_length_a   5.38610632
_cell_length_b   12.35276685
_cell_length_c   12.45900111
_cell_angle_alpha   90.00000000
_cell_angle_beta   90.00000000
_cell_angle_gamma   105.16040435
_symmetry_Int_Tables_number   1
_chemical_formula_structural   H10C4SN2
_chemical_formula_sum   'H40 C16 S4 N8'
_cell_volume   800.08947853
_cell_formula_units_Z   4
loop_
 _symmetry_equiv_pos_site_id
 _symmetry_equiv_pos_as_xyz
  1  'x, y, z'
loop_
 _atom_site_type_symbol
 _atom_site_label
 _atom_site_symmetry_multiplicity
 _atom_site_fract_x
 _atom_site_fract_y
 _atom_site_fract_z
 _atom_site_occupancy
  H  H0  1  0.28932141  0.42755320  0.23459760  1
  H  H1  1  0.78932141  0.92755320  0.26540240  1
  H  H2  1  0.71067859  0.57244680  0.76540240  1
  H  H3  1  0.21067859  0.07244680  0.73459760  1
  H  H4  1  0.76990555  0.10765817  0.11291141  1
  H  H5  1  0.26990555  0.60765817  0.38708859  1
  H  H6  1  0.23009445  0.89234183  0.88708859  1
  H  H7  1  0.73009445  0.39234183  0.61291141  1
  H  H8  1  0.59062295  0.20599541  0.07819281  1
  H  H9  1  0.09062295  0.70599541  0.42180719  1
  H  H10  1  0.40937705  0.79400459  0.92180719  1
  H  H11  1  0.90937705  0.29400459  0.57819281  1
  H  H12  1  0.57607820  0.15048452  0.21166219  1
  H  H13  1  0.07607820  0.65048452  0.28833781  1
  H  H14  1  0.42392180  0.84951548  0.78833781  1
  H  H15  1  0.92392180  0.34951548  0.71166219  1
  H  H16  1  0.94623515  0.44694229  0.15151384  1
  H  H17  1  0.44623515  0.94694229  0.34848616  1
  H  H18  1  0.05376485  0.55305771  0.84848616  1
  H  H19  1  0.55376485  0.05305771  0.65151384  1
  H  H20  1  0.81484477  0.35878632  0.04125636  1
  H  H21  1  0.31484477  0.85878632  0.45874364  1
  H  H22  1  0.18515523  0.64121368  0.95874364  1
  H  H23  1  0.68515523  0.14121368  0.54125636  1
  H  H24  1  0.15179583  0.39315509  0.06494481  1
  H  H25  1  0.65179583  0.89315509  0.43505519  1
  H  H26  1  0.84820417  0.60684491  0.93505519  1
  H  H27  1  0.34820417  0.10684491  0.56494481  1
  H  H28  1  0.35028715  0.35533089  0.44233583  1
  H  H29  1  0.85028715  0.85533089  0.05766417  1
  H  H30  1  0.64971285  0.64466911  0.55766417  1
  H  H31  1  0.14971285  0.14466911  0.94233583  1
  H  H32  1  0.59522987  0.43985277  0.35730363  1
  H  H33  1  0.09522987  0.93985277  0.14269637  1
  H  H34  1  0.40477013  0.56014723  0.64269637  1
  H  H35  1  0.90477013  0.06014723  0.85730363  1
  H  H36  1  0.53933631  0.29033535  0.36050736  1
  H  H37  1  0.03933631  0.79033535  0.13949264  1
  H  H38  1  0.46066369  0.70966465  0.63949264  1
  H  H39  1  0.96066369  0.20966465  0.86050736  1
  C  C40  1  0.07185232  0.26336174  0.25345863  1
  C  C41  1  0.57185232  0.76336174  0.24654137  1
  C  C42  1  0.92814768  0.73663826  0.74654137  1
  C  C43  1  0.42814768  0.23663826  0.75345863  1
  C  C44  1  0.70068499  0.17871376  0.14181030  1
  C  C45  1  0.20068499  0.67871376  0.35818970  1
  C  C46  1  0.29931501  0.82128624  0.85818970  1
  C  C47  1  0.79931501  0.32128624  0.64181030  1
  C  C48  1  0.96170200  0.37376924  0.10405367  1
  C  C49  1  0.46170200  0.87376924  0.39594633  1
  C  C50  1  0.03829800  0.62623076  0.89594633  1
  C  C51  1  0.53829800  0.12623076  0.60405367  1
  C  C52  1  0.44769305  0.35987424  0.36407716  1
  C  C53  1  0.94769305  0.85987424  0.13592284  1
  C  C54  1  0.55230695  0.64012576  0.63592284  1
  C  C55  1  0.05230695  0.14012576  0.86407716  1
  S  S56  1  0.02494012  0.14397978  0.32737713  1
  S  S57  1  0.52494012  0.64397978  0.17262287  1
  S  S58  1  0.97505988  0.85602022  0.67262287  1
  S  S59  1  0.47505988  0.35602022  0.82737713  1
  N  N60  1  0.91650213  0.27278947  0.17008253  1
  N  N61  1  0.41650213  0.77278947  0.32991747  1
  N  N62  1  0.08349787  0.72721053  0.82991747  1
  N  N63  1  0.58349787  0.22721053  0.67008253  1
  N  N64  1  0.26952265  0.35463373  0.27564904  1
  N  N65  1  0.76952265  0.85463373  0.22435096  1
  N  N66  1  0.73047735  0.64536627  0.72435096  1
  N  N67  1  0.23047735  0.14536627  0.77564904  1
