# generated using pymatgen
data_VCo2P2NO12
_symmetry_space_group_name_H-M   'P 1'
_cell_length_a   6.28280114
_cell_length_b   7.49174249
_cell_length_c   9.93427472
_cell_angle_alpha   90.00000000
_cell_angle_beta   90.00000000
_cell_angle_gamma   90.00000000
_symmetry_Int_Tables_number   1
_chemical_formula_structural   VCo2P2NO12
_chemical_formula_sum   'V2 Co4 P4 N2 O24'
_cell_volume   467.59765093
_cell_formula_units_Z   2
loop_
 _symmetry_equiv_pos_site_id
 _symmetry_equiv_pos_as_xyz
  1  'x, y, z'
loop_
 _atom_site_type_symbol
 _atom_site_label
 _atom_site_symmetry_multiplicity
 _atom_site_fract_x
 _atom_site_fract_y
 _atom_site_fract_z
 _atom_site_occupancy
  V  V0  1  -0.00000000  0.72183378  0.77869347  1
  V  V1  1  -0.00000000  0.27816622  0.27869347  1
  Co  Co2  1  0.23807162  0.99349472  0.52087506  1
  Co  Co3  1  0.76192838  0.99349472  0.52087506  1
  Co  Co4  1  0.76192838  0.00650528  0.02087506  1
  Co  Co5  1  0.23807162  0.00650528  0.02087506  1
  P  P6  1  0.50000000  0.82915856  0.76867543  1
  P  P7  1  0.50000000  0.17084144  0.26867543  1
  P  P8  1  -0.00000000  0.33705166  0.58524922  1
  P  P9  1  -0.00000000  0.66294834  0.08524922  1
  N  N10  1  0.50000000  0.64436238  0.42062791  1
  N  N11  1  0.50000000  0.35563762  0.92062791  1
  O  O12  1  0.20543226  0.22729281  0.60364834  1
  O  O13  1  0.79456774  0.22729281  0.60364834  1
  O  O14  1  0.79456774  0.77270719  0.10364834  1
  O  O15  1  0.20543226  0.77270719  0.10364834  1
  O  O16  1  0.50000000  0.94039051  0.63714579  1
  O  O17  1  0.50000000  0.05960949  0.13714579  1
  O  O18  1  0.50000000  0.94936645  0.89522632  1
  O  O19  1  0.50000000  0.05063355  0.39522632  1
  O  O20  1  0.32261941  0.70561358  0.43667428  1
  O  O21  1  0.67738059  0.70561358  0.43667428  1
  O  O22  1  0.67738059  0.29438642  0.93667428  1
  O  O23  1  0.32261941  0.29438642  0.93667428  1
  O  O24  1  -0.00000000  0.92153405  0.86982249  1
  O  O25  1  -0.00000000  0.07846595  0.36982249  1
  O  O26  1  -0.00000000  0.87249890  0.60030111  1
  O  O27  1  -0.00000000  0.12750110  0.10030111  1
  O  O28  1  -0.00000000  0.50144921  0.67630257  1
  O  O29  1  -0.00000000  0.49855079  0.17630257  1
  O  O30  1  0.30249653  0.70806204  0.76570534  1
  O  O31  1  0.69750347  0.70806204  0.76570534  1
  O  O32  1  0.69750347  0.29193796  0.26570534  1
  O  O33  1  0.30249653  0.29193796  0.26570534  1
  O  O34  1  -0.00000000  0.41324888  0.43504963  1
  O  O35  1  -0.00000000  0.58675112  0.93504963  1
