# generated using pymatgen
data_Sr2FeCu(PbO3)2
_symmetry_space_group_name_H-M   'P 1'
_cell_length_a   5.53221025
_cell_length_b   5.65376103
_cell_length_c   12.33889215
_cell_angle_alpha   90.00000000
_cell_angle_beta   90.00000000
_cell_angle_gamma   90.00000000
_symmetry_Int_Tables_number   1
_chemical_formula_structural   Sr2FeCu(PbO3)2
_chemical_formula_sum   'Sr4 Fe2 Cu2 Pb4 O12'
_cell_volume   385.93333575
_cell_formula_units_Z   2
loop_
 _symmetry_equiv_pos_site_id
 _symmetry_equiv_pos_as_xyz
  1  'x, y, z'
loop_
 _atom_site_type_symbol
 _atom_site_label
 _atom_site_symmetry_multiplicity
 _atom_site_fract_x
 _atom_site_fract_y
 _atom_site_fract_z
 _atom_site_occupancy
  Sr  Sr0  1  0.01739666  0.00313828  0.35658332  1
  Sr  Sr1  1  0.01739666  0.99686372  0.64341768  1
  Sr  Sr2  1  0.51739766  0.49686472  0.35658332  1
  Sr  Sr3  1  0.51739766  0.50313628  0.64341768  1
  Fe  Fe4  1  0.51730557  -0.00000000  0.49999900  1
  Fe  Fe5  1  0.01730257  0.50000000  0.49999900  1
  Cu  Cu6  1  0.01967176  -0.00000000  0.00000000  1
  Cu  Cu7  1  0.51967076  0.50000000  -0.00000000  1
  Pb  Pb8  1  0.01761798  0.51014876  0.14454854  1
  Pb  Pb9  1  0.01761798  0.48984824  0.85545046  1
  Pb  Pb10  1  0.51761498  0.98984824  0.14454854  1
  Pb  Pb11  1  0.51761498  0.01015276  0.85545046  1
  O  O12  1  0.26728944  0.24997706  0.50529321  1
  O  O13  1  0.26728944  0.75002194  0.49470579  1
  O  O14  1  0.76728844  0.25001994  0.50529321  1
  O  O15  1  0.76728844  0.74997706  0.49470579  1
  O  O16  1  0.01734131  0.47817381  0.32115696  1
  O  O17  1  0.01734131  0.52182519  0.67884404  1
  O  O18  1  0.51734231  0.02182719  0.32115696  1
  O  O19  1  0.51734231  0.97817381  0.67884404  1
  O  O20  1  0.01986795  0.92337934  0.14626129  1
  O  O21  1  0.01986795  0.07662166  0.85373771  1
  O  O22  1  0.51987095  0.57662066  0.14626129  1
  O  O23  1  0.51987095  0.42337834  0.85373771  1
