# generated using pymatgen
data_Tm6Ni2Sn
_symmetry_space_group_name_H-M   'P 1'
_cell_length_a   8.29707128
_cell_length_b   8.29746403
_cell_length_c   8.29684825
_cell_angle_alpha   105.81290838
_cell_angle_beta   110.39866628
_cell_angle_gamma   112.27393265
_symmetry_Int_Tables_number   1
_chemical_formula_structural   Tm6Ni2Sn
_chemical_formula_sum   'Tm12 Ni4 Sn2'
_cell_volume   438.21747645
_cell_formula_units_Z   2
loop_
 _symmetry_equiv_pos_site_id
 _symmetry_equiv_pos_as_xyz
  1  'x, y, z'
loop_
 _atom_site_type_symbol
 _atom_site_label
 _atom_site_symmetry_multiplicity
 _atom_site_fract_x
 _atom_site_fract_y
 _atom_site_fract_z
 _atom_site_occupancy
  Tm  Tm0  1  0.70579615  0.26706059  0.97284745  1
  Tm  Tm1  1  0.29423043  0.73300402  0.02724706  1
  Tm  Tm2  1  0.70580817  0.73291987  0.43872603  1
  Tm  Tm3  1  0.29420472  0.26698828  0.56119176  1
  Tm  Tm4  1  0.80795912  0.13471174  0.32676717  1
  Tm  Tm5  1  0.80796616  0.48120418  0.67326614  1
  Tm  Tm6  1  0.19202017  0.86529470  0.67323048  1
  Tm  Tm7  1  0.19203853  0.51882276  0.32673645  1
  Tm  Tm8  1  0.61478301  0.79593693  0.81884816  1
  Tm  Tm9  1  0.97708056  0.79588188  0.18118285  1
  Tm  Tm10  1  0.02288645  0.20409856  0.81879321  1
  Tm  Tm11  1  0.38521307  0.20407537  0.18112589  1
  Ni  Ni12  1  0.85275870  0.50000237  0.35274524  1
  Ni  Ni13  1  0.14731579  0.49998958  0.64732909  1
  Ni  Ni14  1  0.99996397  0.12815353  0.12811932  1
  Ni  Ni15  1  0.00001187  0.87185606  0.87188324  1
  Sn  Sn16  1  0.49995234  0.49999641  0.99994590  1
  Sn  Sn17  1  0.50001079  0.00000315  0.50001455  1
