# generated using pymatgen
data_Tm2InAu2
_symmetry_space_group_name_H-M   'P 1'
_cell_length_a   7.22091760
_cell_length_b   7.97960122
_cell_length_c   7.97960122
_cell_angle_alpha   90.00000000
_cell_angle_beta   90.00000000
_cell_angle_gamma   90.00000000
_symmetry_Int_Tables_number   1
_chemical_formula_structural   Tm2InAu2
_chemical_formula_sum   'Tm8 In4 Au8'
_cell_volume   459.78496455
_cell_formula_units_Z   4
loop_
 _symmetry_equiv_pos_site_id
 _symmetry_equiv_pos_as_xyz
  1  'x, y, z'
loop_
 _atom_site_type_symbol
 _atom_site_label
 _atom_site_symmetry_multiplicity
 _atom_site_fract_x
 _atom_site_fract_y
 _atom_site_fract_z
 _atom_site_occupancy
  Tm  Tm0  1  0.50000000  0.15691402  0.84308598  1
  Tm  Tm1  1  0.50000000  0.84308598  0.15691402  1
  Tm  Tm2  1  -0.00000000  0.34308598  0.34308598  1
  Tm  Tm3  1  -0.00000000  0.65691402  0.65691402  1
  Tm  Tm4  1  0.50000000  0.68265514  0.68265514  1
  Tm  Tm5  1  0.50000000  0.31734486  0.31734486  1
  Tm  Tm6  1  -0.00000000  0.81734486  0.18265514  1
  Tm  Tm7  1  0.00000000  0.18265514  0.81734486  1
  In  In8  1  0.25000000  0.00000000  0.50000000  1
  In  In9  1  0.75000000  0.50000000  0.00000000  1
  In  In10  1  0.75000000  0.00000000  0.50000000  1
  In  In11  1  0.25000000  0.50000000  0.00000000  1
  Au  Au12  1  0.27550391  0.37112646  0.62887354  1
  Au  Au13  1  0.27550391  0.62887354  0.37112646  1
  Au  Au14  1  0.77550391  0.12887354  0.12887354  1
  Au  Au15  1  0.77550391  0.87112646  0.87112646  1
  Au  Au16  1  0.72449609  0.62887354  0.37112646  1
  Au  Au17  1  0.72449609  0.37112646  0.62887354  1
  Au  Au18  1  0.22449609  0.87112646  0.87112646  1
  Au  Au19  1  0.22449609  0.12887354  0.12887354  1
