# generated using pymatgen
data_CdI2
_symmetry_space_group_name_H-M   'P 1'
_cell_length_a   4.33952862
_cell_length_b   4.33952862
_cell_length_c   44.19828760
_cell_angle_alpha   87.18612813
_cell_angle_beta   87.18612813
_cell_angle_gamma   59.99999047
_symmetry_Int_Tables_number   1
_chemical_formula_structural   CdI2
_chemical_formula_sum   'Cd6 I12'
_cell_volume   719.65154677
_cell_formula_units_Z   6
loop_
 _symmetry_equiv_pos_site_id
 _symmetry_equiv_pos_as_xyz
  1  'x, y, z'
loop_
 _atom_site_type_symbol
 _atom_site_label
 _atom_site_symmetry_multiplicity
 _atom_site_fract_x
 _atom_site_fract_y
 _atom_site_fract_z
 _atom_site_occupancy
  Cd  Cd0  1  0.93055990  0.93055990  0.20832031  1
  Cd  Cd1  1  0.76389526  0.76389526  0.70831423  1
  Cd  Cd2  1  0.37499356  0.37499356  0.87501933  1
  Cd  Cd3  1  0.31945485  0.31945485  0.04163545  1
  Cd  Cd4  1  0.20832935  0.20832935  0.37501194  1
  Cd  Cd5  1  0.15278111  0.15278111  0.54165668  1
  I  I6  1  0.99913013  0.99913013  0.00260960  1
  I  I7  1  0.88800465  0.88800465  0.33598604  1
  I  I8  1  0.83246552  0.83246552  0.50260343  1
  I  I9  1  0.69530782  0.69530782  0.91407654  1
  I  I10  1  0.63975988  0.63975988  0.08072037  1
  I  I11  1  0.58420773  0.58420773  0.24737680  1
  I  I12  1  0.52863629  0.52863629  0.41409114  1
  I  I13  1  0.47309704  0.47309704  0.58070888  1
  I  I14  1  0.41754072  0.41754072  0.74737784  1
  I  I15  1  0.27691065  0.27691065  0.16926804  1
  I  I16  1  0.11025318  0.11025318  0.66924047  1
  I  I17  1  0.05467236  0.05467236  0.83598291  1
