# generated using pymatgen
data_Sr3UO6
_symmetry_space_group_name_H-M   'P 1'
_cell_length_a   6.05893701
_cell_length_b   6.26947777
_cell_length_c   8.70635507
_cell_angle_alpha   90.00000000
_cell_angle_beta   90.12459075
_cell_angle_gamma   90.00000000
_symmetry_Int_Tables_number   1
_chemical_formula_structural   Sr3UO6
_chemical_formula_sum   'Sr6 U2 O12'
_cell_volume   330.72205072
_cell_formula_units_Z   2
loop_
 _symmetry_equiv_pos_site_id
 _symmetry_equiv_pos_as_xyz
  1  'x, y, z'
loop_
 _atom_site_type_symbol
 _atom_site_label
 _atom_site_symmetry_multiplicity
 _atom_site_fract_x
 _atom_site_fract_y
 _atom_site_fract_z
 _atom_site_occupancy
  Sr  Sr0  1  0.75123025  0.47797073  0.25054684  1
  Sr  Sr1  1  0.24876975  0.97797073  0.74945316  1
  Sr  Sr2  1  0.74274119  0.92896771  0.00441984  1
  Sr  Sr3  1  0.25725881  0.42896771  0.99558016  1
  Sr  Sr4  1  0.23917437  0.52691687  0.50572365  1
  Sr  Sr5  1  0.76082563  0.02691687  0.49427635  1
  U  U6  1  0.74581083  0.47753652  0.75025262  1
  U  U7  1  0.25418917  0.97753652  0.24974738  1
  O  O8  1  0.36522848  0.92063445  0.47632468  1
  O  O9  1  0.63477152  0.42063445  0.52367532  1
  O  O10  1  0.45821261  0.64578745  0.79762639  1
  O  O11  1  0.54178739  0.14578745  0.20237361  1
  O  O12  1  0.91043328  0.75916708  0.68267971  1
  O  O13  1  0.08956672  0.25916708  0.31732029  1
  O  O14  1  0.86002442  0.53706051  0.97538946  1
  O  O15  1  0.13997558  0.03706051  0.02461054  1
  O  O16  1  0.97036015  0.80473877  0.30185545  1
  O  O17  1  0.02963985  0.30473877  0.69814455  1
  O  O18  1  0.42035031  0.69831991  0.17920719  1
  O  O19  1  0.57964969  0.19831991  0.82079281  1
