# generated using pymatgen
data_Cr2Se3
_symmetry_space_group_name_H-M   'P 1'
_cell_length_a   6.35215778
_cell_length_b   6.35008713
_cell_length_c   11.75288941
_cell_angle_alpha   89.99582924
_cell_angle_beta   90.00208470
_cell_angle_gamma   119.98922014
_symmetry_Int_Tables_number   1
_chemical_formula_structural   Cr2Se3
_chemical_formula_sum   'Cr8 Se12'
_cell_volume   410.60421759
_cell_formula_units_Z   4
loop_
 _symmetry_equiv_pos_site_id
 _symmetry_equiv_pos_as_xyz
  1  'x, y, z'
loop_
 _atom_site_type_symbol
 _atom_site_label
 _atom_site_symmetry_multiplicity
 _atom_site_fract_x
 _atom_site_fract_y
 _atom_site_fract_z
 _atom_site_occupancy
  Cr  Cr0  1  0.66653166  0.33326583  0.75000000  1
  Cr  Cr1  1  0.33346834  0.66673417  0.25000000  1
  Cr  Cr2  1  -0.00000000  -0.00000000  0.50000000  1
  Cr  Cr3  1  -0.00000000  -0.00000000  0.00000000  1
  Cr  Cr4  1  0.66664540  0.33331283  0.48821209  1
  Cr  Cr5  1  0.33335460  0.66666743  0.98821209  1
  Cr  Cr6  1  0.33335460  0.66668717  0.51178791  1
  Cr  Cr7  1  0.66664540  0.33333257  0.01178791  1
  Se  Se8  1  0.33935186  0.32694788  0.87989333  1
  Se  Se9  1  0.67298463  0.01225504  0.87993104  1
  Se  Se10  1  0.98766462  0.66059301  0.87990037  1
  Se  Se11  1  0.66064814  0.98759603  0.37989333  1
  Se  Se12  1  0.01233538  0.67292839  0.37990037  1
  Se  Se13  1  0.32701537  0.33927041  0.37993104  1
  Se  Se14  1  0.66064814  0.67305212  0.12010667  1
  Se  Se15  1  0.32701537  0.98774496  0.12006896  1
  Se  Se16  1  0.01233538  0.33940699  0.12009963  1
  Se  Se17  1  0.33935186  0.01240397  0.62010667  1
  Se  Se18  1  0.98766462  0.32707161  0.62009963  1
  Se  Se19  1  0.67298463  0.66072959  0.62006896  1
