# generated using pymatgen
data_CsGd2Ag3Te5
_symmetry_space_group_name_H-M   'P 1'
_cell_length_a   4.71652519
_cell_length_b   8.50744630
_cell_length_c   18.82820658
_cell_angle_alpha   90.00000000
_cell_angle_beta   90.00000000
_cell_angle_gamma   106.09315219
_symmetry_Int_Tables_number   1
_chemical_formula_structural   CsGd2Ag3Te5
_chemical_formula_sum   'Cs2 Gd4 Ag6 Te10'
_cell_volume   725.88676734
_cell_formula_units_Z   2
loop_
 _symmetry_equiv_pos_site_id
 _symmetry_equiv_pos_as_xyz
  1  'x, y, z'
loop_
 _atom_site_type_symbol
 _atom_site_label
 _atom_site_symmetry_multiplicity
 _atom_site_fract_x
 _atom_site_fract_y
 _atom_site_fract_z
 _atom_site_occupancy
  Cs  Cs0  1  0.44084668  0.88169236  0.25000000  1
  Cs  Cs1  1  0.55915332  0.11830764  0.75000000  1
  Gd  Gd2  1  0.30767295  0.61534591  0.90623520  1
  Gd  Gd3  1  0.69232705  0.38465409  0.09376480  1
  Gd  Gd4  1  0.30767295  0.61534591  0.59376480  1
  Gd  Gd5  1  0.69232705  0.38465409  0.40623520  1
  Ag  Ag6  1  0.15812713  0.31625426  0.25000000  1
  Ag  Ag7  1  0.84187287  0.68374574  0.75000000  1
  Ag  Ag8  1  0.91660862  0.83321724  0.46591545  1
  Ag  Ag9  1  0.08339138  0.16678276  0.53408455  1
  Ag  Ag10  1  0.91660862  0.83321724  0.03408455  1
  Ag  Ag11  1  0.08339138  0.16678276  0.96591545  1
  Te  Te12  1  0.93444822  0.86889744  0.88207975  1
  Te  Te13  1  0.06555178  0.13110256  0.11792025  1
  Te  Te14  1  0.93444822  0.86889744  0.61792025  1
  Te  Te15  1  0.06555178  0.13110256  0.38207975  1
  Te  Te16  1  0.32076498  0.64152995  0.42889108  1
  Te  Te17  1  0.67923502  0.35847005  0.57110892  1
  Te  Te18  1  0.32076498  0.64152995  0.07110892  1
  Te  Te19  1  0.67923502  0.35847005  0.92889108  1
  Te  Te20  1  0.75332025  0.50663950  0.25000000  1
  Te  Te21  1  0.24667975  0.49336050  0.75000000  1
