# generated using pymatgen
data_Sc3As2
_symmetry_space_group_name_H-M   'P 1'
_cell_length_a   3.88398267
_cell_length_b   7.13847759
_cell_length_c   14.81134719
_cell_angle_alpha   90.00000000
_cell_angle_beta   90.00000000
_cell_angle_gamma   90.00000000
_symmetry_Int_Tables_number   1
_chemical_formula_structural   Sc3As2
_chemical_formula_sum   'Sc12 As8'
_cell_volume   410.65531315
_cell_formula_units_Z   4
loop_
 _symmetry_equiv_pos_site_id
 _symmetry_equiv_pos_as_xyz
  1  'x, y, z'
loop_
 _atom_site_type_symbol
 _atom_site_label
 _atom_site_symmetry_multiplicity
 _atom_site_fract_x
 _atom_site_fract_y
 _atom_site_fract_z
 _atom_site_occupancy
  Sc  Sc0  1  0.75000000  0.49789325  0.10245908  1
  Sc  Sc1  1  0.75000000  0.99789325  0.39754092  1
  Sc  Sc2  1  0.25000000  0.50210675  0.89754092  1
  Sc  Sc3  1  0.25000000  0.00210675  0.60245908  1
  Sc  Sc4  1  0.75000000  0.32754279  0.72431494  1
  Sc  Sc5  1  0.75000000  0.82754279  0.77568506  1
  Sc  Sc6  1  0.25000000  0.67245721  0.27568506  1
  Sc  Sc7  1  0.25000000  0.17245721  0.22431494  1
  Sc  Sc8  1  0.75000000  0.13451642  0.92976324  1
  Sc  Sc9  1  0.75000000  0.63451642  0.57023676  1
  Sc  Sc10  1  0.25000000  0.86548358  0.07023676  1
  Sc  Sc11  1  0.25000000  0.36548358  0.42976324  1
  As  As12  1  0.75000000  0.38994562  0.29284547  1
  As  As13  1  0.75000000  0.88994562  0.20715453  1
  As  As14  1  0.25000000  0.61005438  0.70715453  1
  As  As15  1  0.25000000  0.11005438  0.79284547  1
  As  As16  1  0.75000000  0.24657244  0.54303043  1
  As  As17  1  0.75000000  0.74657244  0.95696957  1
  As  As18  1  0.25000000  0.75342756  0.45696957  1
  As  As19  1  0.25000000  0.25342756  0.04303043  1
