# generated using pymatgen
data_AlCuCl4
_symmetry_space_group_name_H-M   'P 1'
_cell_length_a   6.22112539
_cell_length_b   7.79828096
_cell_length_c   12.93576953
_cell_angle_alpha   90.00000000
_cell_angle_beta   90.00000000
_cell_angle_gamma   90.00000000
_symmetry_Int_Tables_number   1
_chemical_formula_structural   AlCuCl4
_chemical_formula_sum   'Al4 Cu4 Cl16'
_cell_volume   627.56700543
_cell_formula_units_Z   4
loop_
 _symmetry_equiv_pos_site_id
 _symmetry_equiv_pos_as_xyz
  1  'x, y, z'
loop_
 _atom_site_type_symbol
 _atom_site_label
 _atom_site_symmetry_multiplicity
 _atom_site_fract_x
 _atom_site_fract_y
 _atom_site_fract_z
 _atom_site_occupancy
  Al  Al0  1  0.44341460  0.74489152  0.08779153  1
  Al  Al1  1  0.94341460  0.25510848  0.91220847  1
  Al  Al2  1  0.94341460  0.24489152  0.41220847  1
  Al  Al3  1  0.44341460  0.75510848  0.58779153  1
  Cu  Cu4  1  0.94040760  0.49376986  0.16183324  1
  Cu  Cu5  1  0.44040760  0.50623014  0.83816676  1
  Cu  Cu6  1  0.44040760  0.99376986  0.33816676  1
  Cu  Cu7  1  0.94040760  0.00623014  0.66183324  1
  Cl  Cl8  1  0.09313525  0.74508912  0.09282395  1
  Cl  Cl9  1  0.59313525  0.25491088  0.90717605  1
  Cl  Cl10  1  0.59313525  0.24508912  0.40717605  1
  Cl  Cl11  1  0.09313525  0.75491088  0.59282395  1
  Cl  Cl12  1  0.05519815  0.24787019  0.07104769  1
  Cl  Cl13  1  0.55519815  0.75212981  0.92895231  1
  Cl  Cl14  1  0.55519815  0.74787019  0.42895231  1
  Cl  Cl15  1  0.05519815  0.25212981  0.57104769  1
  Cl  Cl16  1  0.56392481  0.51414128  0.16301476  1
  Cl  Cl17  1  0.06392481  0.48585872  0.83698524  1
  Cl  Cl18  1  0.06392481  0.01414128  0.33698524  1
  Cl  Cl19  1  0.56392481  0.98585872  0.66301476  1
  Cl  Cl20  1  0.06172958  0.47447196  0.33448175  1
  Cl  Cl21  1  0.56172958  0.52552804  0.66551825  1
  Cl  Cl22  1  0.56172958  0.97447196  0.16551825  1
  Cl  Cl23  1  0.06172958  0.02552804  0.83448175  1
