# generated using pymatgen
data_ErNiO3
_symmetry_space_group_name_H-M   'P 1'
_cell_length_a   5.18140249
_cell_length_b   5.55904083
_cell_length_c   7.42596211
_cell_angle_alpha   90.00000000
_cell_angle_beta   89.95493030
_cell_angle_gamma   90.00000000
_symmetry_Int_Tables_number   1
_chemical_formula_structural   ErNiO3
_chemical_formula_sum   'Er4 Ni4 O12'
_cell_volume   213.89458381
_cell_formula_units_Z   4
loop_
 _symmetry_equiv_pos_site_id
 _symmetry_equiv_pos_as_xyz
  1  'x, y, z'
loop_
 _atom_site_type_symbol
 _atom_site_label
 _atom_site_symmetry_multiplicity
 _atom_site_fract_x
 _atom_site_fract_y
 _atom_site_fract_z
 _atom_site_occupancy
  Er  Er0  1  0.52065346  0.57589875  0.24883394  1
  Er  Er1  1  0.02065346  0.92410125  0.74883394  1
  Er  Er2  1  0.47934654  0.42410125  0.75116606  1
  Er  Er3  1  0.97934654  0.07589875  0.25116606  1
  Ni  Ni4  1  0.00000000  0.50000000  0.50000000  1
  Ni  Ni5  1  0.50000000  0.00000000  -0.00000000  1
  Ni  Ni6  1  0.00000000  0.50000000  -0.00000000  1
  Ni  Ni7  1  0.50000000  0.00000000  0.50000000  1
  O  O8  1  0.39200174  0.96450471  0.25501329  1
  O  O9  1  0.89200174  0.53549529  0.75501329  1
  O  O10  1  0.60799826  0.03549529  0.74498671  1
  O  O11  1  0.10799826  0.46450471  0.24498671  1
  O  O12  1  0.80229653  0.81130507  0.44831490  1
  O  O13  1  0.30229653  0.68869493  0.94831490  1
  O  O14  1  0.19770347  0.18869493  0.55168510  1
  O  O15  1  0.69770347  0.31130507  0.05168510  1
  O  O16  1  0.31315521  0.70164596  0.55653731  1
  O  O17  1  0.81315521  0.79835404  0.05653731  1
  O  O18  1  0.68684479  0.29835404  0.44346269  1
  O  O19  1  0.18684479  0.20164596  0.94346269  1
