# generated using pymatgen
data_Si2BAsH29C9N
_symmetry_space_group_name_H-M   'P 1'
_cell_length_a   9.53768616
_cell_length_b   9.53768616
_cell_length_c   11.82112445
_cell_angle_alpha   90.00000000
_cell_angle_beta   90.00000000
_cell_angle_gamma   109.81339082
_symmetry_Int_Tables_number   1
_chemical_formula_structural   Si2BAsH29C9N
_chemical_formula_sum   'Si4 B2 As2 H58 C18 N2'
_cell_volume   1011.67933902
_cell_formula_units_Z   2
loop_
 _symmetry_equiv_pos_site_id
 _symmetry_equiv_pos_as_xyz
  1  'x, y, z'
loop_
 _atom_site_type_symbol
 _atom_site_label
 _atom_site_symmetry_multiplicity
 _atom_site_fract_x
 _atom_site_fract_y
 _atom_site_fract_z
 _atom_site_occupancy
  Si  Si0  1  0.97424837  0.21409615  0.27208831  1
  Si  Si1  1  0.21409615  0.97424837  0.27208831  1
  Si  Si2  1  0.02575163  0.78590385  0.77208831  1
  Si  Si3  1  0.78590385  0.02575163  0.77208831  1
  B  B4  1  0.35220487  0.35220487  0.35625591  1
  B  B5  1  0.64779513  0.64779513  0.85625591  1
  As  As6  1  0.15879879  0.15879879  0.38089510  1
  As  As7  1  0.84120121  0.84120121  0.88089510  1
  H  H8  1  0.32018157  0.45085904  0.30926902  1
  H  H9  1  0.45085904  0.32018157  0.30926902  1
  H  H10  1  0.67981843  0.54914096  0.80926902  1
  H  H11  1  0.54914096  0.67981843  0.80926902  1
  H  H12  1  0.82235610  0.37156392  0.31424110  1
  H  H13  1  0.37156392  0.82235610  0.31424110  1
  H  H14  1  0.17764390  0.62843608  0.81424110  1
  H  H15  1  0.62843608  0.17764390  0.81424110  1
  H  H16  1  0.86629048  0.29499438  0.44186332  1
  H  H17  1  0.29499438  0.86629048  0.44186332  1
  H  H18  1  0.13370952  0.70500562  0.94186332  1
  H  H19  1  0.70500562  0.13370952  0.94186332  1
  H  H20  1  0.00146044  0.45203065  0.37728157  1
  H  H21  1  0.45203065  0.00146044  0.37728157  1
  H  H22  1  0.99853956  0.54796935  0.87728157  1
  H  H23  1  0.54796935  0.99853956  0.87728157  1
  H  H24  1  0.76239455  0.98135384  0.32558549  1
  H  H25  1  0.98135384  0.76239455  0.32558549  1
  H  H26  1  0.23760545  0.01864616  0.82558549  1
  H  H27  1  0.01864616  0.23760545  0.82558549  1
  H  H28  1  0.71350039  0.08459176  0.21635105  1
  H  H29  1  0.08459176  0.71350039  0.21635105  1
  H  H30  1  0.28649961  0.91540824  0.71635105  1
  H  H31  1  0.91540824  0.28649961  0.71635105  1
  H  H32  1  0.82153717  0.97079035  0.18324804  1
  H  H33  1  0.97079035  0.82153717  0.18324804  1
  H  H34  1  0.17846283  0.02920965  0.68324804  1
  H  H35  1  0.02920965  0.17846283  0.68324804  1
  H  H36  1  0.04934756  0.22160216  0.06903704  1
  H  H37  1  0.22160216  0.04934756  0.06903704  1
  H  H38  1  0.95065244  0.77839784  0.56903704  1
  H  H39  1  0.77839784  0.95065244  0.56903704  1
  H  H40  1  0.94034837  0.33719460  0.09287792  1
  H  H41  1  0.33719460  0.94034837  0.09287792  1
  H  H42  1  0.05965163  0.66280540  0.59287792  1
  H  H43  1  0.66280540  0.05965163  0.59287792  1
  H  H44  1  0.13135682  0.40070410  0.13290658  1
  H  H45  1  0.40070410  0.13135682  0.13290658  1
  H  H46  1  0.86864318  0.59929590  0.63290658  1
  H  H47  1  0.59929590  0.86864318  0.63290658  1
  H  H48  1  0.61100145  0.61100145  0.53085910  1
  H  H49  1  0.38899855  0.38899855  0.03085910  1
  H  H50  1  0.63988402  0.52538176  0.40165812  1
  H  H51  1  0.52538176  0.63988402  0.40165812  1
  H  H52  1  0.36011598  0.47461824  0.90165812  1
  H  H53  1  0.47461824  0.36011598  0.90165812  1
  H  H54  1  0.53042747  0.38280403  0.62439850  1
  H  H55  1  0.38280403  0.53042747  0.62439850  1
  H  H56  1  0.46957253  0.61719597  0.12439850  1
  H  H57  1  0.61719597  0.46957253  0.12439850  1
  H  H58  1  0.38466186  0.22401502  0.56850450  1
  H  H59  1  0.22401502  0.38466186  0.56850450  1
  H  H60  1  0.61533814  0.77598498  0.06850450  1
  H  H61  1  0.77598498  0.61533814  0.06850450  1
  H  H62  1  0.56167994  0.29201907  0.49849319  1
  H  H63  1  0.29201907  0.56167994  0.49849319  1
  H  H64  1  0.43832006  0.70798093  0.99849319  1
  H  H65  1  0.70798093  0.43832006  0.99849319  1
  C  C66  1  0.91128814  0.34647743  0.36044373  1
  C  C67  1  0.34647743  0.91128814  0.36044373  1
  C  C68  1  0.08871186  0.65352257  0.86044373  1
  C  C69  1  0.65352257  0.08871186  0.86044373  1
  C  C70  1  0.80253748  0.04521163  0.24778124  1
  C  C71  1  0.04521163  0.80253748  0.24778124  1
  C  C72  1  0.19746252  0.95478837  0.74778124  1
  C  C73  1  0.95478837  0.19746252  0.74778124  1
  C  C74  1  0.03015335  0.30202452  0.12833092  1
  C  C75  1  0.30202452  0.03015335  0.12833092  1
  C  C76  1  0.96984665  0.69797548  0.62833092  1
  C  C77  1  0.69797548  0.96984665  0.62833092  1
  C  C78  1  0.55982787  0.55982787  0.45075078  1
  C  C79  1  0.44017213  0.44017213  0.95075078  1
  C  C80  1  0.47910643  0.32407015  0.54707094  1
  C  C81  1  0.32407015  0.47910643  0.54707094  1
  C  C82  1  0.52089357  0.67592985  0.04707094  1
  C  C83  1  0.67592985  0.52089357  0.04707094  1
  N  N84  1  0.42655175  0.42655175  0.47687791  1
  N  N85  1  0.57344825  0.57344825  0.97687791  1
