# generated using pymatgen
data_Na3ScCl6
_symmetry_space_group_name_H-M   'P 1'
_cell_length_a   6.78838920
_cell_length_b   7.21559618
_cell_length_c   9.99869058
_cell_angle_alpha   90.00000000
_cell_angle_beta   90.54985402
_cell_angle_gamma   90.00000000
_symmetry_Int_Tables_number   1
_chemical_formula_structural   Na3ScCl6
_chemical_formula_sum   'Na6 Sc2 Cl12'
_cell_volume   489.73606025
_cell_formula_units_Z   2
loop_
 _symmetry_equiv_pos_site_id
 _symmetry_equiv_pos_as_xyz
  1  'x, y, z'
loop_
 _atom_site_type_symbol
 _atom_site_label
 _atom_site_symmetry_multiplicity
 _atom_site_fract_x
 _atom_site_fract_y
 _atom_site_fract_z
 _atom_site_occupancy
  Na  Na0  1  0.52640598  0.92063680  0.24236216  1
  Na  Na1  1  0.02640598  0.57936320  0.74236216  1
  Na  Na2  1  0.47359402  0.07936320  0.75763784  1
  Na  Na3  1  0.97359402  0.42063680  0.25763784  1
  Na  Na4  1  0.00000000  0.00000000  0.50000000  1
  Na  Na5  1  0.50000000  0.50000000  0.00000000  1
  Sc  Sc6  1  0.50000000  0.50000000  0.50000000  1
  Sc  Sc7  1  0.00000000  0.00000000  0.00000000  1
  Cl  Cl8  1  0.36787904  0.55459321  0.26642586  1
  Cl  Cl9  1  0.86787904  0.94540679  0.76642586  1
  Cl  Cl10  1  0.63212096  0.44540679  0.73357414  1
  Cl  Cl11  1  0.13212096  0.05459321  0.23357414  1
  Cl  Cl12  1  0.33546418  0.79481154  0.57404943  1
  Cl  Cl13  1  0.83546418  0.70518846  0.07404943  1
  Cl  Cl14  1  0.66453582  0.20518846  0.42595057  1
  Cl  Cl15  1  0.16453582  0.29481154  0.92595057  1
  Cl  Cl16  1  0.80295146  0.67559559  0.43930458  1
  Cl  Cl17  1  0.30295146  0.82440441  0.93930458  1
  Cl  Cl18  1  0.19704854  0.32440441  0.56069542  1
  Cl  Cl19  1  0.69704854  0.17559559  0.06069542  1
