# generated using pymatgen
data_GdIn2Ni9
_symmetry_space_group_name_H-M   'P 1'
_cell_length_a   4.84249000
_cell_length_b   8.22199321
_cell_length_c   8.22199321
_cell_angle_alpha   90.00000000
_cell_angle_beta   90.00000000
_cell_angle_gamma   90.00000000
_symmetry_Int_Tables_number   1
_chemical_formula_structural   GdIn2Ni9
_chemical_formula_sum   'Gd2 In4 Ni18'
_cell_volume   327.35800107
_cell_formula_units_Z   2
loop_
 _symmetry_equiv_pos_site_id
 _symmetry_equiv_pos_as_xyz
  1  'x, y, z'
loop_
 _atom_site_type_symbol
 _atom_site_label
 _atom_site_symmetry_multiplicity
 _atom_site_fract_x
 _atom_site_fract_y
 _atom_site_fract_z
 _atom_site_occupancy
  Gd  Gd0  1  -0.00000000  0.50000000  0.50000000  1
  Gd  Gd1  1  -0.00000000  -0.00000000  -0.00000000  1
  In  In2  1  -0.00000000  0.62564907  0.12564907  1
  In  In3  1  -0.00000000  0.37435093  0.87435093  1
  In  In4  1  -0.00000000  0.87435093  0.62564907  1
  In  In5  1  -0.00000000  0.12564907  0.37435093  1
  Ni  Ni6  1  0.75310331  0.17555899  0.67555899  1
  Ni  Ni7  1  0.75310331  0.82444101  0.32444101  1
  Ni  Ni8  1  0.75310331  0.32444101  0.17555899  1
  Ni  Ni9  1  0.75310331  0.67555899  0.82444101  1
  Ni  Ni10  1  0.24689669  0.82444101  0.32444101  1
  Ni  Ni11  1  0.24689669  0.17555899  0.67555899  1
  Ni  Ni12  1  0.24689669  0.67555899  0.82444101  1
  Ni  Ni13  1  0.24689669  0.32444101  0.17555899  1
  Ni  Ni14  1  0.50000000  0.70608038  0.56577604  1
  Ni  Ni15  1  0.50000000  0.29391962  0.43422396  1
  Ni  Ni16  1  0.50000000  0.79391962  0.06577604  1
  Ni  Ni17  1  0.50000000  0.20608038  0.93422396  1
  Ni  Ni18  1  0.50000000  0.56577604  0.29391962  1
  Ni  Ni19  1  0.50000000  0.43422396  0.70608038  1
  Ni  Ni20  1  0.50000000  0.06577604  0.20608038  1
  Ni  Ni21  1  0.50000000  0.93422396  0.79391962  1
  Ni  Ni22  1  0.50000000  -0.00000000  0.50000000  1
  Ni  Ni23  1  0.50000000  0.50000000  -0.00000000  1
