# generated using pymatgen
data_VZn2IO7
_symmetry_space_group_name_H-M   'P 1'
_cell_length_a   5.34606788
_cell_length_b   5.60723715
_cell_length_c   10.18096704
_cell_angle_alpha   90.00000000
_cell_angle_beta   90.00000000
_cell_angle_gamma   101.52572700
_symmetry_Int_Tables_number   1
_chemical_formula_structural   VZn2IO7
_chemical_formula_sum   'V2 Zn4 I2 O14'
_cell_volume   299.03733344
_cell_formula_units_Z   2
loop_
 _symmetry_equiv_pos_site_id
 _symmetry_equiv_pos_as_xyz
  1  'x, y, z'
loop_
 _atom_site_type_symbol
 _atom_site_label
 _atom_site_symmetry_multiplicity
 _atom_site_fract_x
 _atom_site_fract_y
 _atom_site_fract_z
 _atom_site_occupancy
  V  V0  1  0.25906125  0.10621031  0.64402120  1
  V  V1  1  0.25906125  0.60621031  0.35597880  1
  Zn  Zn2  1  0.76159955  0.58610952  0.56120314  1
  Zn  Zn3  1  0.76159955  0.08610952  0.43879686  1
  Zn  Zn4  1  0.39436091  0.63514745  0.86535058  1
  Zn  Zn5  1  0.39436091  0.13514745  0.13464942  1
  I  I6  1  0.82136932  0.31652354  0.86953921  1
  I  I7  1  0.82136932  0.81652354  0.13046079  1
  O  O8  1  0.37531498  0.92445275  0.75214461  1
  O  O9  1  0.37531498  0.42445275  0.24785539  1
  O  O10  1  0.16237187  0.34424037  0.73480906  1
  O  O11  1  0.16237187  0.84424037  0.26519094  1
  O  O12  1  0.98704671  0.94012782  0.56201543  1
  O  O13  1  0.98704671  0.44012782  0.43798457  1
  O  O14  1  0.50774157  0.73876477  0.46210767  1
  O  O15  1  0.50774157  0.23876477  0.53789233  1
  O  O16  1  0.71566929  0.54504371  0.75779757  1
  O  O17  1  0.71566929  0.04504371  0.24220243  1
  O  O18  1  0.55638629  0.36398121  0.98191984  1
  O  O19  1  0.55638629  0.86398121  0.01808016  1
  O  O20  1  0.05567826  0.53832856  0.96230416  1
  O  O21  1  0.05567826  0.03832856  0.03769584  1
