# generated using pymatgen
data_Np2Se5
_symmetry_space_group_name_H-M   'P 1'
_cell_length_a   7.72538307
_cell_length_b   7.74173085
_cell_length_c   10.72896672
_cell_angle_alpha   90.00000000
_cell_angle_beta   90.00000000
_cell_angle_gamma   90.00000000
_symmetry_Int_Tables_number   1
_chemical_formula_structural   Np2Se5
_chemical_formula_sum   'Np8 Se20'
_cell_volume   641.67628677
_cell_formula_units_Z   4
loop_
 _symmetry_equiv_pos_site_id
 _symmetry_equiv_pos_as_xyz
  1  'x, y, z'
loop_
 _atom_site_type_symbol
 _atom_site_label
 _atom_site_symmetry_multiplicity
 _atom_site_fract_x
 _atom_site_fract_y
 _atom_site_fract_z
 _atom_site_occupancy
  Np  Np0  1  0.75359369  0.49947606  0.15149699  1
  Np  Np1  1  0.74640631  0.99947606  0.34850301  1
  Np  Np2  1  0.25359369  0.50052394  0.34850301  1
  Np  Np3  1  0.24640631  0.00052394  0.15149699  1
  Np  Np4  1  0.24640631  0.50052394  0.84850301  1
  Np  Np5  1  0.25359369  0.00052394  0.65149699  1
  Np  Np6  1  0.74640631  0.49947606  0.65149699  1
  Np  Np7  1  0.75359369  0.99947606  0.84850301  1
  Se  Se8  1  0.62337195  0.12659271  0.60356255  1
  Se  Se9  1  0.87662805  0.62659271  0.89643745  1
  Se  Se10  1  0.12337195  0.87340729  0.89643745  1
  Se  Se11  1  0.37662805  0.37340729  0.60356255  1
  Se  Se12  1  0.37662805  0.87340729  0.39643745  1
  Se  Se13  1  0.12337195  0.37340729  0.10356255  1
  Se  Se14  1  0.87662805  0.12659271  0.10356255  1
  Se  Se15  1  0.62337195  0.62659271  0.39643745  1
  Se  Se16  1  0.12021974  0.62983062  0.60148741  1
  Se  Se17  1  0.37978026  0.12983062  0.89851259  1
  Se  Se18  1  0.62021974  0.37016938  0.89851259  1
  Se  Se19  1  0.87978026  0.87016938  0.60148741  1
  Se  Se20  1  0.87978026  0.37016938  0.39851259  1
  Se  Se21  1  0.62021974  0.87016938  0.10148741  1
  Se  Se22  1  0.37978026  0.62983062  0.10148741  1
  Se  Se23  1  0.12021974  0.12983062  0.39851259  1
  Se  Se24  1  0.00000000  0.25000000  0.74821224  1
  Se  Se25  1  0.50000000  0.75000000  0.75178776  1
  Se  Se26  1  0.00000000  0.75000000  0.25178776  1
  Se  Se27  1  0.50000000  0.25000000  0.24821224  1
