# generated using pymatgen
data_RbAlV(PO5)2
_symmetry_space_group_name_H-M   'P 1'
_cell_length_a   7.91711958
_cell_length_b   8.29404751
_cell_length_c   14.16998651
_cell_angle_alpha   90.00000000
_cell_angle_beta   104.79594154
_cell_angle_gamma   90.00000000
_symmetry_Int_Tables_number   1
_chemical_formula_structural   RbAlV(PO5)2
_chemical_formula_sum   'Rb4 Al4 V4 P8 O40'
_cell_volume   899.61861752
_cell_formula_units_Z   4
loop_
 _symmetry_equiv_pos_site_id
 _symmetry_equiv_pos_as_xyz
  1  'x, y, z'
loop_
 _atom_site_type_symbol
 _atom_site_label
 _atom_site_symmetry_multiplicity
 _atom_site_fract_x
 _atom_site_fract_y
 _atom_site_fract_z
 _atom_site_occupancy
  Rb  Rb0  1  0.11694455  0.52894403  0.80139992  1
  Rb  Rb1  1  0.61694455  0.97105597  0.30139992  1
  Rb  Rb2  1  0.88305545  0.47105597  0.19860008  1
  Rb  Rb3  1  0.38305545  0.02894403  0.69860008  1
  Al  Al4  1  0.24989678  0.46254472  0.53498470  1
  Al  Al5  1  0.74989678  0.03745528  0.03498470  1
  Al  Al6  1  0.75010322  0.53745528  0.46501530  1
  Al  Al7  1  0.25010322  0.96254472  0.96501530  1
  V  V8  1  0.66385647  0.54869643  0.86388465  1
  V  V9  1  0.16385647  0.95130357  0.36388465  1
  V  V10  1  0.33614353  0.45130357  0.13611535  1
  V  V11  1  0.83614353  0.04869643  0.63611535  1
  P  P12  1  0.53441103  0.72669620  0.04130892  1
  P  P13  1  0.03441103  0.77330380  0.54130892  1
  P  P14  1  0.46558897  0.27330380  0.95869108  1
  P  P15  1  0.96558897  0.22669620  0.45869108  1
  P  P16  1  0.64449554  0.39606034  0.64850439  1
  P  P17  1  0.14449554  0.10393966  0.14850439  1
  P  P18  1  0.35550446  0.60393966  0.35149561  1
  P  P19  1  0.85550446  0.89606034  0.85149561  1
  O  O20  1  0.50599078  0.66861091  0.80132542  1
  O  O21  1  0.00599078  0.83138909  0.30132542  1
  O  O22  1  0.49400922  0.33138909  0.19867458  1
  O  O23  1  0.99400922  0.16861091  0.69867458  1
  O  O24  1  0.64722930  0.61671381  0.99358064  1
  O  O25  1  0.14722930  0.88328619  0.49358064  1
  O  O26  1  0.35277070  0.38328619  0.00641936  1
  O  O27  1  0.85277070  0.11671381  0.50641936  1
  O  O28  1  0.63758084  0.88312669  0.08058724  1
  O  O29  1  0.13758084  0.61687331  0.58058724  1
  O  O30  1  0.36241916  0.11687331  0.91941276  1
  O  O31  1  0.86241916  0.38312669  0.41941276  1
  O  O32  1  0.50018288  0.63735935  0.12997541  1
  O  O33  1  0.00018288  0.86264065  0.62997541  1
  O  O34  1  0.49981712  0.36264065  0.87002459  1
  O  O35  1  -0.00018288  0.13735935  0.37002459  1
  O  O36  1  0.36341765  0.77860486  0.96648592  1
  O  O37  1  0.86341765  0.72139514  0.46648592  1
  O  O38  1  0.63658235  0.22139514  0.03351408  1
  O  O39  1  0.13658235  0.27860486  0.53351408  1
  O  O40  1  0.86529182  0.42536085  0.93610230  1
  O  O41  1  0.36529182  0.07463915  0.43610230  1
  O  O42  1  0.13470818  0.57463915  0.06389770  1
  O  O43  1  0.63470818  0.92536085  0.56389770  1
  O  O44  1  0.72788146  0.44363009  0.75557391  1
  O  O45  1  0.22788146  0.05636991  0.25557391  1
  O  O46  1  0.27211854  0.55636991  0.24442609  1
  O  O47  1  0.77211854  0.94363009  0.74442609  1
  O  O48  1  0.74272370  0.48694701  0.58372434  1
  O  O49  1  0.24272370  0.01305299  0.08372434  1
  O  O50  1  0.25727630  0.51305299  0.41627566  1
  O  O51  1  0.75727630  0.98694701  0.91627566  1
  O  O52  1  0.65355131  0.21287004  0.63603864  1
  O  O53  1  0.15355131  0.28712996  0.13603864  1
  O  O54  1  0.34644869  0.78712996  0.36396136  1
  O  O55  1  0.84644869  0.71287004  0.86396136  1
  O  O56  1  0.45035268  0.44494305  0.62003748  1
  O  O57  1  0.95035268  0.05505695  0.12003748  1
  O  O58  1  0.54964732  0.55505695  0.37996252  1
  O  O59  1  0.04964732  0.94494305  0.87996252  1
