# generated using pymatgen
data_NaCdPO4
_symmetry_space_group_name_H-M   'P 1'
_cell_length_a   5.12018422
_cell_length_b   6.60693869
_cell_length_c   11.02134434
_cell_angle_alpha   90.00000000
_cell_angle_beta   90.00000000
_cell_angle_gamma   90.00000000
_symmetry_Int_Tables_number   1
_chemical_formula_structural   NaCdPO4
_chemical_formula_sum   'Na4 Cd4 P4 O16'
_cell_volume   372.83822765
_cell_formula_units_Z   4
loop_
 _symmetry_equiv_pos_site_id
 _symmetry_equiv_pos_as_xyz
  1  'x, y, z'
loop_
 _atom_site_type_symbol
 _atom_site_label
 _atom_site_symmetry_multiplicity
 _atom_site_fract_x
 _atom_site_fract_y
 _atom_site_fract_z
 _atom_site_occupancy
  Na  Na0  1  0.49845446  0.00879925  0.00543522  1
  Na  Na1  1  0.50154554  0.50879925  0.99456478  1
  Na  Na2  1  0.99845446  0.50879925  0.49456478  1
  Na  Na3  1  0.00154554  0.00879925  0.50543522  1
  Cd  Cd4  1  0.51510724  0.75340716  0.28600988  1
  Cd  Cd5  1  0.48489276  0.25340716  0.71399012  1
  Cd  Cd6  1  0.01510724  0.25340716  0.21399012  1
  Cd  Cd7  1  0.98489276  0.75340716  0.78600988  1
  P  P8  1  0.06834126  0.75037587  0.10355518  1
  P  P9  1  0.93165874  0.25037587  0.89644482  1
  P  P10  1  0.56834126  0.25037587  0.39644482  1
  P  P11  1  0.43165874  0.75037587  0.60355518  1
  O  O12  1  0.76624853  0.74691937  0.10657835  1
  O  O13  1  0.23375147  0.24691937  0.89342165  1
  O  O14  1  0.26624853  0.24691937  0.39342165  1
  O  O15  1  0.73375147  0.74691937  0.60657835  1
  O  O16  1  0.18648264  0.93641251  0.17389758  1
  O  O17  1  0.81351736  0.43641251  0.82610242  1
  O  O18  1  0.68648264  0.43641251  0.32610242  1
  O  O19  1  0.31351736  0.93641251  0.67389758  1
  O  O20  1  0.19619893  0.56203342  0.16707406  1
  O  O21  1  0.80380107  0.06203342  0.83292594  1
  O  O22  1  0.69619893  0.06203342  0.33292594  1
  O  O23  1  0.30380107  0.56203342  0.66707406  1
  O  O24  1  0.32527162  0.75855242  0.47148936  1
  O  O25  1  0.67472838  0.25855242  0.52851064  1
  O  O26  1  0.82527162  0.25855242  0.02851064  1
  O  O27  1  0.17472838  0.75855242  0.97148936  1
