# generated using pymatgen
data_Rb3FeS3
_symmetry_space_group_name_H-M   'P 1'
_cell_length_a   8.04497577
_cell_length_b   8.53862690
_cell_length_c   13.21151873
_cell_angle_alpha   90.00000000
_cell_angle_beta   90.00000000
_cell_angle_gamma   101.11750043
_symmetry_Int_Tables_number   1
_chemical_formula_structural   Rb3FeS3
_chemical_formula_sum   'Rb12 Fe4 S12'
_cell_volume   890.50841578
_cell_formula_units_Z   4
loop_
 _symmetry_equiv_pos_site_id
 _symmetry_equiv_pos_as_xyz
  1  'x, y, z'
loop_
 _atom_site_type_symbol
 _atom_site_label
 _atom_site_symmetry_multiplicity
 _atom_site_fract_x
 _atom_site_fract_y
 _atom_site_fract_z
 _atom_site_occupancy
  Rb  Rb0  1  0.74557189  0.39148729  0.07580488  1
  Rb  Rb1  1  0.75442811  0.10851271  0.57580488  1
  Rb  Rb2  1  0.25442811  0.60851271  0.92419512  1
  Rb  Rb3  1  0.24557189  0.89148729  0.42419512  1
  Rb  Rb4  1  0.86738155  0.48123207  0.36657098  1
  Rb  Rb5  1  0.63261845  0.01876793  0.86657098  1
  Rb  Rb6  1  0.13261845  0.51876793  0.63342902  1
  Rb  Rb7  1  0.36738155  0.98123207  0.13342902  1
  Rb  Rb8  1  0.28850715  0.42153389  0.19161561  1
  Rb  Rb9  1  0.21149285  0.07846611  0.69161561  1
  Rb  Rb10  1  0.71149285  0.57846611  0.80838439  1
  Rb  Rb11  1  0.78850715  0.92153389  0.30838439  1
  Fe  Fe12  1  0.40707879  0.34403025  0.44340107  1
  Fe  Fe13  1  0.09292121  0.15596975  0.94340107  1
  Fe  Fe14  1  0.59292121  0.65596975  0.55659893  1
  Fe  Fe15  1  0.90707879  0.84403025  0.05659893  1
  S  S16  1  0.02548162  0.88470765  0.89434273  1
  S  S17  1  0.47451838  0.61529235  0.39434273  1
  S  S18  1  0.97451838  0.11529235  0.10565727  1
  S  S19  1  0.52548162  0.38470765  0.60565727  1
  S  S20  1  0.37295211  0.25469281  0.95250125  1
  S  S21  1  0.12704789  0.24530719  0.45250125  1
  S  S22  1  0.62704789  0.74530719  0.04749875  1
  S  S23  1  0.87295211  0.75469281  0.54749875  1
  S  S24  1  0.53841770  0.19652720  0.33838293  1
  S  S25  1  0.96158230  0.30347280  0.83838293  1
  S  S26  1  0.46158230  0.80347280  0.66161707  1
  S  S27  1  0.03841770  0.69652720  0.16161707  1
