# generated using pymatgen
data_CsGd(MoO4)2
_symmetry_space_group_name_H-M   'P 1'
_cell_length_a   5.15594610
_cell_length_b   8.24604475
_cell_length_c   9.76236532
_cell_angle_alpha   92.39708158
_cell_angle_beta   90.00000000
_cell_angle_gamma   90.00000000
_symmetry_Int_Tables_number   1
_chemical_formula_structural   CsGd(MoO4)2
_chemical_formula_sum   'Cs2 Gd2 Mo4 O16'
_cell_volume   414.69511617
_cell_formula_units_Z   2
loop_
 _symmetry_equiv_pos_site_id
 _symmetry_equiv_pos_as_xyz
  1  'x, y, z'
loop_
 _atom_site_type_symbol
 _atom_site_label
 _atom_site_symmetry_multiplicity
 _atom_site_fract_x
 _atom_site_fract_y
 _atom_site_fract_z
 _atom_site_occupancy
  Cs  Cs0  1  0.98501382  0.75000000  0.50000000  1
  Cs  Cs1  1  0.01498618  0.25000000  0.50000000  1
  Gd  Gd2  1  0.00300832  0.75000000  0.00000000  1
  Gd  Gd3  1  0.99699168  0.25000000  0.00000000  1
  Mo  Mo4  1  0.52263690  0.51270093  0.19274396  1
  Mo  Mo5  1  0.52263690  0.98729907  0.80725604  1
  Mo  Mo6  1  0.47736310  0.48729907  0.80725604  1
  Mo  Mo7  1  0.47736310  0.01270093  0.19274396  1
  O  O8  1  0.25175056  0.50830709  0.06552134  1
  O  O9  1  0.25175056  0.99169291  0.93447866  1
  O  O10  1  0.74824944  0.49169291  0.93447866  1
  O  O11  1  0.74824944  0.00830709  0.06552134  1
  O  O12  1  0.75164520  0.34627381  0.18966402  1
  O  O13  1  0.75164520  0.15372619  0.81033598  1
  O  O14  1  0.24835480  0.65372619  0.81033598  1
  O  O15  1  0.24835480  0.84627381  0.18966402  1
  O  O16  1  0.38585636  0.52510298  0.35739290  1
  O  O17  1  0.38585636  0.97489702  0.64260710  1
  O  O18  1  0.61414364  0.47489702  0.64260710  1
  O  O19  1  0.61414364  0.02510298  0.35739290  1
  O  O20  1  0.72248958  0.69194388  0.17878207  1
  O  O21  1  0.72248958  0.80805612  0.82121793  1
  O  O22  1  0.27751042  0.30805612  0.82121793  1
  O  O23  1  0.27751042  0.19194388  0.17878207  1
