# generated using pymatgen
data_RbTlF4
_symmetry_space_group_name_H-M   'P 1'
_cell_length_a   6.33892197
_cell_length_b   8.45116081
_cell_length_c   8.62671836
_cell_angle_alpha   90.00000000
_cell_angle_beta   90.00000000
_cell_angle_gamma   90.00000000
_symmetry_Int_Tables_number   1
_chemical_formula_structural   RbTlF4
_chemical_formula_sum   'Rb4 Tl4 F16'
_cell_volume   462.14407672
_cell_formula_units_Z   4
loop_
 _symmetry_equiv_pos_site_id
 _symmetry_equiv_pos_as_xyz
  1  'x, y, z'
loop_
 _atom_site_type_symbol
 _atom_site_label
 _atom_site_symmetry_multiplicity
 _atom_site_fract_x
 _atom_site_fract_y
 _atom_site_fract_z
 _atom_site_occupancy
  Rb  Rb0  1  0.49211137  0.69380620  0.23515710  1
  Rb  Rb1  1  0.50788863  0.30619380  0.73515710  1
  Rb  Rb2  1  0.49211137  0.80619380  0.73515710  1
  Rb  Rb3  1  0.50788863  0.19380620  0.23515710  1
  Tl  Tl4  1  0.00024769  0.50677769  0.98745923  1
  Tl  Tl5  1  -0.00024769  0.49322231  0.48745923  1
  Tl  Tl6  1  0.00024769  0.99322231  0.48745923  1
  Tl  Tl7  1  -0.00024769  0.00677769  0.98745923  1
  F  F8  1  0.13860159  0.75732586  0.97837010  1
  F  F9  1  0.86139841  0.24267414  0.47837010  1
  F  F10  1  0.13860159  0.74267414  0.47837010  1
  F  F11  1  0.86139841  0.25732586  0.97837010  1
  F  F12  1  0.89149417  0.51749770  0.23810090  1
  F  F13  1  0.10850583  0.48250230  0.73810090  1
  F  F14  1  0.89149417  0.98250230  0.73810090  1
  F  F15  1  0.10850583  0.01749770  0.23810090  1
  F  F16  1  0.30289429  0.43619102  0.05476947  1
  F  F17  1  0.69710571  0.56380898  0.55476947  1
  F  F18  1  0.30289429  0.06380898  0.55476947  1
  F  F19  1  0.69710571  0.93619102  0.05476947  1
  F  F20  1  0.69765216  0.58688045  0.92614320  1
  F  F21  1  0.30234784  0.41311955  0.42614320  1
  F  F22  1  0.69765216  0.91311955  0.42614320  1
  F  F23  1  0.30234784  0.08688045  0.92614320  1
