# generated using pymatgen
data_Ba4In2Te2S5
_symmetry_space_group_name_H-M   'P 1'
_cell_length_a   8.51026103
_cell_length_b   8.51026103
_cell_length_c   11.17999499
_cell_angle_alpha   90.00000000
_cell_angle_beta   90.00000000
_cell_angle_gamma   90.00000000
_symmetry_Int_Tables_number   1
_chemical_formula_structural   Ba4In2Te2S5
_chemical_formula_sum   'Ba8 In4 Te4 S10'
_cell_volume   809.70602564
_cell_formula_units_Z   2
loop_
 _symmetry_equiv_pos_site_id
 _symmetry_equiv_pos_as_xyz
  1  'x, y, z'
loop_
 _atom_site_type_symbol
 _atom_site_label
 _atom_site_symmetry_multiplicity
 _atom_site_fract_x
 _atom_site_fract_y
 _atom_site_fract_z
 _atom_site_occupancy
  Ba  Ba0  1  0.65996310  0.15996310  -0.00000000  1
  Ba  Ba1  1  0.34003690  0.84003690  -0.00000000  1
  Ba  Ba2  1  0.84003690  0.65996310  -0.00000000  1
  Ba  Ba3  1  0.15996310  0.34003690  -0.00000000  1
  Ba  Ba4  1  0.50000000  0.50000000  0.71973464  1
  Ba  Ba5  1  0.00000000  0.00000000  0.71973464  1
  Ba  Ba6  1  0.50000000  0.50000000  0.28026536  1
  Ba  Ba7  1  -0.00000000  -0.00000000  0.28026536  1
  In  In8  1  0.50000000  -0.00000000  0.66003786  1
  In  In9  1  -0.00000000  0.50000000  0.66003786  1
  In  In10  1  0.50000000  0.00000000  0.33996214  1
  In  In11  1  0.00000000  0.50000000  0.33996214  1
  Te  Te12  1  0.68301369  0.18301369  0.50000000  1
  Te  Te13  1  0.31698631  0.81698631  0.50000000  1
  Te  Te14  1  0.81698631  0.68301369  0.50000000  1
  Te  Te15  1  0.18301369  0.31698631  0.50000000  1
  S  S16  1  0.65592933  0.84407067  0.80434707  1
  S  S17  1  0.34407067  0.15592933  0.80434707  1
  S  S18  1  0.84407067  0.34407067  0.80434707  1
  S  S19  1  0.15592933  0.65592933  0.80434707  1
  S  S20  1  0.34407067  0.15592933  0.19565293  1
  S  S21  1  0.65592933  0.84407067  0.19565293  1
  S  S22  1  0.15592933  0.65592933  0.19565293  1
  S  S23  1  0.84407067  0.34407067  0.19565293  1
  S  S24  1  0.50000000  0.50000000  -0.00000000  1
  S  S25  1  -0.00000000  0.00000000  -0.00000000  1
