# generated using pymatgen
data_NaCoH4SO6F
_symmetry_space_group_name_H-M   'P 1'
_cell_length_a   5.79405256
_cell_length_b   7.27899482
_cell_length_c   7.39658649
_cell_angle_alpha   90.00000000
_cell_angle_beta   90.00000000
_cell_angle_gamma   111.98546303
_symmetry_Int_Tables_number   1
_chemical_formula_structural   NaCoH4SO6F
_chemical_formula_sum   'Na2 Co2 H8 S2 O12 F2'
_cell_volume   289.26477021
_cell_formula_units_Z   2
loop_
 _symmetry_equiv_pos_site_id
 _symmetry_equiv_pos_as_xyz
  1  'x, y, z'
loop_
 _atom_site_type_symbol
 _atom_site_label
 _atom_site_symmetry_multiplicity
 _atom_site_fract_x
 _atom_site_fract_y
 _atom_site_fract_z
 _atom_site_occupancy
  Na  Na0  1  0.86253758  0.29323414  0.75000000  1
  Na  Na1  1  0.13746242  0.70676586  0.25000000  1
  Co  Co2  1  0.50000000  0.50000000  0.50000000  1
  Co  Co3  1  0.50000000  0.50000000  -0.00000000  1
  H  H4  1  0.79186750  0.86579482  0.09039750  1
  H  H5  1  0.20813250  0.13420518  0.59039750  1
  H  H6  1  0.20813250  0.13420518  0.90960250  1
  H  H7  1  0.79186750  0.86579482  0.40960250  1
  H  H8  1  0.92435384  0.79715065  0.56886159  1
  H  H9  1  0.07564616  0.20284935  0.06886159  1
  H  H10  1  0.07564616  0.20284935  0.43113841  1
  H  H11  1  0.92435384  0.79715065  0.93113841  1
  S  S12  1  0.35527442  0.80850276  0.75000000  1
  S  S13  1  0.64472558  0.19149724  0.25000000  1
  O  O14  1  0.30281088  0.67870336  0.58495059  1
  O  O15  1  0.69718912  0.32129664  0.08495059  1
  O  O16  1  0.69718912  0.32129664  0.41504941  1
  O  O17  1  0.30281088  0.67870336  0.91504941  1
  O  O18  1  0.16784888  0.90921013  0.75000000  1
  O  O19  1  0.83215112  0.09078987  0.25000000  1
  O  O20  1  0.60983544  0.95529707  0.75000000  1
  O  O21  1  0.39016456  0.04470293  0.25000000  1
  O  O22  1  0.83008296  0.75285764  0.04509057  1
  O  O23  1  0.16991704  0.24714236  0.54509057  1
  O  O24  1  0.16991704  0.24714236  0.95490943  1
  O  O25  1  0.83008296  0.75285764  0.45490943  1
  F  F26  1  0.62811307  0.47236591  0.75000000  1
  F  F27  1  0.37188693  0.52763409  0.25000000  1
