# generated using pymatgen
data_Ba4Zn4B14Pb2O31
_symmetry_space_group_name_H-M   'P 1'
_cell_length_a   7.12420262
_cell_length_b   7.13712126
_cell_length_c   32.13602492
_cell_angle_alpha   88.69735225
_cell_angle_beta   87.38930966
_cell_angle_gamma   60.05985819
_symmetry_Int_Tables_number   1
_chemical_formula_structural   Ba4Zn4B14Pb2O31
_chemical_formula_sum   'Ba8 Zn8 B28 Pb4 O62'
_cell_volume   1414.46683778
_cell_formula_units_Z   2
loop_
 _symmetry_equiv_pos_site_id
 _symmetry_equiv_pos_as_xyz
  1  'x, y, z'
loop_
 _atom_site_type_symbol
 _atom_site_label
 _atom_site_symmetry_multiplicity
 _atom_site_fract_x
 _atom_site_fract_y
 _atom_site_fract_z
 _atom_site_occupancy
  Ba  Ba0  1  0.47707293  0.85980222  0.62464644  1
  Ba  Ba1  1  0.33687515  0.14019778  0.12464644  1
  Ba  Ba2  1  0.61048430  0.17617100  0.25001681  1
  Ba  Ba3  1  0.78665530  0.82382900  0.75001681  1
  Ba  Ba4  1  0.21023917  0.91256328  0.32761952  1
  Ba  Ba5  1  0.12280246  0.08743672  0.82761952  1
  Ba  Ba6  1  0.12941056  0.60498708  0.54738954  1
  Ba  Ba7  1  0.73439764  0.39501292  0.04738954  1
  Zn  Zn8  1  0.49192720  0.93017277  0.51488615  1
  Zn  Zn9  1  0.42209997  0.06982723  0.01488615  1
  Zn  Zn10  1  0.15506351  0.50192566  0.66248564  1
  Zn  Zn11  1  0.65698918  0.49807434  0.16248564  1
  Zn  Zn12  1  0.29083607  0.81887187  0.21170602  1
  Zn  Zn13  1  0.10970794  0.18112813  0.71170602  1
  Zn  Zn14  1  0.53056110  0.23909719  0.35971355  1
  Zn  Zn15  1  0.76965829  0.76090281  0.85971355  1
  B  B16  1  0.63660180  0.48921812  0.53711831  1
  B  B17  1  0.12581991  0.51078188  0.03711831  1
  B  B18  1  0.11777856  0.28798080  0.23186887  1
  B  B19  1  0.40575937  0.71201920  0.73186887  1
  B  B20  1  0.99888365  0.22307256  0.61830599  1
  B  B21  1  0.22195621  0.77692744  0.11830599  1
  B  B22  1  0.59709265  0.35634730  0.63237673  1
  B  B23  1  0.95343996  0.64365270  0.13237673  1
  B  B24  1  0.75458797  0.10290546  0.54142072  1
  B  B25  1  0.85749343  0.89709454  0.04142072  1
  B  B26  1  0.08814856  0.41636477  0.33322597  1
  B  B27  1  0.50451333  0.58363523  0.83322597  1
  B  B28  1  0.69038488  0.53436809  0.33767371  1
  B  B29  1  0.22475297  0.46563191  0.83767371  1
  B  B30  1  0.63929681  0.99117923  0.43527079  1
  B  B31  1  0.63047605  0.00882077  0.93527079  1
  B  B32  1  0.81778597  0.80296176  0.33620398  1
  B  B33  1  0.62074773  0.19703824  0.83620398  1
  B  B34  1  0.99407830  0.67335559  0.24178544  1
  B  B35  1  0.66743389  0.32664441  0.74178544  1
  B  B36  1  0.85819513  0.97057828  0.64164545  1
  B  B37  1  0.82877341  0.02942172  0.14164545  1
  B  B38  1  0.05436098  0.83042017  0.43453059  1
  B  B39  1  0.88478115  0.16957983  0.93453059  1
  B  B40  1  0.03486337  0.21977340  0.53695103  1
  B  B41  1  0.25463677  0.78022660  0.03695103  1
  B  B42  1  0.72542420  0.53960676  0.25577940  1
  B  B43  1  0.26503096  0.46039324  0.75577940  1
  Pb  Pb44  1  0.50773480  0.57438112  0.43715999  1
  Pb  Pb45  1  0.08211592  0.42561888  0.93715999  1
  Pb  Pb46  1  0.10570697  0.30109584  0.44066853  1
  Pb  Pb47  1  0.40680281  0.69890416  0.94066853  1
  O  O48  1  0.61596657  0.53776605  0.29551932  1
  O  O49  1  0.15373263  0.46223395  0.79551932  1
  O  O50  1  0.61998300  0.83843378  0.45811572  1
  O  O51  1  0.45841678  0.16156622  0.95811572  1
  O  O52  1  0.46478305  0.69296643  0.54139041  1
  O  O53  1  0.15774948  0.30703357  0.04139041  1
  O  O54  1  0.92557168  0.36776829  0.34201350  1
  O  O55  1  0.29333997  0.63223171  0.84201350  1
  O  O56  1  0.38864003  0.52259573  0.63263529  1
  O  O57  1  0.91123576  0.47740427  0.13263529  1
  O  O58  1  0.46342971  0.17386817  0.41867486  1
  O  O59  1  0.63729788  0.82613183  0.91867486  1
  O  O60  1  0.58026352  0.56530245  0.22280306  1
  O  O61  1  0.14556597  0.43469755  0.72280306  1
  O  O62  1  0.20901932  0.18909267  0.50642951  1
  O  O63  1  0.39811199  0.81090733  0.00642951  1
  O  O64  1  0.11090994  0.22130973  0.57842206  1
  O  O65  1  0.33221967  0.77869027  0.07842206  1
  O  O66  1  0.11698188  0.24958116  0.65124931  1
  O  O67  1  0.36656305  0.75041884  0.15124931  1
  O  O68  1  0.58667117  0.32027485  0.54049742  1
  O  O69  1  0.90694602  0.67972515  0.04049742  1
  O  O70  1  0.96571541  0.05436454  0.53315607  1
  O  O71  1  0.02007994  0.94563546  0.03315607  1
  O  O72  1  0.84551575  0.44119000  0.52765719  1
  O  O73  1  0.28670575  0.55881000  0.02765719  1
  O  O74  1  0.92543861  0.31755261  0.24891477  1
  O  O75  1  0.24299122  0.68244739  0.74891477  1
  O  O76  1  0.29604912  0.25491618  0.32561173  1
  O  O77  1  0.55096530  0.74508382  0.82561173  1
  O  O78  1  0.76335497  0.39283055  0.61913167  1
  O  O79  1  0.15618551  0.60716945  0.11913167  1
  O  O80  1  0.70595509  0.94400048  0.55037810  1
  O  O81  1  0.64995557  0.05599952  0.05037810  1
  O  O82  1  0.88034274  0.77668394  0.65363265  1
  O  O83  1  0.65702668  0.22331606  0.15363265  1
  O  O84  1  0.03657315  0.83941697  0.24141657  1
  O  O85  1  0.87599013  0.16058303  0.74141657  1
  O  O86  1  0.15547658  0.46519032  0.22895410  1
  O  O87  1  0.62066690  0.53480968  0.72895410  1
  O  O88  1  0.78291665  0.00687630  0.32974689  1
  O  O89  1  0.78979295  0.99312370  0.82974689  1
  O  O90  1  0.20299561  0.88566230  0.41737275  1
  O  O91  1  0.08865790  0.11433770  0.91737275  1
  O  O92  1  0.02102319  0.00099684  0.62496638  1
  O  O93  1  0.02202003  0.99900316  0.12496638  1
  O  O94  1  0.12807515  0.63859764  0.45630132  1
  O  O95  1  0.76667279  0.36140236  0.95630132  1
  O  O96  1  0.28790850  0.09622374  0.21841704  1
  O  O97  1  0.38413224  0.90377626  0.71841704  1
  O  O98  1  0.54599057  0.50120207  0.36688520  1
  O  O99  1  0.04719264  0.49879793  0.86688520  1
  O  O100  1  0.64387741  0.14860928  0.64552064  1
  O  O101  1  0.79248668  0.85139072  0.14552064  1
  O  O102  1  0.03768838  0.63380724  0.33307126  1
  O  O103  1  0.67149562  0.36619276  0.83307126  1
  O  O104  1  0.79071638  0.70992397  0.25460890  1
  O  O105  1  0.50064035  0.29007603  0.75460890  1
  O  O106  1  0.83776597  0.98205451  0.42698644  1
  O  O107  1  0.81982048  0.01794549  0.92698644  1
  O  O108  1  0.65877657  0.75475064  0.34715069  1
  O  O109  1  0.41352721  0.24524936  0.84715069  1
