# generated using pymatgen
data_ZnP3H16C3NO12
_symmetry_space_group_name_H-M   'P 1'
_cell_length_a   9.29858890
_cell_length_b   9.84119728
_cell_length_c   16.36415874
_cell_angle_alpha   90.00000000
_cell_angle_beta   90.00000000
_cell_angle_gamma   115.34386868
_symmetry_Int_Tables_number   1
_chemical_formula_structural   ZnP3H16C3NO12
_chemical_formula_sum   'Zn4 P12 H64 C12 N4 O48'
_cell_volume   1353.34779433
_cell_formula_units_Z   4
loop_
 _symmetry_equiv_pos_site_id
 _symmetry_equiv_pos_as_xyz
  1  'x, y, z'
loop_
 _atom_site_type_symbol
 _atom_site_label
 _atom_site_symmetry_multiplicity
 _atom_site_fract_x
 _atom_site_fract_y
 _atom_site_fract_z
 _atom_site_occupancy
  Zn  Zn0  1  0.54284264  0.67026593  0.70933382  1
  Zn  Zn1  1  0.45715736  0.82973407  0.20933382  1
  Zn  Zn2  1  0.45715736  0.32973407  0.29066618  1
  Zn  Zn3  1  0.54284264  0.17026593  0.79066618  1
  P  P4  1  0.17701798  0.48970925  0.78431495  1
  P  P5  1  0.82298202  0.01029075  0.28431495  1
  P  P6  1  0.82298202  0.51029075  0.21568505  1
  P  P7  1  0.17701798  0.98970925  0.71568505  1
  P  P8  1  0.54059003  0.88146311  0.88034822  1
  P  P9  1  0.45940997  0.61853689  0.38034822  1
  P  P10  1  0.45940997  0.11853689  0.11965178  1
  P  P11  1  0.54059003  0.38146311  0.61965178  1
  P  P12  1  0.94391902  0.72010880  0.96340881  1
  P  P13  1  0.05608098  0.77989120  0.46340881  1
  P  P14  1  0.05608098  0.27989120  0.03659119  1
  P  P15  1  0.94391902  0.22010880  0.53659119  1
  H  H16  1  0.05262170  0.64727153  0.82478390  1
  H  H17  1  0.94737830  0.85272847  0.32478390  1
  H  H18  1  0.94737830  0.35272847  0.17521610  1
  H  H19  1  0.05262170  0.14727153  0.67521610  1
  H  H20  1  0.20351915  0.79882623  0.02460026  1
  H  H21  1  0.79648085  0.70117377  0.52460026  1
  H  H22  1  0.79648085  0.20117377  0.97539974  1
  H  H23  1  0.20351915  0.29882623  0.47539974  1
  H  H24  1  0.40939850  0.75113981  0.00312588  1
  H  H25  1  0.59060150  0.74886019  0.50312588  1
  H  H26  1  0.59060150  0.24886019  0.99687412  1
  H  H27  1  0.40939850  0.25113981  0.49687412  1
  H  H28  1  0.41208215  0.62410429  0.92613755  1
  H  H29  1  0.58791785  0.87589571  0.42613755  1
  H  H30  1  0.58791785  0.37589571  0.07386245  1
  H  H31  1  0.41208215  0.12410429  0.57386245  1
  H  H32  1  0.25443990  0.76097182  0.79901727  1
  H  H33  1  0.74556010  0.73902818  0.29901727  1
  H  H34  1  0.74556010  0.23902818  0.20098273  1
  H  H35  1  0.25443990  0.26097182  0.70098273  1
  H  H36  1  0.22229650  0.89674752  0.93179386  1
  H  H37  1  0.77770350  0.60325248  0.43179386  1
  H  H38  1  0.77770350  0.10325248  0.06820614  1
  H  H39  1  0.22229650  0.39674752  0.56820614  1
  H  H40  1  0.15739497  0.57594274  0.95202236  1
  H  H41  1  0.84260503  0.92405726  0.45202236  1
  H  H42  1  0.84260503  0.42405726  0.04797764  1
  H  H43  1  0.15739497  0.07594274  0.54797764  1
  H  H44  1  0.92410257  0.73512158  0.09664443  1
  H  H45  1  0.07589743  0.76487842  0.59664443  1
  H  H46  1  0.07589743  0.26487842  0.90335557  1
  H  H47  1  0.92410257  0.23512158  0.40335557  1
  H  H48  1  0.77024217  0.66860060  0.81825547  1
  H  H49  1  0.22975783  0.83139940  0.31825547  1
  H  H50  1  0.22975783  0.33139940  0.18174453  1
  H  H51  1  0.77024217  0.16860060  0.68174453  1
  H  H52  1  0.78099488  0.91623876  0.61052178  1
  H  H53  1  0.21900512  0.58376124  0.11052178  1
  H  H54  1  0.21900512  0.08376124  0.38947822  1
  H  H55  1  0.78099488  0.41623876  0.88947822  1
  H  H56  1  0.40074686  0.85332730  0.66725837  1
  H  H57  1  0.59925314  0.64667270  0.16725837  1
  H  H58  1  0.59925314  0.14667270  0.33274163  1
  H  H59  1  0.40074686  0.35332730  0.83274163  1
  H  H60  1  0.02765187  0.42117004  0.66792267  1
  H  H61  1  0.97234813  0.07882996  0.16792267  1
  H  H62  1  0.97234813  0.57882996  0.33207733  1
  H  H63  1  0.02765187  0.92117004  0.83207733  1
  H  H64  1  0.76535302  0.86964661  0.91690665  1
  H  H65  1  0.23464698  0.63035339  0.41690665  1
  H  H66  1  0.23464698  0.13035339  0.08309335  1
  H  H67  1  0.76535302  0.36964661  0.58309335  1
  H  H68  1  0.31719645  0.70380135  0.61684750  1
  H  H69  1  0.68280355  0.79619865  0.11684750  1
  H  H70  1  0.68280355  0.29619865  0.38315250  1
  H  H71  1  0.31719645  0.20380135  0.88315250  1
  H  H72  1  0.85709268  0.83275412  0.66636411  1
  H  H73  1  0.14290732  0.66724588  0.16636411  1
  H  H74  1  0.14290732  0.16724588  0.33363589  1
  H  H75  1  0.85709268  0.33275412  0.83363589  1
  H  H76  1  0.69024470  0.50947812  0.76833340  1
  H  H77  1  0.30975530  0.99052188  0.26833340  1
  H  H78  1  0.30975530  0.49052188  0.23166660  1
  H  H79  1  0.69024470  0.00947812  0.73166660  1
  C  C80  1  0.16205135  0.78654668  0.96110055  1
  C  C81  1  0.83794865  0.71345332  0.46110055  1
  C  C82  1  0.83794865  0.21345332  0.03889945  1
  C  C83  1  0.16205135  0.28654668  0.53889945  1
  C  C84  1  0.39049787  0.72355153  0.93790849  1
  C  C85  1  0.60950213  0.77644847  0.43790849  1
  C  C86  1  0.60950213  0.27644847  0.06209151  1
  C  C87  1  0.39049787  0.22355153  0.56209151  1
  C  C88  1  0.17463626  0.65866266  0.83135936  1
  C  C89  1  0.82536374  0.84133734  0.33135936  1
  C  C90  1  0.82536374  0.34133734  0.16864064  1
  C  C91  1  0.17463626  0.15866266  0.66864064  1
  N  N92  1  0.21639459  0.67909315  0.92063202  1
  N  N93  1  0.78360541  0.82090685  0.42063202  1
  N  N94  1  0.78360541  0.32090685  0.07936798  1
  N  N95  1  0.21639459  0.17909315  0.57936798  1
  O  O96  1  0.75616117  0.84068580  0.65487346  1
  O  O97  1  0.24383883  0.65931420  0.15487346  1
  O  O98  1  0.24383883  0.15931420  0.34512654  1
  O  O99  1  0.75616117  0.34068580  0.84512654  1
  O  O100  1  0.89366947  0.79209635  0.89208844  1
  O  O101  1  0.10633053  0.70790365  0.39208844  1
  O  O102  1  0.10633053  0.20790365  0.10791156  1
  O  O103  1  0.89366947  0.29209635  0.60791156  1
  O  O104  1  0.56279823  0.83063597  0.79583391  1
  O  O105  1  0.43720177  0.66936403  0.29583391  1
  O  O106  1  0.43720177  0.16936403  0.20416609  1
  O  O107  1  0.56279823  0.33063597  0.70416609  1
  O  O108  1  0.49913392  0.51468260  0.61652971  1
  O  O109  1  0.50086608  0.98531740  0.11652971  1
  O  O110  1  0.50086608  0.48531740  0.38347029  1
  O  O111  1  0.49913392  0.01468260  0.88347029  1
  O  O112  1  0.34590962  0.50234874  0.78220320  1
  O  O113  1  0.65409038  0.99765126  0.28220320  1
  O  O114  1  0.65409038  0.49765126  0.21779680  1
  O  O115  1  0.34590962  0.00234874  0.71779680  1
  O  O116  1  0.86895802  0.54945237  0.96493746  1
  O  O117  1  0.13104198  0.95054763  0.46493746  1
  O  O118  1  0.13104198  0.45054763  0.03506254  1
  O  O119  1  0.86895802  0.04945237  0.53506254  1
  O  O120  1  0.05542349  0.35265262  0.82840598  1
  O  O121  1  0.94457651  0.14734738  0.32840598  1
  O  O122  1  0.94457651  0.64734738  0.17159402  1
  O  O123  1  0.05542349  0.85265262  0.67159402  1
  O  O124  1  0.91267275  0.78909802  0.04496865  1
  O  O125  1  0.08732725  0.71090198  0.54496865  1
  O  O126  1  0.08732725  0.21090198  0.95503135  1
  O  O127  1  0.91267275  0.28909802  0.45503135  1
  O  O128  1  0.12053757  0.50640859  0.69478306  1
  O  O129  1  0.87946243  0.99359141  0.19478306  1
  O  O130  1  0.87946243  0.49359141  0.30521694  1
  O  O131  1  0.12053757  0.00640859  0.80521694  1
  O  O132  1  0.69321328  0.91579228  0.93536430  1
  O  O133  1  0.30678672  0.58420772  0.43536430  1
  O  O134  1  0.30678672  0.08420772  0.06463570  1
  O  O135  1  0.69321328  0.41579228  0.56463570  1
  O  O136  1  0.42009848  0.77406009  0.63859864  1
  O  O137  1  0.57990152  0.72593991  0.13859864  1
  O  O138  1  0.57990152  0.22593991  0.36140136  1
  O  O139  1  0.42009848  0.27406009  0.86140136  1
  O  O140  1  0.70766952  0.61521365  0.76979425  1
  O  O141  1  0.29233048  0.88478635  0.26979425  1
  O  O142  1  0.29233048  0.38478635  0.23020575  1
  O  O143  1  0.70766952  0.11521365  0.73020575  1
