# generated using pymatgen
data_Na5UH3S4O19
_symmetry_space_group_name_H-M   'P 1'
_cell_length_a   5.43822729
_cell_length_b   11.66276143
_cell_length_c   13.69779752
_cell_angle_alpha   102.73311611
_cell_angle_beta   97.67766161
_cell_angle_gamma   90.96895231
_symmetry_Int_Tables_number   1
_chemical_formula_structural   Na5UH3S4O19
_chemical_formula_sum   'Na10 U2 H6 S8 O38'
_cell_volume   838.85071973
_cell_formula_units_Z   2
loop_
 _symmetry_equiv_pos_site_id
 _symmetry_equiv_pos_as_xyz
  1  'x, y, z'
loop_
 _atom_site_type_symbol
 _atom_site_label
 _atom_site_symmetry_multiplicity
 _atom_site_fract_x
 _atom_site_fract_y
 _atom_site_fract_z
 _atom_site_occupancy
  Na  Na0  1  0.00000000  0.50000000  -0.00000000  1
  Na  Na1  1  0.47456653  0.67387338  0.90923918  1
  Na  Na2  1  0.52543347  0.32612662  0.09076082  1
  Na  Na3  1  0.00000000  -0.00000000  0.50000000  1
  Na  Na4  1  0.99377550  0.50875794  0.75297840  1
  Na  Na5  1  0.00622450  0.49124206  0.24702160  1
  Na  Na6  1  0.04781007  0.78797888  0.67378516  1
  Na  Na7  1  0.95218993  0.21202112  0.32621484  1
  Na  Na8  1  0.40592763  0.03661652  0.88686678  1
  Na  Na9  1  0.59407237  0.96338348  0.11313322  1
  U  U10  1  0.48438907  0.27245873  0.57965693  1
  U  U11  1  0.51561093  0.72754127  0.42034307  1
  H  H12  1  0.07324858  0.86314706  0.09600926  1
  H  H13  1  0.92675142  0.13685294  0.90399074  1
  H  H14  1  0.94916449  0.08058004  0.74794207  1
  H  H15  1  0.05083551  0.91941996  0.25205793  1
  H  H16  1  0.09747083  0.20334620  0.79069678  1
  H  H17  1  0.90252917  0.79665380  0.20930322  1
  S  S18  1  0.46613267  0.38780964  0.85086997  1
  S  S19  1  0.53386733  0.61219036  0.14913003  1
  S  S20  1  0.50734291  0.97551860  0.63752043  1
  S  S21  1  0.49265709  0.02448140  0.36247957  1
  S  S22  1  0.52404073  0.39561449  0.35667933  1
  S  S23  1  0.47595927  0.60438551  0.64332067  1
  S  S24  1  0.96055215  0.82453815  0.93181344  1
  S  S25  1  0.03944785  0.17546185  0.06818656  1
  O  O26  1  0.48072815  0.29788024  0.91140961  1
  O  O27  1  0.51927185  0.70211976  0.08859039  1
  O  O28  1  0.71209028  0.44380503  0.85044060  1
  O  O29  1  0.28790972  0.55619497  0.14955940  1
  O  O30  1  0.29393897  0.48075477  0.88836448  1
  O  O31  1  0.70606103  0.51924523  0.11163552  1
  O  O32  1  0.35193033  0.32938303  0.74246598  1
  O  O33  1  0.64806967  0.67061697  0.25753402  1
  O  O34  1  0.43228254  0.93181765  0.72223041  1
  O  O35  1  0.56771746  0.06818235  0.27776959  1
  O  O36  1  0.78220664  0.98316926  0.64209474  1
  O  O37  1  0.21779336  0.01683074  0.35790526  1
  O  O38  1  0.39945912  0.09314037  0.63635445  1
  O  O39  1  0.60054088  0.90685963  0.36364555  1
  O  O40  1  0.39058814  0.89486606  0.53924945  1
  O  O41  1  0.60941186  0.10513394  0.46075055  1
  O  O42  1  0.74411542  0.63256678  0.67191247  1
  O  O43  1  0.25588458  0.36743322  0.32808753  1
  O  O44  1  0.33445060  0.64182155  0.72931814  1
  O  O45  1  0.66554940  0.35817845  0.27068186  1
  O  O46  1  0.43094464  0.47337055  0.60487621  1
  O  O47  1  0.56905536  0.52662945  0.39512379  1
  O  O48  1  0.62965667  0.33705587  0.43930611  1
  O  O49  1  0.37034333  0.66294413  0.56069389  1
  O  O50  1  0.06399283  0.87383727  0.85573784  1
  O  O51  1  0.93600717  0.12616273  0.14426216  1
  O  O52  1  0.96930402  0.69529428  0.91311895  1
  O  O53  1  0.03069598  0.30470572  0.08688105  1
  O  O54  1  0.70967293  0.86316935  0.94984991  1
  O  O55  1  0.29032707  0.13683065  0.05015009  1
  O  O56  1  0.14525281  0.87686479  0.03241422  1
  O  O57  1  0.85474719  0.12313521  0.96758578  1
  O  O58  1  0.79679694  0.28907573  0.64667774  1
  O  O59  1  0.20320306  0.71092427  0.35332226  1
  O  O60  1  0.17601262  0.24368982  0.50696287  1
  O  O61  1  0.82398738  0.75631018  0.49303713  1
  O  O62  1  0.04432397  0.13155005  0.80970367  1
  O  O63  1  0.95567603  0.86844995  0.19029633  1
