# generated using pymatgen
data_Te8IrI5
_symmetry_space_group_name_H-M   'P 1'
_cell_length_a   10.03186024
_cell_length_b   10.60196496
_cell_length_c   11.77636775
_cell_angle_alpha   102.51709873
_cell_angle_beta   112.31793319
_cell_angle_gamma   92.55208360
_symmetry_Int_Tables_number   1
_chemical_formula_structural   Te8IrI5
_chemical_formula_sum   'Te16 Ir2 I10'
_cell_volume   1119.92978490
_cell_formula_units_Z   2
loop_
 _symmetry_equiv_pos_site_id
 _symmetry_equiv_pos_as_xyz
  1  'x, y, z'
loop_
 _atom_site_type_symbol
 _atom_site_label
 _atom_site_symmetry_multiplicity
 _atom_site_fract_x
 _atom_site_fract_y
 _atom_site_fract_z
 _atom_site_occupancy
  Te  Te0  1  0.42039718  0.69179142  0.01539601  1
  Te  Te1  1  0.57960282  0.30820858  0.98460399  1
  Te  Te2  1  0.54572431  0.85971244  0.26628017  1
  Te  Te3  1  0.45427569  0.14028756  0.73371983  1
  Te  Te4  1  0.70679691  0.72958196  0.00517268  1
  Te  Te5  1  0.29320309  0.27041804  0.99482732  1
  Te  Te6  1  0.79918033  0.93956355  0.22662950  1
  Te  Te7  1  0.20081967  0.06043645  0.77337050  1
  Te  Te8  1  0.43154827  0.06190618  0.11751443  1
  Te  Te9  1  0.56845173  0.93809382  0.88248557  1
  Te  Te10  1  0.20360436  0.69606162  0.67005136  1
  Te  Te11  1  0.79639564  0.30393838  0.32994864  1
  Te  Te12  1  0.05260735  0.82640425  0.91809178  1
  Te  Te13  1  0.94739265  0.17359575  0.08190822  1
  Te  Te14  1  0.09740138  0.96862883  0.16991067  1
  Te  Te15  1  0.90259862  0.03137117  0.83008933  1
  Ir  Ir16  1  0.30870580  0.87560960  0.89446935  1
  Ir  Ir17  1  0.69129420  0.12439040  0.10553065  1
  I  I18  1  0.29303794  0.87370776  0.51786632  1
  I  I19  1  0.70696206  0.12629224  0.48213368  1
  I  I20  1  0.46964067  0.56761709  0.70492851  1
  I  I21  1  0.53035933  0.43238291  0.29507149  1
  I  I22  1  0.08275970  0.48644678  0.73919517  1
  I  I23  1  0.91724030  0.51355322  0.26080483  1
  I  I24  1  0.90325219  0.78285706  0.58428322  1
  I  I25  1  0.09674781  0.21714294  0.41571678  1
  I  I26  1  0.19673527  0.65016923  0.13448650  1
  I  I27  1  0.80326473  0.34983077  0.86551350  1
