# generated using pymatgen
data_Ni6W6C
_symmetry_space_group_name_H-M   'P 1'
_cell_length_a   7.72481072
_cell_length_b   7.72481072
_cell_length_c   7.72481072
_cell_angle_alpha   60.00000000
_cell_angle_beta   60.00000000
_cell_angle_gamma   60.00000000
_symmetry_Int_Tables_number   1
_chemical_formula_structural   Ni6W6C
_chemical_formula_sum   'Ni12 W12 C2'
_cell_volume   325.94816591
_cell_formula_units_Z   2
loop_
 _symmetry_equiv_pos_site_id
 _symmetry_equiv_pos_as_xyz
  1  'x, y, z'
loop_
 _atom_site_type_symbol
 _atom_site_label
 _atom_site_symmetry_multiplicity
 _atom_site_fract_x
 _atom_site_fract_y
 _atom_site_fract_z
 _atom_site_occupancy
  Ni  Ni0  1  0.24997398  0.58334201  0.58334201  1
  Ni  Ni1  1  0.58334201  0.24997398  0.58334201  1
  Ni  Ni2  1  0.58334201  0.58334201  0.24997398  1
  Ni  Ni3  1  0.58334201  0.58334201  0.58334201  1
  Ni  Ni4  1  0.50002602  0.16665799  0.16665799  1
  Ni  Ni5  1  0.16665799  0.50002602  0.16665799  1
  Ni  Ni6  1  0.16665799  0.16665799  0.50002602  1
  Ni  Ni7  1  0.16665799  0.16665799  0.16665799  1
  Ni  Ni8  1  0.87500000  0.37500000  0.37500000  1
  Ni  Ni9  1  0.37500000  0.87500000  0.37500000  1
  Ni  Ni10  1  0.37500000  0.37500000  0.87500000  1
  Ni  Ni11  1  0.37500000  0.37500000  0.37500000  1
  W  W12  1  0.55153437  0.94846563  0.94846563  1
  W  W13  1  0.55153437  0.94846563  0.55153437  1
  W  W14  1  0.55153437  0.55153437  0.94846563  1
  W  W15  1  0.94846563  0.55153437  0.55153437  1
  W  W16  1  0.94846563  0.55153437  0.94846563  1
  W  W17  1  0.94846563  0.94846563  0.55153437  1
  W  W18  1  0.19846563  0.80153437  0.80153437  1
  W  W19  1  0.19846563  0.80153437  0.19846563  1
  W  W20  1  0.19846563  0.19846563  0.80153437  1
  W  W21  1  0.80153437  0.19846563  0.19846563  1
  W  W22  1  0.80153437  0.19846563  0.80153437  1
  W  W23  1  0.80153437  0.80153437  0.19846563  1
  C  C24  1  0.75000000  0.75000000  0.75000000  1
  C  C25  1  0.00000000  0.00000000  0.00000000  1
