# generated using pymatgen
data_Na2Ca(CO3)2
_symmetry_space_group_name_H-M   'P 1'
_cell_length_a   8.84748436
_cell_length_b   10.16712068
_cell_length_c   12.36004721
_cell_angle_alpha   90.00000000
_cell_angle_beta   90.00000000
_cell_angle_gamma   90.00000000
_symmetry_Int_Tables_number   1
_chemical_formula_structural   Na2Ca(CO3)2
_chemical_formula_sum   'Na16 Ca8 C16 O48'
_cell_volume   1111.82877997
_cell_formula_units_Z   8
loop_
 _symmetry_equiv_pos_site_id
 _symmetry_equiv_pos_as_xyz
  1  'x, y, z'
loop_
 _atom_site_type_symbol
 _atom_site_label
 _atom_site_symmetry_multiplicity
 _atom_site_fract_x
 _atom_site_fract_y
 _atom_site_fract_z
 _atom_site_occupancy
  Na  Na0  1  0.31039937  0.51939175  0.41747373  1
  Na  Na1  1  0.68960063  0.01939175  0.58252627  1
  Na  Na2  1  0.31039937  0.01939175  0.08252627  1
  Na  Na3  1  0.68960063  0.51939175  0.91747373  1
  Na  Na4  1  0.30813681  0.97524502  0.38692623  1
  Na  Na5  1  0.69186319  0.47524502  0.61307377  1
  Na  Na6  1  0.30813681  0.47524502  0.11307377  1
  Na  Na7  1  0.69186319  0.97524502  0.88692623  1
  Na  Na8  1  0.80829460  0.22801459  0.41523354  1
  Na  Na9  1  0.19170540  0.72801459  0.58476646  1
  Na  Na10  1  0.80829460  0.72801459  0.08476646  1
  Na  Na11  1  0.19170540  0.22801459  0.91523354  1
  Na  Na12  1  0.80875383  0.77642379  0.38552585  1
  Na  Na13  1  0.19124617  0.27642379  0.61447415  1
  Na  Na14  1  0.80875383  0.27642379  0.11447415  1
  Na  Na15  1  0.19124617  0.77642379  0.88552585  1
  Ca  Ca16  1  0.45310119  0.24572875  0.27703778  1
  Ca  Ca17  1  0.54689881  0.74572875  0.72296222  1
  Ca  Ca18  1  0.45310119  0.74572875  0.22296222  1
  Ca  Ca19  1  0.54689881  0.24572875  0.77703778  1
  Ca  Ca20  1  0.95473201  0.50327470  0.27938988  1
  Ca  Ca21  1  0.04526799  0.00327470  0.72061012  1
  Ca  Ca22  1  0.95473201  0.00327470  0.22061012  1
  Ca  Ca23  1  0.04526799  0.50327470  0.77938988  1
  C  C24  1  0.62222718  0.49780150  0.27782557  1
  C  C25  1  0.37777282  0.99780150  0.72217443  1
  C  C26  1  0.62222718  0.99780150  0.22217443  1
  C  C27  1  0.37777282  0.49780150  0.77782557  1
  C  C28  1  0.12225448  0.25137785  0.27944476  1
  C  C29  1  0.87774552  0.75137785  0.72055524  1
  C  C30  1  0.12225448  0.75137785  0.22055524  1
  C  C31  1  0.87774552  0.25137785  0.77944476  1
  C  C32  1  0.99722218  0.00976007  0.49393076  1
  C  C33  1  0.00277782  0.50976007  0.50606924  1
  C  C34  1  0.99722218  0.50976007  0.00606924  1
  C  C35  1  0.00277782  0.00976007  0.99393076  1
  C  C36  1  0.49634023  0.73883743  0.49459524  1
  C  C37  1  0.50365977  0.23883743  0.50540476  1
  C  C38  1  0.49634023  0.23883743  0.00540476  1
  C  C39  1  0.50365977  0.73883743  0.99459524  1
  O  O40  1  0.19796977  0.14262583  0.28431233  1
  O  O41  1  0.80203023  0.64262583  0.71568767  1
  O  O42  1  0.19796977  0.64262583  0.21568767  1
  O  O43  1  0.80203023  0.14262583  0.78431233  1
  O  O44  1  0.19150987  0.36418464  0.28197748  1
  O  O45  1  0.80849013  0.86418464  0.71802252  1
  O  O46  1  0.19150987  0.86418464  0.21802252  1
  O  O47  1  0.80849013  0.36418464  0.78197748  1
  O  O48  1  0.47548054  0.50163061  0.27076807  1
  O  O49  1  0.52451946  0.00163061  0.72923193  1
  O  O50  1  0.47548054  0.00163061  0.22923193  1
  O  O51  1  0.52451946  0.50163061  0.77076807  1
  O  O52  1  0.69015442  0.38449746  0.27750860  1
  O  O53  1  0.30984558  0.88449746  0.72249140  1
  O  O54  1  0.69015442  0.88449746  0.22249140  1
  O  O55  1  0.30984558  0.38449746  0.77750860  1
  O  O56  1  0.38508489  0.30597542  0.47917684  1
  O  O57  1  0.61491511  0.80597542  0.52082316  1
  O  O58  1  0.38508489  0.80597542  0.02082316  1
  O  O59  1  0.61491511  0.30597542  0.97917684  1
  O  O60  1  0.69882250  0.60591065  0.28415668  1
  O  O61  1  0.30117750  0.10591065  0.71584332  1
  O  O62  1  0.69882250  0.10591065  0.21584332  1
  O  O63  1  0.30117750  0.60591065  0.78415668  1
  O  O64  1  0.97596301  0.24871112  0.27025562  1
  O  O65  1  0.02403699  0.74871112  0.72974438  1
  O  O66  1  0.97596301  0.74871112  0.22974438  1
  O  O67  1  0.02403699  0.24871112  0.77025562  1
  O  O68  1  0.92080504  0.98361322  0.40690548  1
  O  O69  1  0.07919496  0.48361322  0.59309452  1
  O  O70  1  0.92080504  0.48361322  0.09309452  1
  O  O71  1  0.07919496  0.98361322  0.90690548  1
  O  O72  1  0.88682831  0.44119758  0.47614409  1
  O  O73  1  0.11317169  0.94119758  0.52385591  1
  O  O74  1  0.88682831  0.94119758  0.02385591  1
  O  O75  1  0.11317169  0.44119758  0.97614409  1
  O  O76  1  0.04824269  0.60652993  0.44396784  1
  O  O77  1  0.95175731  0.10652993  0.55603216  1
  O  O78  1  0.04824269  0.10652993  0.05603216  1
  O  O79  1  0.95175731  0.60652993  0.94396784  1
  O  O80  1  0.41585992  0.76560886  0.40934097  1
  O  O81  1  0.58414008  0.26560886  0.59065903  1
  O  O82  1  0.41585992  0.26560886  0.09065903  1
  O  O83  1  0.58414008  0.76560886  0.90934097  1
  O  O84  1  0.54763249  0.14297922  0.44184355  1
  O  O85  1  0.45236751  0.64297922  0.55815645  1
  O  O86  1  0.54763249  0.64297922  0.05815645  1
  O  O87  1  0.45236751  0.14297922  0.94184355  1
