# generated using pymatgen
data_Ba4Zn4B14Pb2O31
_symmetry_space_group_name_H-M   'P 1'
_cell_length_a   7.11069866
_cell_length_b   7.14203288
_cell_length_c   16.40108096
_cell_angle_alpha   79.39012777
_cell_angle_beta   83.01379559
_cell_angle_gamma   60.39023816
_symmetry_Int_Tables_number   1
_chemical_formula_structural   Ba4Zn4B14Pb2O31
_chemical_formula_sum   'Ba4 Zn4 B14 Pb2 O31'
_cell_volume   711.31648040
_cell_formula_units_Z   1
loop_
 _symmetry_equiv_pos_site_id
 _symmetry_equiv_pos_as_xyz
  1  'x, y, z'
loop_
 _atom_site_type_symbol
 _atom_site_label
 _atom_site_symmetry_multiplicity
 _atom_site_fract_x
 _atom_site_fract_y
 _atom_site_fract_z
 _atom_site_occupancy
  Ba  Ba0  1  0.10204261  0.07626065  0.59174211  1
  Ba  Ba1  1  0.83369942  0.65798995  0.74353634  1
  Ba  Ba2  1  0.36640684  0.92492334  0.17956129  1
  Ba  Ba3  1  0.08734449  0.50924648  0.34171252  1
  Zn  Zn4  1  0.74825946  0.79419307  0.51531984  1
  Zn  Zn5  1  0.04358637  0.59916800  0.12283259  1
  Zn  Zn6  1  0.43744430  0.79409751  0.41735554  1
  Zn  Zn7  1  0.15205114  0.98609340  0.81280905  1
  B  B8  1  0.02504844  0.46540469  0.96477470  1
  B  B9  1  0.47729354  0.42757829  0.16916294  1
  B  B10  1  0.59723578  0.20730426  0.57602741  1
  B  B11  1  0.97301656  0.11009820  0.37782438  1
  B  B12  1  0.32839801  0.27629567  0.76001063  1
  B  B13  1  0.72608736  0.99333355  0.32895570  1
  B  B14  1  0.46256443  0.59339276  0.60433872  1
  B  B15  1  0.44596187  0.55211302  0.76669550  1
  B  B16  1  0.74583860  0.03488974  0.16633266  1
  B  B17  1  0.86443990  0.30913727  0.17386774  1
  B  B18  1  0.58947109  0.37972762  0.35789259  1
  B  B19  1  0.20389269  0.04655082  0.97303247  1
  B  B20  1  0.21312424  0.47638865  0.55705477  1
  B  B21  1  0.71463603  0.15605742  0.76680279  1
  Pb  Pb22  1  0.76612812  0.94626888  0.96636422  1
  Pb  Pb23  1  0.51684773  0.54141154  0.95739411  1
  O  O24  1  0.17475380  0.24688934  0.98808398  1
  O  O25  1  0.78319479  0.88778389  0.10734121  1
  O  O26  1  0.76207008  -0.00005572  0.57520353  1
  O  O27  1  0.91840602  0.98703629  0.75965228  1
  O  O28  1  0.41061853  0.69789453  0.82659301  1
  O  O29  1  0.27303207  0.59270790  0.17929697  1
  O  O30  1  0.54545391  0.10957665  0.76048620  1
  O  O31  1  0.27966620  0.47854741  0.77597489  1
  O  O32  1  0.02435335  0.34920889  0.18886410  1
  O  O33  1  0.45322034  0.66674752  0.68359153  1
  O  O34  1  0.66696191  0.35562780  0.78413342  1
  O  O35  1  0.79536098  0.32075431  0.38404766  1
  O  O36  1  0.94666685  0.96533767  0.34310723  1
  O  O37  1  0.49387152  0.74411122  0.53851495  1
  O  O38  1  0.02123326  0.51089246  0.53214809  1
  O  O39  1  0.05685662  0.03663808  0.92948231  1
  O  O40  1  0.16311651  0.07492984  0.40469829  1
  O  O41  1  0.69278150  0.84315040  0.39479151  1
  O  O42  1  0.73657171  0.92031300  0.24962434  1
  O  O43  1  0.42321380  0.58585506  0.35968110  1
  O  O44  1  0.24088594  0.62103881  0.59124661  1
  O  O45  1  0.52580104  0.23110435  0.14858129  1
  O  O46  1  0.91307682  0.10723420  0.15764099  1
  O  O47  1  0.39114600  0.26677699  0.54981934  1
  O  O48  1  0.84900896  0.55096122  0.91642593  1
  O  O49  1  0.16987343  0.23572646  0.74344358  1
  O  O50  1  0.06561593  0.60800958  0.99823247  1
  O  O51  1  0.39125889  0.86853172  0.00445532  1
  O  O52  1  0.55583413  0.22710127  0.33062391  1
  O  O53  1  0.64677239  0.47507326  0.17469564  1
  O  O54  1  0.63258373  0.35991081  0.60229772  1
