# generated using pymatgen
data_Rb3Bi2I9
_symmetry_space_group_name_H-M   'P 1'
_cell_length_a   8.44828232
_cell_length_b   15.13087275
_cell_length_c   21.39971058
_cell_angle_alpha   90.60836919
_cell_angle_beta   90.00000000
_cell_angle_gamma   90.00000000
_symmetry_Int_Tables_number   1
_chemical_formula_structural   Rb3Bi2I9
_chemical_formula_sum   'Rb12 Bi8 I36'
_cell_volume   2735.36833215
_cell_formula_units_Z   4
loop_
 _symmetry_equiv_pos_site_id
 _symmetry_equiv_pos_as_xyz
  1  'x, y, z'
loop_
 _atom_site_type_symbol
 _atom_site_label
 _atom_site_symmetry_multiplicity
 _atom_site_fract_x
 _atom_site_fract_y
 _atom_site_fract_z
 _atom_site_occupancy
  Rb  Rb0  1  0.52321371  0.53165618  0.72351345  1
  Rb  Rb1  1  0.97678629  0.03165618  0.22351345  1
  Rb  Rb2  1  0.47678629  0.46834382  0.27648655  1
  Rb  Rb3  1  0.02321371  0.96834382  0.77648655  1
  Rb  Rb4  1  0.98014880  0.68694897  0.56135950  1
  Rb  Rb5  1  0.51985120  0.18694897  0.06135950  1
  Rb  Rb6  1  0.01985120  0.31305103  0.43864050  1
  Rb  Rb7  1  0.48014880  0.81305103  0.93864050  1
  Rb  Rb8  1  0.52720738  0.85187302  0.39355499  1
  Rb  Rb9  1  0.97279262  0.35187302  0.89355499  1
  Rb  Rb10  1  0.47279262  0.14812698  0.60644501  1
  Rb  Rb11  1  0.02720738  0.64812698  0.10644501  1
  Bi  Bi12  1  0.00670310  0.66676537  0.34142093  1
  Bi  Bi13  1  0.49329690  0.16676537  0.84142093  1
  Bi  Bi14  1  0.99329690  0.33323463  0.65857907  1
  Bi  Bi15  1  0.50670310  0.83323463  0.15857907  1
  Bi  Bi16  1  0.48996018  0.83676909  0.65746192  1
  Bi  Bi17  1  0.01003982  0.33676909  0.15746192  1
  Bi  Bi18  1  0.51003982  0.16323091  0.34253808  1
  Bi  Bi19  1  0.98996018  0.66323091  0.84253808  1
  I  I20  1  0.91565668  0.50531943  0.24579214  1
  I  I21  1  0.58434332  0.00531943  0.74579214  1
  I  I22  1  0.08434332  0.49468057  0.75420786  1
  I  I23  1  0.41565668  0.99468057  0.25420786  1
  I  I24  1  0.69752054  0.57303121  0.88676461  1
  I  I25  1  0.80247946  0.07303121  0.38676461  1
  I  I26  1  0.30247946  0.42696879  0.11323539  1
  I  I27  1  0.19752054  0.92696879  0.61323539  1
  I  I28  1  0.71184425  0.62445358  0.41288669  1
  I  I29  1  0.78815575  0.12445358  0.91288669  1
  I  I30  1  0.28815575  0.37554642  0.58711331  1
  I  I31  1  0.21184425  0.87554642  0.08711331  1
  I  I32  1  0.43059248  0.67164329  0.58226684  1
  I  I33  1  0.06940752  0.17164329  0.08226684  1
  I  I34  1  0.56940752  0.32835671  0.41773316  1
  I  I35  1  0.93059248  0.82835671  0.91773316  1
  I  I36  1  0.80625415  0.74192900  0.71876280  1
  I  I37  1  0.69374585  0.24192900  0.21876280  1
  I  I38  1  0.19374585  0.25807100  0.28123720  1
  I  I39  1  0.30625415  0.75807100  0.78123720  1
  I  I40  1  0.07469919  0.82649243  0.42070474  1
  I  I41  1  0.42530081  0.32649243  0.92070474  1
  I  I42  1  0.92530081  0.17350757  0.57929526  1
  I  I43  1  0.57469919  0.67350757  0.07929526  1
  I  I44  1  0.69277433  0.91339946  0.55729375  1
  I  I45  1  0.80722567  0.41339946  0.05729375  1
  I  I46  1  0.30722567  0.08660054  0.44270625  1
  I  I47  1  0.19277433  0.58660054  0.94270625  1
  I  I48  1  0.67921095  0.29902397  0.74483785  1
  I  I49  1  0.82078905  0.79902397  0.24483785  1
  I  I50  1  0.32078905  0.70097603  0.25516215  1
  I  I51  1  0.17921095  0.20097603  0.75516215  1
  I  I52  1  0.79679277  0.45264976  0.57916564  1
  I  I53  1  0.70320723  0.95264976  0.07916564  1
  I  I54  1  0.20320723  0.54735024  0.42083436  1
  I  I55  1  0.29679277  0.04735024  0.92083436  1
