# generated using pymatgen
data_Ba2GaSe4
_symmetry_space_group_name_H-M   'P 1'
_cell_length_a   6.54147466
_cell_length_b   13.43554868
_cell_length_c   21.03530726
_cell_angle_alpha   104.29242759
_cell_angle_beta   90.00000000
_cell_angle_gamma   90.00000000
_symmetry_Int_Tables_number   1
_chemical_formula_structural   Ba2GaSe4
_chemical_formula_sum   'Ba16 Ga8 Se32'
_cell_volume   1791.53535989
_cell_formula_units_Z   8
loop_
 _symmetry_equiv_pos_site_id
 _symmetry_equiv_pos_as_xyz
  1  'x, y, z'
loop_
 _atom_site_type_symbol
 _atom_site_label
 _atom_site_symmetry_multiplicity
 _atom_site_fract_x
 _atom_site_fract_y
 _atom_site_fract_z
 _atom_site_occupancy
  Ba  Ba0  1  0.73496115  0.89315589  0.28378005  1
  Ba  Ba1  1  0.23496115  0.10684411  0.21621995  1
  Ba  Ba2  1  0.26503885  0.10684411  0.71621995  1
  Ba  Ba3  1  0.76503885  0.89315589  0.78378005  1
  Ba  Ba4  1  0.24322268  0.85420586  0.45150423  1
  Ba  Ba5  1  0.74322268  0.14579414  0.04849577  1
  Ba  Ba6  1  0.75677732  0.14579414  0.54849577  1
  Ba  Ba7  1  0.25677732  0.85420586  0.95150423  1
  Ba  Ba8  1  0.73719411  0.61842830  0.46201071  1
  Ba  Ba9  1  0.23719411  0.38157170  0.03798929  1
  Ba  Ba10  1  0.26280589  0.38157170  0.53798929  1
  Ba  Ba11  1  0.76280589  0.61842830  0.96201071  1
  Ba  Ba12  1  0.73154670  0.52752394  0.18764252  1
  Ba  Ba13  1  0.23154670  0.47247606  0.31235748  1
  Ba  Ba14  1  0.26845330  0.47247606  0.81235748  1
  Ba  Ba15  1  0.76845330  0.52752394  0.68764252  1
  Ga  Ga16  1  0.82310545  0.88489938  0.09817759  1
  Ga  Ga17  1  0.32310545  0.11510062  0.40182241  1
  Ga  Ga18  1  0.17689455  0.11510062  0.90182241  1
  Ga  Ga19  1  0.67689455  0.88489938  0.59817759  1
  Ga  Ga20  1  0.81687230  0.30354228  0.40016841  1
  Ga  Ga21  1  0.31687230  0.69645772  0.09983159  1
  Ga  Ga22  1  0.18312770  0.69645772  0.59983159  1
  Ga  Ga23  1  0.68312770  0.30354228  0.90016841  1
  Se  Se24  1  0.23619823  0.95791505  0.32175958  1
  Se  Se25  1  0.73619823  0.04208495  0.17824042  1
  Se  Se26  1  0.76380177  0.04208495  0.67824042  1
  Se  Se27  1  0.26380177  0.95791505  0.82175958  1
  Se  Se28  1  0.74530568  0.88370917  0.48572776  1
  Se  Se29  1  0.24530568  0.11629083  0.01427224  1
  Se  Se30  1  0.25469432  0.11629083  0.51427224  1
  Se  Se31  1  0.75469432  0.88370917  0.98572776  1
  Se  Se32  1  0.19296272  0.87256892  0.11564980  1
  Se  Se33  1  0.69296272  0.12743108  0.38435020  1
  Se  Se34  1  0.80703728  0.12743108  0.88435020  1
  Se  Se35  1  0.30703728  0.87256892  0.61564980  1
  Se  Se36  1  0.68679963  0.72857490  0.12579475  1
  Se  Se37  1  0.18679963  0.27142510  0.37420525  1
  Se  Se38  1  0.31320037  0.27142510  0.87420525  1
  Se  Se39  1  0.81320037  0.72857490  0.62579475  1
  Se  Se40  1  0.91983772  0.68788928  0.32506873  1
  Se  Se41  1  0.41983772  0.31211072  0.17493127  1
  Se  Se42  1  0.08016228  0.31211072  0.67493127  1
  Se  Se43  1  0.58016228  0.68788928  0.82506873  1
  Se  Se44  1  0.55027583  0.68672615  0.32578170  1
  Se  Se45  1  0.05027583  0.31327385  0.17421830  1
  Se  Se46  1  0.44972417  0.31327385  0.67421830  1
  Se  Se47  1  0.94972417  0.68672615  0.82578170  1
  Se  Se48  1  0.72716930  0.42065511  0.33558596  1
  Se  Se49  1  0.22716930  0.57934489  0.16441404  1
  Se  Se50  1  0.27283070  0.57934489  0.66441404  1
  Se  Se51  1  0.77283070  0.42065511  0.83558596  1
  Se  Se52  1  0.73499986  0.38921172  0.01726323  1
  Se  Se53  1  0.23499986  0.61078828  0.48273677  1
  Se  Se54  1  0.26500014  0.61078828  0.98273677  1
  Se  Se55  1  0.76500014  0.38921172  0.51726323  1
