# generated using pymatgen
data_KLiYF5
_symmetry_space_group_name_H-M   'P 1'
_cell_length_a   6.48376924
_cell_length_b   6.43045456
_cell_length_c   24.14050023
_cell_angle_alpha   90.00000000
_cell_angle_beta   90.00000000
_cell_angle_gamma   113.59349897
_symmetry_Int_Tables_number   1
_chemical_formula_structural   KLiYF5
_chemical_formula_sum   'K8 Li8 Y8 F40'
_cell_volume   922.36843148
_cell_formula_units_Z   8
loop_
 _symmetry_equiv_pos_site_id
 _symmetry_equiv_pos_as_xyz
  1  'x, y, z'
loop_
 _atom_site_type_symbol
 _atom_site_label
 _atom_site_symmetry_multiplicity
 _atom_site_fract_x
 _atom_site_fract_y
 _atom_site_fract_z
 _atom_site_occupancy
  K  K0  1  0.83332536  0.53309531  0.70060508  1
  K  K1  1  0.16667464  0.96690469  0.20060508  1
  K  K2  1  0.16667464  0.46690469  0.29939492  1
  K  K3  1  0.83332536  0.03309531  0.79939492  1
  K  K4  1  0.74364765  0.45935014  0.54976115  1
  K  K5  1  0.25635235  0.04064986  0.04976115  1
  K  K6  1  0.25635235  0.54064986  0.45023885  1
  K  K7  1  0.74364765  0.95935014  0.95023885  1
  Li  Li8  1  0.34255154  0.46307226  0.74980518  1
  Li  Li9  1  0.65744846  0.03692774  0.24980518  1
  Li  Li10  1  0.65744846  0.53692774  0.25019482  1
  Li  Li11  1  0.34255154  0.96307226  0.75019482  1
  Li  Li12  1  0.77956623  0.94848675  0.49779949  1
  Li  Li13  1  0.22043377  0.55151325  0.99779949  1
  Li  Li14  1  0.22043377  0.05151325  0.50220051  1
  Li  Li15  1  0.77956623  0.44848675  0.00220051  1
  Y  Y16  1  0.46606153  0.81620689  0.62580709  1
  Y  Y17  1  0.53393847  0.68379311  0.12580709  1
  Y  Y18  1  0.53393847  0.18379311  0.37419291  1
  Y  Y19  1  0.46606153  0.31620689  0.87419291  1
  Y  Y20  1  0.10217100  0.18054609  0.62593960  1
  Y  Y21  1  0.89782900  0.31945391  0.12593960  1
  Y  Y22  1  0.89782900  0.81945391  0.37406040  1
  Y  Y23  1  0.10217100  0.68054609  0.87406040  1
  F  F24  1  0.11746302  0.54515963  0.61233369  1
  F  F25  1  0.88253698  0.95484037  0.11233369  1
  F  F26  1  0.88253698  0.45484037  0.38766631  1
  F  F27  1  0.11746302  0.04515963  0.88766631  1
  F  F28  1  0.50297536  0.76871001  0.72112965  1
  F  F29  1  0.49702464  0.73128999  0.22112965  1
  F  F30  1  0.49702464  0.23128999  0.27887035  1
  F  F31  1  0.50297536  0.26871001  0.77887035  1
  F  F32  1  0.45460295  0.45218232  0.63656507  1
  F  F33  1  0.54539705  0.04781768  0.13656507  1
  F  F34  1  0.54539705  0.54781768  0.36343493  1
  F  F35  1  0.45460295  0.95218232  0.86343493  1
  F  F36  1  0.53270604  0.75560827  0.53744911  1
  F  F37  1  0.46729396  0.74439173  0.03744911  1
  F  F38  1  0.46729396  0.24439173  0.46255089  1
  F  F39  1  0.53270604  0.25560827  0.96255089  1
  F  F40  1  0.31472993  0.03078347  0.57325109  1
  F  F41  1  0.68527007  0.46921653  0.07325109  1
  F  F42  1  0.68527007  0.96921653  0.42674891  1
  F  F43  1  0.31472993  0.53078347  0.92674891  1
  F  F44  1  0.73686012  0.16962990  0.63119805  1
  F  F45  1  0.26313988  0.33037010  0.13119805  1
  F  F46  1  0.26313988  0.83037010  0.36880195  1
  F  F47  1  0.73686012  0.66962990  0.86880195  1
  F  F48  1  0.83192207  0.82708151  0.62430222  1
  F  F49  1  0.16807793  0.67291849  0.12430222  1
  F  F50  1  0.16807793  0.17291849  0.37569778  1
  F  F51  1  0.83192207  0.32708151  0.87569778  1
  F  F52  1  0.01874678  0.18993580  0.53226504  1
  F  F53  1  0.98125322  0.31006420  0.03226504  1
  F  F54  1  0.98125322  0.81006420  0.46773496  1
  F  F55  1  0.01874678  0.68993580  0.96773496  1
  F  F56  1  0.07714208  0.27883489  0.71337362  1
  F  F57  1  0.92285792  0.22116511  0.21337362  1
  F  F58  1  0.92285792  0.72116511  0.28662638  1
  F  F59  1  0.07714208  0.77883489  0.78662638  1
  F  F60  1  0.25565436  0.97042693  0.67696455  1
  F  F61  1  0.74434564  0.52957307  0.17696455  1
  F  F62  1  0.74434564  0.02957307  0.32303545  1
  F  F63  1  0.25565436  0.47042693  0.82303545  1
