# generated using pymatgen
data_Al2Si2PbO8
_symmetry_space_group_name_H-M   'P 1'
_cell_length_a   8.50270422
_cell_length_b   13.23330395
_cell_length_c   13.34577902
_cell_angle_alpha   90.00000000
_cell_angle_beta   100.10460912
_cell_angle_gamma   90.00000000
_symmetry_Int_Tables_number   1
_chemical_formula_structural   Al2Si2PbO8
_chemical_formula_sum   'Al16 Si16 Pb8 O64'
_cell_volume   1478.35994544
_cell_formula_units_Z   8
loop_
 _symmetry_equiv_pos_site_id
 _symmetry_equiv_pos_as_xyz
  1  'x, y, z'
loop_
 _atom_site_type_symbol
 _atom_site_label
 _atom_site_symmetry_multiplicity
 _atom_site_fract_x
 _atom_site_fract_y
 _atom_site_fract_z
 _atom_site_occupancy
  Al  Al0  1  0.61124883  0.92491499  0.86639290  1
  Al  Al1  1  0.88875117  0.42491499  0.63360710  1
  Al  Al2  1  0.38875117  0.07508501  0.13360710  1
  Al  Al3  1  0.11124883  0.57508501  0.36639290  1
  Al  Al4  1  0.61792385  0.43278565  0.36780218  1
  Al  Al5  1  0.88207615  0.93278565  0.13219782  1
  Al  Al6  1  0.38207615  0.56721435  0.63219782  1
  Al  Al7  1  0.11792385  0.06721435  0.86780218  1
  Al  Al8  1  0.47153652  0.87298951  0.41896785  1
  Al  Al9  1  0.02846348  0.37298951  0.08103215  1
  Al  Al10  1  0.52846348  0.12701049  0.58103215  1
  Al  Al11  1  0.97153652  0.62701049  0.91896785  1
  Al  Al12  1  0.47659669  0.36667974  0.92136561  1
  Al  Al13  1  0.02340331  0.86667974  0.57863439  1
  Al  Al14  1  0.52340331  0.63332026  0.07863439  1
  Al  Al15  1  0.97659669  0.13332026  0.42136561  1
  Si  Si16  1  0.09614130  0.92578989  0.36034730  1
  Si  Si17  1  0.40385870  0.42578989  0.13965270  1
  Si  Si18  1  0.90385870  0.07421011  0.63965270  1
  Si  Si19  1  0.59614130  0.57421011  0.86034730  1
  Si  Si20  1  0.10087072  0.42646105  0.85823053  1
  Si  Si21  1  0.39912928  0.92646105  0.64176947  1
  Si  Si22  1  0.89912928  0.57353895  0.14176947  1
  Si  Si23  1  0.60087072  0.07353895  0.35823053  1
  Si  Si24  1  0.98649978  0.86126513  0.92780701  1
  Si  Si25  1  0.51350022  0.36126513  0.57219299  1
  Si  Si26  1  0.01350022  0.13873487  0.07219299  1
  Si  Si27  1  0.48649978  0.63873487  0.42780701  1
  Si  Si28  1  0.99193490  0.36637650  0.42513193  1
  Si  Si29  1  0.50806510  0.86637650  0.07486807  1
  Si  Si30  1  0.00806510  0.63362350  0.57486807  1
  Si  Si31  1  0.49193490  0.13362350  0.92513193  1
  Pb  Pb32  1  0.80083164  0.74980385  0.32566910  1
  Pb  Pb33  1  0.69916836  0.24980385  0.17433090  1
  Pb  Pb34  1  0.19916836  0.25019615  0.67433090  1
  Pb  Pb35  1  0.30083164  0.75019615  0.82566910  1
  Pb  Pb36  1  0.80544432  0.23263463  0.81849803  1
  Pb  Pb37  1  0.69455568  0.73263463  0.68150197  1
  Pb  Pb38  1  0.19455568  0.76736537  0.18150197  1
  Pb  Pb39  1  0.30544432  0.26736537  0.31849803  1
  O  O40  1  0.50519660  0.87858817  0.74835214  1
  O  O41  1  0.99480340  0.37858817  0.75164786  1
  O  O42  1  0.49480340  0.12141183  0.25164786  1
  O  O43  1  0.00519660  0.62141183  0.24835214  1
  O  O44  1  0.51321228  0.38874362  0.24873556  1
  O  O45  1  0.98678772  0.88874362  0.25126444  1
  O  O46  1  0.48678772  0.61125638  0.75126444  1
  O  O47  1  0.01321228  0.11125638  0.74873556  1
  O  O48  1  0.05070499  0.74844503  0.90000652  1
  O  O49  1  0.44929501  0.24844503  0.59999348  1
  O  O50  1  0.94929501  0.25155497  0.09999348  1
  O  O51  1  0.55070499  0.75155497  0.40000652  1
  O  O52  1  0.05177282  0.25351166  0.39311986  1
  O  O53  1  0.44822718  0.75351166  0.10688014  1
  O  O54  1  0.94822718  0.74648834  0.60688014  1
  O  O55  1  0.55177282  0.24648834  0.89311986  1
  O  O56  1  0.80284810  0.87616830  0.87155708  1
  O  O57  1  0.69715190  0.37616830  0.62844292  1
  O  O58  1  0.19715190  0.12383170  0.12844292  1
  O  O59  1  0.30284810  0.62383170  0.37155708  1
  O  O60  1  0.80874961  0.38511885  0.37054186  1
  O  O61  1  0.69125039  0.88511885  0.12945814  1
  O  O62  1  0.19125039  0.61488115  0.62945814  1
  O  O63  1  0.30874961  0.11488115  0.87054186  1
  O  O64  1  0.27165971  0.87737771  0.35354350  1
  O  O65  1  0.22834029  0.37737771  0.14645650  1
  O  O66  1  0.72834029  0.12262229  0.64645650  1
  O  O67  1  0.77165971  0.62262229  0.85354350  1
  O  O68  1  0.27901086  0.38038448  0.85958008  1
  O  O69  1  0.22098914  0.88038448  0.64041992  1
  O  O70  1  0.72098914  0.61961552  0.14041992  1
  O  O71  1  0.77901086  0.11961552  0.35958008  1
  O  O72  1  0.61631316  0.05598722  0.88504595  1
  O  O73  1  0.88368684  0.55598722  0.61495405  1
  O  O74  1  0.38368684  0.94401278  0.11495405  1
  O  O75  1  0.11631316  0.44401278  0.38504595  1
  O  O76  1  0.61213084  0.56226095  0.38781256  1
  O  O77  1  0.88786916  0.06226095  0.11218744  1
  O  O78  1  0.38786916  0.43773905  0.61218744  1
  O  O79  1  0.11213084  0.93773905  0.88781256  1
  O  O80  1  0.10363492  0.04658812  0.37730928  1
  O  O81  1  0.39636508  0.54658812  0.12269072  1
  O  O82  1  0.89636508  0.95341188  0.62269072  1
  O  O83  1  0.60363492  0.45341188  0.87730928  1
  O  O84  1  0.09738032  0.54944832  0.86121612  1
  O  O85  1  0.40261968  0.04944832  0.63878388  1
  O  O86  1  0.90261968  0.45055168  0.13878388  1
  O  O87  1  0.59738032  0.95055168  0.36121612  1
  O  O88  1  0.49509111  0.86711472  0.94991155  1
  O  O89  1  0.00490889  0.36711472  0.55008845  1
  O  O90  1  0.50490889  0.13288528  0.05008845  1
  O  O91  1  0.99509111  0.63288528  0.44991155  1
  O  O92  1  0.50309465  0.36753658  0.44744406  1
  O  O93  1  0.99690535  0.86753658  0.05255594  1
  O  O94  1  0.49690535  0.63246342  0.55255594  1
  O  O95  1  0.00309465  0.13246342  0.94744406  1
  O  O96  1  0.00660830  0.86847968  0.44431514  1
  O  O97  1  0.49339170  0.36847968  0.05568486  1
  O  O98  1  0.99339170  0.13152032  0.55568486  1
  O  O99  1  0.50660830  0.63152032  0.94431514  1
  O  O100  1  0.01404062  0.38206604  0.94904365  1
  O  O101  1  0.48595938  0.88206604  0.55095635  1
  O  O102  1  0.98595938  0.61793396  0.05095635  1
  O  O103  1  0.51404062  0.11793396  0.44904365  1
