# generated using pymatgen
data_TlP(HO2)2
_symmetry_space_group_name_H-M   'P 1'
_cell_length_a   6.62753331
_cell_length_b   9.16351118
_cell_length_c   15.16062911
_cell_angle_alpha   72.81471497
_cell_angle_beta   87.83413264
_cell_angle_gamma   89.49013208
_symmetry_Int_Tables_number   1
_chemical_formula_structural   TlP(HO2)2
_chemical_formula_sum   'Tl8 P8 H16 O32'
_cell_volume   878.98996221
_cell_formula_units_Z   8
loop_
 _symmetry_equiv_pos_site_id
 _symmetry_equiv_pos_as_xyz
  1  'x, y, z'
loop_
 _atom_site_type_symbol
 _atom_site_label
 _atom_site_symmetry_multiplicity
 _atom_site_fract_x
 _atom_site_fract_y
 _atom_site_fract_z
 _atom_site_occupancy
  Tl  Tl0  1  0.26851702  0.06961683  0.86282233  1
  Tl  Tl1  1  0.73148298  0.93038317  0.13717767  1
  Tl  Tl2  1  0.71753769  0.44244641  0.62452920  1
  Tl  Tl3  1  0.28246231  0.55755359  0.37547080  1
  Tl  Tl4  1  0.25366682  0.55768065  0.87700407  1
  Tl  Tl5  1  0.74633318  0.44231935  0.12299593  1
  Tl  Tl6  1  0.76907205  0.94116253  0.63421429  1
  Tl  Tl7  1  0.23092795  0.05883747  0.36578571  1
  P  P8  1  0.24165548  0.17715761  0.62397926  1
  P  P9  1  0.75834452  0.82284239  0.37602074  1
  P  P10  1  0.77090094  0.29291376  0.87916252  1
  P  P11  1  0.22909906  0.70708624  0.12083748  1
  P  P12  1  0.23246915  0.67597716  0.62210206  1
  P  P13  1  0.76753085  0.32402284  0.37789794  1
  P  P14  1  0.76447339  0.79925271  0.87079266  1
  P  P15  1  0.23552661  0.20074729  0.12920734  1
  H  H16  1  0.02248670  0.26291419  0.50935280  1
  H  H17  1  0.97751330  0.73708581  0.49064720  1
  H  H18  1  0.47854258  0.22626157  0.50745610  1
  H  H19  1  0.52145742  0.77373843  0.49254390  1
  H  H20  1  0.01102048  0.23575443  0.01452158  1
  H  H21  1  0.98897952  0.76424557  0.98547842  1
  H  H22  1  0.47580938  0.25126281  0.01036147  1
  H  H23  1  0.52419062  0.74873719  0.98963853  1
  H  H24  1  0.74130582  0.54898016  0.81644861  1
  H  H25  1  0.25869418  0.45101984  0.18355139  1
  H  H26  1  0.25720535  0.87550720  0.68018951  1
  H  H27  1  0.74279465  0.12449280  0.31981049  1
  H  H28  1  0.76835950  0.10214971  0.81404415  1
  H  H29  1  0.23164050  0.89785029  0.18595585  1
  H  H30  1  0.24639209  0.42096242  0.68546159  1
  H  H31  1  0.75360791  0.57903758  0.31453841  1
  O  O32  1  0.06465396  0.28157008  0.57096142  1
  O  O33  1  0.93534604  0.71842992  0.42903858  1
  O  O34  1  0.15955894  0.02295080  0.68516844  1
  O  O35  1  0.84044106  0.97704920  0.31483156  1
  O  O36  1  0.38657249  0.13859896  0.54806446  1
  O  O37  1  0.61342751  0.86140104  0.45193554  1
  O  O38  1  0.34818637  0.27162046  0.67653883  1
  O  O39  1  0.65181363  0.72837954  0.32346117  1
  O  O40  1  0.96086778  0.33191838  0.92233599  1
  O  O41  1  0.03913222  0.66808162  0.07766401  1
  O  O42  1  0.83671687  0.20698248  0.80551566  1
  O  O43  1  0.16328313  0.79301752  0.19448434  1
  O  O44  1  0.61375595  0.19740395  0.94794050  1
  O  O45  1  0.38624405  0.80259605  0.05205950  1
  O  O46  1  0.67031023  0.44643443  0.81805894  1
  O  O47  1  0.32968977  0.55356557  0.18194106  1
  O  O48  1  0.03826373  0.75181728  0.57994154  1
  O  O49  1  0.96173627  0.24818272  0.42005846  1
  O  O50  1  0.18106327  0.51618381  0.69723545  1
  O  O51  1  0.81893673  0.48381619  0.30276455  1
  O  O52  1  0.39028842  0.64962205  0.55214032  1
  O  O53  1  0.60971158  0.35037795  0.44785968  1
  O  O54  1  0.32645540  0.77231684  0.68237852  1
  O  O55  1  0.67354460  0.22768316  0.31762148  1
  O  O56  1  0.95606428  0.83794429  0.92031714  1
  O  O57  1  0.04393572  0.16205571  0.07968286  1
  O  O58  1  0.82741017  0.70108292  0.80885442  1
  O  O59  1  0.17258983  0.29891708  0.19114558  1
  O  O60  1  0.61692477  0.69706240  0.95015203  1
  O  O61  1  0.38307523  0.30293760  0.04984797  1
  O  O62  1  0.66734685  0.95147933  0.81975923  1
  O  O63  1  0.33265315  0.04852067  0.18024077  1
