# generated using pymatgen
data_ZrReSi2
_symmetry_space_group_name_H-M   'P 1'
_cell_length_a   8.09853473
_cell_length_b   9.33421110
_cell_length_c   10.10066887
_cell_angle_alpha   90.00000000
_cell_angle_beta   90.00000000
_cell_angle_gamma   90.00000000
_symmetry_Int_Tables_number   1
_chemical_formula_structural   ZrReSi2
_chemical_formula_sum   'Zr12 Re12 Si24'
_cell_volume   763.54423316
_cell_formula_units_Z   12
loop_
 _symmetry_equiv_pos_site_id
 _symmetry_equiv_pos_as_xyz
  1  'x, y, z'
loop_
 _atom_site_type_symbol
 _atom_site_label
 _atom_site_symmetry_multiplicity
 _atom_site_fract_x
 _atom_site_fract_y
 _atom_site_fract_z
 _atom_site_occupancy
  Zr  Zr0  1  0.74856004  0.82677408  0.04633412  1
  Zr  Zr1  1  0.74856004  0.17322592  0.95366588  1
  Zr  Zr2  1  0.25143996  0.67322592  0.54633412  1
  Zr  Zr3  1  0.25143996  0.32677408  0.45366588  1
  Zr  Zr4  1  0.25143996  0.17322592  0.95366588  1
  Zr  Zr5  1  0.25143996  0.82677408  0.04633412  1
  Zr  Zr6  1  0.74856004  0.32677408  0.45366588  1
  Zr  Zr7  1  0.74856004  0.67322592  0.54633412  1
  Zr  Zr8  1  0.50000000  0.83143263  0.31957633  1
  Zr  Zr9  1  0.50000000  0.16856737  0.68042367  1
  Zr  Zr10  1  0.50000000  0.66856737  0.81957633  1
  Zr  Zr11  1  0.50000000  0.33143263  0.18042367  1
  Re  Re12  1  0.75002675  0.58551368  0.25780234  1
  Re  Re13  1  0.75002675  0.41448632  0.74219766  1
  Re  Re14  1  0.24997325  0.91448632  0.75780234  1
  Re  Re15  1  0.24997325  0.08551368  0.24219766  1
  Re  Re16  1  0.24997325  0.41448632  0.74219766  1
  Re  Re17  1  0.24997325  0.58551368  0.25780234  1
  Re  Re18  1  0.75002675  0.08551368  0.24219766  1
  Re  Re19  1  0.75002675  0.91448632  0.75780234  1
  Re  Re20  1  0.74411784  0.00000000  0.50000000  1
  Re  Re21  1  0.25588216  0.50000000  -0.00000000  1
  Re  Re22  1  0.25588216  0.00000000  0.50000000  1
  Re  Re23  1  0.74411784  0.50000000  -0.00000000  1
  Si  Si24  1  0.85433699  0.83298510  0.31866911  1
  Si  Si25  1  0.85433699  0.16701490  0.68133089  1
  Si  Si26  1  0.14566301  0.66701490  0.81866911  1
  Si  Si27  1  0.14566301  0.33298510  0.18133089  1
  Si  Si28  1  0.14566301  0.16701490  0.68133089  1
  Si  Si29  1  0.14566301  0.83298510  0.31866911  1
  Si  Si30  1  0.85433699  0.33298510  0.18133089  1
  Si  Si31  1  0.85433699  0.66701490  0.81866911  1
  Si  Si32  1  0.50000000  0.53423479  0.38340872  1
  Si  Si33  1  0.50000000  0.46576521  0.61659128  1
  Si  Si34  1  0.50000000  0.96576521  0.88340872  1
  Si  Si35  1  0.50000000  0.03423479  0.11659128  1
  Si  Si36  1  -0.00000000  0.52764196  0.38098631  1
  Si  Si37  1  -0.00000000  0.47235804  0.61901369  1
  Si  Si38  1  -0.00000000  0.97235804  0.88098631  1
  Si  Si39  1  -0.00000000  0.02764196  0.11901369  1
  Si  Si40  1  0.50000000  0.63192562  0.10015805  1
  Si  Si41  1  0.50000000  0.36807438  0.89984195  1
  Si  Si42  1  0.50000000  0.86807438  0.60015805  1
  Si  Si43  1  0.50000000  0.13192562  0.39984195  1
  Si  Si44  1  -0.00000000  0.62519487  0.09153000  1
  Si  Si45  1  -0.00000000  0.37480513  0.90847000  1
  Si  Si46  1  -0.00000000  0.87480513  0.59153000  1
  Si  Si47  1  -0.00000000  0.12519487  0.40847000  1
