# generated using pymatgen
data_MnB2P3H10N2ClO13
_symmetry_space_group_name_H-M   'P 1'
_cell_length_a   8.60898377
_cell_length_b   9.16356424
_cell_length_c   16.74759451
_cell_angle_alpha   92.32640195
_cell_angle_beta   90.00000000
_cell_angle_gamma   90.00000000
_symmetry_Int_Tables_number   1
_chemical_formula_structural   MnB2P3H10N2ClO13
_chemical_formula_sum   'Mn4 B8 P12 H40 N8 Cl4 O52'
_cell_volume   1320.11164069
_cell_formula_units_Z   4
loop_
 _symmetry_equiv_pos_site_id
 _symmetry_equiv_pos_as_xyz
  1  'x, y, z'
loop_
 _atom_site_type_symbol
 _atom_site_label
 _atom_site_symmetry_multiplicity
 _atom_site_fract_x
 _atom_site_fract_y
 _atom_site_fract_z
 _atom_site_occupancy
  Mn  Mn0  1  0.17569639  0.10020475  0.62782005  1
  Mn  Mn1  1  0.32430361  0.60020475  0.12782005  1
  Mn  Mn2  1  0.82430361  0.89979525  0.37217995  1
  Mn  Mn3  1  0.67569639  0.39979525  0.87217995  1
  B  B4  1  0.96072445  0.83394978  0.67266227  1
  B  B5  1  0.53927555  0.33394978  0.17266227  1
  B  B6  1  0.03927555  0.16605022  0.32733773  1
  B  B7  1  0.46072445  0.66605022  0.82733773  1
  B  B8  1  0.32477729  0.61785421  0.56226830  1
  B  B9  1  0.17522271  0.11785421  0.06226830  1
  B  B10  1  0.67522271  0.38214579  0.43773170  1
  B  B11  1  0.82477729  0.88214579  0.93773170  1
  P  P12  1  0.07549799  0.79903947  0.51925818  1
  P  P13  1  0.42450201  0.29903947  0.01925818  1
  P  P14  1  0.92450201  0.20096053  0.48074182  1
  P  P15  1  0.57549799  0.70096053  0.98074182  1
  P  P16  1  0.45774377  0.33644555  0.56092888  1
  P  P17  1  0.04225623  0.83644555  0.06092888  1
  P  P18  1  0.54225623  0.66355445  0.43907112  1
  P  P19  1  0.95774377  0.16355445  0.93907112  1
  P  P20  1  0.26907953  0.77107061  0.70822149  1
  P  P21  1  0.23092047  0.27107061  0.20822149  1
  P  P22  1  0.73092047  0.22892939  0.29177851  1
  P  P23  1  0.76907953  0.72892939  0.79177851  1
  H  H24  1  0.91297533  0.04103107  0.72261441  1
  H  H25  1  0.58702467  0.54103107  0.22261441  1
  H  H26  1  0.08702467  0.95896893  0.27738559  1
  H  H27  1  0.41297533  0.45896893  0.77738559  1
  H  H28  1  0.60366168  0.32878430  0.67037723  1
  H  H29  1  0.89633832  0.82878430  0.17037723  1
  H  H30  1  0.39633832  0.67121570  0.32962277  1
  H  H31  1  0.10366168  0.17121570  0.82962277  1
  H  H32  1  0.99625337  0.45136143  0.37365450  1
  H  H33  1  0.50374663  0.95136143  0.87365450  1
  H  H34  1  0.00374663  0.54863857  0.62634550  1
  H  H35  1  0.49625337  0.04863857  0.12634550  1
  H  H36  1  0.18362252  0.49242649  0.38689360  1
  H  H37  1  0.31637748  0.99242649  0.88689360  1
  H  H38  1  0.81637748  0.50757351  0.61310640  1
  H  H39  1  0.68362252  0.00757351  0.11310640  1
  H  H40  1  0.05164442  0.62847375  0.38333846  1
  H  H41  1  0.44835558  0.12847375  0.88333846  1
  H  H42  1  0.94835558  0.37152625  0.61666154  1
  H  H43  1  0.55164442  0.87152625  0.11666154  1
  H  H44  1  0.09907859  0.51978452  0.29868830  1
  H  H45  1  0.40092141  0.01978452  0.79868830  1
  H  H46  1  0.90092141  0.48021548  0.70131170  1
  H  H47  1  0.59907859  0.98021548  0.20131170  1
  H  H48  1  0.57172960  0.86155891  0.57551652  1
  H  H49  1  0.92827040  0.36155891  0.07551652  1
  H  H50  1  0.42827040  0.13844109  0.42448348  1
  H  H51  1  0.07172960  0.63844109  0.92448348  1
  H  H52  1  0.52572401  0.03611560  0.60136103  1
  H  H53  1  0.97427599  0.53611560  0.10136103  1
  H  H54  1  0.47427599  0.96388440  0.39863897  1
  H  H55  1  0.02572401  0.46388440  0.89863897  1
  H  H56  1  0.69720005  0.99732699  0.55396792  1
  H  H57  1  0.80279995  0.49732699  0.05396792  1
  H  H58  1  0.30279995  0.00267301  0.44603208  1
  H  H59  1  0.19720005  0.50267301  0.94603208  1
  H  H60  1  0.66827009  0.94829774  0.64988302  1
  H  H61  1  0.83172991  0.44829774  0.14988302  1
  H  H62  1  0.33172991  0.05170226  0.35011698  1
  H  H63  1  0.16827009  0.55170226  0.85011698  1
  N  N64  1  0.08247233  0.52376825  0.36011552  1
  N  N65  1  0.41752767  0.02376825  0.86011552  1
  N  N66  1  0.91752767  0.47623175  0.63988448  1
  N  N67  1  0.58247233  0.97623175  0.13988448  1
  N  N68  1  0.61613212  0.96118303  0.59535119  1
  N  N69  1  0.88386788  0.46118303  0.09535119  1
  N  N70  1  0.38386788  0.03881697  0.40464881  1
  N  N71  1  0.11613212  0.53881697  0.90464881  1
  Cl  Cl72  1  0.18913044  0.29102567  0.74489604  1
  Cl  Cl73  1  0.31086956  0.79102567  0.24489604  1
  Cl  Cl74  1  0.81086956  0.70897433  0.25510396  1
  Cl  Cl75  1  0.68913044  0.20897433  0.75510396  1
  O  O76  1  0.31262121  0.71419607  0.79227622  1
  O  O77  1  0.18737879  0.21419607  0.29227622  1
  O  O78  1  0.68737879  0.28580393  0.20772378  1
  O  O79  1  0.81262121  0.78580393  0.70772378  1
  O  O80  1  0.94526982  0.79744862  0.58570852  1
  O  O81  1  0.55473018  0.29744862  0.08570852  1
  O  O82  1  0.05473018  0.20255138  0.41429148  1
  O  O83  1  0.44526982  0.70255138  0.91429148  1
  O  O84  1  0.17217495  0.65326133  0.53041206  1
  O  O85  1  0.32782505  0.15326133  0.03041206  1
  O  O86  1  0.82782505  0.34673867  0.46958794  1
  O  O87  1  0.67217495  0.84673867  0.96958794  1
  O  O88  1  0.54473957  0.30925329  0.47933317  1
  O  O89  1  0.95526043  0.80925329  0.97933317  1
  O  O90  1  0.45526043  0.69074671  0.52066683  1
  O  O91  1  0.04473957  0.19074671  0.02066683  1
  O  O92  1  0.33393975  0.45675486  0.55012530  1
  O  O93  1  0.16606025  0.95675486  0.05012530  1
  O  O94  1  0.66606025  0.54324514  0.44987470  1
  O  O95  1  0.83393975  0.04324514  0.94987470  1
  O  O96  1  0.34497688  0.65872436  0.64739055  1
  O  O97  1  0.15502312  0.15872436  0.14739055  1
  O  O98  1  0.65502312  0.34127564  0.35260945  1
  O  O99  1  0.84497688  0.84127564  0.85260945  1
  O  O100  1  0.08936691  0.74593939  0.70619516  1
  O  O101  1  0.41063309  0.24593939  0.20619516  1
  O  O102  1  0.91063309  0.25406061  0.29380484  1
  O  O103  1  0.58936691  0.75406061  0.79380484  1
  O  O104  1  0.18099856  0.93195553  0.53044922  1
  O  O105  1  0.31900144  0.43195553  0.03044922  1
  O  O106  1  0.81900144  0.06804447  0.46955078  1
  O  O107  1  0.68099856  0.56804447  0.96955078  1
  O  O108  1  0.99607393  0.77921180  0.43824885  1
  O  O109  1  0.50392607  0.27921180  0.93824885  1
  O  O110  1  0.00392607  0.22078820  0.56175115  1
  O  O111  1  0.49607393  0.72078820  0.06175115  1
  O  O112  1  0.38555576  0.19262720  0.58076782  1
  O  O113  1  0.11444424  0.69262720  0.08076782  1
  O  O114  1  0.61444424  0.80737280  0.41923218  1
  O  O115  1  0.88555576  0.30737280  0.91923218  1
  O  O116  1  0.31659202  0.92775799  0.69701115  1
  O  O117  1  0.18340798  0.42775799  0.19701115  1
  O  O118  1  0.68340798  0.07224201  0.30298885  1
  O  O119  1  0.81659202  0.57224201  0.80298885  1
  O  O120  1  0.98441995  0.98974539  0.68589467  1
  O  O121  1  0.51558005  0.48974539  0.18589467  1
  O  O122  1  0.01558005  0.01025461  0.31410533  1
  O  O123  1  0.48441995  0.51025461  0.81410533  1
  O  O124  1  0.57872136  0.39609465  0.62515547  1
  O  O125  1  0.92127864  0.89609465  0.12515547  1
  O  O126  1  0.42127864  0.60390535  0.37484453  1
  O  O127  1  0.07872136  0.10390535  0.87484453  1
