# generated using pymatgen
data_H10C4SN2
_symmetry_space_group_name_H-M   'P 1'
_cell_length_a   8.37758595
_cell_length_b   9.12235176
_cell_length_c   20.43500609
_cell_angle_alpha   87.09208116
_cell_angle_beta   90.00000000
_cell_angle_gamma   90.00000000
_symmetry_Int_Tables_number   1
_chemical_formula_structural   H10C4SN2
_chemical_formula_sum   'H80 C32 S8 N16'
_cell_volume   1559.69938599
_cell_formula_units_Z   8
loop_
 _symmetry_equiv_pos_site_id
 _symmetry_equiv_pos_as_xyz
  1  'x, y, z'
loop_
 _atom_site_type_symbol
 _atom_site_label
 _atom_site_symmetry_multiplicity
 _atom_site_fract_x
 _atom_site_fract_y
 _atom_site_fract_z
 _atom_site_occupancy
  H  H0  1  0.30745702  0.27310938  0.96211906  1
  H  H1  1  0.80745702  0.72689062  0.53788094  1
  H  H2  1  0.69254298  0.72689062  0.03788094  1
  H  H3  1  0.19254298  0.27310938  0.46211906  1
  H  H4  1  0.15778894  0.28536711  0.21176938  1
  H  H5  1  0.65778894  0.71463289  0.28823062  1
  H  H6  1  0.84221106  0.71463289  0.78823062  1
  H  H7  1  0.34221106  0.28536711  0.71176938  1
  H  H8  1  0.30272494  0.71984395  0.04304903  1
  H  H9  1  0.80272494  0.28015605  0.45695097  1
  H  H10  1  0.69727506  0.28015605  0.95695097  1
  H  H11  1  0.19727506  0.71984395  0.54304903  1
  H  H12  1  0.31124848  0.76425173  0.95686408  1
  H  H13  1  0.81124848  0.23574827  0.54313592  1
  H  H14  1  0.68875152  0.23574827  0.04313592  1
  H  H15  1  0.18875152  0.76425173  0.45686408  1
  H  H16  1  0.12489511  0.71774652  0.99529001  1
  H  H17  1  0.62489511  0.28225348  0.50470999  1
  H  H18  1  0.87510489  0.28225348  0.00470999  1
  H  H19  1  0.37510489  0.71774652  0.49529001  1
  H  H20  1  0.24387631  0.46011682  0.88746234  1
  H  H21  1  0.74387631  0.53988318  0.61253766  1
  H  H22  1  0.75612369  0.53988318  0.11253766  1
  H  H23  1  0.25612369  0.46011682  0.38746234  1
  H  H24  1  0.37905669  0.61074376  0.89110788  1
  H  H25  1  0.87905669  0.38925624  0.60889212  1
  H  H26  1  0.62094331  0.38925624  0.10889212  1
  H  H27  1  0.12094331  0.61074376  0.39110788  1
  H  H28  1  0.44287583  0.43367961  0.91854669  1
  H  H29  1  0.94287583  0.56632039  0.58145331  1
  H  H30  1  0.55712417  0.56632039  0.08145331  1
  H  H31  1  0.05712417  0.43367961  0.41854669  1
  H  H32  1  0.09984201  0.16595536  0.06508753  1
  H  H33  1  0.59984201  0.83404464  0.43491247  1
  H  H34  1  0.90015799  0.83404464  0.93491247  1
  H  H35  1  0.40015799  0.16595536  0.56508753  1
  H  H36  1  0.24326656  0.06720117  0.01913538  1
  H  H37  1  0.74326656  0.93279883  0.48086462  1
  H  H38  1  0.75673344  0.93279883  0.98086462  1
  H  H39  1  0.25673344  0.06720117  0.51913538  1
  H  H40  1  0.30175844  0.15360160  0.09182902  1
  H  H41  1  0.80175844  0.84639840  0.40817098  1
  H  H42  1  0.69824156  0.84639840  0.90817098  1
  H  H43  1  0.19824156  0.15360160  0.59182902  1
  H  H44  1  0.38822031  0.03869470  0.37627364  1
  H  H45  1  0.88822031  0.96130530  0.12372636  1
  H  H46  1  0.61177969  0.96130530  0.62372636  1
  H  H47  1  0.11177969  0.03869470  0.87627364  1
  H  H48  1  0.54845296  0.05991519  0.31814052  1
  H  H49  1  0.04845296  0.94008481  0.18185948  1
  H  H50  1  0.45154704  0.94008481  0.68185948  1
  H  H51  1  0.95154704  0.05991519  0.81814052  1
  H  H52  1  0.51581031  0.19717105  0.37603007  1
  H  H53  1  0.01581031  0.80282895  0.12396993  1
  H  H54  1  0.48418969  0.80282895  0.62396993  1
  H  H55  1  0.98418969  0.19717105  0.87603007  1
  H  H56  1  0.35879774  0.38454519  0.23544035  1
  H  H57  1  0.85879774  0.61545481  0.26455965  1
  H  H58  1  0.64120226  0.61545481  0.76455965  1
  H  H59  1  0.14120226  0.38454519  0.73544035  1
  H  H60  1  0.54305278  0.31861235  0.26784552  1
  H  H61  1  0.04305278  0.68138765  0.23215448  1
  H  H62  1  0.45694722  0.68138765  0.73215448  1
  H  H63  1  0.95694722  0.31861235  0.76784552  1
  H  H64  1  0.44898454  0.22446416  0.20386835  1
  H  H65  1  0.94898454  0.77553584  0.29613165  1
  H  H66  1  0.55101546  0.77553584  0.79613165  1
  H  H67  1  0.05101546  0.22446416  0.70386835  1
  H  H68  1  0.87840018  0.29552854  0.29257360  1
  H  H69  1  0.37840018  0.70447146  0.20742640  1
  H  H70  1  0.12159982  0.70447146  0.70742640  1
  H  H71  1  0.62159982  0.29552854  0.79257360  1
  H  H72  1  0.89271681  0.30184771  0.20472771  1
  H  H73  1  0.39271681  0.69815229  0.29527229  1
  H  H74  1  0.10728319  0.69815229  0.79527229  1
  H  H75  1  0.60728319  0.30184771  0.70472771  1
  H  H76  1  0.87876256  0.12987259  0.25056149  1
  H  H77  1  0.37876256  0.87012741  0.24943851  1
  H  H78  1  0.12123744  0.87012741  0.74943851  1
  H  H79  1  0.62123744  0.12987259  0.75056149  1
  C  C80  1  0.23983995  0.43158964  0.02554385  1
  C  C81  1  0.73983995  0.56841036  0.47445615  1
  C  C82  1  0.76016005  0.56841036  0.97445615  1
  C  C83  1  0.26016005  0.43158964  0.52554385  1
  C  C84  1  0.25378818  0.69422658  0.99515328  1
  C  C85  1  0.75378818  0.30577342  0.50484672  1
  C  C86  1  0.74621182  0.30577342  0.00484672  1
  C  C87  1  0.24621182  0.69422658  0.49515328  1
  C  C88  1  0.33975854  0.50852008  0.91640597  1
  C  C89  1  0.83975854  0.49147992  0.58359403  1
  C  C90  1  0.66024146  0.49147992  0.08359403  1
  C  C91  1  0.16024146  0.50852008  0.41640597  1
  C  C92  1  0.22442365  0.16316535  0.04833586  1
  C  C93  1  0.72442365  0.83683465  0.45166414  1
  C  C94  1  0.77557635  0.83683465  0.95166414  1
  C  C95  1  0.27557635  0.16316535  0.54833586  1
  C  C96  1  0.18702804  0.17641818  0.30237866  1
  C  C97  1  0.68702804  0.82358182  0.19762134  1
  C  C98  1  0.81297196  0.82358182  0.69762134  1
  C  C99  1  0.31297196  0.17641818  0.80237866  1
  C  C100  1  0.45646098  0.11760856  0.34537515  1
  C  C101  1  0.95646098  0.88239144  0.15462485  1
  C  C102  1  0.54353902  0.88239144  0.65462485  1
  C  C103  1  0.04353902  0.11760856  0.84537515  1
  C  C104  1  0.42747988  0.28473862  0.24847957  1
  C  C105  1  0.92747988  0.71526138  0.25152043  1
  C  C106  1  0.57252012  0.71526138  0.75152043  1
  C  C107  1  0.07252012  0.28473862  0.74847957  1
  C  C108  1  0.92816746  0.24155219  0.25020418  1
  C  C109  1  0.42816746  0.75844781  0.24979582  1
  C  C110  1  0.07183254  0.75844781  0.74979582  1
  C  C111  1  0.57183254  0.24155219  0.75020418  1
  S  S112  1  0.16079225  0.46663557  0.09977726  1
  S  S113  1  0.66079225  0.53336443  0.40022274  1
  S  S114  1  0.83920775  0.53336443  0.90022274  1
  S  S115  1  0.33920775  0.46663557  0.59977726  1
  S  S116  1  0.09278218  0.08367773  0.36556686  1
  S  S117  1  0.59278218  0.91632227  0.13443314  1
  S  S118  1  0.90721782  0.91632227  0.63443314  1
  S  S119  1  0.40721782  0.08367773  0.86556686  1
  N  N120  1  0.28453702  0.54148925  0.98166630  1
  N  N121  1  0.78453702  0.45851075  0.51833370  1
  N  N122  1  0.71546298  0.45851075  0.01833370  1
  N  N123  1  0.21546298  0.54148925  0.48166630  1
  N  N124  1  0.26168186  0.29246582  0.00705607  1
  N  N125  1  0.76168186  0.70753418  0.49294393  1
  N  N126  1  0.73831814  0.70753418  0.99294393  1
  N  N127  1  0.23831814  0.29246582  0.50705607  1
  N  N128  1  0.34847515  0.19349032  0.29933459  1
  N  N129  1  0.84847515  0.80650968  0.20066541  1
  N  N130  1  0.65152485  0.80650968  0.70066541  1
  N  N131  1  0.15152485  0.19349032  0.79933459  1
  N  N132  1  0.10147090  0.24002506  0.25220290  1
  N  N133  1  0.60147090  0.75997494  0.24779710  1
  N  N134  1  0.89852910  0.75997494  0.74779710  1
  N  N135  1  0.39852910  0.24002506  0.75220290  1
