# generated using pymatgen
data_Li2MnSnS4
_symmetry_space_group_name_H-M   'P 1'
_cell_length_a   6.45386792
_cell_length_b   8.07961384
_cell_length_c   13.81110628
_cell_angle_alpha   90.00000000
_cell_angle_beta   90.00000000
_cell_angle_gamma   90.00000000
_symmetry_Int_Tables_number   1
_chemical_formula_structural   Li2MnSnS4
_chemical_formula_sum   'Li8 Mn4 Sn4 S16'
_cell_volume   720.17683015
_cell_formula_units_Z   4
loop_
 _symmetry_equiv_pos_site_id
 _symmetry_equiv_pos_as_xyz
  1  'x, y, z'
loop_
 _atom_site_type_symbol
 _atom_site_label
 _atom_site_symmetry_multiplicity
 _atom_site_fract_x
 _atom_site_fract_y
 _atom_site_fract_z
 _atom_site_occupancy
  Li  Li0  1  0.64568175  0.50042726  0.66476561  1
  Li  Li1  1  0.14568175  0.49957274  0.33523439  1
  Li  Li2  1  0.14568175  0.00042726  0.83523439  1
  Li  Li3  1  0.64568175  0.99957274  0.16476561  1
  Li  Li4  1  0.64339008  0.25512406  0.42047455  1
  Li  Li5  1  0.14339008  0.74487594  0.57952545  1
  Li  Li6  1  0.14339008  0.75512406  0.07952545  1
  Li  Li7  1  0.64339008  0.24487594  0.92047455  1
  Mn  Mn8  1  0.13404411  0.49359417  0.83415622  1
  Mn  Mn9  1  0.63404411  0.50640583  0.16584378  1
  Mn  Mn10  1  0.63404411  0.99359417  0.66584378  1
  Mn  Mn11  1  0.13404411  0.00640583  0.33415622  1
  Sn  Sn12  1  0.13517604  0.24410785  0.58636633  1
  Sn  Sn13  1  0.63517604  0.75589215  0.41363367  1
  Sn  Sn14  1  0.63517604  0.74410785  0.91363367  1
  Sn  Sn15  1  0.13517604  0.25589215  0.08636633  1
  S  S16  1  0.25741043  0.24829522  0.41991974  1
  S  S17  1  0.75741043  0.75170478  0.58008026  1
  S  S18  1  0.75741043  0.74829522  0.08008026  1
  S  S19  1  0.25741043  0.25170478  0.91991974  1
  S  S20  1  0.75739640  0.24267319  0.58988621  1
  S  S21  1  0.25739640  0.75732681  0.41011379  1
  S  S22  1  0.25739640  0.74267319  0.91011379  1
  S  S23  1  0.75739640  0.25732681  0.08988621  1
  S  S24  1  0.26133903  0.99721473  0.66673293  1
  S  S25  1  0.76133903  0.00278527  0.33326707  1
  S  S26  1  0.76133903  0.49721473  0.83326707  1
  S  S27  1  0.26133903  0.50278527  0.16673293  1
  S  S28  1  0.25762216  0.49163541  0.66915753  1
  S  S29  1  0.75762216  0.50836459  0.33084247  1
  S  S30  1  0.75762216  0.99163541  0.83084247  1
  S  S31  1  0.25762216  0.00836459  0.16915753  1
