# generated using pymatgen
data_CdCu(SeO3)2
_symmetry_space_group_name_H-M   'P 1'
_cell_length_a   7.35969182
_cell_length_b   7.62502278
_cell_length_c   10.54723075
_cell_angle_alpha   90.00000000
_cell_angle_beta   90.00000000
_cell_angle_gamma   94.40049353
_symmetry_Int_Tables_number   1
_chemical_formula_structural   CdCu(SeO3)2
_chemical_formula_sum   'Cd4 Cu4 Se8 O24'
_cell_volume   590.14274262
_cell_formula_units_Z   4
loop_
 _symmetry_equiv_pos_site_id
 _symmetry_equiv_pos_as_xyz
  1  'x, y, z'
loop_
 _atom_site_type_symbol
 _atom_site_label
 _atom_site_symmetry_multiplicity
 _atom_site_fract_x
 _atom_site_fract_y
 _atom_site_fract_z
 _atom_site_occupancy
  Cd  Cd0  1  0.48642940  0.26053799  0.04976784  1
  Cd  Cd1  1  0.01357060  0.73946201  0.54976784  1
  Cd  Cd2  1  0.51357060  0.73946201  0.95023216  1
  Cd  Cd3  1  0.98642940  0.26053799  0.45023216  1
  Cu  Cu4  1  0.02297655  0.31647874  0.08220881  1
  Cu  Cu5  1  0.47702345  0.68352126  0.58220881  1
  Cu  Cu6  1  0.97702345  0.68352126  0.91779119  1
  Cu  Cu7  1  0.52297655  0.31647874  0.41779119  1
  Se  Se8  1  0.80342727  0.05375632  0.89204090  1
  Se  Se9  1  0.69657273  0.94624368  0.39204090  1
  Se  Se10  1  0.19657273  0.94624368  0.10795910  1
  Se  Se11  1  0.30342727  0.05375632  0.60795910  1
  Se  Se12  1  0.74648013  0.56854423  0.22079373  1
  Se  Se13  1  0.75351987  0.43145577  0.72079373  1
  Se  Se14  1  0.25351987  0.43145577  0.77920627  1
  Se  Se15  1  0.24648013  0.56854423  0.27920627  1
  O  O16  1  0.83085291  0.86707309  0.98616676  1
  O  O17  1  0.66914709  0.13292691  0.48616676  1
  O  O18  1  0.16914709  0.13292691  0.01383324  1
  O  O19  1  0.33085291  0.86707309  0.51383324  1
  O  O20  1  0.57525507  0.01344886  0.86154690  1
  O  O21  1  0.92474493  0.98655114  0.36154690  1
  O  O22  1  0.42474493  0.98655114  0.13845310  1
  O  O23  1  0.07525507  0.01344886  0.63845310  1
  O  O24  1  0.78781778  0.21255742  0.01143023  1
  O  O25  1  0.71218222  0.78744258  0.51143023  1
  O  O26  1  0.21218222  0.78744258  0.98856977  1
  O  O27  1  0.28781778  0.21255742  0.48856977  1
  O  O28  1  0.92872487  0.54295507  0.11967845  1
  O  O29  1  0.57127513  0.45704493  0.61967845  1
  O  O30  1  0.07127513  0.45704493  0.88032155  1
  O  O31  1  0.42872487  0.54295507  0.38032155  1
  O  O32  1  0.72121813  0.36000477  0.28961633  1
  O  O33  1  0.77878187  0.63999523  0.78961633  1
  O  O34  1  0.27878187  0.63999523  0.71038367  1
  O  O35  1  0.22121813  0.36000477  0.21038367  1
  O  O36  1  0.56745806  0.54759843  0.11339909  1
  O  O37  1  0.93254194  0.45240157  0.61339909  1
  O  O38  1  0.43254194  0.45240157  0.88660091  1
  O  O39  1  0.06745806  0.54759843  0.38660091  1
