# generated using pymatgen
data_NdV2IO9
_symmetry_space_group_name_H-M   'P 1'
_cell_length_a   7.10460317
_cell_length_b   7.31132315
_cell_length_c   14.69715304
_cell_angle_alpha   90.00000000
_cell_angle_beta   90.00000000
_cell_angle_gamma   90.00000000
_symmetry_Int_Tables_number   1
_chemical_formula_structural   NdV2IO9
_chemical_formula_sum   'Nd4 V8 I4 O36'
_cell_volume   763.42964691
_cell_formula_units_Z   4
loop_
 _symmetry_equiv_pos_site_id
 _symmetry_equiv_pos_as_xyz
  1  'x, y, z'
loop_
 _atom_site_type_symbol
 _atom_site_label
 _atom_site_symmetry_multiplicity
 _atom_site_fract_x
 _atom_site_fract_y
 _atom_site_fract_z
 _atom_site_occupancy
  Nd  Nd0  1  0.14900098  0.25000000  0.54835552  1
  Nd  Nd1  1  0.85099902  0.75000000  0.45164448  1
  Nd  Nd2  1  0.14900098  0.75000000  0.95164448  1
  Nd  Nd3  1  0.85099902  0.25000000  0.04835552  1
  V  V4  1  0.53739455  0.50000000  0.25000000  1
  V  V5  1  0.46260545  0.00000000  0.75000000  1
  V  V6  1  0.46260545  0.50000000  0.75000000  1
  V  V7  1  0.53739455  -0.00000000  0.25000000  1
  V  V8  1  0.18199944  0.25000000  0.27155018  1
  V  V9  1  0.81800056  0.75000000  0.72844982  1
  V  V10  1  0.18199944  0.75000000  0.22844982  1
  V  V11  1  0.81800056  0.25000000  0.77155018  1
  I  I12  1  0.70167174  0.25000000  0.44459847  1
  I  I13  1  0.29832826  0.75000000  0.55540153  1
  I  I14  1  0.70167174  0.75000000  0.05540153  1
  I  I15  1  0.29832826  0.25000000  0.94459847  1
  O  O16  1  0.82685834  0.42994173  0.50953086  1
  O  O17  1  0.17314166  0.92994173  0.49046914  1
  O  O18  1  0.82685834  0.57005827  0.99046914  1
  O  O19  1  0.17314166  0.07005827  0.00953086  1
  O  O20  1  0.17314166  0.57005827  0.49046914  1
  O  O21  1  0.82685834  0.07005827  0.50953086  1
  O  O22  1  0.17314166  0.42994173  0.00953086  1
  O  O23  1  0.82685834  0.92994173  0.99046914  1
  O  O24  1  0.47379141  0.25000000  0.49987924  1
  O  O25  1  0.52620859  0.75000000  0.50012076  1
  O  O26  1  0.47379141  0.75000000  0.00012076  1
  O  O27  1  0.52620859  0.25000000  0.99987924  1
  O  O28  1  0.67187339  0.54566681  0.34233211  1
  O  O29  1  0.32812661  0.04566681  0.65766789  1
  O  O30  1  0.67187339  0.45433319  0.15766789  1
  O  O31  1  0.32812661  0.95433319  0.84233211  1
  O  O32  1  0.32812661  0.45433319  0.65766789  1
  O  O33  1  0.67187339  0.95433319  0.34233211  1
  O  O34  1  0.32812661  0.54566681  0.84233211  1
  O  O35  1  0.67187339  0.04566681  0.15766789  1
  O  O36  1  0.47030246  0.75000000  0.21982991  1
  O  O37  1  0.52969754  0.25000000  0.78017009  1
  O  O38  1  0.47030246  0.25000000  0.28017009  1
  O  O39  1  0.52969754  0.75000000  0.71982991  1
  O  O40  1  0.26190829  0.50000000  0.25000000  1
  O  O41  1  0.73809171  -0.00000000  0.75000000  1
  O  O42  1  0.73809171  0.50000000  0.75000000  1
  O  O43  1  0.26190829  0.00000000  0.25000000  1
  O  O44  1  0.01234722  0.25000000  0.19227977  1
  O  O45  1  0.98765278  0.75000000  0.80772023  1
  O  O46  1  0.01234722  0.75000000  0.30772023  1
  O  O47  1  0.98765278  0.25000000  0.69227977  1
  O  O48  1  0.08335188  0.25000000  0.37571051  1
  O  O49  1  0.91664812  0.75000000  0.62428949  1
  O  O50  1  0.08335188  0.75000000  0.12428949  1
  O  O51  1  0.91664812  0.25000000  0.87571051  1
