# generated using pymatgen
data_LaB5H5NO14
_symmetry_space_group_name_H-M   'P 1'
_cell_length_a   6.56294170
_cell_length_b   10.82231676
_cell_length_c   15.63704072
_cell_angle_alpha   90.00000000
_cell_angle_beta   90.00000000
_cell_angle_gamma   90.43951011
_symmetry_Int_Tables_number   1
_chemical_formula_structural   LaB5H5NO14
_chemical_formula_sum   'La4 B20 H20 N4 O56'
_cell_volume   1110.60743607
_cell_formula_units_Z   4
loop_
 _symmetry_equiv_pos_site_id
 _symmetry_equiv_pos_as_xyz
  1  'x, y, z'
loop_
 _atom_site_type_symbol
 _atom_site_label
 _atom_site_symmetry_multiplicity
 _atom_site_fract_x
 _atom_site_fract_y
 _atom_site_fract_z
 _atom_site_occupancy
  La  La0  1  0.86159763  0.65557615  0.30208471  1
  La  La1  1  0.36159763  0.15557615  0.19791529  1
  La  La2  1  0.13840237  0.34442385  0.69791529  1
  La  La3  1  0.63840237  0.84442385  0.80208471  1
  B  B4  1  0.74526796  0.91252213  0.03755609  1
  B  B5  1  0.24526796  0.41252213  0.46244391  1
  B  B6  1  0.25473204  0.08747787  0.96244391  1
  B  B7  1  0.75473204  0.58747787  0.53755609  1
  B  B8  1  0.52269603  0.87529685  0.16240371  1
  B  B9  1  0.02269603  0.37529685  0.33759629  1
  B  B10  1  0.47730397  0.12470315  0.83759629  1
  B  B11  1  0.97730397  0.62470315  0.66240371  1
  B  B12  1  0.85897622  0.97460289  0.18158830  1
  B  B13  1  0.35897622  0.47460289  0.31841170  1
  B  B14  1  0.14102378  0.02539711  0.81841170  1
  B  B15  1  0.64102378  0.52539711  0.68158830  1
  B  B16  1  0.15923109  0.83627263  0.20729728  1
  B  B17  1  0.65923109  0.33627263  0.29270272  1
  B  B18  1  0.84076891  0.16372737  0.79270272  1
  B  B19  1  0.34076891  0.66372737  0.70729728  1
  B  B20  1  0.41428889  0.68337124  0.24158294  1
  B  B21  1  0.91428889  0.18337124  0.25841706  1
  B  B22  1  0.58571111  0.31662876  0.75841706  1
  B  B23  1  0.08571111  0.81662876  0.74158294  1
  H  H24  1  0.91292107  0.95057751  0.93741244  1
  H  H25  1  0.41292107  0.45057751  0.56258756  1
  H  H26  1  0.08707893  0.04942249  0.06258756  1
  H  H27  1  0.58707893  0.54942249  0.43741244  1
  H  H28  1  0.63382884  0.90470034  0.32904119  1
  H  H29  1  0.13382884  0.40470034  0.17095881  1
  H  H30  1  0.36617116  0.09529966  0.67095881  1
  H  H31  1  0.86617116  0.59529966  0.82904119  1
  H  H32  1  0.68226182  0.86995541  0.42606451  1
  H  H33  1  0.18226182  0.36995541  0.07393549  1
  H  H34  1  0.31773818  0.13004459  0.57393549  1
  H  H35  1  0.81773818  0.63004459  0.92606451  1
  H  H36  1  0.06129749  0.70692700  0.48267878  1
  H  H37  1  0.56129749  0.20692700  0.01732122  1
  H  H38  1  0.93870251  0.29307300  0.51732122  1
  H  H39  1  0.43870251  0.79307300  0.98267878  1
  H  H40  1  0.22571682  0.77683405  0.42550691  1
  H  H41  1  0.72571682  0.27683405  0.07449309  1
  H  H42  1  0.77428318  0.22316595  0.57449309  1
  H  H43  1  0.27428318  0.72316595  0.92550691  1
  N  N44  1  0.87955993  0.60073425  0.07972493  1
  N  N45  1  0.37955993  0.10073425  0.42027507  1
  N  N46  1  0.12044007  0.39926575  0.92027507  1
  N  N47  1  0.62044007  0.89926575  0.57972493  1
  O  O48  1  0.78097500  0.90509351  0.95055477  1
  O  O49  1  0.28097500  0.40509351  0.54944523  1
  O  O50  1  0.21902500  0.09490649  0.04944523  1
  O  O51  1  0.71902500  0.59490649  0.45055477  1
  O  O52  1  0.56789536  0.86402550  0.07026078  1
  O  O53  1  0.06789536  0.36402550  0.42973922  1
  O  O54  1  0.43210464  0.13597450  0.92973922  1
  O  O55  1  0.93210464  0.63597450  0.57026078  1
  O  O56  1  0.88701233  0.97202450  0.08806047  1
  O  O57  1  0.38701233  0.47202450  0.41193953  1
  O  O58  1  0.11298767  0.02797550  0.91193953  1
  O  O59  1  0.61298767  0.52797550  0.58806047  1
  O  O60  1  0.64321545  0.97427635  0.20299584  1
  O  O61  1  0.14321545  0.47427635  0.29700416  1
  O  O62  1  0.35678455  0.02572365  0.79700416  1
  O  O63  1  0.85678455  0.52572365  0.70299584  1
  O  O64  1  0.56213586  0.75350864  0.20388598  1
  O  O65  1  0.06213586  0.25350864  0.29611402  1
  O  O66  1  0.43786414  0.24649136  0.79611402  1
  O  O67  1  0.93786414  0.74649136  0.70388598  1
  O  O68  1  0.95900717  0.86235934  0.21983561  1
  O  O69  1  0.45900717  0.36235934  0.28016439  1
  O  O70  1  0.04099283  0.13764066  0.78016439  1
  O  O71  1  0.54099283  0.63764066  0.71983561  1
  O  O72  1  0.30534744  0.91249343  0.17444703  1
  O  O73  1  0.80534744  0.41249343  0.32555297  1
  O  O74  1  0.69465256  0.08750657  0.82555297  1
  O  O75  1  0.19465256  0.58750657  0.67444703  1
  O  O76  1  0.21161706  0.71935853  0.23957254  1
  O  O77  1  0.71161706  0.21935853  0.26042746  1
  O  O78  1  0.78838294  0.28064147  0.76042746  1
  O  O79  1  0.28838294  0.78064147  0.73957254  1
  O  O80  1  0.47602571  0.58182758  0.28518229  1
  O  O81  1  0.97602571  0.08182758  0.21481771  1
  O  O82  1  0.52397429  0.41817242  0.71481771  1
  O  O83  1  0.02397429  0.91817242  0.78518229  1
  O  O84  1  0.86320534  0.55426414  0.15601954  1
  O  O85  1  0.36320534  0.05426414  0.34398046  1
  O  O86  1  0.13679466  0.44573586  0.84398046  1
  O  O87  1  0.63679466  0.94573586  0.65601954  1
  O  O88  1  0.99560075  0.69094990  0.06659624  1
  O  O89  1  0.49560075  0.19094990  0.43340376  1
  O  O90  1  0.00439925  0.30905010  0.93340376  1
  O  O91  1  0.50439925  0.80905010  0.56659624  1
  O  O92  1  0.77687851  0.55125797  0.02067088  1
  O  O93  1  0.27687851  0.05125797  0.47932912  1
  O  O94  1  0.22312149  0.44874203  0.97932912  1
  O  O95  1  0.72312149  0.94874203  0.52067088  1
  O  O96  1  0.10178976  0.72642907  0.42292234  1
  O  O97  1  0.60178976  0.22642907  0.07707766  1
  O  O98  1  0.89821024  0.27357093  0.57707766  1
  O  O99  1  0.39821024  0.77357093  0.92292234  1
  O  O100  1  0.66255627  0.83495900  0.36730452  1
  O  O101  1  0.16255627  0.33495900  0.13269548  1
  O  O102  1  0.33744373  0.16504100  0.63269548  1
  O  O103  1  0.83744373  0.66504100  0.86730452  1
