# generated using pymatgen
data_PrH10N(ClO4)2
_symmetry_space_group_name_H-M   'P 1'
_cell_length_a   6.60356889
_cell_length_b   12.15535671
_cell_length_c   12.72304877
_cell_angle_alpha   92.99220127
_cell_angle_beta   90.00000000
_cell_angle_gamma   90.00000000
_symmetry_Int_Tables_number   1
_chemical_formula_structural   PrH10N(ClO4)2
_chemical_formula_sum   'Pr4 H40 N4 Cl8 O32'
_cell_volume   1019.87069527
_cell_formula_units_Z   4
loop_
 _symmetry_equiv_pos_site_id
 _symmetry_equiv_pos_as_xyz
  1  'x, y, z'
loop_
 _atom_site_type_symbol
 _atom_site_label
 _atom_site_symmetry_multiplicity
 _atom_site_fract_x
 _atom_site_fract_y
 _atom_site_fract_z
 _atom_site_occupancy
  Pr  Pr0  1  0.28169696  0.50000000  0.25000000  1
  Pr  Pr1  1  0.71830304  0.50000000  0.75000000  1
  Pr  Pr2  1  0.74362862  0.00000000  0.25000000  1
  Pr  Pr3  1  0.25637138  0.00000000  0.75000000  1
  H  H4  1  0.90054680  0.45386917  0.39721736  1
  H  H5  1  0.90054680  0.54613083  0.10278264  1
  H  H6  1  0.09945320  0.54613083  0.60278264  1
  H  H7  1  0.09945320  0.45386917  0.89721736  1
  H  H8  1  0.84565582  0.41207234  0.28225324  1
  H  H9  1  0.84565582  0.58792766  0.21774676  1
  H  H10  1  0.15434418  0.58792766  0.71774676  1
  H  H11  1  0.15434418  0.41207234  0.78225324  1
  H  H12  1  0.41591246  0.28541333  0.37349867  1
  H  H13  1  0.41591246  0.71458667  0.12650133  1
  H  H14  1  0.58408754  0.71458667  0.62650133  1
  H  H15  1  0.58408754  0.28541333  0.87349867  1
  H  H16  1  0.40052539  0.37985160  0.46258774  1
  H  H17  1  0.40052539  0.62014840  0.03741226  1
  H  H18  1  0.59947461  0.62014840  0.53741226  1
  H  H19  1  0.59947461  0.37985160  0.96258774  1
  H  H20  1  0.63555827  0.78197352  0.36201531  1
  H  H21  1  0.63555827  0.21802648  0.13798469  1
  H  H22  1  0.36444173  0.21802648  0.63798469  1
  H  H23  1  0.36444173  0.78197352  0.86201531  1
  H  H24  1  0.59499617  0.87804854  0.44930364  1
  H  H25  1  0.59499617  0.12195146  0.05069636  1
  H  H26  1  0.40500383  0.12195146  0.55069636  1
  H  H27  1  0.40500383  0.87804854  0.94930364  1
  H  H28  1  0.15130550  0.01161285  0.37209704  1
  H  H29  1  0.15130550  0.98838715  0.12790296  1
  H  H30  1  0.84869450  0.98838715  0.62790296  1
  H  H31  1  0.84869450  0.01161285  0.87209704  1
  H  H32  1  0.05581044  0.89810174  0.40701459  1
  H  H33  1  0.05581044  0.10189826  0.09298541  1
  H  H34  1  0.94418956  0.10189826  0.59298541  1
  H  H35  1  0.94418956  0.89810174  0.90701459  1
  H  H36  1  0.00021140  0.21920226  0.26910286  1
  H  H37  1  0.00021140  0.78079774  0.23089714  1
  H  H38  1  0.99978860  0.78079774  0.73089714  1
  H  H39  1  0.99978860  0.21920226  0.76910286  1
  H  H40  1  0.89156833  0.21953687  0.37949276  1
  H  H41  1  0.89156833  0.78046313  0.12050724  1
  H  H42  1  0.10843167  0.78046313  0.62050724  1
  H  H43  1  0.10843167  0.21953687  0.87949276  1
  N  N44  1  0.14955829  0.68641841  0.41257305  1
  N  N45  1  0.14955829  0.31358159  0.08742695  1
  N  N46  1  0.85044171  0.31358159  0.58742695  1
  N  N47  1  0.85044171  0.68641841  0.91257305  1
  Cl  Cl48  1  0.62515394  0.60911286  0.35221013  1
  Cl  Cl49  1  0.62515394  0.39088714  0.14778987  1
  Cl  Cl50  1  0.37484606  0.39088714  0.64778987  1
  Cl  Cl51  1  0.37484606  0.60911286  0.85221013  1
  Cl  Cl52  1  0.43818198  0.10678742  0.38234395  1
  Cl  Cl53  1  0.43818198  0.89321258  0.11765605  1
  Cl  Cl54  1  0.56181802  0.89321258  0.61765605  1
  Cl  Cl55  1  0.56181802  0.10678742  0.88234395  1
  O  O56  1  0.18101782  0.59049731  0.44419545  1
  O  O57  1  0.18101782  0.40950269  0.05580455  1
  O  O58  1  0.81898218  0.40950269  0.55580455  1
  O  O59  1  0.81898218  0.59049731  0.94419545  1
  O  O60  1  0.10205297  0.76616995  0.47413086  1
  O  O61  1  0.10205297  0.23383005  0.02586914  1
  O  O62  1  0.89794703  0.23383005  0.52586914  1
  O  O63  1  0.89794703  0.76616995  0.97413086  1
  O  O64  1  0.17009654  0.69977293  0.31415430  1
  O  O65  1  0.17009654  0.30022707  0.18584570  1
  O  O66  1  0.82990346  0.30022707  0.68584570  1
  O  O67  1  0.82990346  0.69977293  0.81415430  1
  O  O68  1  0.96061486  0.42353717  0.33147993  1
  O  O69  1  0.96061486  0.57646283  0.16852007  1
  O  O70  1  0.03938514  0.57646283  0.66852007  1
  O  O71  1  0.03938514  0.42353717  0.83147993  1
  O  O72  1  0.40416743  0.36623513  0.38545721  1
  O  O73  1  0.40416743  0.63376487  0.11454279  1
  O  O74  1  0.59583257  0.63376487  0.61454279  1
  O  O75  1  0.59583257  0.36623513  0.88545721  1
  O  O76  1  0.63036025  0.86317523  0.37444580  1
  O  O77  1  0.63036025  0.13682477  0.12555420  1
  O  O78  1  0.36963975  0.13682477  0.62555420  1
  O  O79  1  0.36963975  0.86317523  0.87444580  1
  O  O80  1  0.02744759  0.96633986  0.37056465  1
  O  O81  1  0.02744759  0.03366014  0.12943535  1
  O  O82  1  0.97255241  0.03366014  0.62943535  1
  O  O83  1  0.97255241  0.96633986  0.87056465  1
  O  O84  1  0.89932343  0.18007390  0.30984985  1
  O  O85  1  0.89932343  0.81992610  0.19015015  1
  O  O86  1  0.10067657  0.81992610  0.69015015  1
  O  O87  1  0.10067657  0.18007390  0.80984985  1
