# generated using pymatgen
data_Cs4AsH5Se3O16
_symmetry_space_group_name_H-M   'P 1'
_cell_length_a   6.21428015
_cell_length_b   12.19487182
_cell_length_c   13.93103852
_cell_angle_alpha   90.00000000
_cell_angle_beta   90.00000000
_cell_angle_gamma   94.70137860
_symmetry_Int_Tables_number   1
_chemical_formula_structural   Cs4AsH5Se3O16
_chemical_formula_sum   'Cs8 As2 H10 Se6 O32'
_cell_volume   1052.17475180
_cell_formula_units_Z   2
loop_
 _symmetry_equiv_pos_site_id
 _symmetry_equiv_pos_as_xyz
  1  'x, y, z'
loop_
 _atom_site_type_symbol
 _atom_site_label
 _atom_site_symmetry_multiplicity
 _atom_site_fract_x
 _atom_site_fract_y
 _atom_site_fract_z
 _atom_site_occupancy
  Cs  Cs0  1  0.30465570  0.09866943  0.67126300  1
  Cs  Cs1  1  0.69534430  0.90133057  0.17126300  1
  Cs  Cs2  1  0.19943279  0.91431231  0.94746860  1
  Cs  Cs3  1  0.80056721  0.08568769  0.44746860  1
  Cs  Cs4  1  0.26674509  0.35521520  0.92404578  1
  Cs  Cs5  1  0.73325491  0.64478480  0.42404578  1
  Cs  Cs6  1  0.77781210  0.35508246  0.18873939  1
  Cs  Cs7  1  0.22218790  0.64491754  0.68873939  1
  As  As8  1  0.76027255  0.63394254  0.94281196  1
  As  As9  1  0.23972745  0.36605746  0.44281196  1
  H  H10  1  0.85589421  0.18222400  0.77226305  1
  H  H11  1  0.14410579  0.81777600  0.27226305  1
  H  H12  1  0.63661204  0.81486820  0.84890689  1
  H  H13  1  0.36338796  0.18513180  0.34890689  1
  H  H14  1  0.63740389  0.58316292  0.09695945  1
  H  H15  1  0.36259611  0.41683708  0.59695945  1
  H  H16  1  0.11411929  0.61076324  0.98410872  1
  H  H17  1  0.88588071  0.38923676  0.48410872  1
  H  H18  1  0.72707848  0.51698922  0.80919576  1
  H  H19  1  0.27292152  0.48301078  0.30919576  1
  Se  Se20  1  0.73143955  0.37057175  0.67138997  1
  Se  Se21  1  0.26856045  0.62942825  0.17138997  1
  Se  Se22  1  0.72227619  0.14451032  0.92658234  1
  Se  Se23  1  0.27772381  0.85548968  0.42658234  1
  Se  Se24  1  0.77769721  0.85820615  0.69516988  1
  Se  Se25  1  0.22230279  0.14179385  0.19516988  1
  O  O26  1  0.86618021  0.43977219  0.75981918  1
  O  O27  1  0.13381979  0.56022781  0.25981918  1
  O  O28  1  0.78199167  0.43620436  0.56700122  1
  O  O29  1  0.21800833  0.56379564  0.06700122  1
  O  O30  1  0.80402067  0.24120825  0.66803853  1
  O  O31  1  0.19597933  0.75879175  0.16803853  1
  O  O32  1  0.46341351  0.37112832  0.69061664  1
  O  O33  1  0.53658649  0.62887168  0.19061664  1
  O  O34  1  0.47877178  0.13269605  0.87677991  1
  O  O35  1  0.52122822  0.86730395  0.37677991  1
  O  O36  1  0.77499923  0.26489497  0.98022648  1
  O  O37  1  0.22500077  0.73510503  0.48022648  1
  O  O38  1  0.77811810  0.03788125  0.99150472  1
  O  O39  1  0.22188190  0.96211875  0.49150472  1
  O  O40  1  0.91316989  0.14238473  0.83002124  1
  O  O41  1  0.08683011  0.85761527  0.33002124  1
  O  O42  1  0.01704707  0.86159464  0.74799908  1
  O  O43  1  0.98295293  0.13840536  0.24799908  1
  O  O44  1  0.72605636  0.74607358  0.62942165  1
  O  O45  1  0.27394364  0.25392642  0.12942165  1
  O  O46  1  0.73141370  0.97365766  0.63983209  1
  O  O47  1  0.26858630  0.02634234  0.13983209  1
  O  O48  1  0.57817533  0.85005858  0.78859012  1
  O  O49  1  0.42182467  0.14994142  0.28859012  1
  O  O50  1  0.68005589  0.76120455  0.95513328  1
  O  O51  1  0.31994411  0.23879545  0.45513328  1
  O  O52  1  0.71258783  0.54585680  0.04109938  1
  O  O53  1  0.28741217  0.45414320  0.54109938  1
  O  O54  1  0.03791962  0.63304380  0.92064246  1
  O  O55  1  0.96208038  0.36695620  0.42064246  1
  O  O56  1  0.63129120  0.57171672  0.84360921  1
  O  O57  1  0.36870880  0.42828328  0.34360921  1
