# generated using pymatgen
data_ErAgS2
_symmetry_space_group_name_H-M   'P 1'
_cell_length_a   7.66075977
_cell_length_b   7.66185578
_cell_length_c   12.20019263
_cell_angle_alpha   90.00000000
_cell_angle_beta   89.90786184
_cell_angle_gamma   90.00000000
_symmetry_Int_Tables_number   1
_chemical_formula_structural   ErAgS2
_chemical_formula_sum   'Er8 Ag8 S16'
_cell_volume   716.09714607
_cell_formula_units_Z   8
loop_
 _symmetry_equiv_pos_site_id
 _symmetry_equiv_pos_as_xyz
  1  'x, y, z'
loop_
 _atom_site_type_symbol
 _atom_site_label
 _atom_site_symmetry_multiplicity
 _atom_site_fract_x
 _atom_site_fract_y
 _atom_site_fract_z
 _atom_site_occupancy
  Er  Er0  1  0.74713044  0.50175186  0.00164346  1
  Er  Er1  1  0.25286956  0.00175186  0.99835654  1
  Er  Er2  1  0.00060393  0.25382152  0.75457006  1
  Er  Er3  1  0.99939607  0.75382152  0.24542994  1
  Er  Er4  1  0.49781997  0.74822391  0.74629847  1
  Er  Er5  1  0.50218003  0.24822391  0.25370153  1
  Er  Er6  1  0.75300292  0.00179607  0.50318872  1
  Er  Er7  1  0.24699708  0.50179607  0.49681128  1
  Ag  Ag8  1  0.50256835  0.25036910  0.78028215  1
  Ag  Ag9  1  0.49743165  0.75036910  0.21971785  1
  Ag  Ag10  1  0.99736908  0.75428017  0.70423165  1
  Ag  Ag11  1  0.00263092  0.25428017  0.29576835  1
  Ag  Ag12  1  0.75185722  0.00365576  0.01856930  1
  Ag  Ag13  1  0.24814278  0.50365576  0.98143070  1
  Ag  Ag14  1  0.74471794  0.50135717  0.51543949  1
  Ag  Ag15  1  0.25528206  0.00135717  0.48456051  1
  S  S16  1  0.01749967  0.77014330  0.46875006  1
  S  S17  1  0.98250033  0.27014330  0.53124994  1
  S  S18  1  0.48694507  0.24001869  0.47925545  1
  S  S19  1  0.51305493  0.74001869  0.52074455  1
  S  S20  1  0.72883793  0.52347705  0.22782705  1
  S  S21  1  0.27116207  0.02347705  0.77217295  1
  S  S22  1  0.72873402  0.48154543  0.77760287  1
  S  S23  1  0.27126598  0.98154543  0.22239713  1
  S  S24  1  0.76882284  0.98185128  0.72955184  1
  S  S25  1  0.23117716  0.48185128  0.27044816  1
  S  S26  1  0.22552489  0.52620437  0.71979147  1
  S  S27  1  0.77447511  0.02620437  0.28020853  1
  S  S28  1  0.02103081  0.27363225  0.97873197  1
  S  S29  1  0.97896919  0.77363225  0.02126803  1
  S  S30  1  0.47839659  0.73087209  0.96973467  1
  S  S31  1  0.52160341  0.23087209  0.03026533  1
