# generated using pymatgen
data_Ag7PS6
_symmetry_space_group_name_H-M   'P 1'
_cell_length_a   10.53102807
_cell_length_b   10.53102807
_cell_length_c   10.53102807
_cell_angle_alpha   90.00000000
_cell_angle_beta   90.00000000
_cell_angle_gamma   90.00000000
_symmetry_Int_Tables_number   1
_chemical_formula_structural   Ag7PS6
_chemical_formula_sum   'Ag28 P4 S24'
_cell_volume   1167.91789037
_cell_formula_units_Z   4
loop_
 _symmetry_equiv_pos_site_id
 _symmetry_equiv_pos_as_xyz
  1  'x, y, z'
loop_
 _atom_site_type_symbol
 _atom_site_label
 _atom_site_symmetry_multiplicity
 _atom_site_fract_x
 _atom_site_fract_y
 _atom_site_fract_z
 _atom_site_occupancy
  Ag  Ag0  1  0.23338320  0.92657798  0.90250331  1
  Ag  Ag1  1  0.09749669  0.73338320  0.57342202  1
  Ag  Ag2  1  0.42657798  0.59749669  0.76661680  1
  Ag  Ag3  1  0.73338320  0.57342202  0.09749669  1
  Ag  Ag4  1  0.59749669  0.76661680  0.42657798  1
  Ag  Ag5  1  0.92657798  0.90250331  0.23338320  1
  Ag  Ag6  1  0.76661680  0.42657798  0.59749669  1
  Ag  Ag7  1  0.90250331  0.23338320  0.92657798  1
  Ag  Ag8  1  0.57342202  0.09749669  0.73338320  1
  Ag  Ag9  1  0.26661680  0.07342202  0.40250331  1
  Ag  Ag10  1  0.40250331  0.26661680  0.07342202  1
  Ag  Ag11  1  0.07342202  0.40250331  0.26661680  1
  Ag  Ag12  1  0.00774183  0.77273498  0.98409593  1
  Ag  Ag13  1  0.01590407  0.50774183  0.72726502  1
  Ag  Ag14  1  0.27273498  0.51590407  0.99225817  1
  Ag  Ag15  1  0.50774183  0.72726502  0.01590407  1
  Ag  Ag16  1  0.51590407  0.99225817  0.27273498  1
  Ag  Ag17  1  0.77273498  0.98409593  0.00774183  1
  Ag  Ag18  1  0.99225817  0.27273498  0.51590407  1
  Ag  Ag19  1  0.98409593  0.00774183  0.77273498  1
  Ag  Ag20  1  0.72726502  0.01590407  0.50774183  1
  Ag  Ag21  1  0.49225817  0.22726502  0.48409593  1
  Ag  Ag22  1  0.48409593  0.49225817  0.22726502  1
  Ag  Ag23  1  0.22726502  0.48409593  0.49225817  1
  Ag  Ag24  1  0.35195827  0.85195827  0.64804173  1
  Ag  Ag25  1  0.85195827  0.64804173  0.35195827  1
  Ag  Ag26  1  0.64804173  0.35195827  0.85195827  1
  Ag  Ag27  1  0.14804173  0.14804173  0.14804173  1
  P  P28  1  0.75138039  0.25138039  0.24861961  1
  P  P29  1  0.25138039  0.24861961  0.75138039  1
  P  P30  1  0.24861961  0.75138039  0.25138039  1
  P  P31  1  0.74861961  0.74861961  0.74861961  1
  S  S32  1  0.86535715  0.36535715  0.13464285  1
  S  S33  1  0.36535715  0.13464285  0.86535715  1
  S  S34  1  0.13464285  0.86535715  0.36535715  1
  S  S35  1  0.63464285  0.63464285  0.63464285  1
  S  S36  1  0.35458705  0.86834260  0.13309158  1
  S  S37  1  0.86690842  0.85458705  0.63165740  1
  S  S38  1  0.36834260  0.36690842  0.64541295  1
  S  S39  1  0.85458705  0.63165740  0.86690842  1
  S  S40  1  0.36690842  0.64541295  0.36834260  1
  S  S41  1  0.86834260  0.13309158  0.35458705  1
  S  S42  1  0.64541295  0.36834260  0.36690842  1
  S  S43  1  0.13309158  0.35458705  0.86834260  1
  S  S44  1  0.63165740  0.86690842  0.85458705  1
  S  S45  1  0.14541295  0.13165740  0.63309158  1
  S  S46  1  0.63309158  0.14541295  0.13165740  1
  S  S47  1  0.13165740  0.63309158  0.14541295  1
  S  S48  1  0.21923044  0.71923044  0.78076956  1
  S  S49  1  0.71923044  0.78076956  0.21923044  1
  S  S50  1  0.78076956  0.21923044  0.71923044  1
  S  S51  1  0.28076956  0.28076956  0.28076956  1
  S  S52  1  0.48533964  0.98533964  0.51466036  1
  S  S53  1  0.98533964  0.51466036  0.48533964  1
  S  S54  1  0.51466036  0.48533964  0.98533964  1
  S  S55  1  0.01466036  0.01466036  0.01466036  1
