# generated using pymatgen
data_SbH12C6(N3Cl2)3
_symmetry_space_group_name_H-M   'P 1'
_cell_length_a   8.36841986
_cell_length_b   11.80953428
_cell_length_c   20.93725094
_cell_angle_alpha   90.00000000
_cell_angle_beta   90.00000000
_cell_angle_gamma   90.00000000
_symmetry_Int_Tables_number   1
_chemical_formula_structural   SbH12C6(N3Cl2)3
_chemical_formula_sum   'Sb4 H48 C24 N36 Cl24'
_cell_volume   2069.16865511
_cell_formula_units_Z   4
loop_
 _symmetry_equiv_pos_site_id
 _symmetry_equiv_pos_as_xyz
  1  'x, y, z'
loop_
 _atom_site_type_symbol
 _atom_site_label
 _atom_site_symmetry_multiplicity
 _atom_site_fract_x
 _atom_site_fract_y
 _atom_site_fract_z
 _atom_site_occupancy
  Sb  Sb0  1  0.44446160  0.69611179  0.08926435  1
  Sb  Sb1  1  0.05553840  0.30388821  0.58926435  1
  Sb  Sb2  1  0.94446160  0.80388821  0.91073565  1
  Sb  Sb3  1  0.55553840  0.19611179  0.41073565  1
  H  H4  1  0.80657885  0.84930182  0.30508205  1
  H  H5  1  0.69342115  0.15069818  0.80508205  1
  H  H6  1  0.30657885  0.65069818  0.69491795  1
  H  H7  1  0.19342115  0.34930182  0.19491795  1
  H  H8  1  0.41491693  0.65439191  0.35087288  1
  H  H9  1  0.08508307  0.34560809  0.85087288  1
  H  H10  1  0.91491693  0.84560809  0.64912712  1
  H  H11  1  0.58508307  0.15439191  0.14912712  1
  H  H12  1  0.30952331  0.83762376  0.29872735  1
  H  H13  1  0.19047669  0.16237624  0.79872735  1
  H  H14  1  0.80952331  0.66237624  0.70127265  1
  H  H15  1  0.69047669  0.33762376  0.20127265  1
  H  H16  1  0.55460337  0.96730033  0.26881175  1
  H  H17  1  0.94539663  0.03269967  0.76881175  1
  H  H18  1  0.05460337  0.53269967  0.73118825  1
  H  H19  1  0.44539663  0.46730033  0.23118825  1
  H  H20  1  0.04195767  0.67260057  0.31600869  1
  H  H21  1  0.45804233  0.32739943  0.81600869  1
  H  H22  1  0.54195767  0.82739943  0.68399131  1
  H  H23  1  0.95804233  0.17260057  0.18399131  1
  H  H24  1  0.21521102  0.37001541  0.38779921  1
  H  H25  1  0.28478898  0.62998459  0.88779921  1
  H  H26  1  0.71521102  0.12998459  0.61220079  1
  H  H27  1  0.78478898  0.87001541  0.11220079  1
  H  H28  1  0.90358598  0.36249980  0.38884655  1
  H  H29  1  0.59641402  0.63750020  0.88884655  1
  H  H30  1  0.40358598  0.13750020  0.61115345  1
  H  H31  1  0.09641402  0.86249980  0.11115345  1
  H  H32  1  0.79090463  0.54800485  0.33947511  1
  H  H33  1  0.70909537  0.45199515  0.83947511  1
  H  H34  1  0.29090463  0.95199515  0.66052489  1
  H  H35  1  0.20909537  0.04800485  0.16052489  1
  H  H36  1  0.31466936  0.52230701  0.54055368  1
  H  H37  1  0.18533064  0.47769299  0.04055368  1
  H  H38  1  0.81466936  0.97769299  0.45944632  1
  H  H39  1  0.68533064  0.02230701  0.95944632  1
  H  H40  1  0.68164248  0.74019481  0.49659772  1
  H  H41  1  0.81835752  0.25980519  0.99659772  1
  H  H42  1  0.18164248  0.75980519  0.50340228  1
  H  H43  1  0.31835752  0.24019481  0.00340228  1
  H  H44  1  0.80720371  0.55246908  0.53888137  1
  H  H45  1  0.69279629  0.44753092  0.03888137  1
  H  H46  1  0.30720371  0.94753092  0.46111863  1
  H  H47  1  0.19279629  0.05246908  0.96111863  1
  H  H48  1  0.57914166  0.41145530  0.56703751  1
  H  H49  1  0.92085834  0.58854470  0.06703751  1
  H  H50  1  0.07914166  0.08854470  0.43296249  1
  H  H51  1  0.42085834  0.91145530  0.93296249  1
  C  C52  1  0.48944395  0.72392396  0.33426356  1
  C  C53  1  0.01055605  0.27607604  0.83426356  1
  C  C54  1  0.98944395  0.77607604  0.66573644  1
  C  C55  1  0.51055605  0.22392396  0.16573644  1
  C  C56  1  0.55680521  0.88433969  0.29092807  1
  C  C57  1  0.94319479  0.11566031  0.79092807  1
  C  C58  1  0.05680521  0.61566031  0.70907193  1
  C  C59  1  0.44319479  0.38433969  0.20907193  1
  C  C60  1  0.13495440  0.43553767  0.37074293  1
  C  C61  1  0.36504560  0.56446233  0.87074293  1
  C  C62  1  0.63495440  0.06446233  0.62925707  1
  C  C63  1  0.86504560  0.93553767  0.12925707  1
  C  C64  1  0.91514190  0.52409358  0.34600984  1
  C  C65  1  0.58485810  0.47590642  0.84600984  1
  C  C66  1  0.41514190  0.97590642  0.65399016  1
  C  C67  1  0.08485810  0.02409358  0.15399016  1
  C  C68  1  0.61508671  0.66602461  0.51203816  1
  C  C69  1  0.88491329  0.33397539  0.01203816  1
  C  C70  1  0.11508671  0.83397539  0.48796184  1
  C  C71  1  0.38491329  0.16602461  0.98796184  1
  C  C72  1  0.56656170  0.49653692  0.54827613  1
  C  C73  1  0.93343830  0.50346308  0.04827613  1
  C  C74  1  0.06656170  0.00346308  0.45172387  1
  C  C75  1  0.43343830  0.99653692  0.95172387  1
  N  N76  1  0.68544675  0.82791021  0.30955424  1
  N  N77  1  0.81455325  0.17208979  0.80955424  1
  N  N78  1  0.18544675  0.67208979  0.69044576  1
  N  N79  1  0.31455325  0.32791021  0.19044576  1
  N  N80  1  0.64675568  0.72706806  0.33688870  1
  N  N81  1  0.85324432  0.27293194  0.83688870  1
  N  N82  1  0.14675568  0.77293194  0.66311130  1
  N  N83  1  0.35324432  0.22706806  0.16311130  1
  N  N84  1  0.43069587  0.81968598  0.30604233  1
  N  N85  1  0.06930413  0.18031402  0.80604233  1
  N  N86  1  0.93069587  0.68031402  0.69395767  1
  N  N87  1  0.56930413  0.31968598  0.19395767  1
  N  N88  1  0.04089438  0.58689649  0.33184560  1
  N  N89  1  0.45910562  0.41310351  0.83184560  1
  N  N90  1  0.54089438  0.91310351  0.66815440  1
  N  N91  1  0.95910562  0.08689649  0.16815440  1
  N  N92  1  0.18032998  0.53379098  0.34686536  1
  N  N93  1  0.31967002  0.46620902  0.84686536  1
  N  N94  1  0.68032998  0.96620902  0.65313464  1
  N  N95  1  0.81967002  0.03379098  0.15313464  1
  N  N96  1  0.97196522  0.42745944  0.37073932  1
  N  N97  1  0.52803478  0.57254056  0.87073932  1
  N  N98  1  0.47196522  0.07254056  0.62926068  1
  N  N99  1  0.02803478  0.92745944  0.12926068  1
  N  N100  1  0.43162915  0.55017139  0.53498551  1
  N  N101  1  0.06837085  0.44982861  0.03498551  1
  N  N102  1  0.93162915  0.94982861  0.46501449  1
  N  N103  1  0.56837085  0.05017139  0.96501449  1
  N  N104  1  0.45804730  0.65653389  0.51232143  1
  N  N105  1  0.04195270  0.34346611  0.01232143  1
  N  N106  1  0.95804730  0.84346611  0.48767857  1
  N  N107  1  0.54195270  0.15653389  0.98767857  1
  N  N108  1  0.68493225  0.56858082  0.53383876  1
  N  N109  1  0.81506775  0.43141918  0.03383876  1
  N  N110  1  0.18493225  0.93141918  0.46616124  1
  N  N111  1  0.31506775  0.06858082  0.96616124  1
  Cl  Cl112  1  0.24120666  0.64121329  0.16875502  1
  Cl  Cl113  1  0.25879334  0.35878671  0.66875502  1
  Cl  Cl114  1  0.74120666  0.85878671  0.83124498  1
  Cl  Cl115  1  0.75879334  0.14121329  0.33124498  1
  Cl  Cl116  1  0.17689452  0.75211590  0.01365382  1
  Cl  Cl117  1  0.32310548  0.24788410  0.51365382  1
  Cl  Cl118  1  0.67689452  0.74788410  0.98634618  1
  Cl  Cl119  1  0.82310548  0.25211590  0.48634618  1
  Cl  Cl120  1  0.66648270  0.64456369  0.16530549  1
  Cl  Cl121  1  0.83351730  0.35543631  0.66530549  1
  Cl  Cl122  1  0.16648270  0.85543631  0.83469451  1
  Cl  Cl123  1  0.33351730  0.14456369  0.33469451  1
  Cl  Cl124  1  0.44285524  0.90307218  0.12857587  1
  Cl  Cl125  1  0.05714476  0.09692782  0.62857587  1
  Cl  Cl126  1  0.94285524  0.59692782  0.87142413  1
  Cl  Cl127  1  0.55714476  0.40307218  0.37142413  1
  Cl  Cl128  1  0.44391716  0.46573808  0.04457157  1
  Cl  Cl129  1  0.05608284  0.53426192  0.54457157  1
  Cl  Cl130  1  0.94391716  0.03426192  0.95542843  1
  Cl  Cl131  1  0.55608284  0.96573808  0.45542843  1
  Cl  Cl132  1  0.05550867  0.83639421  0.30357953  1
  Cl  Cl133  1  0.44449133  0.16360579  0.80357953  1
  Cl  Cl134  1  0.55550867  0.66360579  0.69642047  1
  Cl  Cl135  1  0.94449133  0.33639421  0.19642047  1
