# generated using pymatgen
data_Pr5Mg41
_symmetry_space_group_name_H-M   'P 1'
_cell_length_a   10.48022305
_cell_length_b   11.66140471
_cell_length_c   11.66140471
_cell_angle_alpha   78.35074437
_cell_angle_beta   63.29768788
_cell_angle_gamma   63.29768788
_symmetry_Int_Tables_number   1
_chemical_formula_structural   Pr5Mg41
_chemical_formula_sum   'Pr5 Mg41'
_cell_volume   1137.41436927
_cell_formula_units_Z   1
loop_
 _symmetry_equiv_pos_site_id
 _symmetry_equiv_pos_as_xyz
  1  'x, y, z'
loop_
 _atom_site_type_symbol
 _atom_site_label
 _atom_site_symmetry_multiplicity
 _atom_site_fract_x
 _atom_site_fract_y
 _atom_site_fract_z
 _atom_site_occupancy
  Pr  Pr0  1  -0.00000000  -0.00000000  0.00000000  1
  Pr  Pr1  1  0.57072520  0.66552109  0.19302852  1
  Pr  Pr2  1  0.42927480  0.33447891  0.80697148  1
  Pr  Pr3  1  0.76375372  0.80697148  0.66552109  1
  Pr  Pr4  1  0.23624628  0.19302852  0.33447891  1
  Mg  Mg5  1  0.50000000  -0.00000000  0.00000000  1
  Mg  Mg6  1  -0.00000000  0.50000000  0.00000000  1
  Mg  Mg7  1  0.50000000  0.50000000  0.00000000  1
  Mg  Mg8  1  -0.00000000  -0.00000000  0.50000000  1
  Mg  Mg9  1  0.50000000  -0.00000000  0.50000000  1
  Mg  Mg10  1  0.59741670  0.39302153  0.41214507  1
  Mg  Mg11  1  0.40258330  0.60697847  0.58785493  1
  Mg  Mg12  1  0.00956177  0.58785493  0.39302153  1
  Mg  Mg13  1  0.99043823  0.41214507  0.60697847  1
  Mg  Mg14  1  0.77856549  0.34348335  0.09938567  1
  Mg  Mg15  1  0.22143451  0.65651665  0.90061433  1
  Mg  Mg16  1  0.87795116  0.90061433  0.34348335  1
  Mg  Mg17  1  0.12204884  0.09938567  0.65651665  1
  Mg  Mg18  1  0.78279585  0.55813496  0.87627334  1
  Mg  Mg19  1  0.21720415  0.44186504  0.12372666  1
  Mg  Mg20  1  0.65906919  0.12372666  0.55813496  1
  Mg  Mg21  1  0.34093081  0.87627334  0.44186504  1
  Mg  Mg22  1  0.08593377  0.28752873  0.83432226  1
  Mg  Mg23  1  0.20778476  0.71247127  0.16567774  1
  Mg  Mg24  1  0.92025603  0.16567774  0.28752873  1
  Mg  Mg25  1  0.37346250  0.83432226  0.71247127  1
  Mg  Mg26  1  0.91406623  0.71247127  0.16567774  1
  Mg  Mg27  1  0.79221524  0.28752873  0.83432226  1
  Mg  Mg28  1  0.07974397  0.83432226  0.71247127  1
  Mg  Mg29  1  0.62653750  0.16567774  0.28752873  1
  Mg  Mg30  1  0.82616652  0.78727911  0.94076099  1
  Mg  Mg31  1  0.55420662  0.21272089  0.05923901  1
  Mg  Mg32  1  0.76692751  0.05923901  0.78727911  1
  Mg  Mg33  1  0.61344563  0.94076099  0.21272089  1
  Mg  Mg34  1  0.17383348  0.21272089  0.05923901  1
  Mg  Mg35  1  0.44579338  0.78727911  0.94076099  1
  Mg  Mg36  1  0.23307249  0.94076099  0.21272089  1
  Mg  Mg37  1  0.38655437  0.05923901  0.78727911  1
  Mg  Mg38  1  0.89156728  0.44344140  0.29030485  1
  Mg  Mg39  1  0.62531352  0.55655860  0.70969515  1
  Mg  Mg40  1  0.18187213  0.70969515  0.44344140  1
  Mg  Mg41  1  0.33500867  0.29030485  0.55655860  1
  Mg  Mg42  1  0.10843272  0.55655860  0.70969515  1
  Mg  Mg43  1  0.37468648  0.44344140  0.29030485  1
  Mg  Mg44  1  0.81812787  0.29030485  0.55655860  1
  Mg  Mg45  1  0.66499133  0.70969515  0.44344140  1
