# generated using pymatgen
data_Bi2W2O9
_symmetry_space_group_name_H-M   'P 1'
_cell_length_a   5.45314958
_cell_length_b   5.45266126
_cell_length_c   24.55871825
_cell_angle_alpha   90.00000000
_cell_angle_beta   90.00000000
_cell_angle_gamma   90.00000000
_symmetry_Int_Tables_number   1
_chemical_formula_structural   Bi2W2O9
_chemical_formula_sum   'Bi8 W8 O36'
_cell_volume   730.23328663
_cell_formula_units_Z   4
loop_
 _symmetry_equiv_pos_site_id
 _symmetry_equiv_pos_as_xyz
  1  'x, y, z'
loop_
 _atom_site_type_symbol
 _atom_site_label
 _atom_site_symmetry_multiplicity
 _atom_site_fract_x
 _atom_site_fract_y
 _atom_site_fract_z
 _atom_site_occupancy
  Bi  Bi0  1  0.97819755  0.35580654  0.71010513  1
  Bi  Bi1  1  0.02180245  0.64419346  0.21010513  1
  Bi  Bi2  1  0.47819755  0.14419346  0.21010513  1
  Bi  Bi3  1  0.52180245  0.85580654  0.71010513  1
  Bi  Bi4  1  0.47822601  0.35790668  0.60429582  1
  Bi  Bi5  1  0.52177399  0.64209332  0.10429582  1
  Bi  Bi6  1  0.97822601  0.14209332  0.10429582  1
  Bi  Bi7  1  0.02177399  0.85790668  0.60429582  1
  W  W8  1  0.49854797  0.31992754  0.82932278  1
  W  W9  1  0.50145203  0.68007246  0.32932278  1
  W  W10  1  0.99854797  0.18007246  0.32932278  1
  W  W11  1  0.00145203  0.81992754  0.82932278  1
  W  W12  1  0.00151809  0.69293588  0.98320658  1
  W  W13  1  0.99848191  0.30706412  0.48320658  1
  W  W14  1  0.50151809  0.80706412  0.48320658  1
  W  W15  1  0.49848191  0.19293588  0.98320658  1
  O  O16  1  0.24144680  0.58612960  0.65752392  1
  O  O17  1  0.75855320  0.41387040  0.15752392  1
  O  O18  1  0.74144680  0.91387040  0.15752392  1
  O  O19  1  0.25855320  0.08612960  0.65752392  1
  O  O20  1  0.74118173  0.58641219  0.65642430  1
  O  O21  1  0.25881827  0.41358781  0.15642430  1
  O  O22  1  0.24118173  0.91358781  0.15642430  1
  O  O23  1  0.75881827  0.08641219  0.65642430  1
  O  O24  1  0.05504288  0.75710780  0.90608331  1
  O  O25  1  0.94495712  0.24289220  0.40608331  1
  O  O26  1  0.55504288  0.74289220  0.40608331  1
  O  O27  1  0.44495712  0.25710780  0.90608331  1
  O  O28  1  0.70430911  0.58595494  0.83879050  1
  O  O29  1  0.29569089  0.41404506  0.33879050  1
  O  O30  1  0.20430911  0.91404506  0.33879050  1
  O  O31  1  0.79569089  0.08595494  0.83879050  1
  O  O32  1  0.79181461  0.42997507  0.97290482  1
  O  O33  1  0.20818539  0.57002493  0.47290482  1
  O  O34  1  0.29181461  0.07002493  0.47290482  1
  O  O35  1  0.70818539  0.92997507  0.97290482  1
  O  O36  1  0.93242771  0.72679361  0.05888298  1
  O  O37  1  0.06757229  0.27320639  0.55888298  1
  O  O38  1  0.43242771  0.77320639  0.55888298  1
  O  O39  1  0.56757229  0.22679361  0.05888298  1
  O  O40  1  0.21280704  0.50751021  0.81820649  1
  O  O41  1  0.78719296  0.49248979  0.31820649  1
  O  O42  1  0.71280704  0.99248979  0.31820649  1
  O  O43  1  0.28719296  0.00751021  0.81820649  1
  O  O44  1  0.28405864  0.50113318  0.99363287  1
  O  O45  1  0.71594136  0.49886682  0.49363287  1
  O  O46  1  0.78405864  0.99886682  0.49363287  1
  O  O47  1  0.21594136  0.00113318  0.99363287  1
  O  O48  1  0.56834702  0.28287137  0.75362050  1
  O  O49  1  0.43165298  0.71712863  0.25362050  1
  O  O50  1  0.06834702  0.21712863  0.25362050  1
  O  O51  1  0.93165298  0.78287137  0.75362050  1
