# generated using pymatgen
data_ScH10N3O14
_symmetry_space_group_name_H-M   'P 1'
_cell_length_a   7.23447376
_cell_length_b   8.31601285
_cell_length_c   20.18416953
_cell_angle_alpha   83.90508579
_cell_angle_beta   82.55262558
_cell_angle_gamma   75.94227985
_symmetry_Int_Tables_number   1
_chemical_formula_structural   ScH10N3O14
_chemical_formula_sum   'Sc4 H40 N12 O56'
_cell_volume   1164.48878009
_cell_formula_units_Z   4
loop_
 _symmetry_equiv_pos_site_id
 _symmetry_equiv_pos_as_xyz
  1  'x, y, z'
loop_
 _atom_site_type_symbol
 _atom_site_label
 _atom_site_symmetry_multiplicity
 _atom_site_fract_x
 _atom_site_fract_y
 _atom_site_fract_z
 _atom_site_occupancy
  Sc  Sc0  1  0.23677977  0.24385639  0.61118298  1
  Sc  Sc1  1  0.76322023  0.75614361  0.38881702  1
  Sc  Sc2  1  0.25063561  0.76870004  0.89013039  1
  Sc  Sc3  1  0.74936439  0.23129996  0.10986961  1
  H  H4  1  0.19854625  0.95133924  0.69473570  1
  H  H5  1  0.80145375  0.04866076  0.30526430  1
  H  H6  1  0.26605896  0.89669197  0.62163992  1
  H  H7  1  0.73394104  0.10330803  0.37836008  1
  H  H8  1  0.95996776  0.38186160  0.71888062  1
  H  H9  1  0.04003224  0.61813840  0.28111938  1
  H  H10  1  0.87010739  0.44350451  0.64900708  1
  H  H11  1  0.12989261  0.55649549  0.35099292  1
  H  H12  1  0.59369200  0.08459544  0.54511302  1
  H  H13  1  0.40630800  0.91540456  0.45488698  1
  H  H14  1  0.62921963  0.08354243  0.62173042  1
  H  H15  1  0.37078037  0.91645757  0.37826958  1
  H  H16  1  0.27515173  0.45949549  0.49088675  1
  H  H17  1  0.72484827  0.54050451  0.50911325  1
  H  H18  1  0.30822309  0.55034654  0.55326097  1
  H  H19  1  0.69177691  0.44965346  0.44673903  1
  H  H20  1  0.90158218  0.96979716  0.94426912  1
  H  H21  1  0.09841782  0.03020284  0.05573088  1
  H  H22  1  0.86289713  0.93690834  0.87117648  1
  H  H23  1  0.13710287  0.06309166  0.12882352  1
  H  H24  1  0.61914424  0.56205937  0.86015065  1
  H  H25  1  0.38085576  0.43794063  0.13984935  1
  H  H26  1  0.51825255  0.58548840  0.79280623  1
  H  H27  1  0.48174745  0.41451160  0.20719377  1
  H  H28  1  0.16889000  0.45659880  0.94116883  1
  H  H29  1  0.83111000  0.54340120  0.05883117  1
  H  H30  1  0.20633285  0.53891541  0.00561683  1
  H  H31  1  0.79366715  0.46108459  0.99438317  1
  H  H32  1  0.24601408  0.11015697  0.87011783  1
  H  H33  1  0.75398592  0.88984303  0.12988217  1
  H  H34  1  0.46353105  0.01216367  0.84554892  1
  H  H35  1  0.53646895  0.98783633  0.15445108  1
  H  H36  1  0.90232007  0.97112384  0.66162093  1
  H  H37  1  0.09767993  0.02887616  0.33837907  1
  H  H38  1  0.74066143  0.87096906  0.67748072  1
  H  H39  1  0.25933857  0.12903094  0.32251928  1
  H  H40  1  0.69672591  0.14058332  0.81877504  1
  H  H41  1  0.30327409  0.85941668  0.18122496  1
  H  H42  1  0.72792540  0.00488325  0.76810529  1
  H  H43  1  0.27207460  0.99511675  0.23189471  1
  N  N44  1  0.38887501  0.32216490  0.71530644  1
  N  N45  1  0.61112499  0.67783510  0.28469356  1
  N  N46  1  0.08286155  0.17578798  0.50383635  1
  N  N47  1  0.91713845  0.82421202  0.49616365  1
  N  N48  1  0.39424362  0.81922536  0.00262077  1
  N  N49  1  0.60575638  0.18077464  0.99737923  1
  N  N50  1  0.10565735  0.70737215  0.77775652  1
  N  N51  1  0.89434265  0.29262785  0.22224348  1
  N  N52  1  0.92612728  0.35076348  0.87526965  1
  N  N53  1  0.07387272  0.64923652  0.12473035  1
  N  N54  1  0.56846182  0.67357356  0.61628797  1
  N  N55  1  0.43153818  0.32642644  0.38371203  1
  O  O56  1  0.18532579  0.99120209  0.64698905  1
  O  O57  1  0.81467421  0.00879791  0.35301095  1
  O  O58  1  0.46581291  0.35421313  0.76166471  1
  O  O59  1  0.53418709  0.64578687  0.23833529  1
  O  O60  1  0.01445399  0.15180427  0.45437553  1
  O  O61  1  0.98554601  0.84819573  0.54562447  1
  O  O62  1  0.97249181  0.36151529  0.67141326  1
  O  O63  1  0.02750819  0.63848471  0.32858674  1
  O  O64  1  0.33269397  0.18624587  0.71568397  1
  O  O65  1  0.66730603  0.81375413  0.28431603  1
  O  O66  1  0.35884412  0.42080777  0.66250199  1
  O  O67  1  0.64115588  0.57919223  0.33749801  1
  O  O68  1  0.53889343  0.13470926  0.58715623  1
  O  O69  1  0.46110657  0.86529074  0.41284377  1
  O  O70  1  0.98386541  0.25587134  0.55236182  1
  O  O71  1  0.01613459  0.74412866  0.44763818  1
  O  O72  1  0.26392297  0.12177504  0.51143958  1
  O  O73  1  0.73607703  0.87822496  0.48856042  1
  O  O74  1  0.25970040  0.45816025  0.54089967  1
  O  O75  1  0.74029960  0.54183975  0.45910033  1
  O  O76  1  0.95614399  0.90325478  0.90562318  1
  O  O77  1  0.04385601  0.09674522  0.09437682  1
  O  O78  1  0.51443635  0.63473363  0.83494190  1
  O  O79  1  0.48556365  0.36526637  0.16505810  1
  O  O80  1  0.20715941  0.55192221  0.95604529  1
  O  O81  1  0.79284059  0.44807779  0.04395471  1
  O  O82  1  0.46061133  0.84511557  0.05221256  1
  O  O83  1  0.53938867  0.15488443  0.94778744  1
  O  O84  1  0.49379737  0.73596883  0.95524251  1
  O  O85  1  0.50620263  0.26403117  0.04475749  1
  O  O86  1  0.21384586  0.87530349  0.99399171  1
  O  O87  1  0.78615414  0.12469651  0.00600829  1
  O  O88  1  0.33147898  0.99960849  0.86212247  1
  O  O89  1  0.66852102  0.00039151  0.13787753  1
  O  O90  1  0.17864053  0.83539474  0.77736768  1
  O  O91  1  0.82135947  0.16460526  0.22263232  1
  O  O92  1  0.03230662  0.67852549  0.73001369  1
  O  O93  1  0.96769338  0.32147451  0.26998631  1
  O  O94  1  0.11597804  0.61374749  0.83243093  1
  O  O95  1  0.88402196  0.38625251  0.16756907  1
  O  O96  1  0.76691317  0.98142746  0.67946981  1
  O  O97  1  0.23308683  0.01857254  0.32053019  1
  O  O98  1  0.69905309  0.02286859  0.81673106  1
  O  O99  1  0.30094691  0.97713141  0.18326894  1
  O  O100  1  0.89825415  0.30781295  0.82026086  1
  O  O101  1  0.10174585  0.69218705  0.17973914  1
  O  O102  1  0.08339580  0.29394637  0.90021348  1
  O  O103  1  0.91660420  0.70605363  0.09978652  1
  O  O104  1  0.79273025  0.45401755  0.90754767  1
  O  O105  1  0.20726975  0.54598245  0.09245233  1
  O  O106  1  0.42244019  0.72607402  0.58423930  1
  O  O107  1  0.57755981  0.27392598  0.41576070  1
  O  O108  1  0.70646132  0.55910900  0.59290530  1
  O  O109  1  0.29353868  0.44089100  0.40709470  1
  O  O110  1  0.57799470  0.73172743  0.67031894  1
  O  O111  1  0.42200530  0.26827257  0.32968106  1
