# generated using pymatgen
data_NiH12SO10
_symmetry_space_group_name_H-M   'P 1'
_cell_length_a   6.20183711
_cell_length_b   6.20183711
_cell_length_c   24.60302815
_cell_angle_alpha   81.84964248
_cell_angle_beta   81.84964248
_cell_angle_gamma   70.81196423
_symmetry_Int_Tables_number   1
_chemical_formula_structural   NiH12SO10
_chemical_formula_sum   'Ni4 H48 S4 O40'
_cell_volume   880.10572338
_cell_formula_units_Z   4
loop_
 _symmetry_equiv_pos_site_id
 _symmetry_equiv_pos_as_xyz
  1  'x, y, z'
loop_
 _atom_site_type_symbol
 _atom_site_label
 _atom_site_symmetry_multiplicity
 _atom_site_fract_x
 _atom_site_fract_y
 _atom_site_fract_z
 _atom_site_occupancy
  Ni  Ni0  1  0.50000000  0.50000000  0.50000000  1
  Ni  Ni1  1  0.50000000  0.50000000  0.00000000  1
  Ni  Ni2  1  0.54599436  0.45400564  0.25000000  1
  Ni  Ni3  1  0.45400564  0.54599436  0.75000000  1
  H  H4  1  0.47055799  0.83823594  0.42138651  1
  H  H5  1  0.16176406  0.52944201  0.07861349  1
  H  H6  1  0.52944201  0.16176406  0.57861349  1
  H  H7  1  0.83823594  0.47055799  0.92138651  1
  H  H8  1  0.21303756  0.85046039  0.44488593  1
  H  H9  1  0.14953961  0.78696244  0.05511407  1
  H  H10  1  0.78696244  0.14953961  0.55511407  1
  H  H11  1  0.85046039  0.21303756  0.94488593  1
  H  H12  1  0.16560861  0.43750976  0.44750178  1
  H  H13  1  0.56249024  0.83439139  0.05249822  1
  H  H14  1  0.83439139  0.56249024  0.55249822  1
  H  H15  1  0.43750976  0.16560861  0.94750178  1
  H  H16  1  0.19887677  0.25707610  0.50214706  1
  H  H17  1  0.74292390  0.80112323  0.99785294  1
  H  H18  1  0.80112323  0.74292390  0.49785294  1
  H  H19  1  0.25707610  0.19887677  0.00214706  1
  H  H20  1  0.81466554  0.43569532  0.41147208  1
  H  H21  1  0.56430468  0.18533446  0.08852792  1
  H  H22  1  0.18533446  0.56430468  0.58852792  1
  H  H23  1  0.43569532  0.81466554  0.91147208  1
  H  H24  1  0.77180440  0.19926783  0.43322981  1
  H  H25  1  0.80073217  0.22819560  0.06677019  1
  H  H26  1  0.22819560  0.80073217  0.56677019  1
  H  H27  1  0.19926783  0.77180440  0.93322981  1
  H  H28  1  0.30297195  0.83281256  0.29926818  1
  H  H29  1  0.16718744  0.69702805  0.20073182  1
  H  H30  1  0.69702805  0.16718744  0.70073182  1
  H  H31  1  0.83281256  0.30297195  0.79926818  1
  H  H32  1  0.56252782  0.76658769  0.30964744  1
  H  H33  1  0.23341231  0.43747218  0.19035256  1
  H  H34  1  0.43747218  0.23341231  0.69035256  1
  H  H35  1  0.76658769  0.56252782  0.80964744  1
  H  H36  1  0.81553103  0.50029827  0.15720762  1
  H  H37  1  0.49970173  0.18446897  0.34279238  1
  H  H38  1  0.18446897  0.49970173  0.84279238  1
  H  H39  1  0.50029827  0.81553103  0.65720762  1
  H  H40  1  0.59387742  0.72550960  0.15682396  1
  H  H41  1  0.27449040  0.40612258  0.34317604  1
  H  H42  1  0.40612258  0.27449040  0.84317604  1
  H  H43  1  0.72550960  0.59387742  0.65682396  1
  H  H44  1  0.97605281  0.42367161  0.26342604  1
  H  H45  1  0.57632839  0.02394719  0.23657396  1
  H  H46  1  0.02394719  0.57632839  0.73657396  1
  H  H47  1  0.42367161  0.97605281  0.76342604  1
  H  H48  1  0.92400533  0.20845925  0.29993494  1
  H  H49  1  0.79154075  0.07599467  0.20006506  1
  H  H50  1  0.07599467  0.79154075  0.70006506  1
  H  H51  1  0.20845925  0.92400533  0.79993494  1
  S  S52  1  0.91817726  0.82217034  0.37679146  1
  S  S53  1  0.17782966  0.08182274  0.12320854  1
  S  S54  1  0.08182274  0.17782966  0.62320854  1
  S  S55  1  0.82217034  0.91817726  0.87679146  1
  O  O56  1  0.37037419  0.81514617  0.45534734  1
  O  O57  1  0.18485383  0.62962581  0.04465266  1
  O  O58  1  0.62962581  0.18485383  0.54465266  1
  O  O59  1  0.81514617  0.37037419  0.95534734  1
  O  O60  1  0.25728669  0.37164228  0.47889420  1
  O  O61  1  0.62835772  0.74271331  0.02110580  1
  O  O62  1  0.74271331  0.62835772  0.52110580  1
  O  O63  1  0.37164228  0.25728669  0.97889420  1
  O  O64  1  0.69620609  0.36827321  0.42981015  1
  O  O65  1  0.63172679  0.30379391  0.07018985  1
  O  O66  1  0.30379391  0.63172679  0.57018985  1
  O  O67  1  0.36827321  0.69620609  0.92981015  1
  O  O68  1  0.46318942  0.77728736  0.28068675  1
  O  O69  1  0.22271264  0.53681058  0.21931325  1
  O  O70  1  0.53681058  0.22271264  0.71931325  1
  O  O71  1  0.77728736  0.46318942  0.78068675  1
  O  O72  1  0.69383974  0.60146084  0.18070442  1
  O  O73  1  0.39853916  0.30616026  0.31929558  1
  O  O74  1  0.30616026  0.39853916  0.81929558  1
  O  O75  1  0.60146084  0.69383974  0.68070442  1
  O  O76  1  0.85299465  0.36922123  0.28434088  1
  O  O77  1  0.63077877  0.14700535  0.21565912  1
  O  O78  1  0.14700535  0.63077877  0.71565912  1
  O  O79  1  0.36922123  0.85299465  0.78434088  1
  O  O80  1  0.03198681  0.56742247  0.38341290  1
  O  O81  1  0.43257753  0.96801319  0.11658710  1
  O  O82  1  0.96801319  0.43257753  0.61658710  1
  O  O83  1  0.56742247  0.03198681  0.88341290  1
  O  O84  1  0.67347460  0.87584043  0.36602901  1
  O  O85  1  0.12415957  0.32652540  0.13397099  1
  O  O86  1  0.32652540  0.12415957  0.63397099  1
  O  O87  1  0.87584043  0.67347460  0.86602901  1
  O  O88  1  0.92536970  0.91314012  0.42960817  1
  O  O89  1  0.08685988  0.07463030  0.07039183  1
  O  O90  1  0.07463030  0.08685988  0.57039183  1
  O  O91  1  0.91314012  0.92536970  0.92960817  1
  O  O92  1  0.03948182  0.92875379  0.32969008  1
  O  O93  1  0.07124621  0.96051818  0.17030992  1
  O  O94  1  0.96051818  0.07124621  0.67030992  1
  O  O95  1  0.92875379  0.03948182  0.82969008  1
