# generated using pymatgen
data_Yb(BRh)4
_symmetry_space_group_name_H-M   'P 1'
_cell_length_a   7.47657634
_cell_length_b   7.52369284
_cell_length_c   11.83961091
_cell_angle_alpha   90.00000000
_cell_angle_beta   108.40574475
_cell_angle_gamma   90.00000000
_symmetry_Int_Tables_number   1
_chemical_formula_structural   Yb(BRh)4
_chemical_formula_sum   'Yb6 B24 Rh24'
_cell_volume   631.92602124
_cell_formula_units_Z   6
loop_
 _symmetry_equiv_pos_site_id
 _symmetry_equiv_pos_as_xyz
  1  'x, y, z'
loop_
 _atom_site_type_symbol
 _atom_site_label
 _atom_site_symmetry_multiplicity
 _atom_site_fract_x
 _atom_site_fract_y
 _atom_site_fract_z
 _atom_site_occupancy
  Yb  Yb0  1  0.91723206  0.25000000  0.83446412  1
  Yb  Yb1  1  0.41723206  0.75000000  0.83446412  1
  Yb  Yb2  1  0.08276794  0.75000000  0.16553588  1
  Yb  Yb3  1  0.58276794  0.25000000  0.16553588  1
  Yb  Yb4  1  0.25000000  0.25000000  0.50000000  1
  Yb  Yb5  1  0.75000000  0.75000000  0.50000000  1
  B  B6  1  0.22369281  0.07964981  0.72076301  1
  B  B7  1  0.99707020  0.57964981  0.72076301  1
  B  B8  1  0.50292980  0.57964981  0.27923699  1
  B  B9  1  0.27630719  0.07964981  0.27923699  1
  B  B10  1  0.77630719  0.92035019  0.27923699  1
  B  B11  1  0.00292980  0.42035019  0.27923699  1
  B  B12  1  0.49707020  0.42035019  0.72076301  1
  B  B13  1  0.72369281  0.92035019  0.72076301  1
  B  B14  1  0.30430922  0.38776886  0.94296942  1
  B  B15  1  0.13866020  0.88776886  0.94296942  1
  B  B16  1  0.36133980  0.88776886  0.05703058  1
  B  B17  1  0.19569078  0.38776886  0.05703058  1
  B  B18  1  0.69569078  0.61223114  0.05703058  1
  B  B19  1  0.86133980  0.11223114  0.05703058  1
  B  B20  1  0.63866020  0.11223114  0.94296942  1
  B  B21  1  0.80430922  0.61223114  0.94296942  1
  B  B22  1  0.84432150  0.08631584  0.39354920  1
  B  B23  1  0.04922770  0.58631584  0.39354920  1
  B  B24  1  0.45077230  0.58631584  0.60645080  1
  B  B25  1  0.65567850  0.08631584  0.60645080  1
  B  B26  1  0.15567850  0.91368416  0.60645080  1
  B  B27  1  0.95077230  0.41368416  0.60645080  1
  B  B28  1  0.54922770  0.41368416  0.39354920  1
  B  B29  1  0.34432150  0.91368416  0.39354920  1
  Rh  Rh30  1  0.33969964  0.09752114  0.91554955  1
  Rh  Rh31  1  0.07584991  0.59752114  0.91554955  1
  Rh  Rh32  1  0.42415009  0.59752114  0.08445045  1
  Rh  Rh33  1  0.16030036  0.09752114  0.08445045  1
  Rh  Rh34  1  0.66030036  0.90247886  0.08445045  1
  Rh  Rh35  1  0.92415009  0.40247886  0.08445045  1
  Rh  Rh36  1  0.57584991  0.40247886  0.91554955  1
  Rh  Rh37  1  0.83969964  0.90247886  0.91554955  1
  Rh  Rh38  1  0.22402998  0.36559109  0.75168118  1
  Rh  Rh39  1  0.02765120  0.86559109  0.75168118  1
  Rh  Rh40  1  0.47234880  0.86559109  0.24831882  1
  Rh  Rh41  1  0.27597002  0.36559109  0.24831882  1
  Rh  Rh42  1  0.77597002  0.63440891  0.24831882  1
  Rh  Rh43  1  0.97234880  0.13440891  0.24831882  1
  Rh  Rh44  1  0.52765120  0.13440891  0.75168118  1
  Rh  Rh45  1  0.72402998  0.63440891  0.75168118  1
  Rh  Rh46  1  0.93837024  0.12611482  0.58428796  1
  Rh  Rh47  1  0.14591771  0.62611482  0.58428796  1
  Rh  Rh48  1  0.35408229  0.62611482  0.41571204  1
  Rh  Rh49  1  0.56162976  0.12611482  0.41571204  1
  Rh  Rh50  1  0.06162976  0.87388518  0.41571204  1
  Rh  Rh51  1  0.85408229  0.37388518  0.41571204  1
  Rh  Rh52  1  0.64591771  0.37388518  0.58428796  1
  Rh  Rh53  1  0.43837024  0.87388518  0.58428796  1
