# generated using pymatgen
data_Ca5V3O13
_symmetry_space_group_name_H-M   'P 1'
_cell_length_a   7.04142482
_cell_length_b   9.92789988
_cell_length_c   9.92805095
_cell_angle_alpha   120.00118408
_cell_angle_beta   90.00000000
_cell_angle_gamma   90.00000000
_symmetry_Int_Tables_number   1
_chemical_formula_structural   Ca5V3O13
_chemical_formula_sum   'Ca10 V6 O26'
_cell_volume   601.04554510
_cell_formula_units_Z   2
loop_
 _symmetry_equiv_pos_site_id
 _symmetry_equiv_pos_as_xyz
  1  'x, y, z'
loop_
 _atom_site_type_symbol
 _atom_site_label
 _atom_site_symmetry_multiplicity
 _atom_site_fract_x
 _atom_site_fract_y
 _atom_site_fract_z
 _atom_site_occupancy
  Ca  Ca0  1  0.50234184  0.66661521  0.33330928  1
  Ca  Ca1  1  0.00234184  0.33338479  0.66669072  1
  Ca  Ca2  1  0.49765816  0.33338479  0.66669072  1
  Ca  Ca3  1  0.99765816  0.66661521  0.33330928  1
  Ca  Ca4  1  0.75000000  0.24468063  0.99559172  1
  Ca  Ca5  1  0.75000000  0.00439879  0.24909107  1
  Ca  Ca6  1  0.75000000  0.75091558  0.75531036  1
  Ca  Ca7  1  0.25000000  0.75531937  0.00440828  1
  Ca  Ca8  1  0.25000000  0.99560121  0.75090893  1
  Ca  Ca9  1  0.25000000  0.24908442  0.24468964  1
  V  V10  1  0.75000000  0.02940796  0.62950722  1
  V  V11  1  0.75000000  0.37048257  0.39990235  1
  V  V12  1  0.75000000  0.60010730  0.97058806  1
  V  V13  1  0.25000000  0.97059204  0.37049278  1
  V  V14  1  0.25000000  0.62951743  0.60009765  1
  V  V15  1  0.25000000  0.39989270  0.02941194  1
  O  O16  1  0.75000000  0.82975662  0.50514235  1
  O  O17  1  0.75000000  0.49485372  0.32461133  1
  O  O18  1  0.75000000  0.67538204  0.17023760  1
  O  O19  1  0.25000000  0.17024338  0.49485765  1
  O  O20  1  0.25000000  0.50514628  0.67538867  1
  O  O21  1  0.25000000  0.32461796  0.82976240  1
  O  O22  1  0.75000000  0.13416574  0.52916549  1
  O  O23  1  0.75000000  0.47083478  0.60498906  1
  O  O24  1  0.75000000  0.39500276  0.86584064  1
  O  O25  1  0.25000000  0.86583426  0.47083451  1
  O  O26  1  0.25000000  0.52916522  0.39501094  1
  O  O27  1  0.25000000  0.60499724  0.13415936  1
  O  O28  1  0.55533112  0.09016739  0.75215449  1
  O  O29  1  0.55533788  0.24785575  0.33801659  1
  O  O30  1  0.55533083  0.66197893  0.90983291  1
  O  O31  1  0.05533112  0.90983261  0.24784551  1
  O  O32  1  0.05533788  0.75214425  0.66198341  1
  O  O33  1  0.05533083  0.33802107  0.09016709  1
  O  O34  1  0.44466888  0.90983261  0.24784551  1
  O  O35  1  0.44466212  0.75214425  0.66198341  1
  O  O36  1  0.44466917  0.33802107  0.09016709  1
  O  O37  1  0.94466888  0.09016739  0.75215449  1
  O  O38  1  0.94466212  0.24785575  0.33801659  1
  O  O39  1  0.94466917  0.66197893  0.90983291  1
  O  O40  1  0.75000000  0.99999921  0.99999956  1
  O  O41  1  0.25000000  0.00000079  0.00000044  1
