# generated using pymatgen
data_KB5(H2O5)2
_symmetry_space_group_name_H-M   'P 1'
_cell_length_a   7.74664932
_cell_length_b   9.39432803
_cell_length_c   11.64814423
_cell_angle_alpha   97.47460020
_cell_angle_beta   90.00000000
_cell_angle_gamma   90.00000000
_symmetry_Int_Tables_number   1
_chemical_formula_structural   KB5(H2O5)2
_chemical_formula_sum   'K4 B20 H16 O40'
_cell_volume   840.48550186
_cell_formula_units_Z   4
loop_
 _symmetry_equiv_pos_site_id
 _symmetry_equiv_pos_as_xyz
  1  'x, y, z'
loop_
 _atom_site_type_symbol
 _atom_site_label
 _atom_site_symmetry_multiplicity
 _atom_site_fract_x
 _atom_site_fract_y
 _atom_site_fract_z
 _atom_site_occupancy
  K  K0  1  0.07496675  0.82281403  0.27030973  1
  K  K1  1  0.57496675  0.17718597  0.22969027  1
  K  K2  1  0.92503325  0.17718597  0.72969027  1
  K  K3  1  0.42503325  0.82281403  0.77030973  1
  B  B4  1  0.88937181  0.67236078  0.55448734  1
  B  B5  1  0.38937181  0.32763922  0.94551266  1
  B  B6  1  0.11062819  0.32763922  0.44551266  1
  B  B7  1  0.61062819  0.67236078  0.05448734  1
  B  B8  1  0.09393979  0.86727561  0.57842233  1
  B  B9  1  0.59393979  0.13272439  0.92157767  1
  B  B10  1  0.90606021  0.13272439  0.42157767  1
  B  B11  1  0.40606021  0.86727561  0.07842233  1
  B  B12  1  0.95015908  0.79665212  0.75527906  1
  B  B13  1  0.45015908  0.20334788  0.74472094  1
  B  B14  1  0.04984092  0.20334788  0.24472094  1
  B  B15  1  0.54984092  0.79665212  0.25527906  1
  B  B16  1  0.80877056  0.93370886  0.92850842  1
  B  B17  1  0.30877056  0.06629114  0.57149158  1
  B  B18  1  0.19122944  0.06629114  0.07149158  1
  B  B19  1  0.69122944  0.93370886  0.42850842  1
  B  B20  1  0.01473025  0.75066759  0.95857801  1
  B  B21  1  0.51473025  0.24933241  0.54142199  1
  B  B22  1  0.98526975  0.24933241  0.04142199  1
  B  B23  1  0.48526975  0.75066759  0.45857801  1
  H  H24  1  0.84526071  0.56378040  0.39915409  1
  H  H25  1  0.34526071  0.43621960  0.10084591  1
  H  H26  1  0.15473929  0.43621960  0.60084591  1
  H  H27  1  0.65473929  0.56378040  0.89915409  1
  H  H28  1  0.17059967  0.59746288  0.01055696  1
  H  H29  1  0.67059967  0.40253712  0.48944304  1
  H  H30  1  0.82940033  0.40253712  0.98944304  1
  H  H31  1  0.32940033  0.59746288  0.51055696  1
  H  H32  1  0.29657840  0.40204701  0.27320943  1
  H  H33  1  0.79657840  0.59795299  0.22679057  1
  H  H34  1  0.70342160  0.59795299  0.72679057  1
  H  H35  1  0.20342160  0.40204701  0.77320943  1
  H  H36  1  0.42636898  0.53374798  0.27074019  1
  H  H37  1  0.92636898  0.46625202  0.22925981  1
  H  H38  1  0.57363102  0.46625202  0.72925981  1
  H  H39  1  0.07363102  0.53374798  0.77074019  1
  O  O40  1  0.86169395  0.68866024  0.67156098  1
  O  O41  1  0.36169395  0.31133976  0.82843902  1
  O  O42  1  0.13830605  0.31133976  0.32843902  1
  O  O43  1  0.63830605  0.68866024  0.17156098  1
  O  O44  1  0.80818682  0.56552814  0.48358599  1
  O  O45  1  0.30818682  0.43447186  0.01641401  1
  O  O46  1  0.19181318  0.43447186  0.51641401  1
  O  O47  1  0.69181318  0.56552814  0.98358599  1
  O  O48  1  0.00243879  0.76486743  0.50559393  1
  O  O49  1  0.50243879  0.23513257  0.99440607  1
  O  O50  1  0.99756121  0.23513257  0.49440607  1
  O  O51  1  0.49756121  0.76486743  0.00559393  1
  O  O52  1  0.07803712  0.87875535  0.69558742  1
  O  O53  1  0.57803712  0.12124465  0.80441258  1
  O  O54  1  0.92196288  0.12124465  0.30441258  1
  O  O55  1  0.42196288  0.87875535  0.19558742  1
  O  O56  1  0.82216606  0.89878772  0.81182600  1
  O  O57  1  0.32216606  0.10121228  0.68817400  1
  O  O58  1  0.17783394  0.10121228  0.18817400  1
  O  O59  1  0.67783394  0.89878772  0.31182600  1
  O  O60  1  0.69833055  0.04213200  0.97721048  1
  O  O61  1  0.19833055  0.95786800  0.52278952  1
  O  O62  1  0.30166945  0.95786800  0.02278952  1
  O  O63  1  0.80166945  0.04213200  0.47721048  1
  O  O64  1  0.90268081  0.86095888  0.00444979  1
  O  O65  1  0.40268081  0.13904112  0.49555021  1
  O  O66  1  0.09731919  0.13904112  0.99555021  1
  O  O67  1  0.59731919  0.86095888  0.50444979  1
  O  O68  1  0.09809715  0.68147933  0.03910072  1
  O  O69  1  0.59809715  0.31852067  0.46089928  1
  O  O70  1  0.90190285  0.31852067  0.96089928  1
  O  O71  1  0.40190285  0.68147933  0.53910072  1
  O  O72  1  0.04038382  0.71889308  0.84132154  1
  O  O73  1  0.54038382  0.28110692  0.65867846  1
  O  O74  1  0.95961618  0.28110692  0.15867846  1
  O  O75  1  0.45961618  0.71889308  0.34132154  1
  O  O76  1  0.39772047  0.43708411  0.23129979  1
  O  O77  1  0.89772047  0.56291589  0.26870021  1
  O  O78  1  0.60227953  0.56291589  0.76870021  1
  O  O79  1  0.10227953  0.43708411  0.73129979  1
