# generated using pymatgen
data_ZnSnP14
_symmetry_space_group_name_H-M   'P 1'
_cell_length_a   9.87380371
_cell_length_b   10.63485065
_cell_length_c   12.86020333
_cell_angle_alpha   90.00000000
_cell_angle_beta   90.00000000
_cell_angle_gamma   90.00000000
_symmetry_Int_Tables_number   1
_chemical_formula_structural   ZnSnP14
_chemical_formula_sum   'Zn4 Sn4 P56'
_cell_volume   1350.40401251
_cell_formula_units_Z   4
loop_
 _symmetry_equiv_pos_site_id
 _symmetry_equiv_pos_as_xyz
  1  'x, y, z'
loop_
 _atom_site_type_symbol
 _atom_site_label
 _atom_site_symmetry_multiplicity
 _atom_site_fract_x
 _atom_site_fract_y
 _atom_site_fract_z
 _atom_site_occupancy
  Zn  Zn0  1  0.25000000  0.49574191  0.67864942  1
  Zn  Zn1  1  0.25000000  0.00425809  0.17864942  1
  Zn  Zn2  1  0.75000000  0.50425809  0.32135058  1
  Zn  Zn3  1  0.75000000  0.99574191  0.82135058  1
  Sn  Sn4  1  0.25000000  0.90164242  0.82902018  1
  Sn  Sn5  1  0.25000000  0.59835758  0.32902018  1
  Sn  Sn6  1  0.75000000  0.09835758  0.17097982  1
  Sn  Sn7  1  0.75000000  0.40164242  0.67097982  1
  P  P8  1  0.25000000  0.65654577  0.53504060  1
  P  P9  1  0.25000000  0.84345423  0.03504060  1
  P  P10  1  0.75000000  0.34345423  0.46495940  1
  P  P11  1  0.75000000  0.15654577  0.96495940  1
  P  P12  1  0.25000000  0.28014050  0.94381650  1
  P  P13  1  0.25000000  0.21985950  0.44381650  1
  P  P14  1  0.75000000  0.71985950  0.05618350  1
  P  P15  1  0.75000000  0.78014050  0.55618350  1
  P  P16  1  0.25000000  0.09711209  0.58542315  1
  P  P17  1  0.25000000  0.40288791  0.08542315  1
  P  P18  1  0.75000000  0.90288791  0.41457685  1
  P  P19  1  0.75000000  0.59711209  0.91457685  1
  P  P20  1  0.25000000  0.64404308  0.82518198  1
  P  P21  1  0.25000000  0.85595692  0.32518198  1
  P  P22  1  0.75000000  0.35595692  0.17481802  1
  P  P23  1  0.75000000  0.14404308  0.67481802  1
  P  P24  1  0.07747212  0.14974246  0.97060845  1
  P  P25  1  0.42252788  0.35025754  0.47060845  1
  P  P26  1  0.57747212  0.85025754  0.02939155  1
  P  P27  1  0.92252788  0.64974246  0.52939155  1
  P  P28  1  0.92252788  0.85025754  0.02939155  1
  P  P29  1  0.57747212  0.64974246  0.52939155  1
  P  P30  1  0.42252788  0.14974246  0.97060845  1
  P  P31  1  0.07747212  0.35025754  0.47060845  1
  P  P32  1  0.08273717  0.79009077  0.56783514  1
  P  P33  1  0.41726283  0.70990923  0.06783514  1
  P  P34  1  0.58273717  0.20990923  0.43216486  1
  P  P35  1  0.91726283  0.29009077  0.93216486  1
  P  P36  1  0.91726283  0.20990923  0.43216486  1
  P  P37  1  0.58273717  0.29009077  0.93216486  1
  P  P38  1  0.41726283  0.79009077  0.56783514  1
  P  P39  1  0.08273717  0.70990923  0.06783514  1
  P  P40  1  0.07946756  0.58105063  0.92475552  1
  P  P41  1  0.42053244  0.91894937  0.42475552  1
  P  P42  1  0.57946756  0.41894937  0.07524448  1
  P  P43  1  0.92053244  0.08105063  0.57524448  1
  P  P44  1  0.92053244  0.41894937  0.07524448  1
  P  P45  1  0.57946756  0.08105063  0.57524448  1
  P  P46  1  0.42053244  0.58105063  0.92475552  1
  P  P47  1  0.07946756  0.91894937  0.42475552  1
  P  P48  1  0.07673219  0.16628268  0.67944641  1
  P  P49  1  0.42326781  0.33371732  0.17944641  1
  P  P50  1  0.57673219  0.83371732  0.32055359  1
  P  P51  1  0.92326781  0.66628268  0.82055359  1
  P  P52  1  0.92326781  0.83371732  0.32055359  1
  P  P53  1  0.57673219  0.66628268  0.82055359  1
  P  P54  1  0.42326781  0.16628268  0.67944641  1
  P  P55  1  0.07673219  0.33371732  0.17944641  1
  P  P56  1  0.05066733  0.36673208  0.64033513  1
  P  P57  1  0.44933267  0.13326792  0.14033513  1
  P  P58  1  0.55066733  0.63326792  0.35966487  1
  P  P59  1  0.94933267  0.86673208  0.85966487  1
  P  P60  1  0.94933267  0.63326792  0.35966487  1
  P  P61  1  0.55066733  0.86673208  0.85966487  1
  P  P62  1  0.44933267  0.36673208  0.64033513  1
  P  P63  1  0.05066733  0.13326792  0.14033513  1
