# generated using pymatgen
data_Yb9Mn4Bi9
_symmetry_space_group_name_H-M   'P 1'
_cell_length_a   4.76245113
_cell_length_b   12.38908000
_cell_length_c   22.25227591
_cell_angle_alpha   90.00000000
_cell_angle_beta   90.00000000
_cell_angle_gamma   90.00000000
_symmetry_Int_Tables_number   1
_chemical_formula_structural   Yb9Mn4Bi9
_chemical_formula_sum   'Yb18 Mn8 Bi18'
_cell_volume   1312.93741814
_cell_formula_units_Z   2
loop_
 _symmetry_equiv_pos_site_id
 _symmetry_equiv_pos_as_xyz
  1  'x, y, z'
loop_
 _atom_site_type_symbol
 _atom_site_label
 _atom_site_symmetry_multiplicity
 _atom_site_fract_x
 _atom_site_fract_y
 _atom_site_fract_z
 _atom_site_occupancy
  Yb  Yb0  1  0.50000000  0.50000000  0.50000000  1
  Yb  Yb1  1  0.50000000  0.00000000  -0.00000000  1
  Yb  Yb2  1  0.00000000  0.63681406  0.36035938  1
  Yb  Yb3  1  0.00000000  0.36318594  0.63964062  1
  Yb  Yb4  1  0.00000000  0.86318594  0.86035938  1
  Yb  Yb5  1  -0.00000000  0.13681406  0.13964062  1
  Yb  Yb6  1  0.00000000  0.93515470  0.40964180  1
  Yb  Yb7  1  -0.00000000  0.06484530  0.59035820  1
  Yb  Yb8  1  -0.00000000  0.56484530  0.90964180  1
  Yb  Yb9  1  0.00000000  0.43515470  0.09035820  1
  Yb  Yb10  1  -0.00000000  0.88062369  0.23547789  1
  Yb  Yb11  1  0.00000000  0.11937631  0.76452211  1
  Yb  Yb12  1  -0.00000000  0.61937631  0.73547789  1
  Yb  Yb13  1  -0.00000000  0.38062369  0.26452211  1
  Yb  Yb14  1  0.50000000  0.71433568  0.10077881  1
  Yb  Yb15  1  0.50000000  0.28566432  0.89922119  1
  Yb  Yb16  1  0.50000000  0.78566432  0.60077881  1
  Yb  Yb17  1  0.50000000  0.21433568  0.39922119  1
  Mn  Mn18  1  0.50000000  0.77590044  0.45337676  1
  Mn  Mn19  1  0.50000000  0.22409956  0.54662324  1
  Mn  Mn20  1  0.50000000  0.72409956  0.95337676  1
  Mn  Mn21  1  0.50000000  0.27590044  0.04662324  1
  Mn  Mn22  1  0.50000000  0.61386345  0.25869671  1
  Mn  Mn23  1  0.50000000  0.38613655  0.74130329  1
  Mn  Mn24  1  0.50000000  0.88613655  0.75869671  1
  Mn  Mn25  1  0.50000000  0.11386345  0.24130329  1
  Bi  Bi26  1  0.50000000  0.00000000  0.50000000  1
  Bi  Bi27  1  0.50000000  0.50000000  -0.00000000  1
  Bi  Bi28  1  0.00000000  0.80504061  0.00519388  1
  Bi  Bi29  1  0.00000000  0.19495939  0.99480612  1
  Bi  Bi30  1  -0.00000000  0.69495939  0.50519388  1
  Bi  Bi31  1  -0.00000000  0.30504061  0.49480612  1
  Bi  Bi32  1  -0.00000000  0.62426825  0.19210105  1
  Bi  Bi33  1  0.00000000  0.37573175  0.80789895  1
  Bi  Bi34  1  -0.00000000  0.87573175  0.69210105  1
  Bi  Bi35  1  -0.00000000  0.12426825  0.30789895  1
  Bi  Bi36  1  0.50000000  0.96115954  0.14727344  1
  Bi  Bi37  1  0.50000000  0.03884046  0.85272656  1
  Bi  Bi38  1  0.50000000  0.53884046  0.64727344  1
  Bi  Bi39  1  0.50000000  0.46115954  0.35272656  1
  Bi  Bi40  1  0.50000000  0.81503561  0.32936184  1
  Bi  Bi41  1  0.50000000  0.18496439  0.67063816  1
  Bi  Bi42  1  0.50000000  0.68496439  0.82936184  1
  Bi  Bi43  1  0.50000000  0.31503561  0.17063816  1
