# generated using pymatgen
data_Fe3P3PbO13
_symmetry_space_group_name_H-M   'P 1'
_cell_length_a   6.45165902
_cell_length_b   7.70648112
_cell_length_c   10.56781051
_cell_angle_alpha   99.64130354
_cell_angle_beta   90.00000000
_cell_angle_gamma   90.00000000
_symmetry_Int_Tables_number   1
_chemical_formula_structural   Fe3P3PbO13
_chemical_formula_sum   'Fe6 P6 Pb2 O26'
_cell_volume   518.00582451
_cell_formula_units_Z   2
loop_
 _symmetry_equiv_pos_site_id
 _symmetry_equiv_pos_as_xyz
  1  'x, y, z'
loop_
 _atom_site_type_symbol
 _atom_site_label
 _atom_site_symmetry_multiplicity
 _atom_site_fract_x
 _atom_site_fract_y
 _atom_site_fract_z
 _atom_site_occupancy
  Fe  Fe0  1  0.75000000  0.15267974  0.30263817  1
  Fe  Fe1  1  0.25000000  0.84732026  0.69736183  1
  Fe  Fe2  1  0.50000000  0.50000000  0.50000000  1
  Fe  Fe3  1  -0.00000000  0.50000000  0.50000000  1
  Fe  Fe4  1  0.25000000  0.28797294  0.94246147  1
  Fe  Fe5  1  0.75000000  0.71202706  0.05753853  1
  P  P6  1  0.75000000  0.81223828  0.38313323  1
  P  P7  1  0.25000000  0.18776172  0.61686677  1
  P  P8  1  0.25000000  0.24750750  0.26241024  1
  P  P9  1  0.75000000  0.75249250  0.73758976  1
  P  P10  1  0.75000000  0.28296999  0.02045629  1
  P  P11  1  0.25000000  0.71703001  0.97954371  1
  Pb  Pb12  1  0.75000000  0.16357444  0.70075290  1
  Pb  Pb13  1  0.25000000  0.83642556  0.29924710  1
  O  O14  1  0.55792124  0.24693772  0.92951943  1
  O  O15  1  0.05792124  0.75306228  0.07048057  1
  O  O16  1  0.44207876  0.75306228  0.07048057  1
  O  O17  1  0.94207876  0.24693772  0.92951943  1
  O  O18  1  0.55399282  0.71003384  0.41206210  1
  O  O19  1  0.05399282  0.28996616  0.58793790  1
  O  O20  1  0.44600718  0.28996616  0.58793790  1
  O  O21  1  0.94600718  0.71003384  0.41206210  1
  O  O22  1  0.25000000  0.29559988  0.12744895  1
  O  O23  1  0.75000000  0.70440012  0.87255105  1
  O  O24  1  0.43878436  0.13381173  0.28809823  1
  O  O25  1  0.93878436  0.86618827  0.71190177  1
  O  O26  1  0.56121564  0.86618827  0.71190177  1
  O  O27  1  0.06121564  0.13381173  0.28809823  1
  O  O28  1  0.75000000  0.47700722  0.08963616  1
  O  O29  1  0.25000000  0.52299278  0.91036384  1
  O  O30  1  0.75000000  0.37890133  0.41222057  1
  O  O31  1  0.25000000  0.62109867  0.58777943  1
  O  O32  1  0.25000000  0.42223597  0.36468182  1
  O  O33  1  0.75000000  0.57776403  0.63531818  1
  O  O34  1  0.75000000  0.84196371  0.24014816  1
  O  O35  1  0.25000000  0.15803629  0.75985184  1
  O  O36  1  0.75000000  0.00568311  0.45406136  1
  O  O37  1  0.25000000  0.99431689  0.54593864  1
  O  O38  1  0.75000000  0.15825413  0.11829015  1
  O  O39  1  0.25000000  0.84174587  0.88170985  1
