# generated using pymatgen
data_RbCrH24(SO10)2
_symmetry_space_group_name_H-M   'P 1'
_cell_length_a   12.52837746
_cell_length_b   12.52837746
_cell_length_c   12.52837746
_cell_angle_alpha   90.00000000
_cell_angle_beta   90.00000000
_cell_angle_gamma   90.00000000
_symmetry_Int_Tables_number   1
_chemical_formula_structural   RbCrH24(SO10)2
_chemical_formula_sum   'Rb4 Cr4 H96 S8 O80'
_cell_volume   1966.45715524
_cell_formula_units_Z   4
loop_
 _symmetry_equiv_pos_site_id
 _symmetry_equiv_pos_as_xyz
  1  'x, y, z'
loop_
 _atom_site_type_symbol
 _atom_site_label
 _atom_site_symmetry_multiplicity
 _atom_site_fract_x
 _atom_site_fract_y
 _atom_site_fract_z
 _atom_site_occupancy
  Rb  Rb0  1  0.50000000  0.50000000  -0.00000000  1
  Rb  Rb1  1  0.50000000  0.00000000  0.50000000  1
  Rb  Rb2  1  -0.00000000  0.50000000  0.50000000  1
  Rb  Rb3  1  -0.00000000  0.00000000  -0.00000000  1
  Cr  Cr4  1  -0.00000000  0.00000000  0.50000000  1
  Cr  Cr5  1  -0.00000000  0.50000000  -0.00000000  1
  Cr  Cr6  1  0.50000000  0.00000000  -0.00000000  1
  Cr  Cr7  1  0.50000000  0.50000000  0.50000000  1
  H  H8  1  0.38348698  0.32725521  0.21397306  1
  H  H9  1  0.61651302  0.82725521  0.28602694  1
  H  H10  1  0.11651302  0.67274479  0.71397306  1
  H  H11  1  0.88348698  0.17274479  0.78602694  1
  H  H12  1  0.21397306  0.38348698  0.32725521  1
  H  H13  1  0.28602694  0.61651302  0.82725521  1
  H  H14  1  0.71397306  0.11651302  0.67274479  1
  H  H15  1  0.78602694  0.88348698  0.17274479  1
  H  H16  1  0.32725521  0.21397306  0.38348698  1
  H  H17  1  0.82725521  0.28602694  0.61651302  1
  H  H18  1  0.67274479  0.71397306  0.11651302  1
  H  H19  1  0.17274479  0.78602694  0.88348698  1
  H  H20  1  0.61651302  0.67274479  0.78602694  1
  H  H21  1  0.38348698  0.17274479  0.71397306  1
  H  H22  1  0.88348698  0.32725521  0.28602694  1
  H  H23  1  0.11651302  0.82725521  0.21397306  1
  H  H24  1  0.78602694  0.61651302  0.67274479  1
  H  H25  1  0.71397306  0.38348698  0.17274479  1
  H  H26  1  0.28602694  0.88348698  0.32725521  1
  H  H27  1  0.21397306  0.11651302  0.82725521  1
  H  H28  1  0.67274479  0.78602694  0.61651302  1
  H  H29  1  0.17274479  0.71397306  0.38348698  1
  H  H30  1  0.32725521  0.28602694  0.88348698  1
  H  H31  1  0.82725521  0.21397306  0.11651302  1
  H  H32  1  0.50516929  0.29907836  0.22102304  1
  H  H33  1  0.49483071  0.79907836  0.27897696  1
  H  H34  1  0.99483071  0.70092164  0.72102304  1
  H  H35  1  0.00516929  0.20092164  0.77897696  1
  H  H36  1  0.22102304  0.50516929  0.29907836  1
  H  H37  1  0.27897696  0.49483071  0.79907836  1
  H  H38  1  0.72102304  0.99483071  0.70092164  1
  H  H39  1  0.77897696  0.00516929  0.20092164  1
  H  H40  1  0.29907836  0.22102304  0.50516929  1
  H  H41  1  0.79907836  0.27897696  0.49483071  1
  H  H42  1  0.70092164  0.72102304  0.99483071  1
  H  H43  1  0.20092164  0.77897696  0.00516929  1
  H  H44  1  0.49483071  0.70092164  0.77897696  1
  H  H45  1  0.50516929  0.20092164  0.72102304  1
  H  H46  1  0.00516929  0.29907836  0.27897696  1
  H  H47  1  0.99483071  0.79907836  0.22102304  1
  H  H48  1  0.77897696  0.49483071  0.70092164  1
  H  H49  1  0.72102304  0.50516929  0.20092164  1
  H  H50  1  0.27897696  0.00516929  0.29907836  1
  H  H51  1  0.22102304  0.99483071  0.79907836  1
  H  H52  1  0.70092164  0.77897696  0.49483071  1
  H  H53  1  0.20092164  0.72102304  0.50516929  1
  H  H54  1  0.29907836  0.27897696  0.00516929  1
  H  H55  1  0.79907836  0.22102304  0.99483071  1
  H  H56  1  0.92086557  0.80717248  0.46067944  1
  H  H57  1  0.07913443  0.30717248  0.03932056  1
  H  H58  1  0.57913443  0.19282752  0.96067944  1
  H  H59  1  0.42086557  0.69282752  0.53932056  1
  H  H60  1  0.46067944  0.92086557  0.80717248  1
  H  H61  1  0.03932056  0.07913443  0.30717248  1
  H  H62  1  0.96067944  0.57913443  0.19282752  1
  H  H63  1  0.53932056  0.42086557  0.69282752  1
  H  H64  1  0.80717248  0.46067944  0.92086557  1
  H  H65  1  0.30717248  0.03932056  0.07913443  1
  H  H66  1  0.19282752  0.96067944  0.57913443  1
  H  H67  1  0.69282752  0.53932056  0.42086557  1
  H  H68  1  0.07913443  0.19282752  0.53932056  1
  H  H69  1  0.92086557  0.69282752  0.96067944  1
  H  H70  1  0.42086557  0.80717248  0.03932056  1
  H  H71  1  0.57913443  0.30717248  0.46067944  1
  H  H72  1  0.53932056  0.07913443  0.19282752  1
  H  H73  1  0.96067944  0.92086557  0.69282752  1
  H  H74  1  0.03932056  0.42086557  0.80717248  1
  H  H75  1  0.46067944  0.57913443  0.30717248  1
  H  H76  1  0.19282752  0.53932056  0.07913443  1
  H  H77  1  0.69282752  0.96067944  0.92086557  1
  H  H78  1  0.80717248  0.03932056  0.42086557  1
  H  H79  1  0.30717248  0.46067944  0.57913443  1
  H  H80  1  0.04997135  0.79307589  0.47456392  1
  H  H81  1  0.95002865  0.29307589  0.02543608  1
  H  H82  1  0.45002865  0.20692411  0.97456392  1
  H  H83  1  0.54997135  0.70692411  0.52543608  1
  H  H84  1  0.47456392  0.04997135  0.79307589  1
  H  H85  1  0.02543608  0.95002865  0.29307589  1
  H  H86  1  0.97456392  0.45002865  0.20692411  1
  H  H87  1  0.52543608  0.54997135  0.70692411  1
  H  H88  1  0.79307589  0.47456392  0.04997135  1
  H  H89  1  0.29307589  0.02543608  0.95002865  1
  H  H90  1  0.20692411  0.97456392  0.45002865  1
  H  H91  1  0.70692411  0.52543608  0.54997135  1
  H  H92  1  0.95002865  0.20692411  0.52543608  1
  H  H93  1  0.04997135  0.70692411  0.97456392  1
  H  H94  1  0.54997135  0.79307589  0.02543608  1
  H  H95  1  0.45002865  0.29307589  0.47456392  1
  H  H96  1  0.52543608  0.95002865  0.20692411  1
  H  H97  1  0.97456392  0.04997135  0.70692411  1
  H  H98  1  0.02543608  0.54997135  0.79307589  1
  H  H99  1  0.47456392  0.45002865  0.29307589  1
  H  H100  1  0.20692411  0.52543608  0.95002865  1
  H  H101  1  0.70692411  0.97456392  0.04997135  1
  H  H102  1  0.79307589  0.02543608  0.54997135  1
  H  H103  1  0.29307589  0.47456392  0.45002865  1
  S  S104  1  0.31123232  0.68876768  0.18876768  1
  S  S105  1  0.68876768  0.18876768  0.31123232  1
  S  S106  1  0.18876768  0.31123232  0.68876768  1
  S  S107  1  0.81123232  0.81123232  0.81123232  1
  S  S108  1  0.68876768  0.31123232  0.81123232  1
  S  S109  1  0.31123232  0.81123232  0.68876768  1
  S  S110  1  0.81123232  0.68876768  0.31123232  1
  S  S111  1  0.18876768  0.18876768  0.18876768  1
  O  O112  1  0.24192040  0.75807960  0.25807960  1
  O  O113  1  0.75807960  0.25807960  0.24192040  1
  O  O114  1  0.25807960  0.24192040  0.75807960  1
  O  O115  1  0.74192040  0.74192040  0.74192040  1
  O  O116  1  0.75807960  0.24192040  0.74192040  1
  O  O117  1  0.24192040  0.74192040  0.75807960  1
  O  O118  1  0.74192040  0.75807960  0.24192040  1
  O  O119  1  0.25807960  0.25807960  0.25807960  1
  O  O120  1  0.26470231  0.57916267  0.18228212  1
  O  O121  1  0.73529769  0.07916267  0.31771788  1
  O  O122  1  0.23529769  0.42083733  0.68228212  1
  O  O123  1  0.76470231  0.92083733  0.81771788  1
  O  O124  1  0.18228212  0.26470231  0.57916267  1
  O  O125  1  0.31771788  0.73529769  0.07916267  1
  O  O126  1  0.68228212  0.23529769  0.42083733  1
  O  O127  1  0.81771788  0.76470231  0.92083733  1
  O  O128  1  0.57916267  0.18228212  0.26470231  1
  O  O129  1  0.07916267  0.31771788  0.73529769  1
  O  O130  1  0.42083733  0.68228212  0.23529769  1
  O  O131  1  0.92083733  0.81771788  0.76470231  1
  O  O132  1  0.73529769  0.42083733  0.81771788  1
  O  O133  1  0.26470231  0.92083733  0.68228212  1
  O  O134  1  0.76470231  0.57916267  0.31771788  1
  O  O135  1  0.23529769  0.07916267  0.18228212  1
  O  O136  1  0.81771788  0.73529769  0.42083733  1
  O  O137  1  0.68228212  0.26470231  0.92083733  1
  O  O138  1  0.31771788  0.76470231  0.57916267  1
  O  O139  1  0.18228212  0.23529769  0.07916267  1
  O  O140  1  0.42083733  0.81771788  0.73529769  1
  O  O141  1  0.92083733  0.68228212  0.26470231  1
  O  O142  1  0.57916267  0.31771788  0.76470231  1
  O  O143  1  0.07916267  0.18228212  0.23529769  1
  O  O144  1  0.45513562  0.35910963  0.20654550  1
  O  O145  1  0.54486438  0.85910963  0.29345450  1
  O  O146  1  0.04486438  0.64089037  0.70654550  1
  O  O147  1  0.95513562  0.14089037  0.79345450  1
  O  O148  1  0.20654550  0.45513562  0.35910963  1
  O  O149  1  0.29345450  0.54486438  0.85910963  1
  O  O150  1  0.70654550  0.04486438  0.64089037  1
  O  O151  1  0.79345450  0.95513562  0.14089037  1
  O  O152  1  0.35910963  0.20654550  0.45513562  1
  O  O153  1  0.85910963  0.29345450  0.54486438  1
  O  O154  1  0.64089037  0.70654550  0.04486438  1
  O  O155  1  0.14089037  0.79345450  0.95513562  1
  O  O156  1  0.54486438  0.64089037  0.79345450  1
  O  O157  1  0.45513562  0.14089037  0.70654550  1
  O  O158  1  0.95513562  0.35910963  0.29345450  1
  O  O159  1  0.04486438  0.85910963  0.20654550  1
  O  O160  1  0.79345450  0.54486438  0.64089037  1
  O  O161  1  0.70654550  0.45513562  0.14089037  1
  O  O162  1  0.29345450  0.95513562  0.35910963  1
  O  O163  1  0.20654550  0.04486438  0.85910963  1
  O  O164  1  0.64089037  0.79345450  0.54486438  1
  O  O165  1  0.14089037  0.70654550  0.45513562  1
  O  O166  1  0.35910963  0.29345450  0.95513562  1
  O  O167  1  0.85910963  0.20654550  0.04486438  1
  O  O168  1  0.98682151  0.84145791  0.49054245  1
  O  O169  1  0.01317849  0.34145791  0.00945755  1
  O  O170  1  0.51317849  0.15854209  0.99054245  1
  O  O171  1  0.48682151  0.65854209  0.50945755  1
  O  O172  1  0.49054245  0.98682151  0.84145791  1
  O  O173  1  0.00945755  0.01317849  0.34145791  1
  O  O174  1  0.99054245  0.51317849  0.15854209  1
  O  O175  1  0.50945755  0.48682151  0.65854209  1
  O  O176  1  0.84145791  0.49054245  0.98682151  1
  O  O177  1  0.34145791  0.00945755  0.01317849  1
  O  O178  1  0.15854209  0.99054245  0.51317849  1
  O  O179  1  0.65854209  0.50945755  0.48682151  1
  O  O180  1  0.01317849  0.15854209  0.50945755  1
  O  O181  1  0.98682151  0.65854209  0.99054245  1
  O  O182  1  0.48682151  0.84145791  0.00945755  1
  O  O183  1  0.51317849  0.34145791  0.49054245  1
  O  O184  1  0.50945755  0.01317849  0.15854209  1
  O  O185  1  0.99054245  0.98682151  0.65854209  1
  O  O186  1  0.00945755  0.48682151  0.84145791  1
  O  O187  1  0.49054245  0.51317849  0.34145791  1
  O  O188  1  0.15854209  0.50945755  0.01317849  1
  O  O189  1  0.65854209  0.99054245  0.98682151  1
  O  O190  1  0.84145791  0.00945755  0.48682151  1
  O  O191  1  0.34145791  0.49054245  0.51317849  1
