# generated using pymatgen
data_Li2AlB5(H19N3)2
_symmetry_space_group_name_H-M   'P 1'
_cell_length_a   7.79445188
_cell_length_b   7.79445550
_cell_length_c   15.90444747
_cell_angle_alpha   90.00000000
_cell_angle_beta   90.00007437
_cell_angle_gamma   120.00001410
_symmetry_Int_Tables_number   1
_chemical_formula_structural   Li2AlB5(H19N3)2
_chemical_formula_sum   'Li4 Al2 B10 H76 N12'
_cell_volume   836.79777805
_cell_formula_units_Z   2
loop_
 _symmetry_equiv_pos_site_id
 _symmetry_equiv_pos_as_xyz
  1  'x, y, z'
loop_
 _atom_site_type_symbol
 _atom_site_label
 _atom_site_symmetry_multiplicity
 _atom_site_fract_x
 _atom_site_fract_y
 _atom_site_fract_z
 _atom_site_occupancy
  Li  Li0  1  0.33333677  0.66666737  0.78473842  1
  Li  Li1  1  0.33333677  0.66666940  0.28473842  1
  Li  Li2  1  0.66666323  0.33333263  0.21526158  1
  Li  Li3  1  0.66666323  0.33333060  0.71526158  1
  Al  Al4  1  0.00000000  0.00000000  0.00000000  1
  Al  Al5  1  0.00000000  0.00000000  0.50000000  1
  B  B6  1  0.00000000  0.37681412  0.75000000  1
  B  B7  1  0.62318619  0.62318640  0.74999995  1
  B  B8  1  0.37681381  0.00000021  0.75000005  1
  B  B9  1  1.00000000  0.62318588  0.25000000  1
  B  B10  1  0.37681381  0.37681360  0.25000005  1
  B  B11  1  0.62318619  0.99999979  0.24999995  1
  B  B12  1  0.33333585  0.66666795  0.95417567  1
  B  B13  1  0.33333585  0.66666790  0.45417567  1
  B  B14  1  0.66666415  0.33333205  0.04582433  1
  B  B15  1  0.66666415  0.33333210  0.54582433  1
  H  H16  1  0.75422923  0.88688868  0.13014183  1
  H  H17  1  0.11311130  0.86734020  0.13014173  1
  H  H18  1  0.13265954  0.24577119  0.13014175  1
  H  H19  1  0.75422923  0.86734055  0.63014183  1
  H  H20  1  0.13265954  0.88688836  0.63014175  1
  H  H21  1  0.11311130  0.24577110  0.63014173  1
  H  H22  1  0.24577077  0.11311132  0.86985817  1
  H  H23  1  0.88688870  0.13265980  0.86985827  1
  H  H24  1  0.86734046  0.75422881  0.86985825  1
  H  H25  1  0.24577077  0.13265945  0.36985817  1
  H  H26  1  0.86734046  0.11311164  0.36985825  1
  H  H27  1  0.88688870  0.75422890  0.36985827  1
  H  H28  1  0.62534361  0.78439408  0.04516299  1
  H  H29  1  0.21560551  0.84094953  0.04516303  1
  H  H30  1  0.15905026  0.37465596  0.04516296  1
  H  H31  1  0.62534361  0.84094953  0.54516299  1
  H  H32  1  0.15905026  0.78439430  0.54516296  1
  H  H33  1  0.21560551  0.37465599  0.54516303  1
  H  H34  1  0.37465639  0.21560592  0.95483701  1
  H  H35  1  0.78439449  0.15905047  0.95483697  1
  H  H36  1  0.84094974  0.62534404  0.95483704  1
  H  H37  1  0.37465639  0.15905047  0.45483701  1
  H  H38  1  0.84094974  0.21560570  0.45483704  1
  H  H39  1  0.78439449  0.62534401  0.45483697  1
  H  H40  1  0.75317625  0.69418888  0.08727805  1
  H  H41  1  0.30581159  0.05898741  0.08727802  1
  H  H42  1  0.94101244  0.24682403  0.08727800  1
  H  H43  1  0.75317625  0.05898737  0.58727805  1
  H  H44  1  0.94101244  0.69418842  0.58727800  1
  H  H45  1  0.30581159  0.24682419  0.58727802  1
  H  H46  1  0.24682375  0.30581112  0.91272195  1
  H  H47  1  0.69418841  0.94101259  0.91272198  1
  H  H48  1  0.05898756  0.75317597  0.91272200  1
  H  H49  1  0.24682375  0.94101263  0.41272195  1
  H  H50  1  0.05898756  0.30581158  0.41272200  1
  H  H51  1  0.69418841  0.75317581  0.41272198  1
  H  H52  1  0.89696843  0.41532489  0.79593101  1
  H  H53  1  0.58467511  0.48164453  0.79593127  1
  H  H54  1  0.51835604  0.10303112  0.79593125  1
  H  H55  1  0.89696843  0.48164354  0.29593101  1
  H  H56  1  0.51835604  0.41532491  0.29593125  1
  H  H57  1  0.58467511  0.10303058  0.29593127  1
  H  H58  1  0.10303157  0.58467511  0.20406899  1
  H  H59  1  0.41532489  0.51835547  0.20406873  1
  H  H60  1  0.48164396  0.89696888  0.20406875  1
  H  H61  1  0.10303157  0.51835646  0.70406899  1
  H  H62  1  0.48164396  0.58467509  0.70406875  1
  H  H63  1  0.41532489  0.89696942  0.70406873  1
  H  H64  1  0.10585617  0.33755569  0.79357470  1
  H  H65  1  0.66244452  0.76830079  0.79357461  1
  H  H66  1  0.23169935  0.89414413  0.79357452  1
  H  H67  1  0.10585617  0.76830048  0.29357470  1
  H  H68  1  0.23169935  0.33755522  0.29357452  1
  H  H69  1  0.66244452  0.89414373  0.29357461  1
  H  H70  1  0.89414383  0.66244431  0.20642530  1
  H  H71  1  0.33755548  0.23169921  0.20642539  1
  H  H72  1  0.76830065  0.10585587  0.20642548  1
  H  H73  1  0.89414383  0.23169952  0.70642530  1
  H  H74  1  0.76830065  0.66244478  0.70642548  1
  H  H75  1  0.33755548  0.10585627  0.70642539  1
  H  H76  1  0.33333807  0.66666903  0.03156637  1
  H  H77  1  0.33333807  0.66666904  0.53156637  1
  H  H78  1  0.66666193  0.33333097  0.96843363  1
  H  H79  1  0.66666193  0.33333096  0.46843363  1
  H  H80  1  0.46123205  0.63183512  0.92843531  1
  H  H81  1  0.36816803  0.82939718  0.92843588  1
  H  H82  1  0.17060538  0.53877048  0.92843709  1
  H  H83  1  0.46123205  0.82939693  0.42843531  1
  H  H84  1  0.17060538  0.63183490  0.42843709  1
  H  H85  1  0.36816803  0.53877085  0.42843588  1
  H  H86  1  0.53876795  0.36816488  0.07156469  1
  H  H87  1  0.63183197  0.17060282  0.07156412  1
  H  H88  1  0.82939462  0.46122952  0.07156291  1
  H  H89  1  0.53876795  0.17060307  0.57156469  1
  H  H90  1  0.82939462  0.36816510  0.57156291  1
  H  H91  1  0.63183197  0.46122915  0.57156412  1
  N  N92  1  0.75989314  0.82605488  0.07327083  1
  N  N93  1  0.17394480  0.93383772  0.07327084  1
  N  N94  1  0.06616161  0.24010665  0.07327079  1
  N  N95  1  0.75989314  0.93383826  0.57327083  1
  N  N96  1  0.06616161  0.82605496  0.57327079  1
  N  N97  1  0.17394480  0.24010707  0.57327084  1
  N  N98  1  0.24010686  0.17394512  0.92672917  1
  N  N99  1  0.82605520  0.06616228  0.92672916  1
  N  N100  1  0.93383839  0.75989335  0.92672921  1
  N  N101  1  0.24010686  0.06616174  0.42672917  1
  N  N102  1  0.93383839  0.17394504  0.42672921  1
  N  N103  1  0.82605520  0.75989293  0.42672916  1
