# generated using pymatgen
data_K2Te(WO4)3
_symmetry_space_group_name_H-M   'P 1'
_cell_length_a   7.40015948
_cell_length_b   11.95809048
_cell_length_c   12.85261738
_cell_angle_alpha   90.00000000
_cell_angle_beta   90.17827241
_cell_angle_gamma   90.00000000
_symmetry_Int_Tables_number   1
_chemical_formula_structural   K2Te(WO4)3
_chemical_formula_sum   'K8 Te4 W12 O48'
_cell_volume   1137.34544131
_cell_formula_units_Z   4
loop_
 _symmetry_equiv_pos_site_id
 _symmetry_equiv_pos_as_xyz
  1  'x, y, z'
loop_
 _atom_site_type_symbol
 _atom_site_label
 _atom_site_symmetry_multiplicity
 _atom_site_fract_x
 _atom_site_fract_y
 _atom_site_fract_z
 _atom_site_occupancy
  K  K0  1  0.24868777  0.95414560  0.58265641  1
  K  K1  1  0.74868777  0.54585440  0.08265641  1
  K  K2  1  0.75131223  0.04585440  0.41734359  1
  K  K3  1  0.25131223  0.45414560  0.91734359  1
  K  K4  1  0.24499635  0.56772910  0.61270780  1
  K  K5  1  0.74499635  0.93227090  0.11270780  1
  K  K6  1  0.75500365  0.43227090  0.38729220  1
  K  K7  1  0.25500365  0.06772910  0.88729220  1
  Te  Te8  1  0.24978483  0.00519020  0.30120231  1
  Te  Te9  1  0.74978483  0.49480980  0.80120231  1
  Te  Te10  1  0.75021517  0.99480980  0.69879769  1
  Te  Te11  1  0.25021517  0.50519020  0.19879769  1
  W  W12  1  0.25447732  0.29612455  0.42058477  1
  W  W13  1  0.75447732  0.20387545  0.92058477  1
  W  W14  1  0.74552268  0.70387545  0.57941523  1
  W  W15  1  0.24552268  0.79612455  0.07941523  1
  W  W16  1  0.49159671  0.24547542  0.67280482  1
  W  W17  1  0.99159671  0.25452458  0.17280482  1
  W  W18  1  0.50840329  0.75452458  0.32719518  1
  W  W19  1  0.00840329  0.74547542  0.82719518  1
  W  W20  1  -0.00002055  0.24887890  0.66794385  1
  W  W21  1  0.49997945  0.25112110  0.16794385  1
  W  W22  1  0.00002055  0.75112110  0.33205615  1
  W  W23  1  0.50002055  0.74887890  0.83205615  1
  O  O24  1  0.06314683  0.91972871  0.36913399  1
  O  O25  1  0.56314683  0.58027129  0.86913399  1
  O  O26  1  0.93685317  0.08027129  0.63086601  1
  O  O27  1  0.43685317  0.41972871  0.13086601  1
  O  O28  1  0.43954200  0.92221577  0.36926188  1
  O  O29  1  0.93954200  0.57778423  0.86926188  1
  O  O30  1  0.56045800  0.07778423  0.63073812  1
  O  O31  1  0.06045800  0.42221577  0.13073812  1
  O  O32  1  0.24492286  0.11866888  0.40342831  1
  O  O33  1  0.74492286  0.38133112  0.90342831  1
  O  O34  1  0.75507714  0.88133112  0.59657169  1
  O  O35  1  0.25507714  0.61866888  0.09657169  1
  O  O36  1  0.43450090  0.30004313  0.31231706  1
  O  O37  1  0.93450090  0.19995687  0.81231706  1
  O  O38  1  0.56549910  0.69995687  0.68768294  1
  O  O39  1  0.06549910  0.80004313  0.18768294  1
  O  O40  1  0.06179449  0.26697832  0.52451497  1
  O  O41  1  0.56179449  0.23302168  0.02451497  1
  O  O42  1  0.93820551  0.73302168  0.47548503  1
  O  O43  1  0.43820551  0.76697832  0.97548503  1
  O  O44  1  0.43615252  0.26215709  0.52666697  1
  O  O45  1  0.93615252  0.23784291  0.02666697  1
  O  O46  1  0.56384748  0.73784291  0.47333303  1
  O  O47  1  0.06384748  0.76215709  0.97333303  1
  O  O48  1  0.25674546  0.44239160  0.44502549  1
  O  O49  1  0.75674546  0.05760840  0.94502549  1
  O  O50  1  0.74325454  0.55760840  0.55497451  1
  O  O51  1  0.24325454  0.94239160  0.05497451  1
  O  O52  1  0.44508371  0.38625041  0.71324067  1
  O  O53  1  0.94508371  0.11374959  0.21324067  1
  O  O54  1  0.55491629  0.61374959  0.28675933  1
  O  O55  1  0.05491629  0.88625041  0.78675933  1
  O  O56  1  0.56620105  0.19587751  0.81292916  1
  O  O57  1  0.06620105  0.30412249  0.31292916  1
  O  O58  1  0.43379895  0.80412249  0.18707084  1
  O  O59  1  0.93379895  0.69587751  0.68707084  1
  O  O60  1  0.24631314  0.19068482  0.69569338  1
  O  O61  1  0.74631314  0.30931518  0.19569338  1
  O  O62  1  0.75368686  0.80931518  0.30430662  1
  O  O63  1  0.25368686  0.69068482  0.80430662  1
  O  O64  1  0.04864140  0.38864633  0.71151305  1
  O  O65  1  0.54864140  0.11135367  0.21151305  1
  O  O66  1  0.95135860  0.61135367  0.28848695  1
  O  O67  1  0.45135860  0.88864633  0.78848695  1
  O  O68  1  0.74655834  0.27846162  0.64421929  1
  O  O69  1  0.24655834  0.22153838  0.14421929  1
  O  O70  1  0.25344166  0.72153838  0.35578071  1
  O  O71  1  0.75344166  0.77846162  0.85578071  1
