# generated using pymatgen
data_Tb2HfS5
_symmetry_space_group_name_H-M   'P 1'
_cell_length_a   7.27112619
_cell_length_b   7.76936269
_cell_length_c   11.57353519
_cell_angle_alpha   90.00000000
_cell_angle_beta   90.00000000
_cell_angle_gamma   90.00000000
_symmetry_Int_Tables_number   1
_chemical_formula_structural   Tb2HfS5
_chemical_formula_sum   'Tb8 Hf4 S20'
_cell_volume   653.81234132
_cell_formula_units_Z   4
loop_
 _symmetry_equiv_pos_site_id
 _symmetry_equiv_pos_as_xyz
  1  'x, y, z'
loop_
 _atom_site_type_symbol
 _atom_site_label
 _atom_site_symmetry_multiplicity
 _atom_site_fract_x
 _atom_site_fract_y
 _atom_site_fract_z
 _atom_site_occupancy
  Tb  Tb0  1  0.02443499  0.99758675  0.82185419  1
  Tb  Tb1  1  0.47556501  0.50241325  0.32185419  1
  Tb  Tb2  1  0.97556501  0.49758675  0.17814581  1
  Tb  Tb3  1  0.52443499  0.00241325  0.67814581  1
  Tb  Tb4  1  0.97556501  0.00241325  0.17814581  1
  Tb  Tb5  1  0.52443499  0.49758675  0.67814581  1
  Tb  Tb6  1  0.02443499  0.50241325  0.82185419  1
  Tb  Tb7  1  0.47556501  0.99758675  0.32185419  1
  Hf  Hf8  1  0.57542973  0.25000000  0.99391766  1
  Hf  Hf9  1  0.92457027  0.25000000  0.49391766  1
  Hf  Hf10  1  0.42457027  0.75000000  0.00608234  1
  Hf  Hf11  1  0.07542973  0.75000000  0.50608234  1
  S  S12  1  0.33916476  0.46391825  0.09292226  1
  S  S13  1  0.16083524  0.03608175  0.59292226  1
  S  S14  1  0.66083524  0.96391825  0.90707774  1
  S  S15  1  0.83916476  0.53608175  0.40707774  1
  S  S16  1  0.66083524  0.53608175  0.90707774  1
  S  S17  1  0.83916476  0.96391825  0.40707774  1
  S  S18  1  0.33916476  0.03608175  0.09292226  1
  S  S19  1  0.16083524  0.46391825  0.59292226  1
  S  S20  1  0.33361546  0.25000000  0.81890588  1
  S  S21  1  0.16638454  0.25000000  0.31890588  1
  S  S22  1  0.66638454  0.75000000  0.18109412  1
  S  S23  1  0.83361546  0.75000000  0.68109412  1
  S  S24  1  0.94613659  0.25000000  0.99646602  1
  S  S25  1  0.55386341  0.25000000  0.49646602  1
  S  S26  1  0.05386341  0.75000000  0.00353398  1
  S  S27  1  0.44613659  0.75000000  0.50353398  1
  S  S28  1  0.68768167  0.25000000  0.20697972  1
  S  S29  1  0.81231833  0.25000000  0.70697972  1
  S  S30  1  0.31231833  0.75000000  0.79302028  1
  S  S31  1  0.18768167  0.75000000  0.29302028  1
