# generated using pymatgen
data_NaTb(SiO3)2
_symmetry_space_group_name_H-M   'P 1'
_cell_length_a   5.48358440
_cell_length_b   7.69871766
_cell_length_c   13.90388556
_cell_angle_alpha   90.00000000
_cell_angle_beta   90.00000000
_cell_angle_gamma   110.02957098
_symmetry_Int_Tables_number   1
_chemical_formula_structural   NaTb(SiO3)2
_chemical_formula_sum   'Na4 Tb4 Si8 O24'
_cell_volume   551.47176121
_cell_formula_units_Z   4
loop_
 _symmetry_equiv_pos_site_id
 _symmetry_equiv_pos_as_xyz
  1  'x, y, z'
loop_
 _atom_site_type_symbol
 _atom_site_label
 _atom_site_symmetry_multiplicity
 _atom_site_fract_x
 _atom_site_fract_y
 _atom_site_fract_z
 _atom_site_occupancy
  Na  Na0  1  0.86116021  0.45667373  0.76834897  1
  Na  Na1  1  0.13883979  0.04332627  0.26834897  1
  Na  Na2  1  0.13883979  0.54332627  0.23165103  1
  Na  Na3  1  0.86116021  0.95667373  0.73165103  1
  Tb  Tb4  1  0.01765638  0.25212637  0.50554451  1
  Tb  Tb5  1  0.98234362  0.24787363  0.00554451  1
  Tb  Tb6  1  0.98234362  0.74787363  0.49445549  1
  Tb  Tb7  1  0.01765638  0.75212637  0.99445549  1
  Si  Si8  1  0.42764561  0.14432207  0.63985030  1
  Si  Si9  1  0.57235439  0.35567793  0.13985030  1
  Si  Si10  1  0.57235439  0.85567793  0.36014970  1
  Si  Si11  1  0.42764561  0.64432207  0.86014970  1
  Si  Si12  1  0.41843084  0.06759288  0.86156750  1
  Si  Si13  1  0.58156916  0.43240712  0.36156750  1
  Si  Si14  1  0.58156916  0.93240712  0.13843250  1
  Si  Si15  1  0.41843084  0.56759288  0.63843250  1
  O  O16  1  0.31498733  0.07988945  0.75034383  1
  O  O17  1  0.68501267  0.42011055  0.25034383  1
  O  O18  1  0.68501267  0.92011055  0.24965617  1
  O  O19  1  0.31498733  0.57988945  0.74965617  1
  O  O20  1  0.38380272  0.34574317  0.62252827  1
  O  O21  1  0.61619728  0.15425683  0.12252827  1
  O  O22  1  0.61619728  0.65425683  0.37747173  1
  O  O23  1  0.38380272  0.84574317  0.87747173  1
  O  O24  1  0.21040014  0.01809948  0.56583584  1
  O  O25  1  0.78959986  0.48190052  0.06583584  1
  O  O26  1  0.78959986  0.98190052  0.43416416  1
  O  O27  1  0.21040014  0.51809948  0.93416416  1
  O  O28  1  0.73066651  0.16889107  0.63347883  1
  O  O29  1  0.26933349  0.33110893  0.13347883  1
  O  O30  1  0.26933349  0.83110893  0.36652117  1
  O  O31  1  0.73066651  0.66889107  0.86652117  1
  O  O32  1  0.20063089  0.08152678  0.93669438  1
  O  O33  1  0.79936911  0.41847322  0.43669438  1
  O  O34  1  0.79936911  0.91847322  0.06330562  1
  O  O35  1  0.20063089  0.58152678  0.56330562  1
  O  O36  1  0.71581957  0.19741823  0.87413574  1
  O  O37  1  0.28418043  0.30258177  0.37413574  1
  O  O38  1  0.28418043  0.80258177  0.12586426  1
  O  O39  1  0.71581957  0.69741823  0.62586426  1
