# generated using pymatgen
data_B2Pb6WO12
_symmetry_space_group_name_H-M   'P 1'
_cell_length_a   6.49116443
_cell_length_b   9.97812310
_cell_length_c   12.03745553
_cell_angle_alpha   90.00000000
_cell_angle_beta   90.00000000
_cell_angle_gamma   108.98192493
_symmetry_Int_Tables_number   1
_chemical_formula_structural   B2Pb6WO12
_chemical_formula_sum   'B4 Pb12 W2 O24'
_cell_volume   737.26459775
_cell_formula_units_Z   2
loop_
 _symmetry_equiv_pos_site_id
 _symmetry_equiv_pos_as_xyz
  1  'x, y, z'
loop_
 _atom_site_type_symbol
 _atom_site_label
 _atom_site_symmetry_multiplicity
 _atom_site_fract_x
 _atom_site_fract_y
 _atom_site_fract_z
 _atom_site_occupancy
  B  B0  1  0.74669270  0.49338541  -0.00000000  1
  B  B1  1  0.74669270  0.49338541  0.50000000  1
  B  B2  1  0.25330730  0.50661459  0.00000000  1
  B  B3  1  0.25330730  0.50661459  0.50000000  1
  Pb  Pb4  1  0.90171934  0.41618755  0.25000000  1
  Pb  Pb5  1  0.51446821  0.41618755  0.75000000  1
  Pb  Pb6  1  0.09828066  0.58381245  0.75000000  1
  Pb  Pb7  1  0.48553179  0.58381245  0.25000000  1
  Pb  Pb8  1  0.13386187  0.78376959  0.09288614  1
  Pb  Pb9  1  0.64990772  0.78376959  0.90711386  1
  Pb  Pb10  1  0.13386187  0.78376959  0.40711386  1
  Pb  Pb11  1  0.64990772  0.78376959  0.59288614  1
  Pb  Pb12  1  0.86613813  0.21623041  0.90711386  1
  Pb  Pb13  1  0.35009228  0.21623041  0.09288614  1
  Pb  Pb14  1  0.86613813  0.21623041  0.59288614  1
  Pb  Pb15  1  0.35009228  0.21623041  0.40711386  1
  W  W16  1  0.73204715  1.00000000  0.25000000  1
  W  W17  1  0.26795285  0.00000000  0.75000000  1
  O  O18  1  0.22085973  0.69955426  0.25000000  1
  O  O19  1  0.47869453  0.69955426  0.75000000  1
  O  O20  1  0.77914027  0.30044574  0.75000000  1
  O  O21  1  0.52130547  0.30044574  0.25000000  1
  O  O22  1  0.84056365  0.56504663  0.09543293  1
  O  O23  1  0.72448298  0.56504663  0.90456707  1
  O  O24  1  0.84056365  0.56504663  0.40456707  1
  O  O25  1  0.72448298  0.56504663  0.59543293  1
  O  O26  1  0.15943635  0.43495337  0.90456707  1
  O  O27  1  0.27551702  0.43495337  0.09543293  1
  O  O28  1  0.15943635  0.43495337  0.59543293  1
  O  O29  1  0.27551702  0.43495337  0.40456707  1
  O  O30  1  0.97740424  0.15616493  0.25000000  1
  O  O31  1  0.17876069  0.15616493  0.75000000  1
  O  O32  1  0.02259576  0.84383507  0.75000000  1
  O  O33  1  0.82123931  0.84383507  0.25000000  1
  O  O34  1  0.57006231  0.00000000  0.37304030  1
  O  O35  1  0.42993769  1.00000000  0.62695970  1
  O  O36  1  0.57006231  0.00000000  0.12695970  1
  O  O37  1  0.42993769  1.00000000  0.87304030  1
  O  O38  1  0.67214456  0.34428913  -0.00000000  1
  O  O39  1  0.67214456  0.34428913  0.50000000  1
  O  O40  1  0.32785544  0.65571087  0.00000000  1
  O  O41  1  0.32785544  0.65571087  0.50000000  1
