# generated using pymatgen
data_Y2Ni7
_symmetry_space_group_name_H-M   'P 1'
_cell_length_a   4.92458609
_cell_length_b   4.92458609
_cell_length_c   24.10924917
_cell_angle_alpha   90.00000000
_cell_angle_beta   90.00000000
_cell_angle_gamma   119.98103101
_symmetry_Int_Tables_number   1
_chemical_formula_structural   Y2Ni7
_chemical_formula_sum   'Y8 Ni28'
_cell_volume   506.45022230
_cell_formula_units_Z   4
loop_
 _symmetry_equiv_pos_site_id
 _symmetry_equiv_pos_as_xyz
  1  'x, y, z'
loop_
 _atom_site_type_symbol
 _atom_site_label
 _atom_site_symmetry_multiplicity
 _atom_site_fract_x
 _atom_site_fract_y
 _atom_site_fract_z
 _atom_site_occupancy
  Y  Y0  1  0.66668162  0.33331838  0.52998865  1
  Y  Y1  1  0.33331838  0.66668162  0.47001135  1
  Y  Y2  1  0.33331838  0.66668162  0.02998865  1
  Y  Y3  1  0.66668162  0.33331838  0.97001135  1
  Y  Y4  1  0.66667603  0.33332397  0.67430506  1
  Y  Y5  1  0.33332397  0.66667603  0.32569494  1
  Y  Y6  1  0.33332397  0.66667603  0.17430506  1
  Y  Y7  1  0.66667603  0.33332397  0.82569494  1
  Ni  Ni8  1  0.00000000  -0.00000000  0.50000000  1
  Ni  Ni9  1  0.00000000  -0.00000000  0.00000000  1
  Ni  Ni10  1  0.16752026  0.33502863  0.75000000  1
  Ni  Ni11  1  0.16751580  0.83248420  0.75000000  1
  Ni  Ni12  1  0.66497137  0.83247974  0.75000000  1
  Ni  Ni13  1  0.83247974  0.66497137  0.25000000  1
  Ni  Ni14  1  0.83248420  0.16751580  0.25000000  1
  Ni  Ni15  1  0.33502863  0.16752026  0.25000000  1
  Ni  Ni16  1  0.16638908  0.33276665  0.58652871  1
  Ni  Ni17  1  0.16638327  0.83361673  0.58652077  1
  Ni  Ni18  1  0.66723335  0.83361092  0.58652871  1
  Ni  Ni19  1  0.83361092  0.66723335  0.41347129  1
  Ni  Ni20  1  0.83361673  0.16638327  0.41347923  1
  Ni  Ni21  1  0.33276665  0.16638908  0.41347129  1
  Ni  Ni22  1  0.83361092  0.66723335  0.08652871  1
  Ni  Ni23  1  0.83361673  0.16638327  0.08652077  1
  Ni  Ni24  1  0.33276665  0.16638908  0.08652871  1
  Ni  Ni25  1  0.16638908  0.33276665  0.91347129  1
  Ni  Ni26  1  0.16638327  0.83361673  0.91347923  1
  Ni  Ni27  1  0.66723335  0.83361092  0.91347129  1
  Ni  Ni28  1  0.00002212  0.99997788  0.66859379  1
  Ni  Ni29  1  0.99997788  0.00002212  0.33140621  1
  Ni  Ni30  1  0.99997788  0.00002212  0.16859379  1
  Ni  Ni31  1  0.00002212  0.99997788  0.83140621  1
  Ni  Ni32  1  0.66669626  0.33330374  0.33266064  1
  Ni  Ni33  1  0.33330374  0.66669626  0.66733936  1
  Ni  Ni34  1  0.33330374  0.66669626  0.83266064  1
  Ni  Ni35  1  0.66669626  0.33330374  0.16733936  1
