# generated using pymatgen
data_Sr4GeAs4
_symmetry_space_group_name_H-M   'P 1'
_cell_length_a   12.95454285
_cell_length_b   12.95454285
_cell_length_c   12.95454285
_cell_angle_alpha   90.00000000
_cell_angle_beta   90.00000000
_cell_angle_gamma   90.00000000
_symmetry_Int_Tables_number   1
_chemical_formula_structural   Sr4GeAs4
_chemical_formula_sum   'Sr32 Ge8 As32'
_cell_volume   2174.03371877
_cell_formula_units_Z   8
loop_
 _symmetry_equiv_pos_site_id
 _symmetry_equiv_pos_as_xyz
  1  'x, y, z'
loop_
 _atom_site_type_symbol
 _atom_site_label
 _atom_site_symmetry_multiplicity
 _atom_site_fract_x
 _atom_site_fract_y
 _atom_site_fract_z
 _atom_site_occupancy
  Sr  Sr0  1  0.13239819  0.64446537  0.09547223  1
  Sr  Sr1  1  0.35553463  0.90452777  0.13239819  1
  Sr  Sr2  1  0.09547223  0.86760181  0.35553463  1
  Sr  Sr3  1  0.86760181  0.35553463  0.09547223  1
  Sr  Sr4  1  0.64446537  0.09547223  0.13239819  1
  Sr  Sr5  1  0.90452777  0.13239819  0.35553463  1
  Sr  Sr6  1  0.13239819  0.35553463  0.90452777  1
  Sr  Sr7  1  0.35553463  0.09547223  0.86760181  1
  Sr  Sr8  1  0.09547223  0.13239819  0.64446537  1
  Sr  Sr9  1  0.86760181  0.64446537  0.90452777  1
  Sr  Sr10  1  0.64446537  0.90452777  0.86760181  1
  Sr  Sr11  1  0.90452777  0.86760181  0.64446537  1
  Sr  Sr12  1  0.63239819  0.59547223  0.14446537  1
  Sr  Sr13  1  0.85553463  0.63239819  0.40452777  1
  Sr  Sr14  1  0.59547223  0.85553463  0.36760181  1
  Sr  Sr15  1  0.36760181  0.59547223  0.85553463  1
  Sr  Sr16  1  0.14446537  0.63239819  0.59547223  1
  Sr  Sr17  1  0.40452777  0.85553463  0.63239819  1
  Sr  Sr18  1  0.63239819  0.40452777  0.85553463  1
  Sr  Sr19  1  0.85553463  0.36760181  0.59547223  1
  Sr  Sr20  1  0.59547223  0.14446537  0.63239819  1
  Sr  Sr21  1  0.36760181  0.40452777  0.14446537  1
  Sr  Sr22  1  0.14446537  0.36760181  0.40452777  1
  Sr  Sr23  1  0.40452777  0.14446537  0.36760181  1
  Sr  Sr24  1  0.85507469  0.14492531  0.85507469  1
  Sr  Sr25  1  0.14492531  0.85507469  0.85507469  1
  Sr  Sr26  1  0.85507469  0.85507469  0.14492531  1
  Sr  Sr27  1  0.14492531  0.14492531  0.14492531  1
  Sr  Sr28  1  0.35507469  0.35507469  0.64492531  1
  Sr  Sr29  1  0.64492531  0.35507469  0.35507469  1
  Sr  Sr30  1  0.35507469  0.64492531  0.35507469  1
  Sr  Sr31  1  0.64492531  0.64492531  0.64492531  1
  Ge  Ge32  1  0.00000000  0.50000000  0.25000000  1
  Ge  Ge33  1  0.50000000  0.75000000  -0.00000000  1
  Ge  Ge34  1  0.25000000  -0.00000000  0.50000000  1
  Ge  Ge35  1  0.50000000  0.25000000  -0.00000000  1
  Ge  Ge36  1  0.75000000  -0.00000000  0.50000000  1
  Ge  Ge37  1  0.00000000  0.50000000  0.75000000  1
  Ge  Ge38  1  0.50000000  0.50000000  0.50000000  1
  Ge  Ge39  1  0.00000000  -0.00000000  -0.00000000  1
  As  As40  1  0.10888495  0.61896907  0.35352581  1
  As  As41  1  0.38103093  0.64647419  0.10888495  1
  As  As42  1  0.35352581  0.89111505  0.38103093  1
  As  As43  1  0.89111505  0.38103093  0.35352581  1
  As  As44  1  0.61896907  0.35352581  0.10888495  1
  As  As45  1  0.64647419  0.10888495  0.38103093  1
  As  As46  1  0.10888495  0.38103093  0.64647419  1
  As  As47  1  0.38103093  0.35352581  0.89111505  1
  As  As48  1  0.35352581  0.10888495  0.61896907  1
  As  As49  1  0.89111505  0.61896907  0.64647419  1
  As  As50  1  0.61896907  0.64647419  0.89111505  1
  As  As51  1  0.64647419  0.89111505  0.61896907  1
  As  As52  1  0.60888495  0.85352581  0.11896907  1
  As  As53  1  0.88103093  0.60888495  0.14647419  1
  As  As54  1  0.85352581  0.88103093  0.39111505  1
  As  As55  1  0.39111505  0.85352581  0.88103093  1
  As  As56  1  0.11896907  0.60888495  0.85352581  1
  As  As57  1  0.14647419  0.88103093  0.60888495  1
  As  As58  1  0.60888495  0.14647419  0.88103093  1
  As  As59  1  0.88103093  0.39111505  0.85352581  1
  As  As60  1  0.85352581  0.11896907  0.60888495  1
  As  As61  1  0.39111505  0.14647419  0.11896907  1
  As  As62  1  0.11896907  0.39111505  0.14647419  1
  As  As63  1  0.14647419  0.11896907  0.39111505  1
  As  As64  1  0.11015691  0.88984309  0.11015691  1
  As  As65  1  0.88984309  0.11015691  0.11015691  1
  As  As66  1  0.11015691  0.11015691  0.88984309  1
  As  As67  1  0.88984309  0.88984309  0.88984309  1
  As  As68  1  0.61015691  0.61015691  0.38984309  1
  As  As69  1  0.38984309  0.61015691  0.61015691  1
  As  As70  1  0.61015691  0.38984309  0.61015691  1
  As  As71  1  0.38984309  0.38984309  0.38984309  1
