# generated using pymatgen
data_Ce3(Al3Pt2)2
_symmetry_space_group_name_H-M   'P 1'
_cell_length_a   4.30041748
_cell_length_b   13.93753076
_cell_length_c   17.47739650
_cell_angle_alpha   90.00000000
_cell_angle_beta   90.00000000
_cell_angle_gamma   90.00000000
_symmetry_Int_Tables_number   1
_chemical_formula_structural   Ce3(Al3Pt2)2
_chemical_formula_sum   'Ce12 Al24 Pt16'
_cell_volume   1047.54622538
_cell_formula_units_Z   4
loop_
 _symmetry_equiv_pos_site_id
 _symmetry_equiv_pos_as_xyz
  1  'x, y, z'
loop_
 _atom_site_type_symbol
 _atom_site_label
 _atom_site_symmetry_multiplicity
 _atom_site_fract_x
 _atom_site_fract_y
 _atom_site_fract_z
 _atom_site_occupancy
  Ce  Ce0  1  0.75000000  0.42639082  0.34794896  1
  Ce  Ce1  1  0.75000000  0.92639082  0.15205104  1
  Ce  Ce2  1  0.25000000  0.57360918  0.65205104  1
  Ce  Ce3  1  0.25000000  0.07360918  0.84794896  1
  Ce  Ce4  1  0.75000000  0.19729374  0.53041479  1
  Ce  Ce5  1  0.75000000  0.69729374  0.96958521  1
  Ce  Ce6  1  0.25000000  0.80270626  0.46958521  1
  Ce  Ce7  1  0.25000000  0.30270626  0.03041479  1
  Ce  Ce8  1  0.75000000  0.13200865  0.30624344  1
  Ce  Ce9  1  0.75000000  0.63200865  0.19375656  1
  Ce  Ce10  1  0.25000000  0.86799135  0.69375656  1
  Ce  Ce11  1  0.25000000  0.36799135  0.80624344  1
  Al  Al12  1  0.75000000  0.47298421  0.06701868  1
  Al  Al13  1  0.75000000  0.97298421  0.43298132  1
  Al  Al14  1  0.25000000  0.52701579  0.93298132  1
  Al  Al15  1  0.25000000  0.02701579  0.56701868  1
  Al  Al16  1  0.75000000  0.44450495  0.54465987  1
  Al  Al17  1  0.75000000  0.94450495  0.95534013  1
  Al  Al18  1  0.25000000  0.55549505  0.45534013  1
  Al  Al19  1  0.25000000  0.05549505  0.04465987  1
  Al  Al20  1  0.75000000  0.24808004  0.89364969  1
  Al  Al21  1  0.75000000  0.74808004  0.60635031  1
  Al  Al22  1  0.25000000  0.75191996  0.10635031  1
  Al  Al23  1  0.25000000  0.25191996  0.39364969  1
  Al  Al24  1  0.75000000  0.22907004  0.72909764  1
  Al  Al25  1  0.75000000  0.72907004  0.77090236  1
  Al  Al26  1  0.25000000  0.77092996  0.27090236  1
  Al  Al27  1  0.25000000  0.27092996  0.22909764  1
  Al  Al28  1  0.75000000  0.17282176  0.13132939  1
  Al  Al29  1  0.75000000  0.67282176  0.36867061  1
  Al  Al30  1  0.25000000  0.82717824  0.86867061  1
  Al  Al31  1  0.25000000  0.32717824  0.63132939  1
  Al  Al32  1  0.75000000  0.04034195  0.69207370  1
  Al  Al33  1  0.75000000  0.54034195  0.80792630  1
  Al  Al34  1  0.25000000  0.95965805  0.30792630  1
  Al  Al35  1  0.25000000  0.45965805  0.19207370  1
  Pt  Pt36  1  0.75000000  0.42566160  0.92707133  1
  Pt  Pt37  1  0.75000000  0.92566160  0.57292867  1
  Pt  Pt38  1  0.25000000  0.57433840  0.07292867  1
  Pt  Pt39  1  0.25000000  0.07433840  0.42707133  1
  Pt  Pt40  1  0.75000000  0.41286107  0.68968219  1
  Pt  Pt41  1  0.75000000  0.91286107  0.81031781  1
  Pt  Pt42  1  0.25000000  0.58713893  0.31031781  1
  Pt  Pt43  1  0.25000000  0.08713893  0.18968219  1
  Pt  Pt44  1  0.75000000  0.35158839  0.17794694  1
  Pt  Pt45  1  0.75000000  0.85158839  0.32205306  1
  Pt  Pt46  1  0.25000000  0.64841161  0.82205306  1
  Pt  Pt47  1  0.25000000  0.14841161  0.67794694  1
  Pt  Pt48  1  0.75000000  0.12386398  0.99227409  1
  Pt  Pt49  1  0.75000000  0.62386398  0.50772591  1
  Pt  Pt50  1  0.25000000  0.87613602  0.00772591  1
  Pt  Pt51  1  0.25000000  0.37613602  0.49227409  1
