# generated using pymatgen
data_Y4Si3O11F2
_symmetry_space_group_name_H-M   'P 1'
_cell_length_a   6.56269368
_cell_length_b   6.68647402
_cell_length_c   13.42845035
_cell_angle_alpha   87.58115556
_cell_angle_beta   85.78703990
_cell_angle_gamma   60.84963114
_symmetry_Int_Tables_number   1
_chemical_formula_structural   Y4Si3O11F2
_chemical_formula_sum   'Y8 Si6 O22 F4'
_cell_volume   513.22027752
_cell_formula_units_Z   2
loop_
 _symmetry_equiv_pos_site_id
 _symmetry_equiv_pos_as_xyz
  1  'x, y, z'
loop_
 _atom_site_type_symbol
 _atom_site_label
 _atom_site_symmetry_multiplicity
 _atom_site_fract_x
 _atom_site_fract_y
 _atom_site_fract_z
 _atom_site_occupancy
  Y  Y0  1  0.67659719  0.61998400  0.79684029  1
  Y  Y1  1  0.32340281  0.38001600  0.20315971  1
  Y  Y2  1  0.06048151  0.72627699  0.97281623  1
  Y  Y3  1  0.93951849  0.27372301  0.02718377  1
  Y  Y4  1  0.78089382  0.78693263  0.47086968  1
  Y  Y5  1  0.21910618  0.21306737  0.52913032  1
  Y  Y6  1  0.17998009  0.69314101  0.67044404  1
  Y  Y7  1  0.82001991  0.30685899  0.32955596  1
  Si  Si8  1  0.50853728  0.74855199  0.06543735  1
  Si  Si9  1  0.49146272  0.25144801  0.93456265  1
  Si  Si10  1  0.76604171  0.84666367  0.21665181  1
  Si  Si11  1  0.23395829  0.15333633  0.78334819  1
  Si  Si12  1  0.73242858  0.26978350  0.57926147  1
  Si  Si13  1  0.26757142  0.73021650  0.42073853  1
  O  O14  1  0.73423652  0.66182138  0.98015264  1
  O  O15  1  0.26576348  0.33817862  0.01984736  1
  O  O16  1  0.74704123  0.09624025  0.98136273  1
  O  O17  1  0.25295877  0.90375975  0.01863727  1
  O  O18  1  0.44540046  0.49907696  0.88679375  1
  O  O19  1  0.55459954  0.50092304  0.11320625  1
  O  O20  1  0.53504466  0.90125567  0.15232338  1
  O  O21  1  0.46495534  0.09874433  0.84767662  1
  O  O22  1  0.79571496  0.67654254  0.31272087  1
  O  O23  1  0.20428504  0.32345746  0.68727913  1
  O  O24  1  0.31436031  0.88957037  0.75298979  1
  O  O25  1  0.68563969  0.11042963  0.24701021  1
  O  O26  1  0.99353412  0.28428461  0.85557482  1
  O  O27  1  0.00646588  0.71571539  0.14442518  1
  O  O28  1  0.59445791  0.15973699  0.52180650  1
  O  O29  1  0.40554209  0.84026301  0.47819350  1
  O  O30  1  0.57768489  0.45427870  0.66735568  1
  O  O31  1  0.42231511  0.54572130  0.33264432  1
  O  O32  1  0.17373392  0.59451777  0.50701675  1
  O  O33  1  0.82626608  0.40548223  0.49298325  1
  O  O34  1  0.98417408  0.06268920  0.61276983  1
  O  O35  1  0.01582592  0.93731080  0.38723017  1
  F  F36  1  0.96316456  0.73229480  0.81419865  1
  F  F37  1  0.03683544  0.26770520  0.18580135  1
  F  F38  1  0.79794845  0.73835746  0.64480593  1
  F  F39  1  0.20205155  0.26164254  0.35519407  1
