# generated using pymatgen
data_In2Cu3(SeO3)6
_symmetry_space_group_name_H-M   'P 1'
_cell_length_a   5.60876294
_cell_length_b   7.83256734
_cell_length_c   19.70693101
_cell_angle_alpha   90.00000000
_cell_angle_beta   90.00000000
_cell_angle_gamma   92.63273912
_symmetry_Int_Tables_number   1
_chemical_formula_structural   In2Cu3(SeO3)6
_chemical_formula_sum   'In4 Cu6 Se12 O36'
_cell_volume   864.83164341
_cell_formula_units_Z   2
loop_
 _symmetry_equiv_pos_site_id
 _symmetry_equiv_pos_as_xyz
  1  'x, y, z'
loop_
 _atom_site_type_symbol
 _atom_site_label
 _atom_site_symmetry_multiplicity
 _atom_site_fract_x
 _atom_site_fract_y
 _atom_site_fract_z
 _atom_site_occupancy
  In  In0  1  0.52689244  0.25654872  0.65411337  1
  In  In1  1  0.97310756  0.24345128  0.15411337  1
  In  In2  1  0.47310756  0.74345128  0.34588663  1
  In  In3  1  0.02689244  0.75654872  0.84588663  1
  Cu  Cu4  1  0.50000000  0.50000000  0.50000000  1
  Cu  Cu5  1  -0.00000000  -0.00000000  0.00000000  1
  Cu  Cu6  1  0.11884719  0.82706344  0.51382762  1
  Cu  Cu7  1  0.38115281  0.67293656  0.01382762  1
  Cu  Cu8  1  0.88115281  0.17293656  0.48617238  1
  Cu  Cu9  1  0.61884719  0.32706344  0.98617238  1
  Se  Se10  1  0.01505217  0.05844415  0.72334607  1
  Se  Se11  1  0.48494783  0.44155585  0.22334607  1
  Se  Se12  1  0.98494783  0.94155585  0.27665393  1
  Se  Se13  1  0.51505217  0.55844415  0.77665393  1
  Se  Se14  1  0.04622997  0.47594013  0.61399385  1
  Se  Se15  1  0.45377003  0.02405987  0.11399385  1
  Se  Se16  1  0.95377003  0.52405987  0.38600615  1
  Se  Se17  1  0.54622997  0.97594013  0.88600615  1
  Se  Se18  1  0.62057684  0.85284907  0.59165782  1
  Se  Se19  1  0.87942316  0.64715093  0.09165782  1
  Se  Se20  1  0.37942316  0.14715093  0.40834218  1
  Se  Se21  1  0.12057684  0.35284907  0.90834218  1
  O  O22  1  0.74228351  0.14859574  0.73301064  1
  O  O23  1  0.75771649  0.35140426  0.23301064  1
  O  O24  1  0.25771649  0.85140426  0.26698936  1
  O  O25  1  0.24228351  0.64859574  0.76698936  1
  O  O26  1  0.08109294  0.01552124  0.80711507  1
  O  O27  1  0.41890706  0.48447876  0.30711507  1
  O  O28  1  0.91890706  0.98447876  0.19288493  1
  O  O29  1  0.58109294  0.51552124  0.69288493  1
  O  O30  1  0.20071847  0.23998085  0.71189334  1
  O  O31  1  0.29928153  0.26001915  0.21189334  1
  O  O32  1  0.79928153  0.76001915  0.28810666  1
  O  O33  1  0.70071847  0.73998085  0.78810666  1
  O  O34  1  0.30519346  0.39524098  0.57513848  1
  O  O35  1  0.19480654  0.10475902  0.07513848  1
  O  O36  1  0.69480654  0.60475902  0.42486152  1
  O  O37  1  0.80519346  0.89524098  0.92486152  1
  O  O38  1  0.95948674  0.63095264  0.55790816  1
  O  O39  1  0.54051326  0.86904736  0.05790816  1
  O  O40  1  0.04051326  0.36904736  0.44209184  1
  O  O41  1  0.45948674  0.13095264  0.94209184  1
  O  O42  1  0.42843816  0.01273152  0.60434382  1
  O  O43  1  0.07156184  0.48726848  0.10434382  1
  O  O44  1  0.57156184  0.98726848  0.39565618  1
  O  O45  1  0.92843816  0.51273152  0.89565618  1
  O  O46  1  0.83694953  0.95914225  0.54013730  1
  O  O47  1  0.66305047  0.54085775  0.04013730  1
  O  O48  1  0.16305047  0.04085775  0.45986270  1
  O  O49  1  0.33694953  0.45914225  0.95986270  1
  O  O50  1  0.43947448  0.73560759  0.53294904  1
  O  O51  1  0.06052552  0.76439241  0.03294904  1
  O  O52  1  0.56052552  0.26439241  0.46705096  1
  O  O53  1  0.93947448  0.23560759  0.96705096  1
  O  O54  1  0.83703353  0.31688834  0.58822708  1
  O  O55  1  0.66296647  0.18311166  0.08822708  1
  O  O56  1  0.16296647  0.68311166  0.41177292  1
  O  O57  1  0.33703353  0.81688834  0.91177292  1
