# generated using pymatgen
data_Th2Zn17
_symmetry_space_group_name_H-M   'P 1'
_cell_length_a   8.84615336
_cell_length_b   9.06284517
_cell_length_c   9.06284517
_cell_angle_alpha   119.94865727
_cell_angle_beta   90.00000000
_cell_angle_gamma   90.00000000
_symmetry_Int_Tables_number   1
_chemical_formula_structural   Th2Zn17
_chemical_formula_sum   'Th4 Zn34'
_cell_volume   629.56224150
_cell_formula_units_Z   2
loop_
 _symmetry_equiv_pos_site_id
 _symmetry_equiv_pos_as_xyz
  1  'x, y, z'
loop_
 _atom_site_type_symbol
 _atom_site_label
 _atom_site_symmetry_multiplicity
 _atom_site_fract_x
 _atom_site_fract_y
 _atom_site_fract_z
 _atom_site_occupancy
  Th  Th0  1  0.75000000  0.00013491  0.99986509  1
  Th  Th1  1  0.25000000  0.99986509  0.00013491  1
  Th  Th2  1  0.25000000  0.66683033  0.33316967  1
  Th  Th3  1  0.75000000  0.33316967  0.66683033  1
  Zn  Zn4  1  0.60521077  0.66664408  0.33335592  1
  Zn  Zn5  1  0.39478923  0.33335592  0.66664408  1
  Zn  Zn6  1  0.10521077  0.33335592  0.66664408  1
  Zn  Zn7  1  0.89478923  0.66664408  0.33335592  1
  Zn  Zn8  1  0.50000000  0.50000000  -0.00000000  1
  Zn  Zn9  1  0.50000000  0.50000000  0.50000000  1
  Zn  Zn10  1  0.50000000  0.00000000  0.50000000  1
  Zn  Zn11  1  -0.00000000  0.50000000  -0.00000000  1
  Zn  Zn12  1  -0.00000000  0.50000000  0.50000000  1
  Zn  Zn13  1  0.00000000  0.00000000  0.50000000  1
  Zn  Zn14  1  0.75000000  0.67019862  0.03952237  1
  Zn  Zn15  1  0.75000000  0.36950272  0.32980505  1
  Zn  Zn16  1  0.75000000  0.95998431  0.63038299  1
  Zn  Zn17  1  0.75000000  0.36961701  0.04001569  1
  Zn  Zn18  1  0.75000000  0.96047763  0.32980138  1
  Zn  Zn19  1  0.75000000  0.67019495  0.63049728  1
  Zn  Zn20  1  0.25000000  0.32980138  0.96047763  1
  Zn  Zn21  1  0.25000000  0.63049728  0.67019495  1
  Zn  Zn22  1  0.25000000  0.04001569  0.36961701  1
  Zn  Zn23  1  0.25000000  0.63038299  0.95998431  1
  Zn  Zn24  1  0.25000000  0.03952237  0.67019862  1
  Zn  Zn25  1  0.25000000  0.32980505  0.36950272  1
  Zn  Zn26  1  0.47894416  0.83830475  0.67669330  1
  Zn  Zn27  1  0.47936783  0.83820403  0.16179597  1
  Zn  Zn28  1  0.47894416  0.32330670  0.16169525  1
  Zn  Zn29  1  0.52105584  0.16169525  0.32330670  1
  Zn  Zn30  1  0.52063217  0.16179597  0.83820403  1
  Zn  Zn31  1  0.52105584  0.67669330  0.83830475  1
  Zn  Zn32  1  0.97894416  0.16169525  0.32330670  1
  Zn  Zn33  1  0.97936783  0.16179597  0.83820403  1
  Zn  Zn34  1  0.97894416  0.67669330  0.83830475  1
  Zn  Zn35  1  0.02105584  0.83830475  0.67669330  1
  Zn  Zn36  1  0.02063217  0.83820403  0.16179597  1
  Zn  Zn37  1  0.02105584  0.32330670  0.16169525  1
