# generated using pymatgen
data_Li4Zn(PO4)2
_symmetry_space_group_name_H-M   'P 1'
_cell_length_a   8.21519209
_cell_length_b   8.21008111
_cell_length_c   10.39351844
_cell_angle_alpha   90.00000000
_cell_angle_beta   90.00000000
_cell_angle_gamma   104.69918976
_symmetry_Int_Tables_number   1
_chemical_formula_structural   Li4Zn(PO4)2
_chemical_formula_sum   'Li16 Zn4 P8 O32'
_cell_volume   678.07242252
_cell_formula_units_Z   4
loop_
 _symmetry_equiv_pos_site_id
 _symmetry_equiv_pos_as_xyz
  1  'x, y, z'
loop_
 _atom_site_type_symbol
 _atom_site_label
 _atom_site_symmetry_multiplicity
 _atom_site_fract_x
 _atom_site_fract_y
 _atom_site_fract_z
 _atom_site_occupancy
  Li  Li0  1  0.90861838  0.65705630  0.49342615  1
  Li  Li1  1  0.09138162  0.34294370  0.99342615  1
  Li  Li2  1  0.40916488  0.65655538  0.31582550  1
  Li  Li3  1  0.59083512  0.34344462  0.81582550  1
  Li  Li4  1  0.84761676  0.59877840  0.99197798  1
  Li  Li5  1  0.15238324  0.40122160  0.49197798  1
  Li  Li6  1  0.35164774  0.60462590  0.81836973  1
  Li  Li7  1  0.64835226  0.39537410  0.31836973  1
  Li  Li8  1  0.59635261  0.84943637  0.00270545  1
  Li  Li9  1  0.40364739  0.15056363  0.50270545  1
  Li  Li10  1  0.10041753  0.85038727  0.80567870  1
  Li  Li11  1  0.89958247  0.14961273  0.30567870  1
  Li  Li12  1  0.01492365  0.51562058  0.73205934  1
  Li  Li13  1  0.98507635  0.48437942  0.23205934  1
  Li  Li14  1  0.52399117  0.52200866  0.08237399  1
  Li  Li15  1  0.47600883  0.47799134  0.58237399  1
  Zn  Zn16  1  0.65972435  0.90806736  0.49929681  1
  Zn  Zn17  1  0.34027565  0.09193264  0.99929681  1
  Zn  Zn18  1  0.15905548  0.91028166  0.31149334  1
  Zn  Zn19  1  0.84094452  0.08971834  0.81149334  1
  P  P20  1  0.72407276  0.71181542  0.74665273  1
  P  P21  1  0.27592724  0.28818458  0.24665273  1
  P  P22  1  0.22144113  0.70862390  0.06324084  1
  P  P23  1  0.77855887  0.29137610  0.56324084  1
  P  P24  1  0.78511872  0.76899868  0.24747964  1
  P  P25  1  0.21488128  0.23100132  0.74747964  1
  P  P26  1  0.28571359  0.76927183  0.56106414  1
  P  P27  1  0.71428641  0.23072817  0.06106414  1
  O  O28  1  0.43559684  0.93048754  0.55009171  1
  O  O29  1  0.56440316  0.06951246  0.05009171  1
  O  O30  1  0.93581772  0.92955588  0.25560426  1
  O  O31  1  0.06418228  0.07044412  0.75560426  1
  O  O32  1  0.76482180  0.76014886  0.60275604  1
  O  O33  1  0.23517820  0.23985114  0.10275604  1
  O  O34  1  0.25294532  0.75129444  0.20919929  1
  O  O35  1  0.74705468  0.24870556  0.70919929  1
  O  O36  1  0.22958919  0.72623044  0.70155861  1
  O  O37  1  0.77041081  0.27376956  0.20155861  1
  O  O38  1  0.72852532  0.72642824  0.10677172  1
  O  O39  1  0.27147468  0.27357176  0.60677172  1
  O  O40  1  0.56393946  0.56282126  0.75324449  1
  O  O41  1  0.43606054  0.43717874  0.25324449  1
  O  O42  1  0.06172722  0.56022992  0.05247998  1
  O  O43  1  0.93827278  0.43977008  0.55247998  1
  O  O44  1  0.87753688  0.66323799  0.80753989  1
  O  O45  1  0.12246312  0.33676201  0.30753989  1
  O  O46  1  0.37757602  0.65980850  0.00618199  1
  O  O47  1  0.62242398  0.34019150  0.50618199  1
  O  O48  1  0.68576858  0.86303566  0.82149315  1
  O  O49  1  0.31423142  0.13696434  0.32149315  1
  O  O50  1  0.18964425  0.86183029  0.98748363  1
  O  O51  1  0.81035575  0.13816971  0.48748363  1
  O  O52  1  0.83679108  0.61749429  0.31043309  1
  O  O53  1  0.16320892  0.38250571  0.81043309  1
  O  O54  1  0.34119901  0.61899838  0.49900479  1
  O  O55  1  0.65880099  0.38100162  0.99900479  1
  O  O56  1  0.63582600  0.80794953  0.32411861  1
  O  O57  1  0.36417400  0.19205047  0.82411861  1
  O  O58  1  0.13541789  0.80590021  0.48469438  1
  O  O59  1  0.86458211  0.19409979  0.98469438  1
