# generated using pymatgen
data_CrP2H15O14
_symmetry_space_group_name_H-M   'P 1'
_cell_length_a   7.09794738
_cell_length_b   9.03151713
_cell_length_c   10.70650087
_cell_angle_alpha   68.85873189
_cell_angle_beta   89.02492591
_cell_angle_gamma   68.95148319
_symmetry_Int_Tables_number   1
_chemical_formula_structural   CrP2H15O14
_chemical_formula_sum   'Cr2 P4 H30 O28'
_cell_volume   592.42255237
_cell_formula_units_Z   2
loop_
 _symmetry_equiv_pos_site_id
 _symmetry_equiv_pos_as_xyz
  1  'x, y, z'
loop_
 _atom_site_type_symbol
 _atom_site_label
 _atom_site_symmetry_multiplicity
 _atom_site_fract_x
 _atom_site_fract_y
 _atom_site_fract_z
 _atom_site_occupancy
  Cr  Cr0  1  0.26692093  0.41465495  0.27223531  1
  Cr  Cr1  1  0.73307907  0.58534505  0.72776469  1
  P  P2  1  0.69064769  0.18675168  0.21618599  1
  P  P3  1  0.30935231  0.81324832  0.78381401  1
  P  P4  1  0.69233618  0.24021204  0.46932925  1
  P  P5  1  0.30766382  0.75978796  0.53067075  1
  H  H6  1  0.92034937  0.97550496  0.17972143  1
  H  H7  1  0.07965063  0.02449504  0.82027857  1
  H  H8  1  0.92279721  0.61729969  0.32938800  1
  H  H9  1  0.07720279  0.38270031  0.67061200  1
  H  H10  1  0.11404016  0.61578163  0.41620470  1
  H  H11  1  0.88595984  0.38421837  0.58379530  1
  H  H12  1  0.93541909  0.58236106  0.09243234  1
  H  H13  1  0.06458091  0.41763894  0.90756766  1
  H  H14  1  0.94510321  0.38816044  0.15455348  1
  H  H15  1  0.05489679  0.61183956  0.84544652  1
  H  H16  1  0.08093335  0.23797452  0.44016275  1
  H  H17  1  0.91906665  0.76202548  0.55983725  1
  H  H18  1  0.26925457  0.09894842  0.40108227  1
  H  H19  1  0.73074543  0.90105158  0.59891773  1
  H  H20  1  0.27539786  0.63662500  0.03084609  1
  H  H21  1  0.72460214  0.36337500  0.96915391  1
  H  H22  1  0.25177501  0.72714384  0.14021827  1
  H  H23  1  0.74822499  0.27285616  0.85978173  1
  H  H24  1  0.19253445  0.00988734  0.09460986  1
  H  H25  1  0.80746555  0.99011266  0.90539014  1
  H  H26  1  0.22735014  0.90269599  0.25322433  1
  H  H27  1  0.77264986  0.09730401  0.74677567  1
  H  H28  1  0.41692059  0.23901211  0.66903593  1
  H  H29  1  0.58307941  0.76098789  0.33096407  1
  H  H30  1  0.36079241  0.41938773  0.67611091  1
  H  H31  1  0.63920759  0.58061227  0.32388909  1
  H  H32  1  0.66775216  0.77206285  0.95433842  1
  H  H33  1  0.33224784  0.22793715  0.04566158  1
  H  H34  1  0.68501314  0.77724941  0.10079325  1
  H  H35  1  0.31498686  0.22275059  0.89920675  1
  O  O36  1  0.45697494  0.25173869  0.19505260  1
  O  O37  1  0.54302506  0.74826131  0.80494740  1
  O  O38  1  0.76946868  0.01460135  0.19148116  1
  O  O39  1  0.23053132  0.98539865  0.80851884  1
  O  O40  1  0.78249982  0.31123440  0.13092779  1
  O  O41  1  0.21750018  0.68876560  0.86907221  1
  O  O42  1  0.76625539  0.12801567  0.37349659  1
  O  O43  1  0.23374461  0.87198433  0.62650341  1
  O  O44  1  0.49655666  0.39466840  0.39003019  1
  O  O45  1  0.50344334  0.60533160  0.60996981  1
  O  O46  1  0.66078558  0.11591508  0.60149284  1
  O  O47  1  0.33921442  0.88408492  0.39850716  1
  O  O48  1  0.86139156  0.30239130  0.48195035  1
  O  O49  1  0.13860844  0.69760870  0.51804965  1
  O  O50  1  0.07506840  0.57618122  0.34656849  1
  O  O51  1  0.92493160  0.42381878  0.65343151  1
  O  O52  1  0.02793900  0.46074428  0.14617931  1
  O  O53  1  0.97206100  0.53925572  0.85382069  1
  O  O54  1  0.22155600  0.21248062  0.40944654  1
  O  O55  1  0.77844400  0.78751938  0.59055346  1
  O  O56  1  0.31173013  0.61513711  0.12839759  1
  O  O57  1  0.68826987  0.38486289  0.87160241  1
  O  O58  1  0.16026698  0.91833004  0.16436886  1
  O  O59  1  0.83973302  0.08166996  0.83563114  1
  O  O60  1  0.32857583  0.31561091  0.71091743  1
  O  O61  1  0.67142417  0.68438909  0.28908257  1
  O  O62  1  0.75324046  0.78480416  0.01841395  1
  O  O63  1  0.24675954  0.21519584  0.98158605  1
