# generated using pymatgen
data_Sr8Li2B22H2O43
_symmetry_space_group_name_H-M   'P 1'
_cell_length_a   6.54274797
_cell_length_b   8.57015213
_cell_length_c   15.03150521
_cell_angle_alpha   100.84141422
_cell_angle_beta   93.96814128
_cell_angle_gamma   90.36468534
_symmetry_Int_Tables_number   1
_chemical_formula_structural   Sr8Li2B22H2O43
_chemical_formula_sum   'Sr8 Li2 B22 H2 O43'
_cell_volume   825.66205878
_cell_formula_units_Z   1
loop_
 _symmetry_equiv_pos_site_id
 _symmetry_equiv_pos_as_xyz
  1  'x, y, z'
loop_
 _atom_site_type_symbol
 _atom_site_label
 _atom_site_symmetry_multiplicity
 _atom_site_fract_x
 _atom_site_fract_y
 _atom_site_fract_z
 _atom_site_occupancy
  Sr  Sr0  1  0.88072754  0.92449289  0.77928923  1
  Sr  Sr1  1  0.11927246  0.07550711  0.22071077  1
  Sr  Sr2  1  0.48613609  0.61318730  0.89417655  1
  Sr  Sr3  1  0.51386391  0.38681270  0.10582345  1
  Sr  Sr4  1  0.95898692  0.39598653  0.73356730  1
  Sr  Sr5  1  0.04101308  0.60401347  0.26643270  1
  Sr  Sr6  1  0.35692243  0.02614105  0.61901185  1
  Sr  Sr7  1  0.64307757  0.97385895  0.38098815  1
  Li  Li8  1  0.35062619  0.68571196  0.47437631  1
  Li  Li9  1  0.64937381  0.31428804  0.52562369  1
  B  B10  1  0.47314784  0.27000541  0.81947954  1
  B  B11  1  0.52685216  0.72999459  0.18052046  1
  B  B12  1  0.23511359  0.34474104  0.53962547  1
  B  B13  1  0.76488641  0.65525896  0.46037453  1
  B  B14  1  0.67565780  0.64520968  0.62140948  1
  B  B15  1  0.32434220  0.35479032  0.37859052  1
  B  B16  1  0.79475653  0.28917118  0.93581065  1
  B  B17  1  0.20524347  0.71082882  0.06418935  1
  B  B18  1  0.03787797  0.68209020  0.57940305  1
  B  B19  1  0.96212203  0.31790980  0.42059695  1
  B  B20  1  0.35971638  0.73211985  0.69686058  1
  B  B21  1  0.64028362  0.26788015  0.30313942  1
  B  B22  1  0.93880792  0.67850188  0.93844137  1
  B  B23  1  0.06119208  0.32149812  0.06155863  1
  B  B24  1  0.16173125  0.22864496  0.89792275  1
  B  B25  1  0.83826875  0.77135504  0.10207725  1
  B  B26  1  0.46199671  0.44571184  0.68933289  1
  B  B27  1  0.53800329  0.55428816  0.31066711  1
  B  B28  1  0.37063356  0.98690744  0.82749826  1
  B  B29  1  0.62936644  0.01309256  0.17250174  1
  B  B30  1  0.87899230  0.06542234  0.57392471  1
  B  B31  1  0.12100770  0.93457766  0.42607529  1
  H  H32  1  0.55974118  0.96430080  0.94271774  1
  H  H33  1  0.44025882  0.03569920  0.05728226  1
  O  O34  1  0.88075575  0.64772866  0.84977224  1
  O  O35  1  0.11924425  0.35227134  0.15022776  1
  O  O36  1  0.93222189  0.23983934  0.87231065  1
  O  O37  1  0.06777811  0.76016066  0.12768935  1
  O  O38  1  0.57097024  0.77081685  0.67862544  1
  O  O39  1  0.42902976  0.22918315  0.32137456  1
  O  O40  1  0.97117167  0.08763736  0.65987905  1
  O  O41  1  0.02882833  0.91236264  0.34012095  1
  O  O42  1  0.55772760  0.36253483  0.75779239  1
  O  O43  1  0.44227240  0.63746517  0.24220761  1
  O  O44  1  0.62716353  0.65501930  0.52367063  1
  O  O45  1  0.37283647  0.34498070  0.47632937  1
  O  O46  1  0.90198979  0.67501612  0.64356857  1
  O  O47  1  0.09801021  0.32498388  0.35643143  1
  O  O48  1  0.26375231  0.31924980  0.83945736  1
  O  O49  1  0.73624769  0.68075020  0.16054264  1
  O  O50  1  0.26994808  0.86506809  0.75411763  1
  O  O51  1  0.73005192  0.13493191  0.24588237  1
  O  O52  1  0.62863395  0.48483022  0.63578831  1
  O  O53  1  0.37136605  0.51516978  0.36421169  1
  O  O54  1  0.59600998  0.32160968  0.91428522  1
  O  O55  1  0.40399002  0.67839032  0.08571478  1
  O  O56  1  0.02482174  0.34022722  0.51400702  1
  O  O57  1  0.97517826  0.65977278  0.48599298  1
  O  O58  1  0.29493402  0.33754810  0.62830530  1
  O  O59  1  0.70506598  0.66245190  0.37169470  1
  O  O60  1  0.68054464  0.10039653  0.55134236  1
  O  O61  1  0.31945536  0.89960347  0.44865764  1
  O  O62  1  0.21048316  0.06129200  0.88259537  1
  O  O63  1  0.78951684  0.93870800  0.11740463  1
  O  O64  1  0.24144060  0.71045631  0.60071937  1
  O  O65  1  0.75855940  0.28954369  0.39928063  1
  O  O66  1  0.85081102  0.31080564  0.02901947  1
  O  O67  1  0.14918898  0.68919436  0.97098053  1
  O  O68  1  0.34896934  0.58497303  0.73183772  1
  O  O69  1  0.65103066  0.41502697  0.26816228  1
  O  O70  1  0.79746586  0.69678549  0.00425712  1
  O  O71  1  0.20253414  0.30321451  0.99574288  1
  O  O72  1  0.49171905  0.10040301  0.78762943  1
  O  O73  1  0.50828095  0.89959699  0.21237057  1
  O  O74  1  0.52384105  0.90144420  0.88295395  1
  O  O75  1  0.47615895  0.09855580  0.11704605  1
  O  O76  1  -0.00000000  0.00000000  0.50000000  1
