# generated using pymatgen
data_K2UCoP2O11
_symmetry_space_group_name_H-M   'P 1'
_cell_length_a   8.03325125
_cell_length_b   8.30260254
_cell_length_c   17.11618506
_cell_angle_alpha   90.00000000
_cell_angle_beta   90.00000000
_cell_angle_gamma   106.07859707
_symmetry_Int_Tables_number   1
_chemical_formula_structural   K2UCoP2O11
_chemical_formula_sum   'K8 U4 Co4 P8 O44'
_cell_volume   1096.94015902
_cell_formula_units_Z   4
loop_
 _symmetry_equiv_pos_site_id
 _symmetry_equiv_pos_as_xyz
  1  'x, y, z'
loop_
 _atom_site_type_symbol
 _atom_site_label
 _atom_site_symmetry_multiplicity
 _atom_site_fract_x
 _atom_site_fract_y
 _atom_site_fract_z
 _atom_site_occupancy
  K  K0  1  0.91320201  0.24203405  0.77137490  1
  K  K1  1  0.58679799  0.75796595  0.27137490  1
  K  K2  1  0.08679799  0.75796595  0.22862510  1
  K  K3  1  0.41320201  0.24203405  0.72862510  1
  K  K4  1  0.72398478  0.28043228  0.00967997  1
  K  K5  1  0.77601522  0.71956772  0.50967997  1
  K  K6  1  0.27601522  0.71956772  0.99032003  1
  K  K7  1  0.22398478  0.28043228  0.49032003  1
  U  U8  1  0.21000958  0.20475783  0.96377143  1
  U  U9  1  0.28999042  0.79524217  0.46377143  1
  U  U10  1  0.78999042  0.79524217  0.03622857  1
  U  U11  1  0.71000958  0.20475783  0.53622857  1
  Co  Co12  1  0.79605877  0.70138106  0.72802082  1
  Co  Co13  1  0.70394123  0.29861894  0.22802082  1
  Co  Co14  1  0.20394123  0.29861894  0.27197918  1
  Co  Co15  1  0.29605877  0.70138106  0.77197918  1
  P  P16  1  0.04809016  0.90563126  0.84903927  1
  P  P17  1  0.45190984  0.09436874  0.34903927  1
  P  P18  1  0.95190984  0.09436874  0.15096073  1
  P  P19  1  0.54809016  0.90563126  0.65096073  1
  P  P20  1  0.56611526  0.54236435  0.86857040  1
  P  P21  1  0.93388474  0.45763565  0.36857040  1
  P  P22  1  0.43388474  0.45763565  0.13142960  1
  P  P23  1  0.06611526  0.54236435  0.63142960  1
  O  O24  1  0.89143705  0.89225164  0.79481809  1
  O  O25  1  0.60856295  0.10774836  0.29481809  1
  O  O26  1  0.10856295  0.10774836  0.20518191  1
  O  O27  1  0.39143705  0.89225164  0.70518191  1
  O  O28  1  0.67311754  0.51333810  0.79640363  1
  O  O29  1  0.82688246  0.48666190  0.29640363  1
  O  O30  1  0.32688246  0.48666190  0.20359637  1
  O  O31  1  0.17311754  0.51333810  0.70359637  1
  O  O32  1  0.18197226  0.07942965  0.83753802  1
  O  O33  1  0.31802774  0.92057035  0.33753802  1
  O  O34  1  0.81802774  0.92057035  0.16246198  1
  O  O35  1  0.68197226  0.07942965  0.66246198  1
  O  O36  1  0.05967291  0.32427589  0.93206759  1
  O  O37  1  0.44032709  0.67572411  0.43206759  1
  O  O38  1  0.94032709  0.67572411  0.06793241  1
  O  O39  1  0.55967291  0.32427589  0.56793241  1
  O  O40  1  0.68897425  0.60377171  0.93951642  1
  O  O41  1  0.81102575  0.39622829  0.43951642  1
  O  O42  1  0.31102575  0.39622829  0.06048358  1
  O  O43  1  0.18897425  0.60377171  0.56048358  1
  O  O44  1  0.99624133  0.91583437  0.93686793  1
  O  O45  1  0.50375867  0.08416563  0.43686793  1
  O  O46  1  0.00375867  0.08416563  0.06313207  1
  O  O47  1  0.49624133  0.91583437  0.56313207  1
  O  O48  1  0.35597454  0.08419572  0.99577463  1
  O  O49  1  0.14402546  0.91580428  0.49577463  1
  O  O50  1  0.64402546  0.91580428  0.00422537  1
  O  O51  1  0.85597454  0.08419572  0.50422537  1
  O  O52  1  0.12306226  0.75489713  0.83938854  1
  O  O53  1  0.37693774  0.24510287  0.33938854  1
  O  O54  1  0.87693774  0.24510287  0.16061146  1
  O  O55  1  0.62306226  0.75489713  0.66061146  1
  O  O56  1  0.43861248  0.37134440  0.89198471  1
  O  O57  1  0.06138752  0.62865560  0.39198471  1
  O  O58  1  0.56138752  0.62865560  0.10801529  1
  O  O59  1  0.93861248  0.37134440  0.60801529  1
  O  O60  1  0.46273081  0.66933415  0.84931199  1
  O  O61  1  0.03726919  0.33066585  0.34931199  1
  O  O62  1  0.53726919  0.33066585  0.15068801  1
  O  O63  1  0.96273081  0.66933415  0.65068801  1
  O  O64  1  0.61885002  0.09328182  0.85675773  1
  O  O65  1  0.88114998  0.90671818  0.35675773  1
  O  O66  1  0.38114998  0.90671818  0.14324227  1
  O  O67  1  0.11885002  0.09328182  0.64324227  1
