# generated using pymatgen
data_Cs2Cd3(B4O7)4
_symmetry_space_group_name_H-M   'P 1'
_cell_length_a   7.79623617
_cell_length_b   11.62192146
_cell_length_c   13.59844955
_cell_angle_alpha   90.73434902
_cell_angle_beta   90.00000000
_cell_angle_gamma   109.59752102
_symmetry_Int_Tables_number   1
_chemical_formula_structural   Cs2Cd3(B4O7)4
_chemical_formula_sum   'Cs4 Cd6 B32 O56'
_cell_volume   1160.63644367
_cell_formula_units_Z   2
loop_
 _symmetry_equiv_pos_site_id
 _symmetry_equiv_pos_as_xyz
  1  'x, y, z'
loop_
 _atom_site_type_symbol
 _atom_site_label
 _atom_site_symmetry_multiplicity
 _atom_site_fract_x
 _atom_site_fract_y
 _atom_site_fract_z
 _atom_site_occupancy
  Cs  Cs0  1  0.74132245  0.50294898  0.40756345  1
  Cs  Cs1  1  0.23837347  0.49705102  0.09243655  1
  Cs  Cs2  1  0.25867755  0.49705102  0.59243655  1
  Cs  Cs3  1  0.76162653  0.50294898  0.90756345  1
  Cd  Cd4  1  0.75595823  0.99839085  0.10047216  1
  Cd  Cd5  1  0.75756738  0.00160915  0.39952784  1
  Cd  Cd6  1  0.24404177  0.00160915  0.89952784  1
  Cd  Cd7  1  0.24243262  0.99839085  0.60047216  1
  Cd  Cd8  1  0.74273209  0.00000000  0.75000000  1
  Cd  Cd9  1  0.25726791  0.00000000  0.25000000  1
  B  B10  1  0.82209900  0.82549984  0.58078105  1
  B  B11  1  0.99659916  0.17450016  0.91921895  1
  B  B12  1  0.17790100  0.17450016  0.41921895  1
  B  B13  1  0.00340084  0.82549984  0.08078105  1
  B  B14  1  0.48746630  0.81619425  0.91416562  1
  B  B15  1  0.67127206  0.18380575  0.58583438  1
  B  B16  1  0.51253370  0.18380575  0.08583438  1
  B  B17  1  0.32872794  0.81619425  0.41416562  1
  B  B18  1  0.83003045  0.81077697  0.24261768  1
  B  B19  1  0.01925348  0.18922303  0.25738232  1
  B  B20  1  0.16996955  0.18922303  0.75738232  1
  B  B21  1  0.98074652  0.81077697  0.74261768  1
  B  B22  1  0.65096111  0.14001363  0.92122429  1
  B  B23  1  0.51094749  0.85998637  0.57877571  1
  B  B24  1  0.34903889  0.85998637  0.07877571  1
  B  B25  1  0.48905251  0.14001363  0.42122429  1
  B  B26  1  0.84161277  0.84834828  0.91388040  1
  B  B27  1  0.99326449  0.15165172  0.58611960  1
  B  B28  1  0.15838723  0.15165172  0.08611960  1
  B  B29  1  0.00673551  0.84834828  0.41388040  1
  B  B30  1  0.67649530  0.18859026  0.25024338  1
  B  B31  1  0.48790503  0.81140974  0.24975662  1
  B  B32  1  0.32350470  0.81140974  0.74975662  1
  B  B33  1  0.51209497  0.18859026  0.75024338  1
  B  B34  1  0.70555446  0.37801972  0.15988042  1
  B  B35  1  0.32753474  0.62198028  0.34011958  1
  B  B36  1  0.29444554  0.62198028  0.84011958  1
  B  B37  1  0.67246526  0.37801972  0.65988042  1
  B  B38  1  0.84605013  0.62592538  0.15567340  1
  B  B39  1  0.22012475  0.37407462  0.34432660  1
  B  B40  1  0.15394987  0.37407462  0.84432660  1
  B  B41  1  0.77987525  0.62592538  0.65567340  1
  O  O42  1  0.80709084  0.12325175  0.95760058  1
  O  O43  1  0.68383909  0.87674825  0.54239942  1
  O  O44  1  0.19290916  0.87674825  0.04239942  1
  O  O45  1  0.31616091  0.12325175  0.45760058  1
  O  O46  1  0.82890863  0.15027908  0.62297515  1
  O  O47  1  0.67862955  0.84972092  0.87702485  1
  O  O48  1  0.17109137  0.84972092  0.37702485  1
  O  O49  1  0.32137045  0.15027908  0.12297515  1
  O  O50  1  0.02239965  0.15419802  0.15034795  1
  O  O51  1  0.86820164  0.84580198  0.34965205  1
  O  O52  1  0.97760035  0.84580198  0.84965205  1
  O  O53  1  0.13179836  0.15419802  0.65034795  1
  O  O54  1  0.88999100  0.87635551  0.67877498  1
  O  O55  1  0.01363549  0.12364449  0.82122502  1
  O  O56  1  0.11000900  0.12364449  0.32122502  1
  O  O57  1  0.98636451  0.87635551  0.17877498  1
  O  O58  1  0.48994287  0.86364432  0.01639416  1
  O  O59  1  0.62629855  0.13635568  0.48360584  1
  O  O60  1  0.51005713  0.13635568  0.98360584  1
  O  O61  1  0.37370145  0.86364432  0.51639416  1
  O  O62  1  0.60893301  0.12950761  0.15385788  1
  O  O63  1  0.47942540  0.87049239  0.34614212  1
  O  O64  1  0.39106699  0.87049239  0.84614212  1
  O  O65  1  0.52057460  0.12950761  0.65385788  1
  O  O66  1  0.78840085  0.67712818  0.23397918  1
  O  O67  1  0.11127266  0.32287182  0.26602082  1
  O  O68  1  0.21159915  0.32287182  0.76602082  1
  O  O69  1  0.88872734  0.67712818  0.73397918  1
  O  O70  1  0.87794287  0.86208041  0.01346579  1
  O  O71  1  0.01586246  0.13791959  0.48653421  1
  O  O72  1  0.12205713  0.13791959  0.98653421  1
  O  O73  1  0.98413754  0.86208041  0.51346579  1
  O  O74  1  0.73123812  0.32255650  0.24358327  1
  O  O75  1  0.40868162  0.67744350  0.25641673  1
  O  O76  1  0.26876188  0.67744350  0.75641673  1
  O  O77  1  0.59131838  0.32255650  0.74358327  1
  O  O78  1  0.62974319  0.14531749  0.82104910  1
  O  O79  1  0.48442570  0.85468251  0.67895090  1
  O  O80  1  0.37025681  0.85468251  0.17895090  1
  O  O81  1  0.51557430  0.14531749  0.32104910  1
  O  O82  1  0.74044879  0.69166536  0.58095309  1
  O  O83  1  0.04878342  0.30833464  0.91904691  1
  O  O84  1  0.25955121  0.30833464  0.41904691  1
  O  O85  1  0.95121658  0.69166536  0.08095309  1
  O  O86  1  0.40444408  0.68165173  0.91657455  1
  O  O87  1  0.72279234  0.31834827  0.58342545  1
  O  O88  1  0.59555592  0.31834827  0.08342545  1
  O  O89  1  0.27720766  0.68165173  0.41657455  1
  O  O90  1  0.80235576  0.50093455  0.14699192  1
  O  O91  1  0.30142121  0.49906545  0.35300808  1
  O  O92  1  0.19764424  0.49906545  0.85300808  1
  O  O93  1  0.69857879  0.50093455  0.64699192  1
  O  O94  1  0.67519040  0.85034025  0.21404518  1
  O  O95  1  0.82485015  0.14965975  0.28595482  1
  O  O96  1  0.32480960  0.14965975  0.78595482  1
  O  O97  1  0.17514985  0.85034025  0.71404518  1
