# generated using pymatgen
data_BaCo(SeO3)2
_symmetry_space_group_name_H-M   'P 1'
_cell_length_a   5.55559743
_cell_length_b   7.34808464
_cell_length_c   15.34420780
_cell_angle_alpha   90.00000000
_cell_angle_beta   90.00000000
_cell_angle_gamma   90.00000000
_symmetry_Int_Tables_number   1
_chemical_formula_structural   BaCo(SeO3)2
_chemical_formula_sum   'Ba4 Co4 Se8 O24'
_cell_volume   626.39659719
_cell_formula_units_Z   4
loop_
 _symmetry_equiv_pos_site_id
 _symmetry_equiv_pos_as_xyz
  1  'x, y, z'
loop_
 _atom_site_type_symbol
 _atom_site_label
 _atom_site_symmetry_multiplicity
 _atom_site_fract_x
 _atom_site_fract_y
 _atom_site_fract_z
 _atom_site_occupancy
  Ba  Ba0  1  0.25000000  0.92134983  0.38251701  1
  Ba  Ba1  1  0.25000000  0.57865017  0.88251701  1
  Ba  Ba2  1  0.75000000  0.07865017  0.61748299  1
  Ba  Ba3  1  0.75000000  0.42134983  0.11748299  1
  Co  Co4  1  0.25000000  0.79350517  0.12457822  1
  Co  Co5  1  0.25000000  0.70649483  0.62457822  1
  Co  Co6  1  0.75000000  0.20649483  0.87542178  1
  Co  Co7  1  0.75000000  0.29350517  0.37542178  1
  Se  Se8  1  0.25000000  0.12798814  0.98428823  1
  Se  Se9  1  0.25000000  0.37201186  0.48428823  1
  Se  Se10  1  0.75000000  0.87201186  0.01571177  1
  Se  Se11  1  0.75000000  0.62798814  0.51571177  1
  Se  Se12  1  0.25000000  0.03439643  0.76861683  1
  Se  Se13  1  0.25000000  0.46560357  0.26861683  1
  Se  Se14  1  0.75000000  0.96560357  0.23138317  1
  Se  Se15  1  0.75000000  0.53439643  0.73138317  1
  O  O16  1  0.01063297  0.27986020  0.97497439  1
  O  O17  1  0.48936703  0.22013980  0.47497439  1
  O  O18  1  0.51063297  0.72013980  0.02502561  1
  O  O19  1  0.98936703  0.77986020  0.52502561  1
  O  O20  1  0.98936703  0.72013980  0.02502561  1
  O  O21  1  0.51063297  0.77986020  0.52502561  1
  O  O22  1  0.48936703  0.27986020  0.97497439  1
  O  O23  1  0.01063297  0.22013980  0.47497439  1
  O  O24  1  0.25000000  0.07105226  0.09287356  1
  O  O25  1  0.25000000  0.42894774  0.59287356  1
  O  O26  1  0.75000000  0.92894774  0.90712644  1
  O  O27  1  0.75000000  0.57105226  0.40712644  1
  O  O28  1  0.00730891  0.18125029  0.77397283  1
  O  O29  1  0.49269109  0.31874971  0.27397283  1
  O  O30  1  0.50730891  0.81874971  0.22602717  1
  O  O31  1  0.99269109  0.68125029  0.72602717  1
  O  O32  1  0.99269109  0.81874971  0.22602717  1
  O  O33  1  0.50730891  0.68125029  0.72602717  1
  O  O34  1  0.49269109  0.18125029  0.77397283  1
  O  O35  1  0.00730891  0.31874971  0.27397283  1
  O  O36  1  0.25000000  0.98772166  0.65717932  1
  O  O37  1  0.25000000  0.51227834  0.15717932  1
  O  O38  1  0.75000000  0.01227834  0.34282068  1
  O  O39  1  0.75000000  0.48772166  0.84282068  1
