# generated using pymatgen
data_BiB4(HO3)3
_symmetry_space_group_name_H-M   'P 1'
_cell_length_a   4.35930910
_cell_length_b   8.70748195
_cell_length_c   10.69232518
_cell_angle_alpha   111.70004518
_cell_angle_beta   96.81291488
_cell_angle_gamma   90.36577324
_symmetry_Int_Tables_number   1
_chemical_formula_structural   BiB4(HO3)3
_chemical_formula_sum   'Bi2 B8 H6 O18'
_cell_volume   373.88441572
_cell_formula_units_Z   2
loop_
 _symmetry_equiv_pos_site_id
 _symmetry_equiv_pos_as_xyz
  1  'x, y, z'
loop_
 _atom_site_type_symbol
 _atom_site_label
 _atom_site_symmetry_multiplicity
 _atom_site_fract_x
 _atom_site_fract_y
 _atom_site_fract_z
 _atom_site_occupancy
  Bi  Bi0  1  0.96678830  0.51821820  0.90545493  1
  Bi  Bi1  1  0.22279932  0.14610658  0.97544776  1
  B  B2  1  0.96067355  0.03897524  0.41941448  1
  B  B3  1  0.08804630  0.93099685  0.17938985  1
  B  B4  1  0.83215201  0.19822982  0.27885138  1
  B  B5  1  0.10089933  0.73492999  0.70137688  1
  B  B6  1  0.37826520  0.47572675  0.60721811  1
  B  B7  1  0.21469411  0.62253934  0.46001234  1
  B  B8  1  0.63674588  0.88831953  0.80514034  1
  B  B9  1  0.55435303  0.77781038  0.07512996  1
  H  H10  1  0.65051586  0.28667497  0.55662342  1
  H  H11  1  0.57104020  0.39183229  0.33286939  1
  H  H12  1  0.00601203  0.92317271  0.55045278  1
  H  H13  1  0.13364579  0.72843281  0.32407018  1
  H  H14  1  0.90337454  0.43048236  0.13880765  1
  H  H15  1  0.25184353  0.21927793  0.73737080  1
  O  O16  1  0.99147220  0.09550703  0.18051869  1
  O  O17  1  0.20744710  0.57376760  0.70298589  1
  O  O18  1  0.07876367  0.92088813  0.31443027  1
  O  O19  1  0.87575141  0.79589412  0.07705354  1
  O  O20  1  0.39935005  0.91329534  0.14228424  1
  O  O21  1  0.83681085  0.18026377  0.40356625  1
  O  O22  1  0.54346529  0.35435303  0.63315208  1
  O  O23  1  0.67483358  0.32293674  0.25518616  1
  O  O24  1  0.09278868  0.73995341  0.56398357  1
  O  O25  1  0.37173171  0.49236441  0.48182220  1
  O  O26  1  0.31389231  0.87365899  0.79882937  1
  O  O27  1  0.79262214  0.75161285  0.74178942  1
  O  O28  1  0.95113413  0.03119551  0.54363967  1
  O  O29  1  0.19471501  0.62225824  0.33192752  1
  O  O30  1  0.43715739  0.62034190  0.99891251  1
  O  O31  1  0.75561830  0.04494672  0.88248861  1
  O  O32  1  0.95720500  0.38374874  0.04604775  1
  O  O33  1  0.23471221  0.27862773  0.83365199  1
