# generated using pymatgen
data_PH18PtC6S3ClF6
_symmetry_space_group_name_H-M   'P 1'
_cell_length_a   8.82098506
_cell_length_b   8.74713530
_cell_length_c   25.11282362
_cell_angle_alpha   90.00000000
_cell_angle_beta   90.00000000
_cell_angle_gamma   103.86079788
_symmetry_Int_Tables_number   1
_chemical_formula_structural   PH18PtC6S3ClF6
_chemical_formula_sum   'P4 H72 Pt4 C24 S12 Cl4 F24'
_cell_volume   1881.24045540
_cell_formula_units_Z   4
loop_
 _symmetry_equiv_pos_site_id
 _symmetry_equiv_pos_as_xyz
  1  'x, y, z'
loop_
 _atom_site_type_symbol
 _atom_site_label
 _atom_site_symmetry_multiplicity
 _atom_site_fract_x
 _atom_site_fract_y
 _atom_site_fract_z
 _atom_site_occupancy
  P  P0  1  0.97570462  0.98571940  0.33788991  1
  P  P1  1  0.02429538  0.51428060  0.83788991  1
  P  P2  1  0.02429538  0.01428060  0.66211009  1
  P  P3  1  0.97570462  0.48571940  0.16211009  1
  H  H4  1  0.34075874  0.04618604  0.48941966  1
  H  H5  1  0.65924126  0.45381396  0.98941966  1
  H  H6  1  0.65924126  0.95381396  0.51058034  1
  H  H7  1  0.34075874  0.54618604  0.01058034  1
  H  H8  1  0.17401531  0.06468934  0.52770717  1
  H  H9  1  0.82598469  0.43531066  0.02770717  1
  H  H10  1  0.82598469  0.93531066  0.47229283  1
  H  H11  1  0.17401531  0.56468934  0.97229283  1
  H  H12  1  0.16367981  0.05808053  0.45558213  1
  H  H13  1  0.83632019  0.44191947  0.95558213  1
  H  H14  1  0.83632019  0.94191947  0.54441787  1
  H  H15  1  0.16367981  0.55808053  0.04441787  1
  H  H16  1  0.15410445  0.49096846  0.50281344  1
  H  H17  1  0.84589555  0.00903154  0.00281344  1
  H  H18  1  0.84589555  0.50903154  0.49718656  1
  H  H19  1  0.15410445  0.99096846  0.99718656  1
  H  H20  1  0.05099881  0.32460610  0.46375827  1
  H  H21  1  0.94900119  0.17539390  0.96375827  1
  H  H22  1  0.94900119  0.67539390  0.53624173  1
  H  H23  1  0.05099881  0.82460610  0.03624173  1
  H  H24  1  0.07272213  0.30589657  0.53469329  1
  H  H25  1  0.92727787  0.19410343  0.03469329  1
  H  H26  1  0.92727787  0.69410343  0.46530671  1
  H  H27  1  0.07272213  0.80589657  0.96530671  1
  H  H28  1  0.82205225  0.58861563  0.36274207  1
  H  H29  1  0.17794775  0.91138437  0.86274207  1
  H  H30  1  0.17794775  0.41138437  0.63725793  1
  H  H31  1  0.82205225  0.08861563  0.13725793  1
  H  H32  1  0.81173830  0.38039203  0.36987928  1
  H  H33  1  0.18826170  0.11960797  0.86987928  1
  H  H34  1  0.18826170  0.61960797  0.63012072  1
  H  H35  1  0.81173830  0.88039203  0.13012072  1
  H  H36  1  0.83779988  0.47268525  0.30497474  1
  H  H37  1  0.16220012  0.02731475  0.80497474  1
  H  H38  1  0.16220012  0.52731475  0.69502526  1
  H  H39  1  0.83779988  0.97268525  0.19502526  1
  H  H40  1  0.44110470  0.78161071  0.42189576  1
  H  H41  1  0.55889530  0.71838929  0.92189576  1
  H  H42  1  0.55889530  0.21838929  0.57810424  1
  H  H43  1  0.44110470  0.28161071  0.07810424  1
  H  H44  1  0.49732791  0.75002649  0.35481346  1
  H  H45  1  0.50267209  0.74997351  0.85481346  1
  H  H46  1  0.50267209  0.24997351  0.64518654  1
  H  H47  1  0.49732791  0.25002649  0.14518654  1
  H  H48  1  0.32051076  0.81382804  0.36721424  1
  H  H49  1  0.67948924  0.68617196  0.86721424  1
  H  H50  1  0.67948924  0.18617196  0.63278576  1
  H  H51  1  0.32051076  0.31382804  0.13278576  1
  H  H52  1  0.14353752  0.39256570  0.31605961  1
  H  H53  1  0.85646248  0.10743430  0.81605961  1
  H  H54  1  0.85646248  0.60743430  0.68394039  1
  H  H55  1  0.14353752  0.89256570  0.18394039  1
  H  H56  1  0.15619239  0.60010224  0.30896129  1
  H  H57  1  0.84380761  0.89989776  0.80896129  1
  H  H58  1  0.84380761  0.39989776  0.69103871  1
  H  H59  1  0.15619239  0.10010224  0.19103871  1
  H  H60  1  0.32160304  0.52273234  0.29295379  1
  H  H61  1  0.67839696  0.97726766  0.79295379  1
  H  H62  1  0.67839696  0.47726766  0.70704621  1
  H  H63  1  0.32160304  0.02273234  0.20704621  1
  H  H64  1  0.42605453  0.20195175  0.29112366  1
  H  H65  1  0.57394547  0.29804825  0.79112366  1
  H  H66  1  0.57394547  0.79804825  0.70887634  1
  H  H67  1  0.42605453  0.70195175  0.20887634  1
  H  H68  1  0.62384029  0.26262026  0.26539245  1
  H  H69  1  0.37615971  0.23737974  0.76539245  1
  H  H70  1  0.37615971  0.73737974  0.73460755  1
  H  H71  1  0.62384029  0.76262026  0.23460755  1
  H  H72  1  0.58648295  0.16032592  0.32801521  1
  H  H73  1  0.41351705  0.33967408  0.82801521  1
  H  H74  1  0.41351705  0.83967408  0.67198479  1
  H  H75  1  0.58648295  0.66032592  0.17198479  1
  Pt  Pt76  1  0.43946835  0.38205814  0.41228737  1
  Pt  Pt77  1  0.56053165  0.11794186  0.91228737  1
  Pt  Pt78  1  0.56053165  0.61794186  0.58771263  1
  Pt  Pt79  1  0.43946835  0.88205814  0.08771263  1
  C  C80  1  0.23832538  0.09617401  0.49020033  1
  C  C81  1  0.76167462  0.40382599  0.99020033  1
  C  C82  1  0.76167462  0.90382599  0.50979967  1
  C  C83  1  0.23832538  0.59617401  0.00979967  1
  C  C84  1  0.12723050  0.36309766  0.49817385  1
  C  C85  1  0.87276950  0.13690234  0.99817385  1
  C  C86  1  0.87276950  0.63690234  0.50182615  1
  C  C87  1  0.12723050  0.86309766  0.00182615  1
  C  C88  1  0.78448466  0.47217840  0.34453659  1
  C  C89  1  0.21551534  0.02782160  0.84453659  1
  C  C90  1  0.21551534  0.52782160  0.65546341  1
  C  C91  1  0.78448466  0.97217840  0.15546341  1
  C  C92  1  0.39858914  0.74239366  0.38195206  1
  C  C93  1  0.60141086  0.75760634  0.88195206  1
  C  C94  1  0.60141086  0.25760634  0.61804794  1
  C  C95  1  0.39858914  0.24239366  0.11804794  1
  C  C96  1  0.22011029  0.51068748  0.31922271  1
  C  C97  1  0.77988971  0.98931252  0.81922271  1
  C  C98  1  0.77988971  0.48931252  0.68077729  1
  C  C99  1  0.22011029  0.01068748  0.18077729  1
  C  C100  1  0.54985460  0.24344546  0.30122797  1
  C  C101  1  0.45014540  0.25655454  0.80122797  1
  C  C102  1  0.45014540  0.75655454  0.69877203  1
  C  C103  1  0.54985460  0.74344546  0.19877203  1
  S  S104  1  0.31033707  0.30761520  0.49253774  1
  S  S105  1  0.68966293  0.19238480  0.99253774  1
  S  S106  1  0.68966293  0.69238480  0.50746226  1
  S  S107  1  0.31033707  0.80761520  0.00746226  1
  S  S108  1  0.28001522  0.54336648  0.38785452  1
  S  S109  1  0.71998478  0.95663352  0.88785452  1
  S  S110  1  0.71998478  0.45663352  0.61214548  1
  S  S111  1  0.28001522  0.04336648  0.11214548  1
  S  S112  1  0.57718498  0.43329908  0.33309309  1
  S  S113  1  0.42281502  0.06670092  0.83309309  1
  S  S114  1  0.42281502  0.56670092  0.66690691  1
  S  S115  1  0.57718498  0.93329908  0.16690691  1
  Cl  Cl116  1  0.60548264  0.22881771  0.44316119  1
  Cl  Cl117  1  0.39451736  0.27118229  0.94316119  1
  Cl  Cl118  1  0.39451736  0.77118229  0.55683881  1
  Cl  Cl119  1  0.60548264  0.72881771  0.05683881  1
  F  F120  1  0.02431518  0.86923068  0.38357874  1
  F  F121  1  0.97568482  0.63076932  0.88357874  1
  F  F122  1  0.97568482  0.13076932  0.61642126  1
  F  F123  1  0.02431518  0.36923068  0.11642126  1
  F  F124  1  0.97738649  0.11901121  0.38433134  1
  F  F125  1  0.02261351  0.38098879  0.88433134  1
  F  F126  1  0.02261351  0.88098879  0.61566866  1
  F  F127  1  0.97738649  0.61901121  0.11566866  1
  F  F128  1  0.97574760  0.85212509  0.29251294  1
  F  F129  1  0.02425240  0.64787491  0.79251294  1
  F  F130  1  0.02425240  0.14787491  0.70748706  1
  F  F131  1  0.97574760  0.35212509  0.20748706  1
  F  F132  1  0.92760232  0.10157655  0.29336745  1
  F  F133  1  0.07239768  0.39842345  0.79336745  1
  F  F134  1  0.07239768  0.89842345  0.70663255  1
  F  F135  1  0.92760232  0.60157655  0.20663255  1
  F  F136  1  0.16213016  0.06317145  0.32641329  1
  F  F137  1  0.83786984  0.43682855  0.82641329  1
  F  F138  1  0.83786984  0.93682855  0.67358671  1
  F  F139  1  0.16213016  0.56317145  0.17358671  1
  F  F140  1  0.79027997  0.90729641  0.35027442  1
  F  F141  1  0.20972003  0.59270359  0.85027442  1
  F  F142  1  0.20972003  0.09270359  0.64972558  1
  F  F143  1  0.79027997  0.40729641  0.14972558  1
