# generated using pymatgen
data_PrTmS3
_symmetry_space_group_name_H-M   'P 1'
_cell_length_a   3.97203387
_cell_length_b   11.04386706
_cell_length_c   21.58060699
_cell_angle_alpha   101.54636196
_cell_angle_beta   90.00000000
_cell_angle_gamma   90.00000000
_symmetry_Int_Tables_number   1
_chemical_formula_structural   PrTmS3
_chemical_formula_sum   'Pr8 Tm8 S24'
_cell_volume   927.51049234
_cell_formula_units_Z   8
loop_
 _symmetry_equiv_pos_site_id
 _symmetry_equiv_pos_as_xyz
  1  'x, y, z'
loop_
 _atom_site_type_symbol
 _atom_site_label
 _atom_site_symmetry_multiplicity
 _atom_site_fract_x
 _atom_site_fract_y
 _atom_site_fract_z
 _atom_site_occupancy
  Pr  Pr0  1  0.25000000  0.69727743  0.76500989  1
  Pr  Pr1  1  0.75000000  0.30272257  0.23499011  1
  Pr  Pr2  1  0.25000000  0.09163138  0.86325928  1
  Pr  Pr3  1  0.75000000  0.90836862  0.13674072  1
  Pr  Pr4  1  0.25000000  0.30868279  0.73266138  1
  Pr  Pr5  1  0.75000000  0.69131721  0.26733862  1
  Pr  Pr6  1  0.25000000  0.20155266  0.53676996  1
  Pr  Pr7  1  0.75000000  0.79844734  0.46323004  1
  Tm  Tm8  1  0.25000000  0.44713926  0.41756428  1
  Tm  Tm9  1  0.75000000  0.55286074  0.58243572  1
  Tm  Tm10  1  0.25000000  0.03029289  0.35167513  1
  Tm  Tm11  1  0.75000000  0.96970711  0.64832487  1
  Tm  Tm12  1  0.25000000  0.17951540  0.04673826  1
  Tm  Tm13  1  0.75000000  0.82048460  0.95326174  1
  Tm  Tm14  1  0.25000000  0.52250652  0.08790928  1
  Tm  Tm15  1  0.75000000  0.47749348  0.91209072  1
  S  S16  1  0.25000000  0.91476133  0.03676296  1
  S  S17  1  0.75000000  0.08523867  0.96323704  1
  S  S18  1  0.25000000  0.79578628  0.36489238  1
  S  S19  1  0.75000000  0.20421372  0.63510762  1
  S  S20  1  0.25000000  0.25452417  0.32460310  1
  S  S21  1  0.75000000  0.74547583  0.67539690  1
  S  S22  1  0.25000000  0.36436673  0.96375753  1
  S  S23  1  0.75000000  0.63563327  0.03624247  1
  S  S24  1  0.25000000  0.49408819  0.22052060  1
  S  S25  1  0.75000000  0.50591181  0.77947940  1
  S  S26  1  0.25000000  0.74687123  0.17385241  1
  S  S27  1  0.75000000  0.25312877  0.82614759  1
  S  S28  1  0.25000000  0.12440340  0.16355800  1
  S  S29  1  0.75000000  0.87559660  0.83644200  1
  S  S30  1  0.25000000  0.64477519  0.51430254  1
  S  S31  1  0.75000000  0.35522481  0.48569746  1
  S  S32  1  0.25000000  0.94153429  0.55533752  1
  S  S33  1  0.75000000  0.05846571  0.44466248  1
  S  S34  1  0.25000000  0.03659973  0.72830901  1
  S  S35  1  0.75000000  0.96340027  0.27169099  1
  S  S36  1  0.25000000  0.45359554  0.63320077  1
  S  S37  1  0.75000000  0.54640446  0.36679923  1
  S  S38  1  0.25000000  0.65808865  0.90064369  1
  S  S39  1  0.75000000  0.34191135  0.09935631  1
