# generated using pymatgen
data_Ba2MnP4(H3O8)2
_symmetry_space_group_name_H-M   'P 1'
_cell_length_a   5.48143640
_cell_length_b   10.41703955
_cell_length_c   12.20275039
_cell_angle_alpha   90.00000000
_cell_angle_beta   99.81038183
_cell_angle_gamma   90.00000000
_symmetry_Int_Tables_number   1
_chemical_formula_structural   Ba2MnP4(H3O8)2
_chemical_formula_sum   'Ba4 Mn2 P8 H12 O32'
_cell_volume   686.59218982
_cell_formula_units_Z   2
loop_
 _symmetry_equiv_pos_site_id
 _symmetry_equiv_pos_as_xyz
  1  'x, y, z'
loop_
 _atom_site_type_symbol
 _atom_site_label
 _atom_site_symmetry_multiplicity
 _atom_site_fract_x
 _atom_site_fract_y
 _atom_site_fract_z
 _atom_site_occupancy
  Ba  Ba0  1  0.63635609  0.14900254  0.81947244  1
  Ba  Ba1  1  0.36364391  0.64900254  0.68052756  1
  Ba  Ba2  1  0.36364391  0.85099746  0.18052756  1
  Ba  Ba3  1  0.63635609  0.35099746  0.31947244  1
  Mn  Mn4  1  0.50000000  0.50000000  -0.00000000  1
  Mn  Mn5  1  0.50000000  0.00000000  0.50000000  1
  P  P6  1  0.91678341  0.49136089  0.80776074  1
  P  P7  1  0.08321659  0.99136089  0.69223926  1
  P  P8  1  0.08321659  0.50863911  0.19223926  1
  P  P9  1  0.91678341  0.00863911  0.30776074  1
  P  P10  1  0.26486883  0.19858934  0.05333933  1
  P  P11  1  0.73513117  0.69858934  0.44666067  1
  P  P12  1  0.73513117  0.80141066  0.94666067  1
  P  P13  1  0.26486883  0.30141066  0.55333933  1
  H  H14  1  0.11229099  0.32443241  0.74769211  1
  H  H15  1  0.88770901  0.82443241  0.75230789  1
  H  H16  1  0.88770901  0.67556759  0.25230789  1
  H  H17  1  0.11229099  0.17556759  0.24769211  1
  H  H18  1  0.20752435  0.03743443  0.93209390  1
  H  H19  1  0.79247565  0.53743443  0.56790610  1
  H  H20  1  0.79247565  0.96256557  0.06790610  1
  H  H21  1  0.20752435  0.46256557  0.43209390  1
  H  H22  1  0.92643695  0.31598147  0.05471496  1
  H  H23  1  0.07356305  0.81598147  0.44528504  1
  H  H24  1  0.07356305  0.68401853  0.94528504  1
  H  H25  1  0.92643695  0.18401853  0.55471496  1
  O  O26  1  0.68141966  0.49447240  0.85906076  1
  O  O27  1  0.31858034  0.99447240  0.64093924  1
  O  O28  1  0.31858034  0.50552760  0.14093924  1
  O  O29  1  0.68141966  0.00552760  0.35906076  1
  O  O30  1  0.85327727  0.44762276  0.11879308  1
  O  O31  1  0.14672273  0.94762276  0.38120692  1
  O  O32  1  0.14672273  0.55237724  0.88120692  1
  O  O33  1  0.85327727  0.05237724  0.61879308  1
  O  O34  1  0.42609457  0.27900485  0.98957317  1
  O  O35  1  0.57390543  0.77900485  0.51042683  1
  O  O36  1  0.57390543  0.72099515  0.01042683  1
  O  O37  1  0.42609457  0.22099515  0.48957317  1
  O  O38  1  0.33664555  0.19696055  0.17938014  1
  O  O39  1  0.66335445  0.69696055  0.32061986  1
  O  O40  1  0.66335445  0.80303945  0.82061986  1
  O  O41  1  0.33664555  0.30303945  0.67938014  1
  O  O42  1  0.87448286  0.55771340  0.69293176  1
  O  O43  1  0.12551714  0.05771340  0.80706824  1
  O  O44  1  0.12551714  0.44228660  0.30706824  1
  O  O45  1  0.87448286  0.94228660  0.19293176  1
  O  O46  1  0.96985714  0.34232017  0.78922285  1
  O  O47  1  0.03014286  0.84232017  0.71077715  1
  O  O48  1  0.03014286  0.65767983  0.21077715  1
  O  O49  1  0.96985714  0.15767983  0.28922285  1
  O  O50  1  0.26741142  0.05204658  0.01565287  1
  O  O51  1  0.73258858  0.55204658  0.48434713  1
  O  O52  1  0.73258858  0.94795342  0.98434713  1
  O  O53  1  0.26741142  0.44795342  0.51565287  1
  O  O54  1  0.97755038  0.23383817  0.01990812  1
  O  O55  1  0.02244962  0.73383817  0.48009188  1
  O  O56  1  0.02244962  0.76616183  0.98009188  1
  O  O57  1  0.97755038  0.26616183  0.51990812  1
