# generated using pymatgen
data_Nd6H40N8O49
_symmetry_space_group_name_H-M   'P 1'
_cell_length_a   10.65243007
_cell_length_b   12.45041031
_cell_length_c   16.41425427
_cell_angle_alpha   96.57020826
_cell_angle_beta   90.00000000
_cell_angle_gamma   90.00000000
_symmetry_Int_Tables_number   1
_chemical_formula_structural   Nd6H40N8O49
_chemical_formula_sum   'Nd12 H80 N16 O98'
_cell_volume   2162.67784058
_cell_formula_units_Z   2
loop_
 _symmetry_equiv_pos_site_id
 _symmetry_equiv_pos_as_xyz
  1  'x, y, z'
loop_
 _atom_site_type_symbol
 _atom_site_label
 _atom_site_symmetry_multiplicity
 _atom_site_fract_x
 _atom_site_fract_y
 _atom_site_fract_z
 _atom_site_occupancy
  Nd  Nd0  1  0.12071642  0.02180525  0.13981773  1
  Nd  Nd1  1  0.37928358  0.52180525  0.63981773  1
  Nd  Nd2  1  0.87928358  0.97819475  0.86018227  1
  Nd  Nd3  1  0.62071642  0.47819475  0.36018227  1
  Nd  Nd4  1  0.95786587  0.78520095  0.01760779  1
  Nd  Nd5  1  0.54213413  0.28520095  0.51760779  1
  Nd  Nd6  1  0.04213413  0.21479905  0.98239221  1
  Nd  Nd7  1  0.45786587  0.71479905  0.48239221  1
  Nd  Nd8  1  0.79766878  0.05039463  0.07458198  1
  Nd  Nd9  1  0.70233122  0.55039463  0.57458198  1
  Nd  Nd10  1  0.20233122  0.94960537  0.92541802  1
  Nd  Nd11  1  0.29766878  0.44960537  0.42541802  1
  H  H12  1  0.29908098  0.14342600  0.03541515  1
  H  H13  1  0.20091902  0.64342600  0.53541515  1
  H  H14  1  0.70091902  0.85657400  0.96458485  1
  H  H15  1  0.79908098  0.35657400  0.46458485  1
  H  H16  1  0.89389141  0.89339076  0.18892417  1
  H  H17  1  0.60610859  0.39339076  0.68892417  1
  H  H18  1  0.10610859  0.10660924  0.81107583  1
  H  H19  1  0.39389141  0.60660924  0.31107583  1
  H  H20  1  0.96561226  0.22313557  0.16241048  1
  H  H21  1  0.53438774  0.72313557  0.66241048  1
  H  H22  1  0.03438774  0.77686443  0.83758952  1
  H  H23  1  0.46561226  0.27686443  0.33758952  1
  H  H24  1  0.22886310  0.81135048  0.06707200  1
  H  H25  1  0.27113690  0.31135048  0.56707200  1
  H  H26  1  0.77113690  0.18864952  0.93292800  1
  H  H27  1  0.72886310  0.68864952  0.43292800  1
  H  H28  1  0.08873614  0.15021210  0.32281416  1
  H  H29  1  0.41126386  0.65021210  0.82281416  1
  H  H30  1  0.91126386  0.84978790  0.67718584  1
  H  H31  1  0.58873614  0.34978790  0.17718584  1
  H  H32  1  0.00993346  0.04218556  0.31796593  1
  H  H33  1  0.49006654  0.54218556  0.81796593  1
  H  H34  1  0.99006654  0.95781444  0.68203407  1
  H  H35  1  0.50993346  0.45781444  0.18203407  1
  H  H36  1  0.10872288  0.82537832  0.23885078  1
  H  H37  1  0.39127712  0.32537832  0.73885078  1
  H  H38  1  0.89127712  0.17462168  0.76114922  1
  H  H39  1  0.60872288  0.67462168  0.26114922  1
  H  H40  1  0.25129973  0.82485305  0.22686135  1
  H  H41  1  0.24870027  0.32485305  0.72686135  1
  H  H42  1  0.74870027  0.17514695  0.77313865  1
  H  H43  1  0.75129973  0.67514695  0.27313865  1
  H  H44  1  0.88083596  0.58674715  0.88061317  1
  H  H45  1  0.61916404  0.08674715  0.38061317  1
  H  H46  1  0.11916404  0.41325285  0.11938683  1
  H  H47  1  0.38083596  0.91325285  0.61938683  1
  H  H48  1  0.76409789  0.66455914  0.88794872  1
  H  H49  1  0.73590211  0.16455914  0.38794872  1
  H  H50  1  0.23590211  0.33544086  0.11205128  1
  H  H51  1  0.26409789  0.83544086  0.61205128  1
  H  H52  1  0.72271719  0.65594035  0.07583068  1
  H  H53  1  0.77728281  0.15594035  0.57583068  1
  H  H54  1  0.27728281  0.34405965  0.92416932  1
  H  H55  1  0.22271719  0.84405965  0.42416932  1
  H  H56  1  0.69801215  0.78286316  0.10073198  1
  H  H57  1  0.80198785  0.28286316  0.60073198  1
  H  H58  1  0.30198785  0.21713684  0.89926802  1
  H  H59  1  0.19801215  0.71713684  0.39926802  1
  H  H60  1  0.09528793  0.56560365  0.94270161  1
  H  H61  1  0.40471207  0.06560365  0.44270161  1
  H  H62  1  0.90471207  0.43439635  0.05729839  1
  H  H63  1  0.59528793  0.93439635  0.55729839  1
  H  H64  1  0.20759009  0.64823978  0.95506044  1
  H  H65  1  0.29240991  0.14823978  0.45506044  1
  H  H66  1  0.79240991  0.35176022  0.04493956  1
  H  H67  1  0.70759009  0.85176022  0.54493956  1
  H  H68  1  0.53851112  0.92488831  0.08225452  1
  H  H69  1  0.96148888  0.42488831  0.58225452  1
  H  H70  1  0.46148888  0.07511169  0.91774548  1
  H  H71  1  0.03851112  0.57511169  0.41774548  1
  H  H72  1  0.57260925  0.93483946  0.17593890  1
  H  H73  1  0.92739075  0.43483946  0.67593890  1
  H  H74  1  0.42739075  0.06516054  0.82406110  1
  H  H75  1  0.07260925  0.56516054  0.32406110  1
  H  H76  1  0.76936422  0.18074709  0.24721869  1
  H  H77  1  0.73063578  0.68074709  0.74721869  1
  H  H78  1  0.23063578  0.81925291  0.75278131  1
  H  H79  1  0.26936422  0.31925291  0.25278131  1
  H  H80  1  0.65440195  0.10339357  0.23842760  1
  H  H81  1  0.84559805  0.60339357  0.73842760  1
  H  H82  1  0.34559805  0.89660643  0.76157240  1
  H  H83  1  0.15440195  0.39660643  0.26157240  1
  H  H84  1  0.64231228  0.51051001  0.98987267  1
  H  H85  1  0.85768772  0.01051001  0.48987267  1
  H  H86  1  0.35768772  0.48948999  0.01012733  1
  H  H87  1  0.14231228  0.98948999  0.51012733  1
  H  H88  1  0.56669248  0.54597487  0.06948069  1
  H  H89  1  0.93330752  0.04597487  0.56948069  1
  H  H90  1  0.43330752  0.45402513  0.93051931  1
  H  H91  1  0.06669248  0.95402513  0.43051931  1
  N  N92  1  0.37222838  0.12401822  0.21157601  1
  N  N93  1  0.12777162  0.62401822  0.71157601  1
  N  N94  1  0.62777162  0.87598178  0.78842399  1
  N  N95  1  0.87222838  0.37598178  0.28842399  1
  N  N96  1  0.02074044  0.59999678  0.13455892  1
  N  N97  1  0.47925956  0.09999678  0.63455892  1
  N  N98  1  0.97925956  0.40000322  0.86544108  1
  N  N99  1  0.52074044  0.90000322  0.36544108  1
  N  N100  1  0.55222822  0.19074190  0.05540973  1
  N  N101  1  0.94777178  0.69074190  0.55540973  1
  N  N102  1  0.44777178  0.80925810  0.94459027  1
  N  N103  1  0.05222822  0.30925810  0.44459027  1
  N  N104  1  0.63218017  0.35341350  0.86287192  1
  N  N105  1  0.86781983  0.85341350  0.36287192  1
  N  N106  1  0.36781983  0.64658650  0.13712808  1
  N  N107  1  0.13218017  0.14658650  0.63712808  1
  O  O108  1  0.36578780  0.02713450  0.17790755  1
  O  O109  1  0.13421220  0.52713450  0.67790755  1
  O  O110  1  0.63421220  0.97286550  0.82209245  1
  O  O111  1  0.86578780  0.47286550  0.32209245  1
  O  O112  1  0.27223835  0.18184085  0.21078886  1
  O  O113  1  0.22776165  0.68184085  0.71078886  1
  O  O114  1  0.72776165  0.81815915  0.78921114  1
  O  O115  1  0.77223835  0.31815915  0.28921114  1
  O  O116  1  0.47100961  0.16263309  0.24380837  1
  O  O117  1  0.02899039  0.66263309  0.74380837  1
  O  O118  1  0.52899039  0.83736691  0.75619163  1
  O  O119  1  0.97100961  0.33736691  0.25619163  1
  O  O120  1  0.04258928  0.70058939  0.14903848  1
  O  O121  1  0.45741072  0.20058939  0.64903848  1
  O  O122  1  0.95741072  0.29941061  0.85096152  1
  O  O123  1  0.54258928  0.79941061  0.35096152  1
  O  O124  1  0.95297824  0.56798751  0.07278041  1
  O  O125  1  0.54702176  0.06798751  0.57278041  1
  O  O126  1  0.04702176  0.43201249  0.92721959  1
  O  O127  1  0.45297824  0.93201249  0.42721959  1
  O  O128  1  0.06671026  0.53415861  0.17929182  1
  O  O129  1  0.43328974  0.03415861  0.67929182  1
  O  O130  1  0.93328974  0.46584139  0.82070818  1
  O  O131  1  0.56671026  0.96584139  0.32070818  1
  O  O132  1  0.57076512  0.10048291  0.01086700  1
  O  O133  1  0.92923488  0.60048291  0.51086700  1
  O  O134  1  0.42923488  0.89951709  0.98913300  1
  O  O135  1  0.07076512  0.39951709  0.48913300  1
  O  O136  1  0.64423145  0.22916503  0.09985992  1
  O  O137  1  0.85576855  0.72916503  0.59985992  1
  O  O138  1  0.35576855  0.77083497  0.90014008  1
  O  O139  1  0.14423145  0.27083497  0.40014008  1
  O  O140  1  0.44926755  0.23777544  0.05614360  1
  O  O141  1  0.05073245  0.73777544  0.55614360  1
  O  O142  1  0.55073245  0.76222456  0.94385640  1
  O  O143  1  0.94926755  0.26222456  0.44385640  1
  O  O144  1  0.64268745  0.31125176  0.78946723  1
  O  O145  1  0.85731255  0.81125176  0.28946723  1
  O  O146  1  0.35731255  0.68874824  0.21053277  1
  O  O147  1  0.14268745  0.18874824  0.71053277  1
  O  O148  1  0.58526347  0.44920531  0.87829690  1
  O  O149  1  0.91473653  0.94920531  0.37829690  1
  O  O150  1  0.41473653  0.55079469  0.12170310  1
  O  O151  1  0.08526347  0.05079469  0.62170310  1
  O  O152  1  0.66575373  0.30438115  0.92192011  1
  O  O153  1  0.83424627  0.80438115  0.42192011  1
  O  O154  1  0.33424627  0.69561885  0.07807989  1
  O  O155  1  0.16575373  0.19561885  0.57807989  1
  O  O156  1  -0.00000000  0.00000000  0.00000000  1
  O  O157  1  0.50000000  0.50000000  0.50000000  1
  O  O158  1  0.21890705  0.10498501  0.02797527  1
  O  O159  1  0.28109295  0.60498501  0.52797527  1
  O  O160  1  0.78109295  0.89501499  0.97202473  1
  O  O161  1  0.71890705  0.39501499  0.47202473  1
  O  O162  1  0.92433744  0.92153885  0.13925281  1
  O  O163  1  0.57566256  0.42153885  0.63925281  1
  O  O164  1  0.07566256  0.07846115  0.86074719  1
  O  O165  1  0.42433744  0.57846115  0.36074719  1
  O  O166  1  0.97330917  0.16363371  0.11834575  1
  O  O167  1  0.52669083  0.66363371  0.61834575  1
  O  O168  1  0.02669083  0.83636629  0.88165425  1
  O  O169  1  0.47330917  0.33636629  0.38165425  1
  O  O170  1  0.16840165  0.86178606  0.04720911  1
  O  O171  1  0.33159835  0.36178606  0.54720911  1
  O  O172  1  0.83159835  0.13821394  0.95279089  1
  O  O173  1  0.66840165  0.63821394  0.45279089  1
  O  O174  1  0.05911148  0.08829848  0.28507107  1
  O  O175  1  0.44088852  0.58829848  0.78507107  1
  O  O176  1  0.94088852  0.91170152  0.71492893  1
  O  O177  1  0.55911148  0.41170152  0.21492893  1
  O  O178  1  0.17913038  0.87457293  0.23377875  1
  O  O179  1  0.32086962  0.37457293  0.73377875  1
  O  O180  1  0.82086962  0.12542707  0.76622125  1
  O  O181  1  0.67913038  0.62542707  0.26622125  1
  O  O182  1  0.84402884  0.65095755  0.91342925  1
  O  O183  1  0.65597116  0.15095755  0.41342925  1
  O  O184  1  0.15597116  0.34904245  0.08657075  1
  O  O185  1  0.34402884  0.84904245  0.58657075  1
  O  O186  1  0.76396596  0.72784702  0.09143836  1
  O  O187  1  0.73603404  0.22784702  0.59143836  1
  O  O188  1  0.23603404  0.27215298  0.90856164  1
  O  O189  1  0.26396596  0.77215298  0.40856164  1
  O  O190  1  0.11606785  0.64333286  0.95495993  1
  O  O191  1  0.38393215  0.14333286  0.45495993  1
  O  O192  1  0.88393215  0.35666714  0.04504007  1
  O  O193  1  0.61606785  0.85666714  0.54504007  1
  O  O194  1  0.60986696  0.92560626  0.12094601  1
  O  O195  1  0.89013304  0.42560626  0.62094601  1
  O  O196  1  0.39013304  0.07439374  0.87905399  1
  O  O197  1  0.10986696  0.57439374  0.37905399  1
  O  O198  1  0.74482686  0.10549435  0.22708966  1
  O  O199  1  0.75517314  0.60549435  0.72708966  1
  O  O200  1  0.25517314  0.89450565  0.77291034  1
  O  O201  1  0.24482686  0.39450565  0.27291034  1
  O  O202  1  0.65293585  0.53490250  0.04860680  1
  O  O203  1  0.84706415  0.03490250  0.54860680  1
  O  O204  1  0.34706415  0.46509750  0.95139320  1
  O  O205  1  0.15293585  0.96509750  0.45139320  1
