# generated using pymatgen
data_LaNi3B
_symmetry_space_group_name_H-M   'P 1'
_cell_length_a   7.16055943
_cell_length_b   9.60383963
_cell_length_c   9.60383963
_cell_angle_alpha   118.01762529
_cell_angle_beta   90.00000000
_cell_angle_gamma   90.00000000
_symmetry_Int_Tables_number   1
_chemical_formula_structural   LaNi3B
_chemical_formula_sum   'La8 Ni24 B8'
_cell_volume   583.04304330
_cell_formula_units_Z   8
loop_
 _symmetry_equiv_pos_site_id
 _symmetry_equiv_pos_as_xyz
  1  'x, y, z'
loop_
 _atom_site_type_symbol
 _atom_site_label
 _atom_site_symmetry_multiplicity
 _atom_site_fract_x
 _atom_site_fract_y
 _atom_site_fract_z
 _atom_site_occupancy
  La  La0  1  0.75000000  0.97498858  0.54521503  1
  La  La1  1  0.25000000  0.54521503  0.97498858  1
  La  La2  1  0.25000000  0.02501142  0.45478497  1
  La  La3  1  0.75000000  0.45478497  0.02501142  1
  La  La4  1  0.75000000  0.53667107  0.46332893  1
  La  La5  1  0.25000000  0.46332893  0.53667107  1
  La  La6  1  0.75000000  0.03581754  0.96418246  1
  La  La7  1  0.25000000  0.96418246  0.03581754  1
  Ni  Ni8  1  0.57387418  0.99476814  0.25215191  1
  Ni  Ni9  1  0.42612582  0.25215191  0.99476814  1
  Ni  Ni10  1  0.92612582  0.99476814  0.25215191  1
  Ni  Ni11  1  0.07387418  0.25215191  0.99476814  1
  Ni  Ni12  1  0.42612582  0.00523186  0.74784809  1
  Ni  Ni13  1  0.57387418  0.74784809  0.00523186  1
  Ni  Ni14  1  0.07387418  0.00523186  0.74784809  1
  Ni  Ni15  1  0.92612582  0.74784809  0.00523186  1
  Ni  Ni16  1  0.57400058  0.25216149  0.49474772  1
  Ni  Ni17  1  0.42599942  0.49474772  0.25216149  1
  Ni  Ni18  1  0.92599942  0.25216149  0.49474772  1
  Ni  Ni19  1  0.07400058  0.49474772  0.25216149  1
  Ni  Ni20  1  0.42599942  0.74783851  0.50525228  1
  Ni  Ni21  1  0.57400058  0.50525228  0.74783851  1
  Ni  Ni22  1  0.07400058  0.74783851  0.50525228  1
  Ni  Ni23  1  0.92599942  0.50525228  0.74783851  1
  Ni  Ni24  1  0.51294343  0.74100058  0.25899942  1
  Ni  Ni25  1  0.48705657  0.25899942  0.74100058  1
  Ni  Ni26  1  0.98705657  0.74100058  0.25899942  1
  Ni  Ni27  1  0.01294343  0.25899942  0.74100058  1
  Ni  Ni28  1  0.50000000  0.24152110  0.24152110  1
  Ni  Ni29  1  0.00000000  0.24152110  0.24152110  1
  Ni  Ni30  1  0.50000000  0.75847890  0.75847890  1
  Ni  Ni31  1  0.00000000  0.75847890  0.75847890  1
  B  B32  1  0.75000000  0.17726983  0.30925819  1
  B  B33  1  0.25000000  0.30925819  0.17726983  1
  B  B34  1  0.25000000  0.82273017  0.69074181  1
  B  B35  1  0.75000000  0.69074181  0.82273017  1
  B  B36  1  0.75000000  0.80975750  0.19024250  1
  B  B37  1  0.25000000  0.19024250  0.80975750  1
  B  B38  1  0.75000000  0.32218442  0.67781558  1
  B  B39  1  0.25000000  0.67781558  0.32218442  1
