# generated using pymatgen
data_K3AsS4
_symmetry_space_group_name_H-M   'P 1'
_cell_length_a   9.25560791
_cell_length_b   9.52184786
_cell_length_c   10.81511487
_cell_angle_alpha   90.00000000
_cell_angle_beta   90.00000000
_cell_angle_gamma   90.00000000
_symmetry_Int_Tables_number   1
_chemical_formula_structural   K3AsS4
_chemical_formula_sum   'K12 As4 S16'
_cell_volume   953.14137691
_cell_formula_units_Z   4
loop_
 _symmetry_equiv_pos_site_id
 _symmetry_equiv_pos_as_xyz
  1  'x, y, z'
loop_
 _atom_site_type_symbol
 _atom_site_label
 _atom_site_symmetry_multiplicity
 _atom_site_fract_x
 _atom_site_fract_y
 _atom_site_fract_z
 _atom_site_occupancy
  K  K0  1  0.94187568  0.70354031  0.00837263  1
  K  K1  1  0.05812432  0.29645969  0.50837263  1
  K  K2  1  0.55812432  0.20354031  0.50837263  1
  K  K3  1  0.44187568  0.79645969  0.00837263  1
  K  K4  1  0.94461207  0.70080636  0.41766286  1
  K  K5  1  0.05538793  0.29919364  0.91766286  1
  K  K6  1  0.55538793  0.20080636  0.91766286  1
  K  K7  1  0.44461207  0.79919364  0.41766286  1
  K  K8  1  0.63897648  0.41923416  0.21998091  1
  K  K9  1  0.36102352  0.58076584  0.71998091  1
  K  K10  1  0.86102352  0.91923416  0.71998091  1
  K  K11  1  0.13897648  0.08076584  0.21998091  1
  As  As12  1  0.72085735  0.98127225  0.21137053  1
  As  As13  1  0.27914265  0.01872775  0.71137053  1
  As  As14  1  0.77914265  0.48127225  0.71137053  1
  As  As15  1  0.22085735  0.51872775  0.21137053  1
  S  S16  1  0.69024514  0.75310293  0.21431440  1
  S  S17  1  0.30975486  0.24689707  0.71431440  1
  S  S18  1  0.80975486  0.25310293  0.71431440  1
  S  S19  1  0.19024514  0.74689707  0.21431440  1
  S  S20  1  0.83881357  0.03567172  0.04237944  1
  S  S21  1  0.16118643  0.96432828  0.54237944  1
  S  S22  1  0.66118643  0.53567172  0.54237944  1
  S  S23  1  0.33881357  0.46432828  0.04237944  1
  S  S24  1  0.50933788  0.08759086  0.21248035  1
  S  S25  1  0.49066212  0.91240914  0.71248035  1
  S  S26  1  0.99066212  0.58759086  0.71248035  1
  S  S27  1  0.00933788  0.41240914  0.21248035  1
  S  S28  1  0.83993088  0.04229787  0.37883888  1
  S  S29  1  0.16006912  0.95770213  0.87883888  1
  S  S30  1  0.66006912  0.54229787  0.87883888  1
  S  S31  1  0.33993088  0.45770213  0.37883888  1
