# generated using pymatgen
data_Cs3PuH8O9
_symmetry_space_group_name_H-M   'P 1'
_cell_length_a   8.20363542
_cell_length_b   8.71881558
_cell_length_c   8.71881558
_cell_angle_alpha   84.17799261
_cell_angle_beta   86.95110800
_cell_angle_gamma   86.95110800
_symmetry_Int_Tables_number   1
_chemical_formula_structural   Cs3PuH8O9
_chemical_formula_sum   'Cs6 Pu2 H16 O18'
_cell_volume   618.80959105
_cell_formula_units_Z   2
loop_
 _symmetry_equiv_pos_site_id
 _symmetry_equiv_pos_as_xyz
  1  'x, y, z'
loop_
 _atom_site_type_symbol
 _atom_site_label
 _atom_site_symmetry_multiplicity
 _atom_site_fract_x
 _atom_site_fract_y
 _atom_site_fract_z
 _atom_site_occupancy
  Cs  Cs0  1  0.54941993  0.61085557  0.78878819  1
  Cs  Cs1  1  0.95058007  0.21121181  0.38914443  1
  Cs  Cs2  1  0.45058007  0.38914443  0.21121181  1
  Cs  Cs3  1  0.04941993  0.78878819  0.61085557  1
  Cs  Cs4  1  0.25000000  0.93113338  0.06886662  1
  Cs  Cs5  1  0.75000000  0.06886662  0.93113338  1
  Pu  Pu6  1  -0.00000000  0.50000000  0.00000000  1
  Pu  Pu7  1  0.50000000  -0.00000000  0.50000000  1
  H  H8  1  0.91712432  0.44376872  0.68898140  1
  H  H9  1  0.58287568  0.31101860  0.55623128  1
  H  H10  1  0.08287568  0.55623128  0.31101860  1
  H  H11  1  0.41712432  0.68898140  0.44376872  1
  H  H12  1  0.19335666  0.08421270  0.71679705  1
  H  H13  1  0.30664334  0.28320295  0.91578730  1
  H  H14  1  0.80664334  0.91578730  0.28320295  1
  H  H15  1  0.69335666  0.71679705  0.08421270  1
  H  H16  1  0.06466934  0.22616555  0.74971088  1
  H  H17  1  0.43533066  0.25028912  0.77383445  1
  H  H18  1  0.93533066  0.77383445  0.25028912  1
  H  H19  1  0.56466934  0.74971088  0.22616555  1
  H  H20  1  0.16352136  0.45345112  0.61049275  1
  H  H21  1  0.33647864  0.38950725  0.54654888  1
  H  H22  1  0.83647864  0.54654888  0.38950725  1
  H  H23  1  0.66352136  0.61049275  0.45345112  1
  O  O24  1  0.88219172  0.68591183  0.92884207  1
  O  O25  1  0.61780828  0.07115793  0.31408817  1
  O  O26  1  0.11780828  0.31408817  0.07115793  1
  O  O27  1  0.38219172  0.92884207  0.68591183  1
  O  O28  1  0.20066191  0.59622112  0.95883686  1
  O  O29  1  0.29933809  0.04116314  0.40377888  1
  O  O30  1  0.79933809  0.40377888  0.04116314  1
  O  O31  1  0.70066191  0.95883686  0.59622112  1
  O  O32  1  0.01604349  0.41508045  0.74406527  1
  O  O33  1  0.48395651  0.25593473  0.58491955  1
  O  O34  1  0.98395651  0.58491955  0.25593473  1
  O  O35  1  0.51604349  0.74406527  0.41508045  1
  O  O36  1  0.07933540  0.11013649  0.74849563  1
  O  O37  1  0.42066460  0.25150437  0.88986351  1
  O  O38  1  0.92066460  0.88986351  0.25150437  1
  O  O39  1  0.57933540  0.74849563  0.11013649  1
  O  O40  1  0.25000000  0.47532027  0.52467973  1
  O  O41  1  0.75000000  0.52467973  0.47532027  1
