# generated using pymatgen
data_H2Pd(S2O7)2
_symmetry_space_group_name_H-M   'P 1'
_cell_length_a   7.01374657
_cell_length_b   9.52516496
_cell_length_c   9.55079720
_cell_angle_alpha   117.97791152
_cell_angle_beta   90.00000000
_cell_angle_gamma   90.00000000
_symmetry_Int_Tables_number   1
_chemical_formula_structural   H2Pd(S2O7)2
_chemical_formula_sum   'H4 Pd2 S8 O28'
_cell_volume   563.48986209
_cell_formula_units_Z   2
loop_
 _symmetry_equiv_pos_site_id
 _symmetry_equiv_pos_as_xyz
  1  'x, y, z'
loop_
 _atom_site_type_symbol
 _atom_site_label
 _atom_site_symmetry_multiplicity
 _atom_site_fract_x
 _atom_site_fract_y
 _atom_site_fract_z
 _atom_site_occupancy
  H  H0  1  0.70942708  0.05812377  0.46244601  1
  H  H1  1  0.20942708  0.44187623  0.53755399  1
  H  H2  1  0.29057292  0.94187623  0.53755399  1
  H  H3  1  0.79057292  0.55812377  0.46244601  1
  Pd  Pd4  1  -0.00000000  -0.00000000  -0.00000000  1
  Pd  Pd5  1  0.50000000  0.50000000  -0.00000000  1
  S  S6  1  0.32234184  0.88416660  0.19965600  1
  S  S7  1  0.82234184  0.61583340  0.80034400  1
  S  S8  1  0.67765816  0.11583340  0.80034400  1
  S  S9  1  0.17765816  0.38416660  0.19965600  1
  S  S10  1  0.63827230  0.10881573  0.27159294  1
  S  S11  1  0.13827230  0.39118427  0.72840706  1
  S  S12  1  0.36172770  0.89118427  0.72840706  1
  S  S13  1  0.86172770  0.60881573  0.27159294  1
  O  O14  1  0.15627042  0.97377208  0.19334974  1
  O  O15  1  0.65627042  0.52622792  0.80665026  1
  O  O16  1  0.84372958  0.02622792  0.80665026  1
  O  O17  1  0.34372958  0.47377208  0.19334974  1
  O  O18  1  0.36770010  0.90662168  0.35633348  1
  O  O19  1  0.86770010  0.59337832  0.64366652  1
  O  O20  1  0.63229990  0.09337832  0.64366652  1
  O  O21  1  0.13229990  0.40662168  0.35633348  1
  O  O22  1  0.32825524  0.72195644  0.06989852  1
  O  O23  1  0.82825524  0.77804356  0.93010148  1
  O  O24  1  0.67174476  0.27804356  0.93010148  1
  O  O25  1  0.17174476  0.22195644  0.06989852  1
  O  O26  1  0.75935717  0.03362687  0.35443933  1
  O  O27  1  0.25935717  0.46637313  0.64556067  1
  O  O28  1  0.24064283  0.96637313  0.64556067  1
  O  O29  1  0.74064283  0.53362687  0.35443933  1
  O  O30  1  0.52155184  0.23709819  0.37894947  1
  O  O31  1  0.02155184  0.26290181  0.62105053  1
  O  O32  1  0.47844816  0.76290181  0.62105053  1
  O  O33  1  0.97844816  0.73709819  0.37894947  1
  O  O34  1  0.76544717  0.13701168  0.16768009  1
  O  O35  1  0.26544717  0.36298832  0.83231991  1
  O  O36  1  0.23455283  0.86298832  0.83231991  1
  O  O37  1  0.73455283  0.63701168  0.16768009  1
  O  O38  1  0.50963857  0.96340643  0.14691765  1
  O  O39  1  0.00963857  0.53659357  0.85308235  1
  O  O40  1  0.49036143  0.03659357  0.85308235  1
  O  O41  1  0.99036143  0.46340643  0.14691765  1
