# generated using pymatgen
data_CuAgS
_symmetry_space_group_name_H-M   'P 1'
_cell_length_a   3.97854822
_cell_length_b   3.97854822
_cell_length_c   18.62063786
_cell_angle_alpha   90.00000000
_cell_angle_beta   90.00000000
_cell_angle_gamma   90.00000000
_symmetry_Int_Tables_number   1
_chemical_formula_structural   CuAgS
_chemical_formula_sum   'Cu6 Ag6 S6'
_cell_volume   294.74320797
_cell_formula_units_Z   6
loop_
 _symmetry_equiv_pos_site_id
 _symmetry_equiv_pos_as_xyz
  1  'x, y, z'
loop_
 _atom_site_type_symbol
 _atom_site_label
 _atom_site_symmetry_multiplicity
 _atom_site_fract_x
 _atom_site_fract_y
 _atom_site_fract_z
 _atom_site_occupancy
  Cu  Cu0  1  0.75000000  0.25000000  0.00000000  1
  Cu  Cu1  1  0.25000000  0.75000000  0.00000000  1
  Cu  Cu2  1  0.75000000  0.25000000  0.67140954  1
  Cu  Cu3  1  0.25000000  0.75000000  0.67140954  1
  Cu  Cu4  1  0.25000000  0.75000000  0.32859046  1
  Cu  Cu5  1  0.75000000  0.25000000  0.32859046  1
  Ag  Ag6  1  0.75000000  0.75000000  0.54607345  1
  Ag  Ag7  1  0.25000000  0.25000000  0.45392655  1
  Ag  Ag8  1  0.75000000  0.75000000  0.21619034  1
  Ag  Ag9  1  0.25000000  0.25000000  0.78380966  1
  Ag  Ag10  1  0.75000000  0.75000000  0.88873632  1
  Ag  Ag11  1  0.25000000  0.25000000  0.11126368  1
  S  S12  1  0.75000000  0.75000000  0.40544034  1
  S  S13  1  0.25000000  0.25000000  0.59455966  1
  S  S14  1  0.75000000  0.75000000  0.07670916  1
  S  S15  1  0.25000000  0.25000000  0.92329084  1
  S  S16  1  0.75000000  0.75000000  0.74748583  1
  S  S17  1  0.25000000  0.25000000  0.25251417  1
