# generated using pymatgen
data_K4BaV6O18
_symmetry_space_group_name_H-M   'P 1'
_cell_length_a   10.26752740
_cell_length_b   10.26752740
_cell_length_c   10.26752784
_cell_angle_alpha   84.93982215
_cell_angle_beta   84.93982215
_cell_angle_gamma   84.93982293
_symmetry_Int_Tables_number   1
_chemical_formula_structural   K4BaV6O18
_chemical_formula_sum   'K8 Ba2 V12 O36'
_cell_volume   1070.47002708
_cell_formula_units_Z   2
loop_
 _symmetry_equiv_pos_site_id
 _symmetry_equiv_pos_as_xyz
  1  'x, y, z'
loop_
 _atom_site_type_symbol
 _atom_site_label
 _atom_site_symmetry_multiplicity
 _atom_site_fract_x
 _atom_site_fract_y
 _atom_site_fract_z
 _atom_site_occupancy
  K  K0  1  0.50014756  0.50014756  0.50014756  1
  K  K1  1  0.00014756  0.00014756  0.00014756  1
  K  K2  1  0.08497799  0.92285511  0.50413300  1
  K  K3  1  0.92285511  0.50413300  0.08497799  1
  K  K4  1  0.50413300  0.08497799  0.92285511  1
  K  K5  1  0.58497799  0.00413300  0.42285511  1
  K  K6  1  0.00413300  0.42285511  0.58497799  1
  K  K7  1  0.42285511  0.58497799  0.00413300  1
  Ba  Ba8  1  0.25535807  0.25535807  0.25535807  1
  Ba  Ba9  1  0.75535807  0.75535807  0.75535807  1
  V  V10  1  0.66492167  0.79412043  0.10240309  1
  V  V11  1  0.79412043  0.10240309  0.66492167  1
  V  V12  1  0.10240309  0.66492167  0.79412043  1
  V  V13  1  0.16492167  0.60240309  0.29412043  1
  V  V14  1  0.60240309  0.29412043  0.16492167  1
  V  V15  1  0.29412043  0.16492167  0.60240309  1
  V  V16  1  0.82959443  0.70621350  0.39836939  1
  V  V17  1  0.70621350  0.39836939  0.82959443  1
  V  V18  1  0.39836939  0.82959443  0.70621350  1
  V  V19  1  0.32959443  0.89836939  0.20621350  1
  V  V20  1  0.89836939  0.20621350  0.32959443  1
  V  V21  1  0.20621350  0.32959443  0.89836939  1
  O  O22  1  0.33764212  0.99354901  0.64795791  1
  O  O23  1  0.99354901  0.64795791  0.33764212  1
  O  O24  1  0.64795791  0.33764212  0.99354901  1
  O  O25  1  0.83764212  0.14795791  0.49354901  1
  O  O26  1  0.14795791  0.49354901  0.83764212  1
  O  O27  1  0.49354901  0.83764212  0.14795791  1
  O  O28  1  0.15716766  0.18082336  0.52206047  1
  O  O29  1  0.18082336  0.52206047  0.15716766  1
  O  O30  1  0.52206047  0.15716766  0.18082336  1
  O  O31  1  0.65716766  0.02206047  0.68082336  1
  O  O32  1  0.02206047  0.68082336  0.65716766  1
  O  O33  1  0.68082336  0.65716766  0.02206047  1
  O  O34  1  0.74212983  0.76179250  0.25502525  1
  O  O35  1  0.76179250  0.25502525  0.74212983  1
  O  O36  1  0.25502525  0.74212983  0.76179250  1
  O  O37  1  0.24212983  0.75502525  0.26179250  1
  O  O38  1  0.75502525  0.26179250  0.24212983  1
  O  O39  1  0.26179250  0.24212983  0.75502525  1
  O  O40  1  0.72863136  0.91448462  0.00189606  1
  O  O41  1  0.91448462  0.00189606  0.72863136  1
  O  O42  1  0.00189606  0.72863136  0.91448462  1
  O  O43  1  0.22863136  0.50189606  0.41448462  1
  O  O44  1  0.50189606  0.41448462  0.22863136  1
  O  O45  1  0.41448462  0.22863136  0.50189606  1
  O  O46  1  0.32817240  0.99057222  0.33410243  1
  O  O47  1  0.99057222  0.33410243  0.32817240  1
  O  O48  1  0.33410243  0.32817240  0.99057222  1
  O  O49  1  0.82817240  0.83410243  0.49057222  1
  O  O50  1  0.83410243  0.49057222  0.82817240  1
  O  O51  1  0.49057222  0.82817240  0.83410243  1
  O  O52  1  0.76191581  0.58384237  0.49094037  1
  O  O53  1  0.58384237  0.49094037  0.76191581  1
  O  O54  1  0.49094037  0.76191581  0.58384237  1
  O  O55  1  0.26191581  0.99094037  0.08384237  1
  O  O56  1  0.99094037  0.08384237  0.26191581  1
  O  O57  1  0.08384237  0.26191581  0.99094037  1
