# generated using pymatgen
data_LiAl(Si2O5)2
_symmetry_space_group_name_H-M   'P 1'
_cell_length_a   5.20787612
_cell_length_b   7.73585544
_cell_length_c   11.40017445
_cell_angle_alpha   105.87222228
_cell_angle_beta   90.00000000
_cell_angle_gamma   90.00000000
_symmetry_Int_Tables_number   1
_chemical_formula_structural   LiAl(Si2O5)2
_chemical_formula_sum   'Li2 Al2 Si8 O20'
_cell_volume   441.77250269
_cell_formula_units_Z   2
loop_
 _symmetry_equiv_pos_site_id
 _symmetry_equiv_pos_as_xyz
  1  'x, y, z'
loop_
 _atom_site_type_symbol
 _atom_site_label
 _atom_site_symmetry_multiplicity
 _atom_site_fract_x
 _atom_site_fract_y
 _atom_site_fract_z
 _atom_site_occupancy
  Li  Li0  1  0.25135418  0.74988929  0.75018360  1
  Li  Li1  1  0.74864582  0.24988929  0.25018360  1
  Al  Al2  1  0.75324249  0.75186620  0.75195638  1
  Al  Al3  1  0.24675751  0.25186620  0.25195638  1
  Si  Si4  1  0.51093357  0.20882112  0.49985285  1
  Si  Si5  1  0.48906643  0.70882112  0.99985285  1
  Si  Si6  1  0.51501067  0.29248526  0.00496492  1
  Si  Si7  1  0.48498933  0.79248526  0.50496492  1
  Si  Si8  1  0.00995064  0.36027952  0.64828924  1
  Si  Si9  1  0.99004936  0.86027952  0.14828924  1
  Si  Si10  1  0.01221501  0.14517268  0.85411801  1
  Si  Si11  1  0.98778499  0.64517268  0.35411801  1
  O  O12  1  0.49223777  0.00255371  0.50648564  1
  O  O13  1  0.50776223  0.50255371  0.00648564  1
  O  O14  1  0.97782050  0.25699920  0.75396533  1
  O  O15  1  0.02217950  0.75699920  0.25396533  1
  O  O16  1  0.30055257  0.33070329  0.59248801  1
  O  O17  1  0.69944743  0.83070329  0.09248801  1
  O  O18  1  0.30301492  0.17752599  0.90940043  1
  O  O19  1  0.69698508  0.67752599  0.40940043  1
  O  O20  1  0.53255322  0.72367597  0.86191607  1
  O  O21  1  0.46744678  0.22367597  0.36191607  1
  O  O22  1  0.53099456  0.77064337  0.64062561  1
  O  O23  1  0.46900544  0.27064337  0.14062561  1
  O  O24  1  0.80140871  0.27915450  0.54032619  1
  O  O25  1  0.19859129  0.77915450  0.04032619  1
  O  O26  1  0.80229589  0.21641462  0.96281840  1
  O  O27  1  0.19770411  0.71641462  0.46281840  1
  O  O28  1  0.97338931  0.57513325  0.70521213  1
  O  O29  1  0.02661069  0.07513325  0.20521213  1
  O  O30  1  0.97380698  0.93068203  0.79289719  1
  O  O31  1  0.02619302  0.43068203  0.29289719  1
