# generated using pymatgen
data_Al2H15SClO13
_symmetry_space_group_name_H-M   'P 1'
_cell_length_a   7.56605305
_cell_length_b   9.74294985
_cell_length_c   10.19128478
_cell_angle_alpha   117.50327673
_cell_angle_beta   110.50781048
_cell_angle_gamma   92.50201962
_symmetry_Int_Tables_number   1
_chemical_formula_structural   Al2H15SClO13
_chemical_formula_sum   'Al4 H30 S2 Cl2 O26'
_cell_volume   604.73924035
_cell_formula_units_Z   2
loop_
 _symmetry_equiv_pos_site_id
 _symmetry_equiv_pos_as_xyz
  1  'x, y, z'
loop_
 _atom_site_type_symbol
 _atom_site_label
 _atom_site_symmetry_multiplicity
 _atom_site_fract_x
 _atom_site_fract_y
 _atom_site_fract_z
 _atom_site_occupancy
  Al  Al0  1  0.04613987  0.14756530  0.65637691  1
  Al  Al1  1  0.11023704  0.50881160  0.65637691  1
  Al  Al2  1  0.95386013  0.85243470  0.34362309  1
  Al  Al3  1  0.88976296  0.49118840  0.34362309  1
  H  H4  1  0.16732149  0.17432284  0.93973214  1
  H  H5  1  0.27241066  0.76540930  0.93973214  1
  H  H6  1  0.83267851  0.82567716  0.06026786  1
  H  H7  1  0.72758934  0.23459070  0.06026786  1
  H  H8  1  0.68383680  0.13567513  0.49540891  1
  H  H9  1  0.31157211  0.35973378  0.49540891  1
  H  H10  1  0.31616320  0.86432487  0.50459109  1
  H  H11  1  0.68842789  0.64026622  0.50459109  1
  H  H12  1  0.17894930  0.42894930  0.85789860  1
  H  H13  1  0.82105070  0.57105070  0.14210140  1
  H  H14  1  0.74227957  0.24090123  0.68622325  1
  H  H15  1  0.44394368  0.44532201  0.68622325  1
  H  H16  1  0.25772043  0.75909877  0.31377675  1
  H  H17  1  0.55605632  0.55467799  0.31377675  1
  H  H18  1  0.37519706  0.06178552  0.73777811  1
  H  H19  1  0.86258105  0.67599259  0.73777811  1
  H  H20  1  0.62480294  0.93821448  0.26222189  1
  H  H21  1  0.13741895  0.32400741  0.26222189  1
  H  H22  1  0.42789025  0.24453051  0.77973288  1
  H  H23  1  0.85184263  0.53520237  0.77973288  1
  H  H24  1  0.57210975  0.75546949  0.22026712  1
  H  H25  1  0.14815737  0.46479763  0.22026712  1
  H  H26  1  0.07475277  0.13059986  0.40389987  1
  H  H27  1  0.82914710  0.27330001  0.40389987  1
  H  H28  1  0.92524723  0.86940014  0.59610013  1
  H  H29  1  0.17085290  0.72669999  0.59610013  1
  H  H30  1  0.93346798  0.13251481  0.86580076  1
  H  H31  1  0.43233278  0.73328595  0.86580076  1
  H  H32  1  0.06653202  0.86748519  0.13419924  1
  H  H33  1  0.56766722  0.26671405  0.13419924  1
  S  S34  1  0.35211411  0.10211411  0.20422821  1
  S  S35  1  0.64788589  0.89788589  0.79577179  1
  Cl  Cl36  1  0.32806634  0.57806634  0.15613268  1
  Cl  Cl37  1  0.67193366  0.42193366  0.84386732  1
  O  O38  1  0.01182234  0.07757424  0.44235691  1
  O  O39  1  0.93053457  0.36478267  0.44235691  1
  O  O40  1  0.98817766  0.92242576  0.55764309  1
  O  O41  1  0.06946543  0.63521733  0.55764309  1
  O  O42  1  0.04995606  0.17633200  0.85781696  1
  O  O43  1  0.30786090  0.68148496  0.85781696  1
  O  O44  1  0.95004394  0.82366800  0.14218304  1
  O  O45  1  0.69213910  0.31851504  0.14218304  1
  O  O46  1  0.77223323  0.15157386  0.60263322  1
  O  O47  1  0.33039998  0.45105936  0.60263322  1
  O  O48  1  0.22776677  0.84842614  0.39736678  1
  O  O49  1  0.66960002  0.54894064  0.39736678  1
  O  O50  1  0.11917157  0.36917157  0.73834313  1
  O  O51  1  0.88082843  0.63082843  0.26165687  1
  O  O52  1  0.25384087  0.19737044  0.30911045  1
  O  O53  1  0.55526958  0.11174001  0.30911045  1
  O  O54  1  0.74615913  0.80262956  0.69088955  1
  O  O55  1  0.44473042  0.88825999  0.69088955  1
  O  O56  1  0.32266606  0.15697012  0.74928594  1
  O  O57  1  0.92661988  0.59231582  0.74928594  1
  O  O58  1  0.67733394  0.84302988  0.25071406  1
  O  O59  1  0.07338012  0.40768418  0.25071406  1
  O  O60  1  0.36250375  0.16828386  0.10081989  1
  O  O61  1  0.23831613  0.93253603  0.10081989  1
  O  O62  1  0.63749625  0.83171614  0.89918011  1
  O  O63  1  0.76168387  0.06746397  0.89918011  1
