# generated using pymatgen
data_CuAs7PS7Cl
_symmetry_space_group_name_H-M   'P 1'
_cell_length_a   9.69432112
_cell_length_b   13.71316835
_cell_length_c   14.06342450
_cell_angle_alpha   90.00000000
_cell_angle_beta   96.21975025
_cell_angle_gamma   90.00000000
_symmetry_Int_Tables_number   1
_chemical_formula_structural   CuAs7PS7Cl
_chemical_formula_sum   'Cu4 As28 P4 S28 Cl4'
_cell_volume   1858.58464045
_cell_formula_units_Z   4
loop_
 _symmetry_equiv_pos_site_id
 _symmetry_equiv_pos_as_xyz
  1  'x, y, z'
loop_
 _atom_site_type_symbol
 _atom_site_label
 _atom_site_symmetry_multiplicity
 _atom_site_fract_x
 _atom_site_fract_y
 _atom_site_fract_z
 _atom_site_occupancy
  Cu  Cu0  1  0.37347884  0.33042598  0.28949105  1
  Cu  Cu1  1  0.62652116  0.83042598  0.21050895  1
  Cu  Cu2  1  0.62652116  0.66957402  0.71050895  1
  Cu  Cu3  1  0.37347884  0.16957402  0.78949105  1
  As  As4  1  0.92418388  0.56143735  0.17302778  1
  As  As5  1  0.07581612  0.06143735  0.32697222  1
  As  As6  1  0.07581612  0.43856265  0.82697222  1
  As  As7  1  0.92418388  0.93856265  0.67302778  1
  As  As8  1  0.97559432  0.61241017  0.34552494  1
  As  As9  1  0.02440568  0.11241017  0.15447506  1
  As  As10  1  0.02440568  0.38758983  0.65447506  1
  As  As11  1  0.97559432  0.88758983  0.84552494  1
  As  As12  1  0.83128803  0.46288804  0.30224249  1
  As  As13  1  0.16871197  0.96288804  0.19775751  1
  As  As14  1  0.16871197  0.53711196  0.69775751  1
  As  As15  1  0.83128803  0.03711196  0.80224249  1
  As  As16  1  0.40183840  0.38894320  0.00960351  1
  As  As17  1  0.59816160  0.88894320  0.49039649  1
  As  As18  1  0.59816160  0.61105680  0.99039649  1
  As  As19  1  0.40183840  0.11105680  0.50960351  1
  As  As20  1  0.61514793  0.33030462  0.92539432  1
  As  As21  1  0.38485207  0.83030462  0.57460568  1
  As  As22  1  0.38485207  0.66969538  0.07460568  1
  As  As23  1  0.61514793  0.16969538  0.42539432  1
  As  As24  1  0.63979340  0.25105641  0.16462836  1
  As  As25  1  0.36020660  0.75105641  0.33537164  1
  As  As26  1  0.36020660  0.74894359  0.83537164  1
  As  As27  1  0.63979340  0.24894359  0.66462836  1
  As  As28  1  0.46622118  0.14200538  0.05695693  1
  As  As29  1  0.53377882  0.64200538  0.44304307  1
  As  As30  1  0.53377882  0.85799462  0.94304307  1
  As  As31  1  0.46622118  0.35799462  0.55695693  1
  P  P32  1  0.17689619  0.41577764  0.29062269  1
  P  P33  1  0.82310381  0.91577764  0.20937731  1
  P  P34  1  0.82310381  0.58422236  0.70937731  1
  P  P35  1  0.17689619  0.08422236  0.79062269  1
  S  S36  1  0.11923889  0.47513147  0.15488996  1
  S  S37  1  0.88076111  0.97513147  0.34511004  1
  S  S38  1  0.88076111  0.52486853  0.84511004  1
  S  S39  1  0.11923889  0.02486853  0.65488996  1
  S  S40  1  0.18407286  0.53802177  0.38228149  1
  S  S41  1  0.81592714  0.03802177  0.11771851  1
  S  S42  1  0.81592714  0.46197823  0.61771851  1
  S  S43  1  0.18407286  0.96197823  0.88228149  1
  S  S44  1  0.99612071  0.34524484  0.32470132  1
  S  S45  1  0.00387929  0.84524484  0.17529868  1
  S  S46  1  0.00387929  0.65475516  0.67529868  1
  S  S47  1  0.99612071  0.15475516  0.82470132  1
  S  S48  1  0.50417986  0.38716312  0.16504612  1
  S  S49  1  0.49582014  0.88716312  0.33495388  1
  S  S50  1  0.49582014  0.61283688  0.83495388  1
  S  S51  1  0.50417986  0.11283688  0.66504612  1
  S  S52  1  0.29022117  0.24695611  0.01955009  1
  S  S53  1  0.70977883  0.74695611  0.48044991  1
  S  S54  1  0.70977883  0.75304389  0.98044991  1
  S  S55  1  0.29022117  0.25304389  0.51955009  1
  S  S56  1  0.55780832  0.16763042  0.91349967  1
  S  S57  1  0.44219168  0.66763042  0.58650033  1
  S  S58  1  0.44219168  0.83236958  0.08650033  1
  S  S59  1  0.55780832  0.33236958  0.41349967  1
  S  S60  1  0.77191666  0.30818094  0.05432819  1
  S  S61  1  0.22808334  0.80818094  0.44567181  1
  S  S62  1  0.22808334  0.69181906  0.94567181  1
  S  S63  1  0.77191666  0.19181906  0.55432819  1
  Cl  Cl64  1  0.35158782  0.15926744  0.26418181  1
  Cl  Cl65  1  0.64841218  0.65926744  0.23581819  1
  Cl  Cl66  1  0.64841218  0.84073256  0.73581819  1
  Cl  Cl67  1  0.35158782  0.34073256  0.76418181  1
