# generated using pymatgen
data_Sr5Nb5O17
_symmetry_space_group_name_H-M   'P 1'
_cell_length_a   4.04950892
_cell_length_b   5.76699052
_cell_length_c   33.12391580
_cell_angle_alpha   90.00000000
_cell_angle_beta   90.00000000
_cell_angle_gamma   90.00000000
_symmetry_Int_Tables_number   1
_chemical_formula_structural   Sr5Nb5O17
_chemical_formula_sum   'Sr10 Nb10 O34'
_cell_volume   773.55869033
_cell_formula_units_Z   2
loop_
 _symmetry_equiv_pos_site_id
 _symmetry_equiv_pos_as_xyz
  1  'x, y, z'
loop_
 _atom_site_type_symbol
 _atom_site_label
 _atom_site_symmetry_multiplicity
 _atom_site_fract_x
 _atom_site_fract_y
 _atom_site_fract_z
 _atom_site_occupancy
  Sr  Sr0  1  0.98746150  0.06509405  0.28407153  1
  Sr  Sr1  1  0.98746150  0.93490595  0.71592847  1
  Sr  Sr2  1  0.48746150  0.56509405  0.21592847  1
  Sr  Sr3  1  0.48746150  0.43490595  0.78407153  1
  Sr  Sr4  1  0.49820447  0.50000000  0.00000000  1
  Sr  Sr5  1  0.99820447  0.00000000  0.50000000  1
  Sr  Sr6  1  0.48793226  0.00162518  0.08942745  1
  Sr  Sr7  1  0.48793226  0.99837482  0.91057255  1
  Sr  Sr8  1  0.98793226  0.50162518  0.41057255  1
  Sr  Sr9  1  0.98793226  0.49837482  0.58942745  1
  Nb  Nb10  1  0.98874456  0.00000000  0.00000000  1
  Nb  Nb11  1  0.48874456  0.50000000  0.50000000  1
  Nb  Nb12  1  0.99371737  0.03507450  0.17684923  1
  Nb  Nb13  1  0.99371737  0.96492550  0.82315077  1
  Nb  Nb14  1  0.49371737  0.53507450  0.32315077  1
  Nb  Nb15  1  0.49371737  0.46492550  0.67684923  1
  Nb  Nb16  1  0.99161279  0.50625234  0.09027662  1
  Nb  Nb17  1  0.99161279  0.49374766  0.90972338  1
  Nb  Nb18  1  0.49161279  0.00625234  0.40972338  1
  Nb  Nb19  1  0.49161279  0.99374766  0.59027662  1
  O  O20  1  0.00025411  0.72519314  0.96321171  1
  O  O21  1  0.00025411  0.27480686  0.03678829  1
  O  O22  1  0.50025411  0.22519314  0.53678829  1
  O  O23  1  0.50025411  0.77480686  0.46321171  1
  O  O24  1  0.98522629  0.77253060  0.04783361  1
  O  O25  1  0.98522629  0.22746940  0.95216639  1
  O  O26  1  0.48522629  0.27253060  0.45216639  1
  O  O27  1  0.48522629  0.72746940  0.54783361  1
  O  O28  1  0.49208566  0.00000000  0.00000000  1
  O  O29  1  0.99208566  0.50000000  0.50000000  1
  O  O30  1  0.48943000  0.79897119  0.29105631  1
  O  O31  1  0.48943000  0.20102881  0.70894369  1
  O  O32  1  0.98943000  0.29897119  0.20894369  1
  O  O33  1  0.98943000  0.70102881  0.79105631  1
  O  O34  1  0.48726282  0.70561853  0.37964565  1
  O  O35  1  0.48726282  0.29438147  0.62035435  1
  O  O36  1  0.98726282  0.20561853  0.12035435  1
  O  O37  1  0.98726282  0.79438147  0.87964565  1
  O  O38  1  0.50746497  0.22256810  0.36755231  1
  O  O39  1  0.50746497  0.77743190  0.63244769  1
  O  O40  1  0.00746497  0.72256810  0.13244769  1
  O  O41  1  0.00746497  0.27743190  0.86755231  1
  O  O42  1  0.98791591  0.81671394  0.22023956  1
  O  O43  1  0.98791591  0.18328606  0.77976044  1
  O  O44  1  0.48791591  0.31671394  0.27976044  1
  O  O45  1  0.48791591  0.68328606  0.72023956  1
  O  O46  1  0.49345782  0.00268301  0.16883601  1
  O  O47  1  0.49345782  0.99731699  0.83116399  1
  O  O48  1  0.99345782  0.50268301  0.33116399  1
  O  O49  1  0.99345782  0.49731699  0.66883601  1
  O  O50  1  0.49444682  0.48815534  0.08284740  1
  O  O51  1  0.49444682  0.51184466  0.91715260  1
  O  O52  1  0.99444682  0.98815534  0.41715260  1
  O  O53  1  0.99444682  0.01184466  0.58284740  1
