# generated using pymatgen
data_Rb2In3F11
_symmetry_space_group_name_H-M   'P 1'
_cell_length_a   6.80808365
_cell_length_b   8.41503738
_cell_length_c   19.47577414
_cell_angle_alpha   90.00000000
_cell_angle_beta   90.64760691
_cell_angle_gamma   90.00000000
_symmetry_Int_Tables_number   1
_chemical_formula_structural   Rb2In3F11
_chemical_formula_sum   'Rb8 In12 F44'
_cell_volume   1115.70125112
_cell_formula_units_Z   4
loop_
 _symmetry_equiv_pos_site_id
 _symmetry_equiv_pos_as_xyz
  1  'x, y, z'
loop_
 _atom_site_type_symbol
 _atom_site_label
 _atom_site_symmetry_multiplicity
 _atom_site_fract_x
 _atom_site_fract_y
 _atom_site_fract_z
 _atom_site_occupancy
  Rb  Rb0  1  0.73835345  0.75000000  0.85269258  1
  Rb  Rb1  1  0.26164655  0.25000000  0.14730742  1
  Rb  Rb2  1  0.75097174  0.25000000  0.84754492  1
  Rb  Rb3  1  0.24902826  0.75000000  0.15245508  1
  Rb  Rb4  1  0.74936027  0.75000000  0.65405175  1
  Rb  Rb5  1  0.25063973  0.25000000  0.34594825  1
  Rb  Rb6  1  0.76331827  0.25000000  0.64950324  1
  Rb  Rb7  1  0.23668173  0.75000000  0.35049676  1
  In  In8  1  0.24945751  0.50181270  0.96853186  1
  In  In9  1  0.75054249  0.00181270  0.03146814  1
  In  In10  1  0.75054249  0.49818730  0.03146814  1
  In  In11  1  0.24945751  0.99818730  0.96853186  1
  In  In12  1  0.25646783  0.49980730  0.75066002  1
  In  In13  1  0.74353217  0.99980730  0.24933998  1
  In  In14  1  0.74353217  0.50019270  0.24933998  1
  In  In15  1  0.25646783  0.00019270  0.75066002  1
  In  In16  1  0.25110137  0.49929114  0.53148009  1
  In  In17  1  0.74889863  0.99929114  0.46851991  1
  In  In18  1  0.74889863  0.50070886  0.46851991  1
  In  In19  1  0.25110137  0.00070886  0.53148009  1
  F  F20  1  0.25375152  0.75000000  0.97811941  1
  F  F21  1  0.74624848  0.25000000  0.02188059  1
  F  F22  1  0.24585226  0.25000000  0.97135352  1
  F  F23  1  0.75414774  0.75000000  0.02864648  1
  F  F24  1  0.19787447  0.75000000  0.73991326  1
  F  F25  1  0.80212553  0.25000000  0.26008674  1
  F  F26  1  0.32366467  0.25000000  0.76394557  1
  F  F27  1  0.67633533  0.75000000  0.23605443  1
  F  F28  1  0.25246050  0.75000000  0.51956423  1
  F  F29  1  0.74753950  0.25000000  0.48043577  1
  F  F30  1  0.25126225  0.25000000  0.52850035  1
  F  F31  1  0.74873775  0.75000000  0.47149965  1
  F  F32  1  0.25072410  0.52690280  0.85945879  1
  F  F33  1  0.74927590  0.02690280  0.14054121  1
  F  F34  1  0.74927590  0.47309720  0.14054121  1
  F  F35  1  0.25072410  0.97309720  0.85945879  1
  F  F36  1  0.25871737  0.48226111  0.64186187  1
  F  F37  1  0.74128263  0.98226111  0.35813813  1
  F  F38  1  0.74128263  0.51773889  0.35813813  1
  F  F39  1  0.25871737  0.01773889  0.64186187  1
  F  F40  1  0.55981985  0.49800873  0.93936207  1
  F  F41  1  0.44018015  0.99800873  0.06063793  1
  F  F42  1  0.44018015  0.50199127  0.06063793  1
  F  F43  1  0.55981985  0.00199127  0.93936207  1
  F  F44  1  0.93943821  0.49964255  0.93887468  1
  F  F45  1  0.06056179  0.99964255  0.06112532  1
  F  F46  1  0.06056179  0.50035745  0.06112532  1
  F  F47  1  0.93943821  0.00035745  0.93887468  1
  F  F48  1  0.55598497  0.53632011  0.75185476  1
  F  F49  1  0.44401503  0.03632011  0.24814524  1
  F  F50  1  0.44401503  0.46367989  0.24814524  1
  F  F51  1  0.55598497  0.96367989  0.75185476  1
  F  F52  1  0.96019295  0.45804650  0.74992807  1
  F  F53  1  0.03980705  0.95804650  0.25007193  1
  F  F54  1  0.03980705  0.54195350  0.25007193  1
  F  F55  1  0.96019295  0.04195350  0.74992807  1
  F  F56  1  0.56282707  0.50851081  0.56060035  1
  F  F57  1  0.43717293  0.00851081  0.43939965  1
  F  F58  1  0.43717293  0.49148919  0.43939965  1
  F  F59  1  0.56282707  0.99148919  0.56060035  1
  F  F60  1  0.94350639  0.51359186  0.56084144  1
  F  F61  1  0.05649361  0.01359186  0.43915856  1
  F  F62  1  0.05649361  0.48640814  0.43915856  1
  F  F63  1  0.94350639  0.98640814  0.56084144  1
