# generated using pymatgen
data_CrH20N2O6F5
_symmetry_space_group_name_H-M   'P 1'
_cell_length_a   7.02379981
_cell_length_b   7.02717143
_cell_length_c   13.78230196
_cell_angle_alpha   90.00000000
_cell_angle_beta   89.94424909
_cell_angle_gamma   120.01587906
_symmetry_Int_Tables_number   1
_chemical_formula_structural   CrH20N2O6F5
_chemical_formula_sum   'Cr2 H40 N4 O12 F10'
_cell_volume   589.02710385
_cell_formula_units_Z   2
loop_
 _symmetry_equiv_pos_site_id
 _symmetry_equiv_pos_as_xyz
  1  'x, y, z'
loop_
 _atom_site_type_symbol
 _atom_site_label
 _atom_site_symmetry_multiplicity
 _atom_site_fract_x
 _atom_site_fract_y
 _atom_site_fract_z
 _atom_site_occupancy
  Cr  Cr0  1  0.00000000  0.00000000  0.50000000  1
  Cr  Cr1  1  0.00000000  0.00000000  0.00000000  1
  H  H2  1  0.66642999  0.33323594  0.90352163  1
  H  H3  1  0.66642999  0.33319405  0.40352163  1
  H  H4  1  0.33357001  0.66676406  0.09647837  1
  H  H5  1  0.33357001  0.66680595  0.59647837  1
  H  H6  1  0.70784002  0.21926753  0.80118149  1
  H  H7  1  0.78058409  0.48871201  0.80124150  1
  H  H8  1  0.51099489  0.29193254  0.80128995  1
  H  H9  1  0.70784002  0.48857249  0.30118149  1
  H  H10  1  0.51099489  0.21906235  0.30128995  1
  H  H11  1  0.78058409  0.29187209  0.30124150  1
  H  H12  1  0.29215998  0.78073247  0.19881851  1
  H  H13  1  0.21941591  0.51128799  0.19875850  1
  H  H14  1  0.48900511  0.70806746  0.19871005  1
  H  H15  1  0.29215998  0.51142751  0.69881851  1
  H  H16  1  0.48900511  0.78093765  0.69871005  1
  H  H17  1  0.21941591  0.70812791  0.69875850  1
  H  H18  1  0.78387576  0.57855556  0.55864541  1
  H  H19  1  0.42144431  0.20537678  0.55865686  1
  H  H20  1  0.79469381  0.21605714  0.55865119  1
  H  H21  1  0.78387576  0.20532020  0.05864541  1
  H  H22  1  0.79469381  0.57863667  0.05865119  1
  H  H23  1  0.42144431  0.21606753  0.05865686  1
  H  H24  1  0.21612424  0.42144444  0.44135459  1
  H  H25  1  0.57855569  0.79462322  0.44134314  1
  H  H26  1  0.20530619  0.78394286  0.44134881  1
  H  H27  1  0.21612424  0.79467980  0.94135459  1
  H  H28  1  0.20530619  0.42136333  0.94134881  1
  H  H29  1  0.57855569  0.78393247  0.94134314  1
  H  H30  1  0.91543028  0.73487018  0.65254786  1
  H  H31  1  0.26501007  0.18067362  0.65251132  1
  H  H32  1  0.81964069  0.08461798  0.65255837  1
  H  H33  1  0.91543028  0.18056010  0.15254786  1
  H  H34  1  0.81964069  0.73502271  0.15255837  1
  H  H35  1  0.26501007  0.08433645  0.15251132  1
  H  H36  1  0.08456972  0.26512982  0.34745214  1
  H  H37  1  0.73498993  0.81932638  0.34748868  1
  H  H38  1  0.18035931  0.91538202  0.34744163  1
  H  H39  1  0.08456972  0.81943990  0.84745214  1
  H  H40  1  0.18035931  0.26497729  0.84744163  1
  H  H41  1  0.73498993  0.91566355  0.84748868  1
  N  N42  1  0.66650927  0.33329078  0.82766186  1
  N  N43  1  0.66650927  0.33321849  0.32766186  1
  N  N44  1  0.33349073  0.66670922  0.17233814  1
  N  N45  1  0.33349073  0.66678151  0.67233814  1
  O  O46  1  0.85250299  0.73271726  0.58588826  1
  O  O47  1  0.26721494  0.11990825  0.58576950  1
  O  O48  1  0.88020408  0.14753546  0.58570147  1
  O  O49  1  0.85250299  0.11978573  0.08588826  1
  O  O50  1  0.88020408  0.73266862  0.08570147  1
  O  O51  1  0.26721494  0.14730669  0.08576950  1
  O  O52  1  0.14749701  0.26728274  0.41411174  1
  O  O53  1  0.73278506  0.88009175  0.41423050  1
  O  O54  1  0.11979592  0.85246454  0.41429853  1
  O  O55  1  0.14749701  0.88021427  0.91411174  1
  O  O56  1  0.11979592  0.26733138  0.91429853  1
  O  O57  1  0.73278506  0.85269331  0.91423050  1
  F  F58  1  0.66689576  0.33342930  0.52506970  1
  F  F59  1  0.66689576  0.33346646  0.02506970  1
  F  F60  1  0.33310424  0.66657070  0.47493030  1
  F  F61  1  0.33310424  0.66653354  0.97493030  1
  F  F62  1  1.00000000  0.71599705  0.75000000  1
  F  F63  1  0.28385510  0.28414702  0.75000860  1
  F  F64  1  0.71614490  0.00029192  0.74999140  1
  F  F65  1  0.00000000  0.28400295  0.25000000  1
  F  F66  1  0.71614490  0.71585298  0.24999140  1
  F  F67  1  0.28385510  0.99970808  0.25000860  1
