# generated using pymatgen
data_Bi8(MoO7)3
_symmetry_space_group_name_H-M   'P 1'
_cell_length_a   5.72249603
_cell_length_b   8.73995419
_cell_length_c   39.71661645
_cell_angle_alpha   91.82261418
_cell_angle_beta   90.00000000
_cell_angle_gamma   90.00000000
_symmetry_Int_Tables_number   1
_chemical_formula_structural   Bi8(MoO7)3
_chemical_formula_sum   'Bi32 Mo12 O84'
_cell_volume   1985.39593106
_cell_formula_units_Z   4
loop_
 _symmetry_equiv_pos_site_id
 _symmetry_equiv_pos_as_xyz
  1  'x, y, z'
loop_
 _atom_site_type_symbol
 _atom_site_label
 _atom_site_symmetry_multiplicity
 _atom_site_fract_x
 _atom_site_fract_y
 _atom_site_fract_z
 _atom_site_occupancy
  Bi  Bi0  1  0.72871536  0.98975362  0.57897207  1
  Bi  Bi1  1  0.22871536  0.51024638  0.92102793  1
  Bi  Bi2  1  0.27128464  0.01024638  0.42102793  1
  Bi  Bi3  1  0.77128464  0.48975362  0.07897207  1
  Bi  Bi4  1  0.76304369  0.36811818  0.62530799  1
  Bi  Bi5  1  0.26304369  0.13188182  0.87469201  1
  Bi  Bi6  1  0.23695631  0.63188182  0.37469201  1
  Bi  Bi7  1  0.73695631  0.86811818  0.12530799  1
  Bi  Bi8  1  0.68086153  0.18766749  0.71602725  1
  Bi  Bi9  1  0.18086153  0.31233251  0.78397275  1
  Bi  Bi10  1  0.31913847  0.81233251  0.28397275  1
  Bi  Bi11  1  0.81913847  0.68766749  0.21602725  1
  Bi  Bi12  1  0.73153245  0.56774759  0.75847869  1
  Bi  Bi13  1  0.23153245  0.93225241  0.74152131  1
  Bi  Bi14  1  0.26846755  0.43225241  0.24152131  1
  Bi  Bi15  1  0.76846755  0.06774759  0.25847869  1
  Bi  Bi16  1  0.73023479  0.03141643  0.80953310  1
  Bi  Bi17  1  0.23023479  0.46858357  0.69046690  1
  Bi  Bi18  1  0.26976521  0.96858357  0.19046690  1
  Bi  Bi19  1  0.76976521  0.53141643  0.30953310  1
  Bi  Bi20  1  0.76572522  0.39997039  0.85384879  1
  Bi  Bi21  1  0.26572522  0.10002961  0.64615121  1
  Bi  Bi22  1  0.23427478  0.60002961  0.14615121  1
  Bi  Bi23  1  0.73427478  0.89997039  0.35384879  1
  Bi  Bi24  1  0.73167973  0.24466263  0.94275468  1
  Bi  Bi25  1  0.23167973  0.25533737  0.55724532  1
  Bi  Bi26  1  0.26832027  0.75533737  0.05724532  1
  Bi  Bi27  1  0.76832027  0.74466263  0.44275468  1
  Bi  Bi28  1  0.74973034  0.62813371  0.98892324  1
  Bi  Bi29  1  0.24973034  0.87186629  0.51107676  1
  Bi  Bi30  1  0.25026966  0.37186629  0.01107676  1
  Bi  Bi31  1  0.75026966  0.12813371  0.48892324  1
  Mo  Mo32  1  0.74122905  0.56391799  0.53469079  1
  Mo  Mo33  1  0.24122905  0.93608201  0.96530921  1
  Mo  Mo34  1  0.25877095  0.43608201  0.46530921  1
  Mo  Mo35  1  0.75877095  0.06391799  0.03469079  1
  Mo  Mo36  1  0.75661916  0.82388506  0.89560085  1
  Mo  Mo37  1  0.25661916  0.67611494  0.60439915  1
  Mo  Mo38  1  0.24338084  0.17611494  0.10439915  1
  Mo  Mo39  1  0.74338084  0.32388506  0.39560085  1
  Mo  Mo40  1  0.72133801  0.78104693  0.67256394  1
  Mo  Mo41  1  0.22133801  0.71895307  0.82743606  1
  Mo  Mo42  1  0.27866199  0.21895307  0.32743606  1
  Mo  Mo43  1  0.77866199  0.28104693  0.17256394  1
  O  O44  1  0.49745721  0.39470166  0.73488990  1
  O  O45  1  0.99745721  0.10529834  0.76511010  1
  O  O46  1  0.50254279  0.60529834  0.26511010  1
  O  O47  1  0.00254279  0.89470166  0.23488990  1
  O  O48  1  0.01910147  0.42778740  0.73573593  1
  O  O49  1  0.51910147  0.07221260  0.76426407  1
  O  O50  1  0.98089853  0.57221260  0.26426407  1
  O  O51  1  0.48089853  0.92778740  0.23573593  1
  O  O52  1  0.50843752  0.28526125  0.66553124  1
  O  O53  1  0.00843752  0.21473875  0.83446876  1
  O  O54  1  0.49156248  0.71473875  0.33446876  1
  O  O55  1  0.99156248  0.78526125  0.16553124  1
  O  O56  1  0.01865063  0.28871054  0.66457987  1
  O  O57  1  0.51865063  0.21128946  0.83542013  1
  O  O58  1  0.98134937  0.71128946  0.33542013  1
  O  O59  1  0.48134937  0.78871054  0.16457987  1
  O  O60  1  0.48897516  0.17557139  0.59958400  1
  O  O61  1  0.98897516  0.32442861  0.90041600  1
  O  O62  1  0.51102484  0.82442861  0.40041600  1
  O  O63  1  0.01102484  0.67557139  0.09958400  1
  O  O64  1  0.97684195  0.17870709  0.59828538  1
  O  O65  1  0.47684195  0.32129291  0.90171462  1
  O  O66  1  0.02315805  0.82129291  0.40171462  1
  O  O67  1  0.52315805  0.67870709  0.09828538  1
  O  O68  1  0.51756907  0.05515095  0.53301616  1
  O  O69  1  0.01756907  0.44484905  0.96698384  1
  O  O70  1  0.48243093  0.94484905  0.46698384  1
  O  O71  1  0.98243093  0.55515095  0.03301616  1
  O  O72  1  0.01543282  0.06251333  0.53221821  1
  O  O73  1  0.51543282  0.43748667  0.96778179  1
  O  O74  1  0.98456718  0.93748667  0.46778179  1
  O  O75  1  0.48456718  0.56251333  0.03221821  1
  O  O76  1  0.92629006  0.71508959  0.55058692  1
  O  O77  1  0.42629006  0.78491041  0.94941308  1
  O  O78  1  0.07370994  0.28491041  0.44941308  1
  O  O79  1  0.57370994  0.21508959  0.05058692  1
  O  O80  1  0.58790057  0.64982269  0.50012380  1
  O  O81  1  0.08790057  0.85017731  0.99987620  1
  O  O82  1  0.41209943  0.35017731  0.49987620  1
  O  O83  1  0.91209943  0.14982269  0.00012380  1
  O  O84  1  0.90757332  0.39105260  0.52458129  1
  O  O85  1  0.40757332  0.10894740  0.97541871  1
  O  O86  1  0.09242668  0.60894740  0.47541871  1
  O  O87  1  0.59242668  0.89105260  0.02458129  1
  O  O88  1  0.54078018  0.51442775  0.56760472  1
  O  O89  1  0.04078018  0.98557225  0.93239528  1
  O  O90  1  0.45921982  0.48557225  0.43239528  1
  O  O91  1  0.95921982  0.01442775  0.06760472  1
  O  O92  1  0.60657859  0.00640370  0.90425665  1
  O  O93  1  0.10657859  0.49359630  0.59574335  1
  O  O94  1  0.39342141  0.99359630  0.09574335  1
  O  O95  1  0.89342141  0.50640370  0.40425665  1
  O  O96  1  0.97786899  0.86740864  0.86444104  1
  O  O97  1  0.47786899  0.63259136  0.63555896  1
  O  O98  1  0.02213101  0.13259136  0.13555896  1
  O  O99  1  0.52213101  0.36740864  0.36444104  1
  O  O100  1  0.55105762  0.71088965  0.87189115  1
  O  O101  1  0.05105762  0.78911035  0.62810885  1
  O  O102  1  0.44894238  0.28911035  0.12810885  1
  O  O103  1  0.94894238  0.21088965  0.37189115  1
  O  O104  1  0.87173744  0.68653823  0.92507644  1
  O  O105  1  0.37173744  0.81346177  0.57492356  1
  O  O106  1  0.12826256  0.31346177  0.07492356  1
  O  O107  1  0.62826256  0.18653823  0.42507644  1
  O  O108  1  0.91299542  0.89566807  0.69967625  1
  O  O109  1  0.41299542  0.60433193  0.80032375  1
  O  O110  1  0.08700458  0.10433193  0.30032375  1
  O  O111  1  0.58700458  0.39566807  0.19967625  1
  O  O112  1  0.63010589  0.92812653  0.64268369  1
  O  O113  1  0.13010589  0.57187347  0.85731631  1
  O  O114  1  0.36989411  0.07187347  0.35731631  1
  O  O115  1  0.86989411  0.42812653  0.14268369  1
  O  O116  1  0.86196882  0.59013093  0.67219540  1
  O  O117  1  0.36196882  0.90986907  0.82780460  1
  O  O118  1  0.13803118  0.40986907  0.32780460  1
  O  O119  1  0.63803118  0.09013093  0.17219540  1
  O  O120  1  0.48326353  0.75534814  0.70175791  1
  O  O121  1  0.98326353  0.74465186  0.79824209  1
  O  O122  1  0.51673647  0.24465186  0.29824209  1
  O  O123  1  0.01673647  0.25534814  0.20175791  1
  O  O124  1  0.82929251  0.41387965  0.79581795  1
  O  O125  1  0.32929251  0.08612035  0.70418205  1
  O  O126  1  0.17070749  0.58612035  0.20418205  1
  O  O127  1  0.67070749  0.91387965  0.29581795  1
