# generated using pymatgen
data_CsB5(H2O3)4
_symmetry_space_group_name_H-M   'P 1'
_cell_length_a   7.26113609
_cell_length_b   7.26113609
_cell_length_c   11.94602925
_cell_angle_alpha   91.78228176
_cell_angle_beta   91.78228176
_cell_angle_gamma   106.38019901
_symmetry_Int_Tables_number   1
_chemical_formula_structural   CsB5(H2O3)4
_chemical_formula_sum   'Cs2 B10 H16 O24'
_cell_volume   603.46453163
_cell_formula_units_Z   2
loop_
 _symmetry_equiv_pos_site_id
 _symmetry_equiv_pos_as_xyz
  1  'x, y, z'
loop_
 _atom_site_type_symbol
 _atom_site_label
 _atom_site_symmetry_multiplicity
 _atom_site_fract_x
 _atom_site_fract_y
 _atom_site_fract_z
 _atom_site_occupancy
  Cs  Cs0  1  0.71935891  0.28064109  0.25000000  1
  Cs  Cs1  1  0.28064109  0.71935891  0.75000000  1
  B  B2  1  0.78304748  0.21695252  0.75000000  1
  B  B3  1  0.21695252  0.78304748  0.25000000  1
  B  B4  1  0.99009319  0.25525867  0.92556381  1
  B  B5  1  0.74474133  0.00990681  0.57443619  1
  B  B6  1  0.00990681  0.74474133  0.07443619  1
  B  B7  1  0.25525867  0.99009319  0.42556381  1
  B  B8  1  0.65316286  0.22677218  0.94152809  1
  B  B9  1  0.77322782  0.34683714  0.55847191  1
  B  B10  1  0.34683714  0.77322782  0.05847191  1
  B  B11  1  0.22677218  0.65316286  0.44152809  1
  H  H12  1  0.20165396  0.39548393  0.24933081  1
  H  H13  1  0.60451607  0.79834604  0.25066919  1
  H  H14  1  0.79834604  0.60451607  0.75066919  1
  H  H15  1  0.39548393  0.20165396  0.74933081  1
  H  H16  1  0.19582197  0.17329729  0.24361373  1
  H  H17  1  0.82670271  0.80417803  0.25638627  1
  H  H18  1  0.80417803  0.82670271  0.75638627  1
  H  H19  1  0.17329729  0.19582197  0.74361373  1
  H  H20  1  0.16000958  0.27611184  0.06206267  1
  H  H21  1  0.72388816  0.83999042  0.43793733  1
  H  H22  1  0.83999042  0.72388816  0.93793733  1
  H  H23  1  0.27611184  0.16000958  0.56206267  1
  H  H24  1  0.38709390  0.23655047  0.98003368  1
  H  H25  1  0.76344953  0.61290610  0.51996632  1
  H  H26  1  0.61290610  0.76344953  0.01996632  1
  H  H27  1  0.23655047  0.38709390  0.48003368  1
  O  O28  1  0.83317329  0.24051766  0.99161606  1
  O  O29  1  0.75948234  0.16682671  0.50838394  1
  O  O30  1  0.16682671  0.75948234  0.00838394  1
  O  O31  1  0.24051766  0.83317329  0.49161606  1
  O  O32  1  0.62666002  0.21129945  0.82714255  1
  O  O33  1  0.78870055  0.37333998  0.67285745  1
  O  O34  1  0.37333998  0.78870055  0.17285745  1
  O  O35  1  0.21129945  0.62666002  0.32714255  1
  O  O36  1  0.97366774  0.25488581  0.81105213  1
  O  O37  1  0.74511419  0.02633226  0.68894787  1
  O  O38  1  0.02633226  0.74511419  0.18894787  1
  O  O39  1  0.25488581  0.97366774  0.31105213  1
  O  O40  1  0.16593902  0.27479913  0.97814058  1
  O  O41  1  0.72520087  0.83406098  0.52185942  1
  O  O42  1  0.83406098  0.72520087  0.02185942  1
  O  O43  1  0.27479913  0.16593902  0.47814058  1
  O  O44  1  0.51271034  0.23221862  0.01333640  1
  O  O45  1  0.76778138  0.48728966  0.48666360  1
  O  O46  1  0.48728966  0.76778138  0.98666360  1
  O  O47  1  0.23221862  0.51271034  0.51333640  1
  O  O48  1  0.15338881  0.27340198  0.20449869  1
  O  O49  1  0.72659802  0.84661119  0.29550131  1
  O  O50  1  0.84661119  0.72659802  0.79550131  1
  O  O51  1  0.27340198  0.15338881  0.70449869  1
