# generated using pymatgen
data_Ba2V2Te2O11
_symmetry_space_group_name_H-M   'P 1'
_cell_length_a   7.69656032
_cell_length_b   7.78677990
_cell_length_c   9.71009235
_cell_angle_alpha   90.00000000
_cell_angle_beta   93.63681290
_cell_angle_gamma   90.00000000
_symmetry_Int_Tables_number   1
_chemical_formula_structural   Ba2V2Te2O11
_chemical_formula_sum   'Ba4 V4 Te4 O22'
_cell_volume   580.76771281
_cell_formula_units_Z   2
loop_
 _symmetry_equiv_pos_site_id
 _symmetry_equiv_pos_as_xyz
  1  'x, y, z'
loop_
 _atom_site_type_symbol
 _atom_site_label
 _atom_site_symmetry_multiplicity
 _atom_site_fract_x
 _atom_site_fract_y
 _atom_site_fract_z
 _atom_site_occupancy
  Ba  Ba0  1  0.63433942  0.25000000  0.57173801  1
  Ba  Ba1  1  0.36566058  0.75000000  0.42826199  1
  Ba  Ba2  1  0.36860103  0.25000000  0.14180472  1
  Ba  Ba3  1  0.63139897  0.75000000  0.85819528  1
  V  V4  1  0.18429204  0.75000000  0.01239016  1
  V  V5  1  0.81570796  0.25000000  0.98760984  1
  V  V6  1  0.11003322  0.25000000  0.42298420  1
  V  V7  1  0.88996678  0.75000000  0.57701580  1
  Te  Te8  1  0.21316221  0.46375111  0.76002006  1
  Te  Te9  1  0.78683779  0.96375111  0.23997994  1
  Te  Te10  1  0.78683779  0.53624889  0.23997994  1
  Te  Te11  1  0.21316221  0.03624889  0.76002006  1
  O  O12  1  0.30666085  0.25000000  0.85233420  1
  O  O13  1  0.69333915  0.75000000  0.14766580  1
  O  O14  1  0.41871430  0.51956548  0.67944866  1
  O  O15  1  0.58128570  0.01956548  0.32055134  1
  O  O16  1  0.58128570  0.48043452  0.32055134  1
  O  O17  1  0.41871430  0.98043452  0.67944866  1
  O  O18  1  0.16175726  0.25000000  0.61020160  1
  O  O19  1  0.83824274  0.75000000  0.38979840  1
  O  O20  1  0.30370941  0.56666568  0.94783422  1
  O  O21  1  0.69629059  0.06666568  0.05216578  1
  O  O22  1  0.69629059  0.43333432  0.05216578  1
  O  O23  1  0.30370941  0.93333432  0.94783422  1
  O  O24  1  0.98283381  0.75000000  0.93609248  1
  O  O25  1  0.01716619  0.25000000  0.06390752  1
  O  O26  1  0.17967123  0.75000000  0.18468505  1
  O  O27  1  0.82032877  0.25000000  0.81531495  1
  O  O28  1  0.20449108  0.42514669  0.35556920  1
  O  O29  1  0.79550892  0.92514669  0.64443080  1
  O  O30  1  0.79550892  0.57485331  0.64443080  1
  O  O31  1  0.20449108  0.07485331  0.35556920  1
  O  O32  1  0.88430854  0.25000000  0.38044474  1
  O  O33  1  0.11569146  0.75000000  0.61955526  1
