# generated using pymatgen
data_Ce2Si2Sn
_symmetry_space_group_name_H-M   'P 1'
_cell_length_a   4.38745583
_cell_length_b   7.25466147
_cell_length_c   7.25466147
_cell_angle_alpha   90.00000000
_cell_angle_beta   90.00000000
_cell_angle_gamma   90.00000000
_symmetry_Int_Tables_number   1
_chemical_formula_structural   Ce2Si2Sn
_chemical_formula_sum   'Ce4 Si4 Sn2'
_cell_volume   230.91229631
_cell_formula_units_Z   2
loop_
 _symmetry_equiv_pos_site_id
 _symmetry_equiv_pos_as_xyz
  1  'x, y, z'
loop_
 _atom_site_type_symbol
 _atom_site_label
 _atom_site_symmetry_multiplicity
 _atom_site_fract_x
 _atom_site_fract_y
 _atom_site_fract_z
 _atom_site_occupancy
  Ce  Ce0  1  0.50000000  0.17800706  0.67800706  1
  Ce  Ce1  1  0.50000000  0.82199294  0.32199294  1
  Ce  Ce2  1  0.50000000  0.32199294  0.17800706  1
  Ce  Ce3  1  0.50000000  0.67800706  0.82199294  1
  Si  Si4  1  -0.00000000  0.61548081  0.11548081  1
  Si  Si5  1  0.00000000  0.38451919  0.88451919  1
  Si  Si6  1  0.00000000  0.88451919  0.61548081  1
  Si  Si7  1  -0.00000000  0.11548081  0.38451919  1
  Sn  Sn8  1  -0.00000000  -0.00000000  -0.00000000  1
  Sn  Sn9  1  -0.00000000  0.50000000  0.50000000  1
