# generated using pymatgen
data_K2FeF5
_symmetry_space_group_name_H-M   'P 1'
_cell_length_a   5.78032585
_cell_length_b   7.48993461
_cell_length_c   11.74260625
_cell_angle_alpha   90.00000000
_cell_angle_beta   90.00000000
_cell_angle_gamma   90.00000000
_symmetry_Int_Tables_number   1
_chemical_formula_structural   K2FeF5
_chemical_formula_sum   'K8 Fe4 F20'
_cell_volume   508.38747908
_cell_formula_units_Z   4
loop_
 _symmetry_equiv_pos_site_id
 _symmetry_equiv_pos_as_xyz
  1  'x, y, z'
loop_
 _atom_site_type_symbol
 _atom_site_label
 _atom_site_symmetry_multiplicity
 _atom_site_fract_x
 _atom_site_fract_y
 _atom_site_fract_z
 _atom_site_occupancy
  K  K0  1  0.75000000  0.34306540  0.91493574  1
  K  K1  1  0.75000000  0.84306540  0.58506426  1
  K  K2  1  0.25000000  0.65693460  0.08506426  1
  K  K3  1  0.25000000  0.15693460  0.41493574  1
  K  K4  1  0.75000000  0.01133889  0.22773324  1
  K  K5  1  0.75000000  0.51133889  0.27226676  1
  K  K6  1  0.25000000  0.98866111  0.77226676  1
  K  K7  1  0.25000000  0.48866111  0.72773324  1
  Fe  Fe8  1  0.75000000  0.83000770  0.93861855  1
  Fe  Fe9  1  0.75000000  0.33000770  0.56138145  1
  Fe  Fe10  1  0.25000000  0.16999230  0.06138145  1
  Fe  Fe11  1  0.25000000  0.66999230  0.43861855  1
  F  F12  1  -0.00000000  0.00000000  0.00000000  1
  F  F13  1  0.50000000  0.50000000  0.50000000  1
  F  F14  1  0.50000000  0.00000000  -0.00000000  1
  F  F15  1  0.00000000  0.50000000  0.50000000  1
  F  F16  1  0.75000000  0.97441687  0.80418984  1
  F  F17  1  0.75000000  0.47441687  0.69581016  1
  F  F18  1  0.25000000  0.02558313  0.19581016  1
  F  F19  1  0.25000000  0.52558313  0.30418984  1
  F  F20  1  0.75000000  0.72182979  0.09048028  1
  F  F21  1  0.75000000  0.22182979  0.40951972  1
  F  F22  1  0.25000000  0.27817021  0.90951972  1
  F  F23  1  0.25000000  0.77817021  0.59048028  1
  F  F24  1  0.99159642  0.67575796  0.88695377  1
  F  F25  1  0.50840358  0.17575796  0.61304623  1
  F  F26  1  0.49159642  0.32424204  0.11304623  1
  F  F27  1  0.00840358  0.82424204  0.38695377  1
  F  F28  1  0.00840358  0.32424204  0.11304623  1
  F  F29  1  0.49159642  0.82424204  0.38695377  1
  F  F30  1  0.50840358  0.67575796  0.88695377  1
  F  F31  1  0.99159642  0.17575796  0.61304623  1
