# generated using pymatgen
data_ThH2(SO4)3
_symmetry_space_group_name_H-M   'P 1'
_cell_length_a   5.79009196
_cell_length_b   9.23420922
_cell_length_c   9.80005039
_cell_angle_alpha   65.03082061
_cell_angle_beta   87.90116151
_cell_angle_gamma   89.00970541
_symmetry_Int_Tables_number   1
_chemical_formula_structural   ThH2(SO4)3
_chemical_formula_sum   'Th2 H4 S6 O24'
_cell_volume   474.68523424
_cell_formula_units_Z   2
loop_
 _symmetry_equiv_pos_site_id
 _symmetry_equiv_pos_as_xyz
  1  'x, y, z'
loop_
 _atom_site_type_symbol
 _atom_site_label
 _atom_site_symmetry_multiplicity
 _atom_site_fract_x
 _atom_site_fract_y
 _atom_site_fract_z
 _atom_site_occupancy
  Th  Th0  1  0.74710018  0.32090199  0.82709369  1
  Th  Th1  1  0.25289982  0.67909801  0.17290631  1
  H  H2  1  0.66576943  0.78659065  0.58443738  1
  H  H3  1  0.33423057  0.21340935  0.41556262  1
  H  H4  1  0.07875592  0.82158452  0.72560664  1
  H  H5  1  0.92124408  0.17841548  0.27439336  1
  S  S6  1  0.76396618  0.87809388  0.90899357  1
  S  S7  1  0.23603382  0.12190612  0.09100643  1
  S  S8  1  0.75355725  0.69465209  0.42229934  1
  S  S9  1  0.24644275  0.30534791  0.57770066  1
  S  S10  1  0.25357883  0.59702303  0.81577083  1
  S  S11  1  0.74642117  0.40297697  0.18422917  1
  O  O12  1  0.80936816  0.85873314  0.76938199  1
  O  O13  1  0.19063184  0.14126686  0.23061801  1
  O  O14  1  0.70598016  0.04544249  0.87867267  1
  O  O15  1  0.29401984  0.95455751  0.12132733  1
  O  O16  1  0.02783189  0.17220399  0.99582956  1
  O  O17  1  0.97216811  0.82779601  0.00417044  1
  O  O18  1  0.43365713  0.22411435  0.00182621  1
  O  O19  1  0.56634287  0.77588565  0.99817379  1
  O  O20  1  0.76658557  0.54206247  0.55272674  1
  O  O21  1  0.23341443  0.45793753  0.44727326  1
  O  O22  1  0.55707583  0.70659268  0.32820590  1
  O  O23  1  0.44292417  0.29340732  0.67179410  1
  O  O24  1  0.96871549  0.74035876  0.33073791  1
  O  O25  1  0.03128451  0.25964124  0.66926209  1
  O  O26  1  0.72171548  0.83066493  0.47848961  1
  O  O27  1  0.27828452  0.16933507  0.52151039  1
  O  O28  1  0.22937408  0.57796292  0.97128281  1
  O  O29  1  0.77062592  0.42203708  0.02871719  1
  O  O30  1  0.07155551  0.51137998  0.77926877  1
  O  O31  1  0.92844449  0.48862002  0.22073123  1
  O  O32  1  0.48441656  0.55540547  0.77622350  1
  O  O33  1  0.51558344  0.44459453  0.22377650  1
  O  O34  1  0.23425500  0.77818828  0.70785277  1
  O  O35  1  0.76574500  0.22181172  0.29214723  1
