# generated using pymatgen
data_Y2Co12As7
_symmetry_space_group_name_H-M   'P 1'
_cell_length_a   3.73794256
_cell_length_b   9.36142222
_cell_length_c   9.36142222
_cell_angle_alpha   119.99999634
_cell_angle_beta   90.00000000
_cell_angle_gamma   90.00000000
_symmetry_Int_Tables_number   1
_chemical_formula_structural   Y2Co12As7
_chemical_formula_sum   'Y2 Co12 As7'
_cell_volume   283.69190125
_cell_formula_units_Z   1
loop_
 _symmetry_equiv_pos_site_id
 _symmetry_equiv_pos_as_xyz
  1  'x, y, z'
loop_
 _atom_site_type_symbol
 _atom_site_label
 _atom_site_symmetry_multiplicity
 _atom_site_fract_x
 _atom_site_fract_y
 _atom_site_fract_z
 _atom_site_occupancy
  Y  Y0  1  -0.00000000  0.66666700  0.33333300  1
  Y  Y1  1  0.50000000  0.33333300  0.66666700  1
  Co  Co2  1  -0.00000000  0.56974401  0.94268081  1
  Co  Co3  1  0.00000000  0.37293680  0.43025599  1
  Co  Co4  1  -0.00000000  0.05731919  0.62706320  1
  Co  Co5  1  0.50000000  0.77578118  0.90140645  1
  Co  Co6  1  0.50000000  0.12562527  0.22421882  1
  Co  Co7  1  0.50000000  0.09859355  0.87437473  1
  Co  Co8  1  -0.00000000  0.88065202  0.15781217  1
  Co  Co9  1  -0.00000000  0.27716016  0.11934798  1
  Co  Co10  1  0.00000000  0.84218783  0.72283984  1
  Co  Co11  1  0.50000000  0.95062942  0.38377351  1
  Co  Co12  1  0.50000000  0.43314409  0.04937058  1
  Co  Co13  1  0.50000000  0.61622649  0.56685591  1
  As  As14  1  -0.00000000  -0.00000000  0.00000000  1
  As  As15  1  0.50000000  0.71065805  0.11430793  1
  As  As16  1  0.50000000  0.40364988  0.28934195  1
  As  As17  1  0.50000000  0.88569207  0.59635012  1
  As  As18  1  -0.00000000  0.59008272  0.70552462  1
  As  As19  1  0.00000000  0.11544191  0.40991728  1
  As  As20  1  -0.00000000  0.29447538  0.88455809  1
