# generated using pymatgen
data_SmH4I3O11
_symmetry_space_group_name_H-M   'P 1'
_cell_length_a   7.25219898
_cell_length_b   7.57314266
_cell_length_c   10.78231158
_cell_angle_alpha   94.81942268
_cell_angle_beta   105.02574937
_cell_angle_gamma   109.13335613
_symmetry_Int_Tables_number   1
_chemical_formula_structural   SmH4I3O11
_chemical_formula_sum   'Sm2 H8 I6 O22'
_cell_volume   530.99552434
_cell_formula_units_Z   2
loop_
 _symmetry_equiv_pos_site_id
 _symmetry_equiv_pos_as_xyz
  1  'x, y, z'
loop_
 _atom_site_type_symbol
 _atom_site_label
 _atom_site_symmetry_multiplicity
 _atom_site_fract_x
 _atom_site_fract_y
 _atom_site_fract_z
 _atom_site_occupancy
  Sm  Sm0  1  0.60906697  0.41584402  0.28688097  1
  Sm  Sm1  1  0.39093303  0.58415598  0.71311903  1
  H  H2  1  0.75161872  0.10561837  0.35879518  1
  H  H3  1  0.24838128  0.89438163  0.64120482  1
  H  H4  1  0.78314679  0.08903033  0.21717256  1
  H  H5  1  0.21685321  0.91096967  0.78282744  1
  H  H6  1  0.37096839  0.74131521  0.10478137  1
  H  H7  1  0.62903161  0.25868479  0.89521863  1
  H  H8  1  0.30400949  0.91795473  0.10858252  1
  H  H9  1  0.69599051  0.08204527  0.89141748  1
  I  I10  1  0.21607854  0.63502873  0.33266263  1
  I  I11  1  0.78392146  0.36497127  0.66733737  1
  I  I12  1  0.80308444  0.85240591  0.56769635  1
  I  I13  1  0.19691556  0.14759409  0.43230365  1
  I  I14  1  0.22488093  0.26608358  0.95200857  1
  I  I15  1  0.77511907  0.73391642  0.04799143  1
  O  O16  1  0.93923543  0.55595067  0.24763593  1
  O  O17  1  0.06076457  0.44404933  0.75236407  1
  O  O18  1  0.26933451  0.44217705  0.25044701  1
  O  O19  1  0.73066549  0.55782295  0.74955299  1
  O  O20  1  0.20863894  0.53559505  0.48193683  1
  O  O21  1  0.79136106  0.46440495  0.51806317  1
  O  O22  1  0.64262487  0.72277967  0.40241491  1
  O  O23  1  0.35737513  0.27722033  0.59758509  1
  O  O24  1  0.86439830  0.09417285  0.52938647  1
  O  O25  1  0.13560170  0.90582715  0.47061353  1
  O  O26  1  0.59689129  0.84934360  0.63564021  1
  O  O27  1  0.40310871  0.15065640  0.36435979  1
  O  O28  1  0.41890505  0.37154139  0.87060772  1
  O  O29  1  0.58109495  0.62845861  0.12939228  1
  O  O30  1  0.39342442  0.19957581  0.08330706  1
  O  O31  1  0.60657558  0.80042419  0.91669294  1
  O  O32  1  0.08223409  0.03357592  0.84841316  1
  O  O33  1  0.91776591  0.96642408  0.15158684  1
  O  O34  1  0.72903484  0.15298303  0.27551096  1
  O  O35  1  0.27096516  0.84701697  0.72448904  1
  O  O36  1  0.25537707  0.77991840  0.10873553  1
  O  O37  1  0.74462293  0.22008160  0.89126447  1
