# generated using pymatgen
data_SrLaCuSe3
_symmetry_space_group_name_H-M   'P 1'
_cell_length_a   4.18878781
_cell_length_b   8.61806123
_cell_length_c   16.93551774
_cell_angle_alpha   90.00000000
_cell_angle_beta   90.00000000
_cell_angle_gamma   90.00000000
_symmetry_Int_Tables_number   1
_chemical_formula_structural   SrLaCuSe3
_chemical_formula_sum   'Sr4 La4 Cu4 Se12'
_cell_volume   611.35914712
_cell_formula_units_Z   4
loop_
 _symmetry_equiv_pos_site_id
 _symmetry_equiv_pos_as_xyz
  1  'x, y, z'
loop_
 _atom_site_type_symbol
 _atom_site_label
 _atom_site_symmetry_multiplicity
 _atom_site_fract_x
 _atom_site_fract_y
 _atom_site_fract_z
 _atom_site_occupancy
  Sr  Sr0  1  0.75000000  0.73849928  0.96515346  1
  Sr  Sr1  1  0.25000000  0.26150072  0.03484654  1
  Sr  Sr2  1  0.25000000  0.76150072  0.46515346  1
  Sr  Sr3  1  0.75000000  0.23849928  0.53484654  1
  La  La4  1  0.75000000  0.90649362  0.21340240  1
  La  La5  1  0.25000000  0.09350638  0.78659760  1
  La  La6  1  0.25000000  0.59350638  0.71340240  1
  La  La7  1  0.75000000  0.40649362  0.28659760  1
  Cu  Cu8  1  0.75000000  0.87751585  0.63471280  1
  Cu  Cu9  1  0.25000000  0.12248415  0.36528720  1
  Cu  Cu10  1  0.25000000  0.62248415  0.13471280  1
  Cu  Cu11  1  0.75000000  0.37751585  0.86528720  1
  Se  Se12  1  0.75000000  0.82055680  0.77927015  1
  Se  Se13  1  0.25000000  0.17944320  0.22072985  1
  Se  Se14  1  0.25000000  0.67944320  0.27927015  1
  Se  Se15  1  0.75000000  0.32055680  0.72072985  1
  Se  Se16  1  0.75000000  0.98631890  0.39296646  1
  Se  Se17  1  0.25000000  0.01368110  0.60703354  1
  Se  Se18  1  0.25000000  0.51368110  0.89296646  1
  Se  Se19  1  0.75000000  0.48631890  0.10703354  1
  Se  Se20  1  0.75000000  0.61429874  0.57859686  1
  Se  Se21  1  0.25000000  0.38570126  0.42140314  1
  Se  Se22  1  0.25000000  0.88570126  0.07859686  1
  Se  Se23  1  0.75000000  0.11429874  0.92140314  1
