# generated using pymatgen
data_SrAs2F12
_symmetry_space_group_name_H-M   'P 1'
_cell_length_a   9.94162798
_cell_length_b   9.94162798
_cell_length_c   9.94162798
_cell_angle_alpha   90.00000000
_cell_angle_beta   90.00000000
_cell_angle_gamma   90.00000000
_symmetry_Int_Tables_number   1
_chemical_formula_structural   SrAs2F12
_chemical_formula_sum   'Sr4 As8 F48'
_cell_volume   982.59041389
_cell_formula_units_Z   4
loop_
 _symmetry_equiv_pos_site_id
 _symmetry_equiv_pos_as_xyz
  1  'x, y, z'
loop_
 _atom_site_type_symbol
 _atom_site_label
 _atom_site_symmetry_multiplicity
 _atom_site_fract_x
 _atom_site_fract_y
 _atom_site_fract_z
 _atom_site_occupancy
  Sr  Sr0  1  0.50000000  0.00000000  -0.00000000  1
  Sr  Sr1  1  -0.00000000  0.50000000  -0.00000000  1
  Sr  Sr2  1  -0.00000000  0.00000000  0.50000000  1
  Sr  Sr3  1  -0.00000000  0.00000000  -0.00000000  1
  As  As4  1  0.25389830  0.25389830  0.25389830  1
  As  As5  1  0.74610170  0.74610170  0.25389830  1
  As  As6  1  0.74610170  0.25389830  0.74610170  1
  As  As7  1  0.25389830  0.74610170  0.74610170  1
  As  As8  1  0.74290345  0.74290345  0.74290345  1
  As  As9  1  0.25709655  0.25709655  0.74290345  1
  As  As10  1  0.25709655  0.74290345  0.25709655  1
  As  As11  1  0.74290345  0.25709655  0.25709655  1
  F  F12  1  0.12898429  0.12898429  0.30583842  1
  F  F13  1  0.87101571  0.87101571  0.30583842  1
  F  F14  1  0.87101571  0.12898429  0.69416158  1
  F  F15  1  0.30583842  0.12898429  0.12898429  1
  F  F16  1  0.12898429  0.87101571  0.69416158  1
  F  F17  1  0.30583842  0.87101571  0.87101571  1
  F  F18  1  0.69416158  0.87101571  0.12898429  1
  F  F19  1  0.69416158  0.12898429  0.87101571  1
  F  F20  1  0.12898429  0.30583842  0.12898429  1
  F  F21  1  0.12898429  0.69416158  0.87101571  1
  F  F22  1  0.87101571  0.69416158  0.12898429  1
  F  F23  1  0.87101571  0.30583842  0.87101571  1
  F  F24  1  0.37014776  0.37014776  0.81207784  1
  F  F25  1  0.62985224  0.62985224  0.81207784  1
  F  F26  1  0.62985224  0.37014776  0.18792216  1
  F  F27  1  0.81207784  0.37014776  0.37014776  1
  F  F28  1  0.37014776  0.62985224  0.18792216  1
  F  F29  1  0.81207784  0.62985224  0.62985224  1
  F  F30  1  0.18792216  0.62985224  0.37014776  1
  F  F31  1  0.18792216  0.37014776  0.62985224  1
  F  F32  1  0.37014776  0.81207784  0.37014776  1
  F  F33  1  0.37014776  0.18792216  0.62985224  1
  F  F34  1  0.62985224  0.18792216  0.37014776  1
  F  F35  1  0.62985224  0.81207784  0.62985224  1
  F  F36  1  0.13234461  0.13234461  0.69042198  1
  F  F37  1  0.86765539  0.86765539  0.69042198  1
  F  F38  1  0.86765539  0.13234461  0.30957802  1
  F  F39  1  0.69042198  0.13234461  0.13234461  1
  F  F40  1  0.13234461  0.86765539  0.30957802  1
  F  F41  1  0.69042198  0.86765539  0.86765539  1
  F  F42  1  0.30957802  0.86765539  0.13234461  1
  F  F43  1  0.30957802  0.13234461  0.86765539  1
  F  F44  1  0.13234461  0.69042198  0.13234461  1
  F  F45  1  0.13234461  0.30957802  0.86765539  1
  F  F46  1  0.86765539  0.30957802  0.13234461  1
  F  F47  1  0.86765539  0.69042198  0.86765539  1
  F  F48  1  0.36684877  0.36684877  0.18455666  1
  F  F49  1  0.63315123  0.63315123  0.18455666  1
  F  F50  1  0.63315123  0.36684877  0.81544334  1
  F  F51  1  0.18455666  0.36684877  0.36684877  1
  F  F52  1  0.36684877  0.63315123  0.81544334  1
  F  F53  1  0.18455666  0.63315123  0.63315123  1
  F  F54  1  0.81544334  0.63315123  0.36684877  1
  F  F55  1  0.81544334  0.36684877  0.63315123  1
  F  F56  1  0.36684877  0.18455666  0.36684877  1
  F  F57  1  0.36684877  0.81544334  0.63315123  1
  F  F58  1  0.63315123  0.81544334  0.36684877  1
  F  F59  1  0.63315123  0.18455666  0.63315123  1
