# generated using pymatgen
data_TaP4(S2Cl)5
_symmetry_space_group_name_H-M   'P 1'
_cell_length_a   10.12726009
_cell_length_b   11.50315079
_cell_length_c   12.10927774
_cell_angle_alpha   70.87472241
_cell_angle_beta   67.92606260
_cell_angle_gamma   67.69635175
_symmetry_Int_Tables_number   1
_chemical_formula_structural   TaP4(S2Cl)5
_chemical_formula_sum   'Ta2 P8 S20 Cl10'
_cell_volume   1180.97393279
_cell_formula_units_Z   2
loop_
 _symmetry_equiv_pos_site_id
 _symmetry_equiv_pos_as_xyz
  1  'x, y, z'
loop_
 _atom_site_type_symbol
 _atom_site_label
 _atom_site_symmetry_multiplicity
 _atom_site_fract_x
 _atom_site_fract_y
 _atom_site_fract_z
 _atom_site_occupancy
  Ta  Ta0  1  0.45720481  0.37001529  0.65842478  1
  Ta  Ta1  1  0.54279519  0.62998471  0.34157522  1
  P  P2  1  0.47944855  0.17476920  0.23746291  1
  P  P3  1  0.52055145  0.82523080  0.76253709  1
  P  P4  1  0.19412527  0.14821638  0.16147557  1
  P  P5  1  0.80587473  0.85178362  0.83852443  1
  P  P6  1  0.19938318  0.44799553  0.16227491  1
  P  P7  1  0.80061682  0.55200447  0.83772509  1
  P  P8  1  0.11978559  0.22916977  0.43501567  1
  P  P9  1  0.88021441  0.77083023  0.56498433  1
  S  S10  1  0.34980751  0.15396513  0.42295127  1
  S  S11  1  0.65019249  0.84603487  0.57704873  1
  S  S12  1  0.15452124  0.62709158  0.08336441  1
  S  S13  1  0.84547876  0.37290842  0.91663559  1
  S  S14  1  0.99474928  0.78965748  0.39621389  1
  S  S15  1  0.00525072  0.21034252  0.60378611  1
  S  S16  1  0.14697281  0.05647423  0.08122372  1
  S  S17  1  0.85302719  0.94352577  0.91877628  1
  S  S18  1  0.07176521  0.42673811  0.34809093  1
  S  S19  1  0.92823479  0.57326189  0.65190907  1
  S  S20  1  0.42898355  0.37294807  0.15147339  1
  S  S21  1  0.57101645  0.62705193  0.84852661  1
  S  S22  1  0.42422755  0.07425064  0.14993954  1
  S  S23  1  0.57577245  0.92574936  0.85006046  1
  S  S24  1  0.06591505  0.12823923  0.34728766  1
  S  S25  1  0.93408495  0.87176077  0.65271234  1
  S  S26  1  0.68759499  0.10627515  0.22690364  1
  S  S27  1  0.31240501  0.89372485  0.77309636  1
  S  S28  1  0.14577370  0.34621012  0.07535105  1
  S  S29  1  0.85422630  0.65378988  0.92464895  1
  Cl  Cl30  1  0.36677124  0.48793182  0.46660437  1
  Cl  Cl31  1  0.63322876  0.51206818  0.53339563  1
  Cl  Cl32  1  0.62750139  0.21917124  0.54504128  1
  Cl  Cl33  1  0.37249861  0.78082876  0.45495872  1
  Cl  Cl34  1  0.28136410  0.26456786  0.73458538  1
  Cl  Cl35  1  0.71863590  0.73543214  0.26541462  1
  Cl  Cl36  1  0.42676536  0.70873108  0.19235080  1
  Cl  Cl37  1  0.57323464  0.29126892  0.80764920  1
  Cl  Cl38  1  0.70350914  0.45144234  0.26173931  1
  Cl  Cl39  1  0.29649086  0.54855766  0.73826069  1
