# generated using pymatgen
data_Sn3IF5
_symmetry_space_group_name_H-M   'P 1'
_cell_length_a   4.34173407
_cell_length_b   13.18936323
_cell_length_c   13.27908904
_cell_angle_alpha   90.00000000
_cell_angle_beta   90.27975832
_cell_angle_gamma   90.00000000
_symmetry_Int_Tables_number   1
_chemical_formula_structural   Sn3IF5
_chemical_formula_sum   'Sn12 I4 F20'
_cell_volume   760.41408865
_cell_formula_units_Z   4
loop_
 _symmetry_equiv_pos_site_id
 _symmetry_equiv_pos_as_xyz
  1  'x, y, z'
loop_
 _atom_site_type_symbol
 _atom_site_label
 _atom_site_symmetry_multiplicity
 _atom_site_fract_x
 _atom_site_fract_y
 _atom_site_fract_z
 _atom_site_occupancy
  Sn  Sn0  1  0.92639165  0.65641864  0.13100594  1
  Sn  Sn1  1  0.07360835  0.34358136  0.86899406  1
  Sn  Sn2  1  0.57360835  0.15641864  0.36899406  1
  Sn  Sn3  1  0.42639165  0.84358136  0.63100594  1
  Sn  Sn4  1  0.37259715  0.37971038  0.15021610  1
  Sn  Sn5  1  0.62740285  0.62028962  0.84978390  1
  Sn  Sn6  1  0.12740285  0.87971038  0.34978390  1
  Sn  Sn7  1  0.87259715  0.12028962  0.65021610  1
  Sn  Sn8  1  0.94086833  0.11015638  0.10590751  1
  Sn  Sn9  1  0.05913167  0.88984362  0.89409249  1
  Sn  Sn10  1  0.55913167  0.61015638  0.39409249  1
  Sn  Sn11  1  0.44086833  0.38984362  0.60590751  1
  I  I12  1  0.98926554  0.38108392  0.37963963  1
  I  I13  1  0.01073446  0.61891608  0.62036037  1
  I  I14  1  0.51073446  0.88108392  0.12036037  1
  I  I15  1  0.48926554  0.11891608  0.87963963  1
  F  F16  1  0.92518720  0.11996729  0.48575986  1
  F  F17  1  0.07481280  0.88003271  0.51424014  1
  F  F18  1  0.57481280  0.61996729  0.01424014  1
  F  F19  1  0.42518720  0.38003271  0.98575986  1
  F  F20  1  0.98504505  0.27964381  0.10485778  1
  F  F21  1  0.01495495  0.72035619  0.89514222  1
  F  F22  1  0.51495495  0.77964381  0.39514222  1
  F  F23  1  0.48504505  0.22035619  0.60485778  1
  F  F24  1  0.96523199  0.10546396  0.27535686  1
  F  F25  1  0.03476801  0.89453604  0.72464314  1
  F  F26  1  0.53476801  0.60546396  0.22464314  1
  F  F27  1  0.46523199  0.39453604  0.77535686  1
  F  F28  1  0.48380693  0.16174627  0.15995428  1
  F  F29  1  0.51619307  0.83825373  0.84004572  1
  F  F30  1  0.01619307  0.66174627  0.34004572  1
  F  F31  1  0.98380693  0.33825373  0.65995428  1
  F  F32  1  0.00337821  0.49137421  0.12198646  1
  F  F33  1  -0.00337821  0.50862579  0.87801354  1
  F  F34  1  0.49662179  0.99137421  0.37801354  1
  F  F35  1  0.50337821  0.00862579  0.62198646  1
