# generated using pymatgen
data_Sm3CrS6
_symmetry_space_group_name_H-M   'P 1'
_cell_length_a   3.85217827
_cell_length_b   13.46767884
_cell_length_c   16.18476650
_cell_angle_alpha   90.00000000
_cell_angle_beta   90.00000000
_cell_angle_gamma   90.00000000
_symmetry_Int_Tables_number   1
_chemical_formula_structural   Sm3CrS6
_chemical_formula_sum   'Sm12 Cr4 S24'
_cell_volume   839.66406390
_cell_formula_units_Z   4
loop_
 _symmetry_equiv_pos_site_id
 _symmetry_equiv_pos_as_xyz
  1  'x, y, z'
loop_
 _atom_site_type_symbol
 _atom_site_label
 _atom_site_symmetry_multiplicity
 _atom_site_fract_x
 _atom_site_fract_y
 _atom_site_fract_z
 _atom_site_occupancy
  Sm  Sm0  1  -0.00000000  0.55023005  0.28198593  1
  Sm  Sm1  1  0.00000000  0.44976995  0.71801407  1
  Sm  Sm2  1  0.50000000  0.94976995  0.78198593  1
  Sm  Sm3  1  0.50000000  0.05023005  0.21801407  1
  Sm  Sm4  1  0.00000000  0.75459101  0.09675221  1
  Sm  Sm5  1  0.00000000  0.24540899  0.90324779  1
  Sm  Sm6  1  0.50000000  0.74540899  0.59675221  1
  Sm  Sm7  1  0.50000000  0.25459101  0.40324779  1
  Sm  Sm8  1  0.00000000  0.31924589  0.14869132  1
  Sm  Sm9  1  -0.00000000  0.68075411  0.85130868  1
  Sm  Sm10  1  0.50000000  0.18075411  0.64869132  1
  Sm  Sm11  1  0.50000000  0.81924589  0.35130868  1
  Cr  Cr12  1  0.00000000  0.00000000  0.50000000  1
  Cr  Cr13  1  0.50000000  0.50000000  -0.00000000  1
  Cr  Cr14  1  -0.00000000  0.00000000  -0.00000000  1
  Cr  Cr15  1  0.50000000  0.50000000  0.50000000  1
  S  S16  1  -0.00000000  0.12058504  0.10472700  1
  S  S17  1  -0.00000000  0.87941496  0.89527300  1
  S  S18  1  0.50000000  0.37941496  0.60472700  1
  S  S19  1  0.50000000  0.62058504  0.39527300  1
  S  S20  1  0.00000000  0.18644746  0.28912893  1
  S  S21  1  0.00000000  0.81355254  0.71087107  1
  S  S22  1  0.50000000  0.31355254  0.78912893  1
  S  S23  1  0.50000000  0.68644746  0.21087107  1
  S  S24  1  0.00000000  0.17733940  0.52119889  1
  S  S25  1  -0.00000000  0.82266060  0.47880111  1
  S  S26  1  0.50000000  0.32266060  0.02119889  1
  S  S27  1  0.50000000  0.67733940  0.97880111  1
  S  S28  1  -0.00000000  0.52440013  0.09515569  1
  S  S29  1  -0.00000000  0.47559987  0.90484431  1
  S  S30  1  0.50000000  0.97559987  0.59515569  1
  S  S31  1  0.50000000  0.02440013  0.40484431  1
  S  S32  1  0.00000000  0.10300750  0.75491207  1
  S  S33  1  -0.00000000  0.89699250  0.24508793  1
  S  S34  1  0.50000000  0.39699250  0.25491207  1
  S  S35  1  0.50000000  0.60300750  0.74508793  1
  S  S36  1  0.00000000  0.41851067  0.42734098  1
  S  S37  1  -0.00000000  0.58148933  0.57265902  1
  S  S38  1  0.50000000  0.08148933  0.92734098  1
  S  S39  1  0.50000000  0.91851067  0.07265902  1
