# generated using pymatgen
data_Tb5CuPb3
_symmetry_space_group_name_H-M   'P 1'
_cell_length_a   6.68374292
_cell_length_b   9.23210117
_cell_length_c   9.23210117
_cell_angle_alpha   120.00000182
_cell_angle_beta   90.00000000
_cell_angle_gamma   90.00000000
_symmetry_Int_Tables_number   1
_chemical_formula_structural   Tb5CuPb3
_chemical_formula_sum   'Tb10 Cu2 Pb6'
_cell_volume   493.34584088
_cell_formula_units_Z   2
loop_
 _symmetry_equiv_pos_site_id
 _symmetry_equiv_pos_as_xyz
  1  'x, y, z'
loop_
 _atom_site_type_symbol
 _atom_site_label
 _atom_site_symmetry_multiplicity
 _atom_site_fract_x
 _atom_site_fract_y
 _atom_site_fract_z
 _atom_site_occupancy
  Tb  Tb0  1  0.75000000  0.74608660  0.74608660  1
  Tb  Tb1  1  0.25000000  0.25391340  0.25391340  1
  Tb  Tb2  1  0.75000000  0.00000000  0.25391340  1
  Tb  Tb3  1  0.25000000  1.00000000  0.74608660  1
  Tb  Tb4  1  0.75000000  0.25391340  0.00000000  1
  Tb  Tb5  1  0.25000000  0.74608660  1.00000000  1
  Tb  Tb6  1  -0.00000000  0.66666700  0.33333300  1
  Tb  Tb7  1  -0.00000000  0.33333300  0.66666700  1
  Tb  Tb8  1  0.50000000  0.33333300  0.66666700  1
  Tb  Tb9  1  0.50000000  0.66666700  0.33333300  1
  Cu  Cu10  1  0.00000000  0.00000000  0.00000000  1
  Cu  Cu11  1  0.50000000  0.00000000  0.00000000  1
  Pb  Pb12  1  0.75000000  0.39103173  0.39103173  1
  Pb  Pb13  1  0.25000000  0.60896827  0.60896827  1
  Pb  Pb14  1  0.75000000  0.00000000  0.60896827  1
  Pb  Pb15  1  0.25000000  -0.00000000  0.39103173  1
  Pb  Pb16  1  0.75000000  0.60896827  0.00000000  1
  Pb  Pb17  1  0.25000000  0.39103173  -0.00000000  1
