# generated using pymatgen
data_Tm3Co2Si3
_symmetry_space_group_name_H-M   'P 1'
_cell_length_a   4.05733124
_cell_length_b   5.51877291
_cell_length_c   13.45410465
_cell_angle_alpha   90.00000000
_cell_angle_beta   90.00000000
_cell_angle_gamma   111.56728491
_symmetry_Int_Tables_number   1
_chemical_formula_structural   Tm3Co2Si3
_chemical_formula_sum   'Tm6 Co4 Si6'
_cell_volume   280.16536652
_cell_formula_units_Z   2
loop_
 _symmetry_equiv_pos_site_id
 _symmetry_equiv_pos_as_xyz
  1  'x, y, z'
loop_
 _atom_site_type_symbol
 _atom_site_label
 _atom_site_symmetry_multiplicity
 _atom_site_fract_x
 _atom_site_fract_y
 _atom_site_fract_z
 _atom_site_occupancy
  Tm  Tm0  1  0.36196586  0.72393171  0.25000000  1
  Tm  Tm1  1  0.63803414  0.27606829  0.75000000  1
  Tm  Tm2  1  0.08035119  0.16070238  0.11209560  1
  Tm  Tm3  1  0.91964881  0.83929762  0.88790440  1
  Tm  Tm4  1  0.91964881  0.83929762  0.61209560  1
  Tm  Tm5  1  0.08035119  0.16070238  0.38790440  1
  Co  Co6  1  0.21307690  0.42615380  0.58198492  1
  Co  Co7  1  0.78692310  0.57384620  0.41801508  1
  Co  Co8  1  0.78692310  0.57384620  0.08198492  1
  Co  Co9  1  0.21307690  0.42615380  0.91801508  1
  Si  Si10  1  0.66818083  0.33636167  0.25000000  1
  Si  Si11  1  0.33181917  0.66363833  0.75000000  1
  Si  Si12  1  0.38144075  0.76288149  0.03938266  1
  Si  Si13  1  0.61855925  0.23711851  0.96061734  1
  Si  Si14  1  0.61855925  0.23711851  0.53938266  1
  Si  Si15  1  0.38144075  0.76288149  0.46061734  1
