# generated using pymatgen
data_Tb5BiPd2
_symmetry_space_group_name_H-M   'P 1'
_cell_length_a   7.88124345
_cell_length_b   7.88124345
_cell_length_c   8.85070707
_cell_angle_alpha   116.43820621
_cell_angle_beta   116.43820621
_cell_angle_gamma   90.00000000
_symmetry_Int_Tables_number   1
_chemical_formula_structural   Tb5BiPd2
_chemical_formula_sum   'Tb10 Bi2 Pd4'
_cell_volume   427.08974787
_cell_formula_units_Z   2
loop_
 _symmetry_equiv_pos_site_id
 _symmetry_equiv_pos_as_xyz
  1  'x, y, z'
loop_
 _atom_site_type_symbol
 _atom_site_label
 _atom_site_symmetry_multiplicity
 _atom_site_fract_x
 _atom_site_fract_y
 _atom_site_fract_z
 _atom_site_occupancy
  Tb  Tb0  1  0.00000000  0.00000000  0.00000000  1
  Tb  Tb1  1  0.50000000  0.50000000  0.00000000  1
  Tb  Tb2  1  0.29528436  0.79528436  0.27968464  1
  Tb  Tb3  1  0.70471564  0.20471564  0.72031536  1
  Tb  Tb4  1  0.98440029  0.48440029  0.27968464  1
  Tb  Tb5  1  0.48440029  0.29528436  0.27968464  1
  Tb  Tb6  1  0.20471564  0.01559971  0.72031536  1
  Tb  Tb7  1  0.01559971  0.51559971  0.72031536  1
  Tb  Tb8  1  0.51559971  0.70471564  0.72031536  1
  Tb  Tb9  1  0.79528436  0.98440029  0.27968464  1
  Bi  Bi10  1  0.25000000  0.25000000  0.50000000  1
  Bi  Bi11  1  0.75000000  0.75000000  0.50000000  1
  Pd  Pd12  1  0.63576900  0.13576900  1.00000000  1
  Pd  Pd13  1  0.36423100  0.86423100  0.00000000  1
  Pd  Pd14  1  0.86423100  0.63576900  0.00000000  1
  Pd  Pd15  1  0.13576900  0.36423100  0.00000000  1
