# generated using pymatgen
data_TlV(SO4)2
_symmetry_space_group_name_H-M   'P 1'
_cell_length_a   5.00580060
_cell_length_b   5.00580060
_cell_length_c   8.70348084
_cell_angle_alpha   90.00000000
_cell_angle_beta   90.00000000
_cell_angle_gamma   119.99999973
_symmetry_Int_Tables_number   1
_chemical_formula_structural   TlV(SO4)2
_chemical_formula_sum   'Tl1 V1 S2 O8'
_cell_volume   188.87335831
_cell_formula_units_Z   1
loop_
 _symmetry_equiv_pos_site_id
 _symmetry_equiv_pos_as_xyz
  1  'x, y, z'
loop_
 _atom_site_type_symbol
 _atom_site_label
 _atom_site_symmetry_multiplicity
 _atom_site_fract_x
 _atom_site_fract_y
 _atom_site_fract_z
 _atom_site_occupancy
  Tl  Tl0  1  -0.00000000  -0.00000000  0.50000000  1
  V  V1  1  -0.00000000  -0.00000000  -0.00000000  1
  S  S2  1  0.66666700  0.33333300  0.79253511  1
  S  S3  1  0.33333300  0.66666700  0.20746489  1
  O  O4  1  0.89818752  0.25246048  0.85082760  1
  O  O5  1  0.35427296  0.10181248  0.85082760  1
  O  O6  1  0.64572704  0.74753952  0.14917240  1
  O  O7  1  0.74753952  0.64572704  0.85082760  1
  O  O8  1  0.25246048  0.89818752  0.14917240  1
  O  O9  1  0.10181248  0.35427296  0.14917240  1
  O  O10  1  0.66666700  0.33333300  0.62390760  1
  O  O11  1  0.33333300  0.66666700  0.37609240  1
