# generated using pymatgen
data_Tb5BiPt2
_symmetry_space_group_name_H-M   'P 1'
_cell_length_a   7.84277117
_cell_length_b   7.84277117
_cell_length_c   8.88887878
_cell_angle_alpha   116.17768600
_cell_angle_beta   116.17768600
_cell_angle_gamma   90.00000000
_symmetry_Int_Tables_number   1
_chemical_formula_structural   Tb5BiPt2
_chemical_formula_sum   'Tb10 Bi2 Pt4'
_cell_volume   427.28939101
_cell_formula_units_Z   2
loop_
 _symmetry_equiv_pos_site_id
 _symmetry_equiv_pos_as_xyz
  1  'x, y, z'
loop_
 _atom_site_type_symbol
 _atom_site_label
 _atom_site_symmetry_multiplicity
 _atom_site_fract_x
 _atom_site_fract_y
 _atom_site_fract_z
 _atom_site_occupancy
  Tb  Tb0  1  -0.00000000  0.00000000  -0.00000000  1
  Tb  Tb1  1  0.50000000  0.50000000  -0.00000000  1
  Tb  Tb2  1  0.29271075  0.79271075  0.27146114  1
  Tb  Tb3  1  0.70728925  0.20728925  0.72853886  1
  Tb  Tb4  1  0.97875039  0.47875039  0.27146114  1
  Tb  Tb5  1  0.47875039  0.29271075  0.27146114  1
  Tb  Tb6  1  0.20728925  0.02124961  0.72853886  1
  Tb  Tb7  1  0.02124961  0.52124961  0.72853886  1
  Tb  Tb8  1  0.52124961  0.70728925  0.72853886  1
  Tb  Tb9  1  0.79271075  0.97875039  0.27146114  1
  Bi  Bi10  1  0.25000000  0.25000000  0.50000000  1
  Bi  Bi11  1  0.75000000  0.75000000  0.50000000  1
  Pt  Pt12  1  0.63756131  0.13756131  -0.00000000  1
  Pt  Pt13  1  0.36243869  0.86243869  -0.00000000  1
  Pt  Pt14  1  0.86243869  0.63756131  -0.00000000  1
  Pt  Pt15  1  0.13756131  0.36243869  -0.00000000  1
