# generated using pymatgen
data_Li5OsO6
_symmetry_space_group_name_H-M   'P 1'
_cell_length_a   5.10236416
_cell_length_b   5.10236416
_cell_length_c   14.30922898
_cell_angle_alpha   90.00000000
_cell_angle_beta   90.00000000
_cell_angle_gamma   119.99999786
_symmetry_Int_Tables_number   1
_chemical_formula_structural   Li5OsO6
_chemical_formula_sum   'Li15 Os3 O18'
_cell_volume   322.61887788
_cell_formula_units_Z   3
loop_
 _symmetry_equiv_pos_site_id
 _symmetry_equiv_pos_as_xyz
  1  'x, y, z'
loop_
 _atom_site_type_symbol
 _atom_site_label
 _atom_site_symmetry_multiplicity
 _atom_site_fract_x
 _atom_site_fract_y
 _atom_site_fract_z
 _atom_site_occupancy
  Li  Li0  1  0.22237949  0.44475897  0.66666700  1
  Li  Li1  1  0.22237949  0.77762051  0.33333300  1
  Li  Li2  1  0.55524103  0.77762051  0.00000000  1
  Li  Li3  1  0.55556254  0.11112507  0.16666700  1
  Li  Li4  1  0.55556254  0.44443746  0.83333300  1
  Li  Li5  1  0.88887493  0.44443746  0.50000000  1
  Li  Li6  1  0.23434315  0.46868630  0.16666700  1
  Li  Li7  1  0.23434315  0.76565685  0.83333300  1
  Li  Li8  1  0.53131370  0.76565685  0.50000000  1
  Li  Li9  1  0.55545411  0.11090822  0.66666700  1
  Li  Li10  1  0.55545411  0.44454589  0.33333300  1
  Li  Li11  1  0.88909178  0.44454589  0.00000000  1
  Li  Li12  1  0.87648122  0.75296244  0.16666700  1
  Li  Li13  1  0.87648122  0.12351878  0.83333300  1
  Li  Li14  1  0.24703756  0.12351878  0.50000000  1
  Os  Os15  1  0.89009300  0.78018600  0.66666700  1
  Os  Os16  1  0.89009300  0.10990700  0.33333300  1
  Os  Os17  1  0.21981400  0.10990700  0.00000000  1
  O  O18  1  0.58119508  0.77674190  0.74461630  1
  O  O19  1  0.19554682  0.41880492  0.41128330  1
  O  O20  1  0.19554682  0.77674190  0.58871670  1
  O  O21  1  0.22325810  0.80445318  0.07794930  1
  O  O22  1  0.22325810  0.41880492  0.92205070  1
  O  O23  1  0.58119508  0.80445318  0.25538370  1
  O  O24  1  0.88817519  0.08193842  0.58991105  1
  O  O25  1  0.19376322  0.11182481  0.25657805  1
  O  O26  1  0.19376322  0.08193842  0.74342195  1
  O  O27  1  0.91806158  0.80623678  0.92324405  1
  O  O28  1  0.91806158  0.11182481  0.07675595  1
  O  O29  1  0.88817519  0.80623678  0.41008895  1
  O  O30  1  0.88857267  0.47117621  0.74431669  1
  O  O31  1  0.58260355  0.11142733  0.41098369  1
  O  O32  1  0.58260355  0.47117621  0.58901631  1
  O  O33  1  0.52882379  0.41739645  0.07764969  1
  O  O34  1  0.52882379  0.11142733  0.92235031  1
  O  O35  1  0.88857267  0.41739645  0.25568331  1
