# generated using pymatgen
data_Na3H2SNO8
_symmetry_space_group_name_H-M   'P 1'
_cell_length_a   5.25153222
_cell_length_b   7.03207505
_cell_length_c   10.76816333
_cell_angle_alpha   90.00000000
_cell_angle_beta   102.66665806
_cell_angle_gamma   90.00000000
_symmetry_Int_Tables_number   1
_chemical_formula_structural   Na3H2SNO8
_chemical_formula_sum   'Na6 H4 S2 N2 O16'
_cell_volume   387.98121197
_cell_formula_units_Z   2
loop_
 _symmetry_equiv_pos_site_id
 _symmetry_equiv_pos_as_xyz
  1  'x, y, z'
loop_
 _atom_site_type_symbol
 _atom_site_label
 _atom_site_symmetry_multiplicity
 _atom_site_fract_x
 _atom_site_fract_y
 _atom_site_fract_z
 _atom_site_occupancy
  Na  Na0  1  0.22834350  0.25000000  0.40457562  1
  Na  Na1  1  0.77165650  0.75000000  0.59542438  1
  Na  Na2  1  0.36657415  0.00703130  0.72420890  1
  Na  Na3  1  0.63342585  0.99296870  0.27579110  1
  Na  Na4  1  0.63342585  0.50703130  0.27579110  1
  Na  Na5  1  0.36657415  0.49296870  0.72420890  1
  H  H6  1  0.63338175  0.25000000  0.93966003  1
  H  H7  1  0.36661825  0.75000000  0.06033997  1
  H  H8  1  0.33570097  0.25000000  0.94438557  1
  H  H9  1  0.66429903  0.75000000  0.05561443  1
  S  S10  1  0.82153306  0.25000000  0.57812467  1
  S  S11  1  0.17846694  0.75000000  0.42187533  1
  N  N12  1  0.07184912  0.25000000  0.11945099  1
  N  N13  1  0.92815088  0.75000000  0.88054901  1
  O  O14  1  0.71966512  0.25000000  0.43613669  1
  O  O15  1  0.28033488  0.75000000  0.56386331  1
  O  O16  1  0.31314719  0.25000000  0.17197113  1
  O  O17  1  0.68685281  0.75000000  0.82802887  1
  O  O18  1  0.90338552  0.25000000  0.18790712  1
  O  O19  1  0.09661448  0.75000000  0.81209288  1
  O  O20  1  0.00139109  0.25000000  0.99954201  1
  O  O21  1  0.99860891  0.75000000  0.00045799  1
  O  O22  1  0.11442145  0.25000000  0.60350184  1
  O  O23  1  0.88557855  0.75000000  0.39649816  1
  O  O24  1  0.26894073  0.57683383  0.36576190  1
  O  O25  1  0.73105927  0.42316617  0.63423810  1
  O  O26  1  0.73105927  0.07683383  0.63423810  1
  O  O27  1  0.26894073  0.92316617  0.36576190  1
  O  O28  1  0.45563397  0.25000000  0.88586363  1
  O  O29  1  0.54436603  0.75000000  0.11413637  1
