# generated using pymatgen
data_Mn3Co4P6(HO6)4
_symmetry_space_group_name_H-M   'P 1'
_cell_length_a   6.60130283
_cell_length_b   8.04509912
_cell_length_c   9.68495748
_cell_angle_alpha   104.61262772
_cell_angle_beta   108.96788637
_cell_angle_gamma   101.44909257
_symmetry_Int_Tables_number   1
_chemical_formula_structural   Mn3Co4P6(HO6)4
_chemical_formula_sum   'Mn3 Co4 P6 H4 O24'
_cell_volume   448.03059465
_cell_formula_units_Z   1
loop_
 _symmetry_equiv_pos_site_id
 _symmetry_equiv_pos_as_xyz
  1  'x, y, z'
loop_
 _atom_site_type_symbol
 _atom_site_label
 _atom_site_symmetry_multiplicity
 _atom_site_fract_x
 _atom_site_fract_y
 _atom_site_fract_z
 _atom_site_occupancy
  Mn  Mn0  1  -0.00000000  0.50000000  0.50000000  1
  Mn  Mn1  1  0.27961464  0.31074589  0.78465645  1
  Mn  Mn2  1  0.72038536  0.68925411  0.21534355  1
  Co  Co3  1  0.61345918  0.04331482  0.39266124  1
  Co  Co4  1  0.38654082  0.95668518  0.60733876  1
  Co  Co5  1  0.05400541  0.20987630  0.01615212  1
  Co  Co6  1  0.94599459  0.79012370  0.98384788  1
  P  P7  1  0.22623846  0.64941436  0.27562727  1
  P  P8  1  0.77376154  0.35058564  0.72437273  1
  P  P9  1  0.09091999  0.08311964  0.32676392  1
  P  P10  1  0.90908001  0.91688036  0.67323608  1
  P  P11  1  0.58641702  0.26132798  0.12933839  1
  P  P12  1  0.41358298  0.73867202  0.87066161  1
  H  H13  1  0.18202987  0.37851680  0.30617081  1
  H  H14  1  0.81797013  0.62148320  0.69382919  1
  H  H15  1  0.36912915  0.91850618  0.06072524  1
  H  H16  1  0.63087085  0.08149382  0.93927476  1
  O  O17  1  0.11939426  0.03051130  0.66267221  1
  O  O18  1  0.88060574  0.96948870  0.33732779  1
  O  O19  1  0.44785713  0.74889397  0.27152233  1
  O  O20  1  0.55214287  0.25110603  0.72847767  1
  O  O21  1  0.12111022  0.28735693  0.39894767  1
  O  O22  1  0.87888978  0.71264307  0.60105233  1
  O  O23  1  0.01929608  0.67416099  0.16015309  1
  O  O24  1  0.98070392  0.32583901  0.83984691  1
  O  O25  1  0.20367073  0.43904165  0.22304822  1
  O  O26  1  0.79632927  0.56095835  0.77695178  1
  O  O27  1  0.05805573  0.04303188  0.15290782  1
  O  O28  1  0.94194427  0.95696812  0.84709218  1
  O  O29  1  0.37800550  0.28540470  0.01317984  1
  O  O30  1  0.62199450  0.71459530  0.98682016  1
  O  O31  1  0.22123334  0.69266232  0.44060389  1
  O  O32  1  0.77876666  0.30733768  0.55939611  1
  O  O33  1  0.52081086  0.10914366  0.18940918  1
  O  O34  1  0.47918914  0.89085634  0.81059082  1
  O  O35  1  0.73456412  0.44121931  0.25984455  1
  O  O36  1  0.26543588  0.55878069  0.74015545  1
  O  O37  1  0.30423220  0.03803330  0.41302240  1
  O  O38  1  0.69576780  0.96196670  0.58697760  1
  O  O39  1  0.72689459  0.20218682  0.02682723  1
  O  O40  1  0.27310541  0.79781318  0.97317277  1
