# generated using pymatgen
data_RbSrCl3
_symmetry_space_group_name_H-M   'P 1'
_cell_length_a   7.84950969
_cell_length_b   7.91933589
_cell_length_c   11.22331581
_cell_angle_alpha   90.00000000
_cell_angle_beta   90.00000000
_cell_angle_gamma   89.54064930
_symmetry_Int_Tables_number   1
_chemical_formula_structural   RbSrCl3
_chemical_formula_sum   'Rb4 Sr4 Cl12'
_cell_volume   697.65147938
_cell_formula_units_Z   4
loop_
 _symmetry_equiv_pos_site_id
 _symmetry_equiv_pos_as_xyz
  1  'x, y, z'
loop_
 _atom_site_type_symbol
 _atom_site_label
 _atom_site_symmetry_multiplicity
 _atom_site_fract_x
 _atom_site_fract_y
 _atom_site_fract_z
 _atom_site_occupancy
  Rb  Rb0  1  0.02579913  0.51025525  0.75000000  1
  Rb  Rb1  1  0.97420087  0.48974475  0.25000000  1
  Rb  Rb2  1  0.52490353  0.99284611  0.75000000  1
  Rb  Rb3  1  0.47509647  0.00715389  0.25000000  1
  Sr  Sr4  1  0.50000000  0.50000000  0.00000000  1
  Sr  Sr5  1  0.50000000  0.50000000  0.50000000  1
  Sr  Sr6  1  -0.00000000  0.00000000  0.00000000  1
  Sr  Sr7  1  -0.00000000  0.00000000  0.50000000  1
  Cl  Cl8  1  0.80342598  0.30238755  0.95044651  1
  Cl  Cl9  1  0.19657402  0.69761245  0.04955349  1
  Cl  Cl10  1  0.19657402  0.69761245  0.45044651  1
  Cl  Cl11  1  0.80342598  0.30238755  0.54955349  1
  Cl  Cl12  1  0.69032480  0.80829255  0.47520796  1
  Cl  Cl13  1  0.30967520  0.19170745  0.52479204  1
  Cl  Cl14  1  0.30967520  0.19170745  0.97520796  1
  Cl  Cl15  1  0.69032480  0.80829255  0.02479204  1
  Cl  Cl16  1  0.45434470  0.57075571  0.75000000  1
  Cl  Cl17  1  0.54565530  0.42924429  0.25000000  1
  Cl  Cl18  1  0.00194364  0.92228344  0.75000000  1
  Cl  Cl19  1  0.99805636  0.07771656  0.25000000  1
