# generated using pymatgen
data_Rb2CeTa6(Br5O)3
_symmetry_space_group_name_H-M   'P 1'
_cell_length_a   9.59931446
_cell_length_b   9.59931446
_cell_length_c   18.10592973
_cell_angle_alpha   90.00000000
_cell_angle_beta   90.00000000
_cell_angle_gamma   119.99999933
_symmetry_Int_Tables_number   1
_chemical_formula_structural   Rb2CeTa6(Br5O)3
_chemical_formula_sum   'Rb4 Ce2 Ta12 Br30 O6'
_cell_volume   1444.88041026
_cell_formula_units_Z   2
loop_
 _symmetry_equiv_pos_site_id
 _symmetry_equiv_pos_as_xyz
  1  'x, y, z'
loop_
 _atom_site_type_symbol
 _atom_site_label
 _atom_site_symmetry_multiplicity
 _atom_site_fract_x
 _atom_site_fract_y
 _atom_site_fract_z
 _atom_site_occupancy
  Rb  Rb0  1  0.66666700  0.33333300  0.95251283  1
  Rb  Rb1  1  0.33333300  0.66666700  0.04748717  1
  Rb  Rb2  1  0.66666700  0.33333300  0.54748557  1
  Rb  Rb3  1  0.33333300  0.66666700  0.45251443  1
  Ce  Ce4  1  0.33333300  0.66666700  0.75000074  1
  Ce  Ce5  1  0.66666700  0.33333300  0.24999926  1
  Ta  Ta6  1  0.81062691  0.82732869  0.81424344  1
  Ta  Ta7  1  0.18937309  0.17267131  0.18575656  1
  Ta  Ta8  1  0.01670178  0.18937309  0.81424344  1
  Ta  Ta9  1  0.01669867  0.82732584  0.68575624  1
  Ta  Ta10  1  0.98329822  0.81062691  0.18575656  1
  Ta  Ta11  1  0.98330133  0.17267416  0.31424376  1
  Ta  Ta12  1  0.17267131  0.98329822  0.81424344  1
  Ta  Ta13  1  0.17267416  0.18937283  0.68575624  1
  Ta  Ta14  1  0.82732869  0.01670178  0.18575656  1
  Ta  Ta15  1  0.82732584  0.81062717  0.31424376  1
  Ta  Ta16  1  0.81062717  0.98330133  0.68575624  1
  Ta  Ta17  1  0.18937283  0.01669867  0.31424376  1
  Br  Br18  1  0.78576864  0.57154712  0.75000003  1
  Br  Br19  1  0.21423136  0.42845288  0.24999997  1
  Br  Br20  1  0.78577847  0.21423136  0.75000003  1
  Br  Br21  1  0.21422153  0.78576864  0.24999997  1
  Br  Br22  1  0.42845288  0.21422153  0.75000003  1
  Br  Br23  1  0.57154712  0.78577847  0.24999997  1
  Br  Br24  1  0.79573423  0.01903208  0.91472935  1
  Br  Br25  1  0.20426577  0.98096792  0.08527065  1
  Br  Br26  1  0.22329785  0.20426577  0.91472935  1
  Br  Br27  1  0.22329861  0.01903245  0.58527068  1
  Br  Br28  1  0.77670215  0.79573423  0.08527065  1
  Br  Br29  1  0.77670139  0.98096755  0.41472932  1
  Br  Br30  1  0.98096792  0.77670215  0.91472935  1
  Br  Br31  1  0.98096755  0.20426615  0.58527068  1
  Br  Br32  1  0.01903208  0.22329785  0.08527065  1
  Br  Br33  1  0.01903245  0.79573385  0.41472932  1
  Br  Br34  1  0.79573385  0.77670139  0.58527068  1
  Br  Br35  1  0.20426615  0.22329861  0.41472932  1
  Br  Br36  1  0.52915182  0.60330520  0.88379303  1
  Br  Br37  1  0.47084818  0.39669480  0.11620697  1
  Br  Br38  1  0.07415338  0.47084818  0.88379303  1
  Br  Br39  1  0.07415325  0.60330501  0.61620708  1
  Br  Br40  1  0.92584662  0.52915182  0.11620697  1
  Br  Br41  1  0.92584675  0.39669499  0.38379292  1
  Br  Br42  1  0.39669480  0.92584662  0.88379303  1
  Br  Br43  1  0.39669499  0.47084824  0.61620708  1
  Br  Br44  1  0.60330520  0.07415338  0.11620697  1
  Br  Br45  1  0.60330501  0.52915176  0.38379292  1
  Br  Br46  1  0.52915176  0.92584675  0.61620708  1
  Br  Br47  1  0.47084824  0.07415325  0.38379292  1
  O  O48  1  0.18138831  0.36277444  0.75000012  1
  O  O49  1  0.81861169  0.63722556  0.24999988  1
  O  O50  1  0.18138613  0.81861169  0.75000012  1
  O  O51  1  0.81861387  0.18138831  0.24999988  1
  O  O52  1  0.63722556  0.81861387  0.75000012  1
  O  O53  1  0.36277444  0.18138613  0.24999988  1
