# generated using pymatgen
data_RbZrF5
_symmetry_space_group_name_H-M   'P 1'
_cell_length_a   7.75018675
_cell_length_b   8.85036178
_cell_length_c   11.15453186
_cell_angle_alpha   73.96684381
_cell_angle_beta   70.31024913
_cell_angle_gamma   64.51142768
_symmetry_Int_Tables_number   1
_chemical_formula_structural   RbZrF5
_chemical_formula_sum   'Rb6 Zr6 F30'
_cell_volume   642.46710568
_cell_formula_units_Z   6
loop_
 _symmetry_equiv_pos_site_id
 _symmetry_equiv_pos_as_xyz
  1  'x, y, z'
loop_
 _atom_site_type_symbol
 _atom_site_label
 _atom_site_symmetry_multiplicity
 _atom_site_fract_x
 _atom_site_fract_y
 _atom_site_fract_z
 _atom_site_occupancy
  Rb  Rb0  1  0.72369736  0.67605842  0.07988766  1
  Rb  Rb1  1  0.27630264  0.32394158  0.92011234  1
  Rb  Rb2  1  0.21592860  0.00584444  0.26649515  1
  Rb  Rb3  1  0.78407140  0.99415556  0.73350485  1
  Rb  Rb4  1  0.24377101  0.65567466  0.57180683  1
  Rb  Rb5  1  0.75622899  0.34432534  0.42819317  1
  Zr  Zr6  1  0.26583751  0.15907206  0.58079657  1
  Zr  Zr7  1  0.73416249  0.84092794  0.41920343  1
  Zr  Zr8  1  0.76063330  0.16703624  0.06777047  1
  Zr  Zr9  1  0.23936670  0.83296376  0.93222953  1
  Zr  Zr10  1  0.21796745  0.52954380  0.24432396  1
  Zr  Zr11  1  0.78203255  0.47045620  0.75567604  1
  F  F12  1  0.10502968  0.38182144  0.69764969  1
  F  F13  1  0.89497032  0.61817856  0.30235031  1
  F  F14  1  0.17774669  0.37055381  0.43856193  1
  F  F15  1  0.82225331  0.62944619  0.56143807  1
  F  F16  1  0.47013761  0.22075396  0.61151969  1
  F  F17  1  0.52986239  0.77924604  0.38848031  1
  F  F18  1  0.08794254  0.05538963  0.03351252  1
  F  F19  1  0.91205746  0.94461037  0.96648748  1
  F  F20  1  0.31458408  0.73876927  0.12091537  1
  F  F21  1  0.68541592  0.26123073  0.87908463  1
  F  F22  1  0.07435589  0.73287272  0.35921458  1
  F  F23  1  0.92564411  0.26712728  0.64078542  1
  F  F24  1  0.16551376  0.01662751  0.52658564  1
  F  F25  1  0.83448624  0.98337249  0.47341436  1
  F  F26  1  0.15636934  0.34221919  0.21772702  1
  F  F27  1  0.84363066  0.65778081  0.78227298  1
  F  F28  1  0.49165209  0.38554244  0.11512203  1
  F  F29  1  0.50834791  0.61445756  0.88487797  1
  F  F30  1  0.43283919  0.51004029  0.31910667  1
  F  F31  1  0.56716081  0.48995971  0.68089333  1
  F  F32  1  0.54452931  0.07976327  0.09619832  1
  F  F33  1  0.45547069  0.92023673  0.90380168  1
  F  F34  1  0.49231052  0.09590793  0.40036396  1
  F  F35  1  0.50768948  0.90409207  0.59963604  1
  F  F36  1  0.18907108  0.04915858  0.77518506  1
  F  F37  1  0.81092892  0.95084142  0.22481494  1
  F  F38  1  0.81369643  0.25268293  0.19573630  1
  F  F39  1  0.18630357  0.74731707  0.80426370  1
  F  F40  1  0.13383351  0.62998598  0.05748177  1
  F  F41  1  0.86616649  0.37001402  0.94251823  1
