# generated using pymatgen
data_PrZr6(PO4)9
_symmetry_space_group_name_H-M   'P 1'
_cell_length_a   8.91792532
_cell_length_b   8.91792532
_cell_length_c   23.38825171
_cell_angle_alpha   90.00000000
_cell_angle_beta   90.00000000
_cell_angle_gamma   120.00000463
_symmetry_Int_Tables_number   1
_chemical_formula_structural   PrZr6(PO4)9
_chemical_formula_sum   'Pr2 Zr12 P18 O72'
_cell_volume   1610.85345670
_cell_formula_units_Z   2
loop_
 _symmetry_equiv_pos_site_id
 _symmetry_equiv_pos_as_xyz
  1  'x, y, z'
loop_
 _atom_site_type_symbol
 _atom_site_label
 _atom_site_symmetry_multiplicity
 _atom_site_fract_x
 _atom_site_fract_y
 _atom_site_fract_z
 _atom_site_occupancy
  Pr  Pr0  1  0.00000000  0.00000000  -0.00000000  1
  Pr  Pr1  1  0.00000000  0.00000000  0.50000000  1
  Zr  Zr2  1  0.66666700  0.33333300  0.97512004  1
  Zr  Zr3  1  0.33333300  0.66666700  0.02487996  1
  Zr  Zr4  1  0.33333300  0.66666700  0.52487996  1
  Zr  Zr5  1  0.66666700  0.33333300  0.47512004  1
  Zr  Zr6  1  0.00000000  0.00000000  0.84930658  1
  Zr  Zr7  1  0.00000000  0.00000000  0.15069342  1
  Zr  Zr8  1  0.00000000  0.00000000  0.65069342  1
  Zr  Zr9  1  0.00000000  0.00000000  0.34930658  1
  Zr  Zr10  1  0.66666700  0.33333300  0.68694612  1
  Zr  Zr11  1  0.33333300  0.66666700  0.31305388  1
  Zr  Zr12  1  0.33333300  0.66666700  0.81305388  1
  Zr  Zr13  1  0.66666700  0.33333300  0.18694612  1
  P  P14  1  0.62517846  0.94806550  0.92022872  1
  P  P15  1  0.37482154  0.05193450  0.07977128  1
  P  P16  1  0.32288704  0.37482154  0.92022872  1
  P  P17  1  0.67711296  0.05193450  0.57977128  1
  P  P18  1  0.67711296  0.62517846  0.07977128  1
  P  P19  1  0.32288704  0.94806550  0.42022872  1
  P  P20  1  0.05193450  0.67711296  0.92022872  1
  P  P21  1  0.94806550  0.62517846  0.57977128  1
  P  P22  1  0.94806550  0.32288704  0.07977128  1
  P  P23  1  0.05193450  0.37482154  0.42022872  1
  P  P24  1  0.37482154  0.32288704  0.57977128  1
  P  P25  1  0.62517846  0.67711296  0.42022872  1
  P  P26  1  0.70765064  0.70765064  0.75000000  1
  P  P27  1  0.29234936  0.29234936  0.25000000  1
  P  P28  1  0.00000000  0.29234936  0.75000000  1
  P  P29  1  1.00000000  0.70765064  0.25000000  1
  P  P30  1  0.29234936  0.00000000  0.75000000  1
  P  P31  1  0.70765064  1.00000000  0.25000000  1
  O  O32  1  0.55000373  0.82819513  0.97260521  1
  O  O33  1  0.44999627  0.17180487  0.02739479  1
  O  O34  1  0.27819140  0.44999627  0.97260521  1
  O  O35  1  0.72180860  0.17180487  0.52739479  1
  O  O36  1  0.72180860  0.55000373  0.02739479  1
  O  O37  1  0.27819140  0.82819513  0.47260521  1
  O  O38  1  0.17180487  0.72180860  0.97260521  1
  O  O39  1  0.82819513  0.55000373  0.52739479  1
  O  O40  1  0.82819513  0.27819140  0.02739479  1
  O  O41  1  0.17180487  0.44999627  0.47260521  1
  O  O42  1  0.44999627  0.27819140  0.52739479  1
  O  O43  1  0.55000373  0.72180860  0.47260521  1
  O  O44  1  0.62167852  0.11737697  0.92861227  1
  O  O45  1  0.37832148  0.88262303  0.07138773  1
  O  O46  1  0.49569846  0.37832148  0.92861227  1
  O  O47  1  0.50430154  0.88262303  0.57138773  1
  O  O48  1  0.50430154  0.62167852  0.07138773  1
  O  O49  1  0.49569846  0.11737697  0.42861227  1
  O  O50  1  0.88262303  0.50430154  0.92861227  1
  O  O51  1  0.11737697  0.62167852  0.57138773  1
  O  O52  1  0.11737697  0.49569846  0.07138773  1
  O  O53  1  0.88262303  0.37832148  0.42861227  1
  O  O54  1  0.37832148  0.49569846  0.57138773  1
  O  O55  1  0.62167852  0.50430154  0.42861227  1
  O  O56  1  0.82169439  0.99540352  0.91754592  1
  O  O57  1  0.17830561  0.00459648  0.08245408  1
  O  O58  1  0.17370913  0.17830561  0.91754592  1
  O  O59  1  0.82629087  0.00459648  0.58245408  1
  O  O60  1  0.82629087  0.82169439  0.08245408  1
  O  O61  1  0.17370913  0.99540352  0.41754592  1
  O  O62  1  0.00459648  0.82629087  0.91754592  1
  O  O63  1  0.99540352  0.82169439  0.58245408  1
  O  O64  1  0.99540352  0.17370913  0.08245408  1
  O  O65  1  0.00459648  0.17830561  0.41754592  1
  O  O66  1  0.17830561  0.17370913  0.58245408  1
  O  O67  1  0.82169439  0.82629087  0.41754592  1
  O  O68  1  0.96969502  0.17484771  0.80307231  1
  O  O69  1  0.03030498  0.82515229  0.19692769  1
  O  O70  1  0.20515268  0.03030498  0.80307231  1
  O  O71  1  0.79484732  0.82515229  0.69692769  1
  O  O72  1  0.79484732  0.96969502  0.19692769  1
  O  O73  1  0.20515268  0.17484771  0.30307231  1
  O  O74  1  0.82515229  0.79484732  0.80307231  1
  O  O75  1  0.17484771  0.96969502  0.69692769  1
  O  O76  1  0.17484771  0.20515268  0.19692769  1
  O  O77  1  0.82515229  0.03030498  0.30307231  1
  O  O78  1  0.03030498  0.20515268  0.69692769  1
  O  O79  1  0.96969502  0.79484732  0.30307231  1
  O  O80  1  0.53068182  0.85852745  0.86521405  1
  O  O81  1  0.46931818  0.14147255  0.13478595  1
  O  O82  1  0.32784563  0.46931818  0.86521405  1
  O  O83  1  0.67215437  0.14147255  0.63478595  1
  O  O84  1  0.67215437  0.53068182  0.13478595  1
  O  O85  1  0.32784563  0.85852745  0.36521405  1
  O  O86  1  0.14147255  0.67215437  0.86521405  1
  O  O87  1  0.85852745  0.53068182  0.63478595  1
  O  O88  1  0.85852745  0.32784563  0.13478595  1
  O  O89  1  0.14147255  0.46931818  0.36521405  1
  O  O90  1  0.46931818  0.32784563  0.63478595  1
  O  O91  1  0.53068182  0.67215437  0.36521405  1
  O  O92  1  0.53080667  0.69027276  0.76041841  1
  O  O93  1  0.46919333  0.30972724  0.23958159  1
  O  O94  1  0.15946608  0.46919333  0.76041841  1
  O  O95  1  0.84053392  0.30972724  0.73958159  1
  O  O96  1  0.84053392  0.53080667  0.23958159  1
  O  O97  1  0.15946608  0.69027276  0.26041841  1
  O  O98  1  0.30972724  0.84053392  0.76041841  1
  O  O99  1  0.69027276  0.53080667  0.73958159  1
  O  O100  1  0.69027276  0.15946608  0.23958159  1
  O  O101  1  0.30972724  0.46919333  0.26041841  1
  O  O102  1  0.46919333  0.15946608  0.73958159  1
  O  O103  1  0.53080667  0.84053392  0.26041841  1
