# generated using pymatgen
data_Pr2SiS5
_symmetry_space_group_name_H-M   'P 1'
_cell_length_a   7.87270533
_cell_length_b   7.60979358
_cell_length_c   12.60518042
_cell_angle_alpha   90.00000000
_cell_angle_beta   90.00000000
_cell_angle_gamma   101.26912837
_symmetry_Int_Tables_number   1
_chemical_formula_structural   Pr2SiS5
_chemical_formula_sum   'Pr8 Si4 S20'
_cell_volume   740.61245764
_cell_formula_units_Z   4
loop_
 _symmetry_equiv_pos_site_id
 _symmetry_equiv_pos_as_xyz
  1  'x, y, z'
loop_
 _atom_site_type_symbol
 _atom_site_label
 _atom_site_symmetry_multiplicity
 _atom_site_fract_x
 _atom_site_fract_y
 _atom_site_fract_z
 _atom_site_occupancy
  Pr  Pr0  1  0.13202465  0.15965321  0.66412836  1
  Pr  Pr1  1  0.86797535  0.84034679  0.33587164  1
  Pr  Pr2  1  0.36797535  0.84034679  0.16412836  1
  Pr  Pr3  1  0.63202465  0.15965321  0.83587164  1
  Pr  Pr4  1  0.04197758  0.24037175  0.09428747  1
  Pr  Pr5  1  0.95802242  0.75962825  0.90571253  1
  Pr  Pr6  1  0.45802242  0.75962825  0.59428747  1
  Pr  Pr7  1  0.54197758  0.24037175  0.40571253  1
  Si  Si8  1  0.09393586  0.33336681  0.38367728  1
  Si  Si9  1  0.90606414  0.66663319  0.61632272  1
  Si  Si10  1  0.40606414  0.66663319  0.88367728  1
  Si  Si11  1  0.59393586  0.33336681  0.11632272  1
  S  S12  1  0.38605782  0.17479517  0.02921641  1
  S  S13  1  0.61394218  0.82520483  0.97078359  1
  S  S14  1  0.11394218  0.82520483  0.52921641  1
  S  S15  1  0.88605782  0.17479517  0.47078359  1
  S  S16  1  0.19334449  0.13111476  0.29607712  1
  S  S17  1  0.80665551  0.86888524  0.70392288  1
  S  S18  1  0.30665551  0.86888524  0.79607712  1
  S  S19  1  0.69334449  0.13111476  0.20392288  1
  S  S20  1  0.04821116  0.52731444  0.27224122  1
  S  S21  1  0.95178884  0.47268556  0.72775878  1
  S  S22  1  0.45178884  0.47268556  0.77224122  1
  S  S23  1  0.54821116  0.52731444  0.22775878  1
  S  S24  1  0.49716430  0.13636733  0.62165243  1
  S  S25  1  0.50283570  0.86363267  0.37834757  1
  S  S26  1  0.00283570  0.86363267  0.12165243  1
  S  S27  1  0.99716430  0.13636733  0.87834757  1
  S  S28  1  0.22001531  0.57905304  0.00326609  1
  S  S29  1  0.77998469  0.42094696  0.99673391  1
  S  S30  1  0.27998469  0.42094696  0.50326609  1
  S  S31  1  0.72001531  0.57905304  0.49673391  1
