# generated using pymatgen
data_Rb2Zn2(MoO4)3
_symmetry_space_group_name_H-M   'P 1'
_cell_length_a   7.19193730
_cell_length_b   9.37722970
_cell_length_c   19.80617702
_cell_angle_alpha   90.00000000
_cell_angle_beta   90.96140645
_cell_angle_gamma   90.00000000
_symmetry_Int_Tables_number   1
_chemical_formula_structural   Rb2Zn2(MoO4)3
_chemical_formula_sum   'Rb8 Zn8 Mo12 O48'
_cell_volume   1335.54941221
_cell_formula_units_Z   4
loop_
 _symmetry_equiv_pos_site_id
 _symmetry_equiv_pos_as_xyz
  1  'x, y, z'
loop_
 _atom_site_type_symbol
 _atom_site_label
 _atom_site_symmetry_multiplicity
 _atom_site_fract_x
 _atom_site_fract_y
 _atom_site_fract_z
 _atom_site_occupancy
  Rb  Rb0  1  0.20484960  0.53076584  0.40816511  1
  Rb  Rb1  1  0.79515040  0.46923416  0.59183489  1
  Rb  Rb2  1  0.29515040  0.03076584  0.09183489  1
  Rb  Rb3  1  0.70484960  0.96923416  0.90816511  1
  Rb  Rb4  1  0.69070308  0.61663208  0.28726436  1
  Rb  Rb5  1  0.30929692  0.38336792  0.71273564  1
  Rb  Rb6  1  0.80929692  0.11663208  0.21273564  1
  Rb  Rb7  1  0.19070308  0.88336792  0.78726436  1
  Zn  Zn8  1  0.37544372  0.90936571  0.43680089  1
  Zn  Zn9  1  0.62455628  0.09063429  0.56319911  1
  Zn  Zn10  1  0.12455628  0.40936571  0.06319911  1
  Zn  Zn11  1  0.87544372  0.59063429  0.93680089  1
  Zn  Zn12  1  0.40576812  0.64445835  0.13538175  1
  Zn  Zn13  1  0.59423188  0.35554165  0.86461825  1
  Zn  Zn14  1  0.09423188  0.14445835  0.36461825  1
  Zn  Zn15  1  0.90576812  0.85554165  0.63538175  1
  Mo  Mo16  1  0.90035382  0.72292169  0.09824618  1
  Mo  Mo17  1  0.09964618  0.27707831  0.90175382  1
  Mo  Mo18  1  0.59964618  0.22292169  0.40175382  1
  Mo  Mo19  1  0.40035382  0.77707831  0.59824618  1
  Mo  Mo20  1  0.22506682  0.82825643  0.27427223  1
  Mo  Mo21  1  0.77493318  0.17174357  0.72572777  1
  Mo  Mo22  1  0.27493318  0.32825643  0.22572777  1
  Mo  Mo23  1  0.72506682  0.67174357  0.77427223  1
  Mo  Mo24  1  0.88016132  0.84318811  0.46468607  1
  Mo  Mo25  1  0.11983868  0.15681189  0.53531393  1
  Mo  Mo26  1  0.61983868  0.34318811  0.03531393  1
  Mo  Mo27  1  0.38016132  0.65681189  0.96468607  1
  O  O28  1  0.13377865  0.28971004  0.15038532  1
  O  O29  1  0.86622135  0.71028996  0.84961468  1
  O  O30  1  0.36622135  0.78971004  0.34961468  1
  O  O31  1  0.63377865  0.21028996  0.65038532  1
  O  O32  1  0.11243437  0.99910604  0.28593799  1
  O  O33  1  0.88756563  0.00089396  0.71406201  1
  O  O34  1  0.38756563  0.49910604  0.21406201  1
  O  O35  1  0.61243437  0.50089396  0.78593799  1
  O  O36  1  0.13167600  0.31914449  0.30082705  1
  O  O37  1  0.86832400  0.68085551  0.69917295  1
  O  O38  1  0.36832400  0.81914449  0.19917295  1
  O  O39  1  0.63167600  0.18085551  0.80082705  1
  O  O40  1  0.05626987  0.69360170  0.26695314  1
  O  O41  1  0.94373013  0.30639830  0.73304686  1
  O  O42  1  0.44373013  0.19360170  0.23304686  1
  O  O43  1  0.55626987  0.80639830  0.76695314  1
  O  O44  1  0.69721325  0.65986739  0.14172360  1
  O  O45  1  0.30278675  0.34013261  0.85827640  1
  O  O46  1  0.80278675  0.15986739  0.35827640  1
  O  O47  1  0.19721325  0.84013261  0.64172360  1
  O  O48  1  0.41077538  0.75215370  0.04325916  1
  O  O49  1  0.58922462  0.24784630  0.95674084  1
  O  O50  1  0.08922462  0.25215370  0.45674084  1
  O  O51  1  0.91077538  0.74784630  0.54325916  1
  O  O52  1  0.86855709  0.70554677  0.40523362  1
  O  O53  1  0.13144291  0.29445323  0.59476638  1
  O  O54  1  0.63144291  0.20554677  0.09476638  1
  O  O55  1  0.36855709  0.79445323  0.90523362  1
  O  O56  1  0.95643316  0.89289641  0.13085366  1
  O  O57  1  0.04356684  0.10710359  0.86914634  1
  O  O58  1  0.54356684  0.39289641  0.36914634  1
  O  O59  1  0.45643316  0.60710359  0.63085366  1
  O  O60  1  0.84234749  0.43630584  0.04040722  1
  O  O61  1  0.15765251  0.56369416  0.95959278  1
  O  O62  1  0.65765251  0.93630584  0.45959278  1
  O  O63  1  0.34234749  0.06369416  0.54040722  1
  O  O64  1  0.10678485  0.60849976  0.11099925  1
  O  O65  1  0.89321515  0.39150024  0.88900075  1
  O  O66  1  0.39321515  0.10849976  0.38900075  1
  O  O67  1  0.60678485  0.89150024  0.61099925  1
  O  O68  1  0.85319720  0.74792012  0.00870695  1
  O  O69  1  0.14680280  0.25207988  0.99129305  1
  O  O70  1  0.64680280  0.24792012  0.49129305  1
  O  O71  1  0.35319720  0.75207988  0.50870695  1
  O  O72  1  0.08253244  0.95459378  0.43955784  1
  O  O73  1  0.91746756  0.04540622  0.56044216  1
  O  O74  1  0.41746756  0.45459378  0.06044216  1
  O  O75  1  0.58253244  0.54540622  0.93955784  1
