# generated using pymatgen
data_NaGaGeO4
_symmetry_space_group_name_H-M   'P 1'
_cell_length_a   8.46701565
_cell_length_b   8.97357571
_cell_length_c   15.86598156
_cell_angle_alpha   89.80554760
_cell_angle_beta   90.00000000
_cell_angle_gamma   90.00000000
_symmetry_Int_Tables_number   1
_chemical_formula_structural   NaGaGeO4
_chemical_formula_sum   'Na12 Ga12 Ge12 O48'
_cell_volume   1205.48091144
_cell_formula_units_Z   12
loop_
 _symmetry_equiv_pos_site_id
 _symmetry_equiv_pos_as_xyz
  1  'x, y, z'
loop_
 _atom_site_type_symbol
 _atom_site_label
 _atom_site_symmetry_multiplicity
 _atom_site_fract_x
 _atom_site_fract_y
 _atom_site_fract_z
 _atom_site_occupancy
  Na  Na0  1  0.52228450  0.22218065  0.56738215  1
  Na  Na1  1  0.47771550  0.77781935  0.43261785  1
  Na  Na2  1  0.02228450  0.27781935  0.93261785  1
  Na  Na3  1  0.97771550  0.72218065  0.06738215  1
  Na  Na4  1  0.47221709  0.74930706  0.74711277  1
  Na  Na5  1  0.52778291  0.25069294  0.25288723  1
  Na  Na6  1  0.97221709  0.75069294  0.75288723  1
  Na  Na7  1  0.02778291  0.24930706  0.24711277  1
  Na  Na8  1  0.95047500  0.25928878  0.59192112  1
  Na  Na9  1  0.04952500  0.74071122  0.40807888  1
  Na  Na10  1  0.45047500  0.24071122  0.90807888  1
  Na  Na11  1  0.54952500  0.75928878  0.09192112  1
  Ga  Ga12  1  0.78071103  0.88888325  0.57926378  1
  Ga  Ga13  1  0.21928897  0.11111675  0.42073622  1
  Ga  Ga14  1  0.28071103  0.61111675  0.92073622  1
  Ga  Ga15  1  0.71928897  0.38888325  0.07926378  1
  Ga  Ga16  1  0.77676838  0.93725842  0.90854991  1
  Ga  Ga17  1  0.22323162  0.06274158  0.09145009  1
  Ga  Ga18  1  0.27676838  0.56274158  0.59145009  1
  Ga  Ga19  1  0.72323162  0.43725842  0.40854991  1
  Ga  Ga20  1  0.28114081  0.08184568  0.73401653  1
  Ga  Ga21  1  0.71885919  0.91815432  0.26598347  1
  Ga  Ga22  1  0.78114081  0.41815432  0.76598347  1
  Ga  Ga23  1  0.21885919  0.58184568  0.23401653  1
  Ge  Ge24  1  0.66824880  0.07597677  0.73751823  1
  Ge  Ge25  1  0.33175120  0.92402323  0.26248177  1
  Ge  Ge26  1  0.16824880  0.42402323  0.76248177  1
  Ge  Ge27  1  0.83175120  0.57597677  0.23751823  1
  Ge  Ge28  1  0.66806928  0.59973213  0.92217212  1
  Ge  Ge29  1  0.33193072  0.40026787  0.07782788  1
  Ge  Ge30  1  0.16806928  0.90026787  0.57782788  1
  Ge  Ge31  1  0.83193072  0.09973213  0.42217212  1
  Ge  Ge32  1  0.16213979  0.94337783  0.90793467  1
  Ge  Ge33  1  0.83786021  0.05662217  0.09206533  1
  Ge  Ge34  1  0.66213979  0.55662217  0.59206533  1
  Ge  Ge35  1  0.33786021  0.44337783  0.40793467  1
  O  O36  1  0.77466643  0.92348197  0.69505232  1
  O  O37  1  0.22533357  0.07651803  0.30494768  1
  O  O38  1  0.27466643  0.57651803  0.80494768  1
  O  O39  1  0.72533357  0.42348197  0.19505232  1
  O  O40  1  0.64250777  0.73795267  0.54872584  1
  O  O41  1  0.35749223  0.26204733  0.45127416  1
  O  O42  1  0.14250777  0.76204733  0.95127416  1
  O  O43  1  0.85749223  0.23795267  0.04872584  1
  O  O44  1  0.48143078  0.67320143  0.95050325  1
  O  O45  1  0.51856922  0.32679857  0.04949675  1
  O  O46  1  0.98143078  0.82679857  0.54949675  1
  O  O47  1  0.01856922  0.17320143  0.45050325  1
  O  O48  1  0.48136287  0.06799799  0.68738966  1
  O  O49  1  0.51863713  0.93200201  0.31261034  1
  O  O50  1  0.98136287  0.43200201  0.81261034  1
  O  O51  1  0.01863713  0.56799799  0.18738966  1
  O  O52  1  0.75785433  0.24473367  0.70486528  1
  O  O53  1  0.24214567  0.75526633  0.29513472  1
  O  O54  1  0.25785433  0.25526633  0.79513472  1
  O  O55  1  0.74214567  0.74473367  0.20486528  1
  O  O56  1  0.76655925  0.74384478  0.86622916  1
  O  O57  1  0.23344075  0.25615522  0.13377084  1
  O  O58  1  0.26655925  0.75615522  0.63377084  1
  O  O59  1  0.73344075  0.24384478  0.36622916  1
  O  O60  1  0.73212420  0.06162158  0.51888199  1
  O  O61  1  0.26787580  0.93837842  0.48111801  1
  O  O62  1  0.23212420  0.43837842  0.98111801  1
  O  O63  1  0.76787580  0.56162158  0.01888199  1
  O  O64  1  0.26231598  0.92593173  0.81083463  1
  O  O65  1  0.73768402  0.07406827  0.18916537  1
  O  O66  1  0.76231598  0.57406827  0.68916537  1
  O  O67  1  0.23768402  0.42593173  0.31083463  1
  O  O68  1  0.64233334  0.06135435  0.84779147  1
  O  O69  1  0.35766666  0.93864565  0.15220853  1
  O  O70  1  0.14233334  0.43864565  0.65220853  1
  O  O71  1  0.85766666  0.56135435  0.34779147  1
  O  O72  1  0.75869266  0.42865152  0.52398856  1
  O  O73  1  0.24130734  0.57134848  0.47601144  1
  O  O74  1  0.25869266  0.07134848  0.97601144  1
  O  O75  1  0.74130734  0.92865152  0.02398856  1
  O  O76  1  0.97359029  0.02086243  0.88783434  1
  O  O77  1  0.02640971  0.97913757  0.11216566  1
  O  O78  1  0.47359029  0.47913757  0.61216566  1
  O  O79  1  0.52640971  0.52086243  0.38783434  1
  O  O80  1  0.64797397  0.43974546  0.85802749  1
  O  O81  1  0.35202603  0.56025454  0.14197251  1
  O  O82  1  0.14797397  0.06025454  0.64197251  1
  O  O83  1  0.85202603  0.93974546  0.35802749  1
