# generated using pymatgen
data_KRbMnV2O7
_symmetry_space_group_name_H-M   'P 1'
_cell_length_a   8.70094936
_cell_length_b   8.70094936
_cell_length_c   11.78542649
_cell_angle_alpha   90.00000000
_cell_angle_beta   90.00000000
_cell_angle_gamma   90.00000000
_symmetry_Int_Tables_number   1
_chemical_formula_structural   KRbMnV2O7
_chemical_formula_sum   'K4 Rb4 Mn4 V8 O28'
_cell_volume   892.23362351
_cell_formula_units_Z   4
loop_
 _symmetry_equiv_pos_site_id
 _symmetry_equiv_pos_as_xyz
  1  'x, y, z'
loop_
 _atom_site_type_symbol
 _atom_site_label
 _atom_site_symmetry_multiplicity
 _atom_site_fract_x
 _atom_site_fract_y
 _atom_site_fract_z
 _atom_site_occupancy
  K  K0  1  0.18091105  0.81908895  0.00000000  1
  K  K1  1  0.81908895  0.18091105  0.00000000  1
  K  K2  1  0.68091105  0.68091105  0.50000000  1
  K  K3  1  0.31908895  0.31908895  0.50000000  1
  Rb  Rb4  1  0.35325612  0.35325612  0.00000000  1
  Rb  Rb5  1  0.64674388  0.64674388  0.00000000  1
  Rb  Rb6  1  0.14674388  0.85325612  0.50000000  1
  Rb  Rb7  1  0.85325612  0.14674388  0.50000000  1
  Mn  Mn8  1  0.00000000  0.50000000  0.25000000  1
  Mn  Mn9  1  0.00000000  0.50000000  0.75000000  1
  Mn  Mn10  1  0.50000000  -0.00000000  0.25000000  1
  Mn  Mn11  1  0.50000000  0.00000000  0.75000000  1
  V  V12  1  0.13994423  0.13994423  0.21160235  1
  V  V13  1  0.86005577  0.86005577  0.78839765  1
  V  V14  1  0.86005577  0.86005577  0.21160235  1
  V  V15  1  0.36005577  0.63994423  0.71160235  1
  V  V16  1  0.36005577  0.63994423  0.28839765  1
  V  V17  1  0.13994423  0.13994423  0.78839765  1
  V  V18  1  0.63994423  0.36005577  0.28839765  1
  V  V19  1  0.63994423  0.36005577  0.71160235  1
  O  O20  1  -0.00000000  -0.00000000  0.15671067  1
  O  O21  1  -0.00000000  0.00000000  0.84328933  1
  O  O22  1  0.50000000  0.50000000  0.65671067  1
  O  O23  1  0.50000000  0.50000000  0.34328933  1
  O  O24  1  0.08712654  0.31858787  0.15746719  1
  O  O25  1  0.91287346  0.68141213  0.84253281  1
  O  O26  1  0.91287346  0.68141213  0.15746719  1
  O  O27  1  0.18141213  0.58712654  0.65746719  1
  O  O28  1  0.41287346  0.81858787  0.34253281  1
  O  O29  1  0.08712654  0.31858787  0.84253281  1
  O  O30  1  0.81858787  0.41287346  0.34253281  1
  O  O31  1  0.58712654  0.18141213  0.65746719  1
  O  O32  1  0.81858787  0.41287346  0.65746719  1
  O  O33  1  0.58712654  0.18141213  0.34253281  1
  O  O34  1  0.18141213  0.58712654  0.34253281  1
  O  O35  1  0.41287346  0.81858787  0.65746719  1
  O  O36  1  0.31858787  0.08712654  0.84253281  1
  O  O37  1  0.68141213  0.91287346  0.15746719  1
  O  O38  1  0.68141213  0.91287346  0.84253281  1
  O  O39  1  0.31858787  0.08712654  0.15746719  1
  O  O40  1  0.14223545  0.14223545  0.35432032  1
  O  O41  1  0.85776455  0.85776455  0.64567968  1
  O  O42  1  0.85776455  0.85776455  0.35432032  1
  O  O43  1  0.35776455  0.64223545  0.85432032  1
  O  O44  1  0.35776455  0.64223545  0.14567968  1
  O  O45  1  0.14223545  0.14223545  0.64567968  1
  O  O46  1  0.64223545  0.35776455  0.14567968  1
  O  O47  1  0.64223545  0.35776455  0.85432032  1
