# generated using pymatgen
data_K3YCl6
_symmetry_space_group_name_H-M   'P 1'
_cell_length_a   7.78043263
_cell_length_b   12.77649988
_cell_length_c   13.23336305
_cell_angle_alpha   98.37547380
_cell_angle_beta   107.09580511
_cell_angle_gamma   90.00000000
_symmetry_Int_Tables_number   1
_chemical_formula_structural   K3YCl6
_chemical_formula_sum   'K12 Y4 Cl24'
_cell_volume   1242.67358918
_cell_formula_units_Z   4
loop_
 _symmetry_equiv_pos_site_id
 _symmetry_equiv_pos_as_xyz
  1  'x, y, z'
loop_
 _atom_site_type_symbol
 _atom_site_label
 _atom_site_symmetry_multiplicity
 _atom_site_fract_x
 _atom_site_fract_y
 _atom_site_fract_z
 _atom_site_occupancy
  K  K0  1  0.70263542  0.06395298  0.89892293  1
  K  K1  1  0.29736458  0.93604702  0.10107707  1
  K  K2  1  0.80371249  0.43604702  0.10107707  1
  K  K3  1  0.19628751  0.56395298  0.89892293  1
  K  K4  1  0.53277258  0.35721077  0.69072817  1
  K  K5  1  0.46722742  0.64278923  0.30927183  1
  K  K6  1  0.84204442  0.14278923  0.30927183  1
  K  K7  1  0.15795558  0.85721077  0.69072817  1
  K  K8  1  0.35067191  0.30262491  0.32415056  1
  K  K9  1  0.64932809  0.69737509  0.67584944  1
  K  K10  1  0.02652135  0.19737509  0.67584944  1
  K  K11  1  0.97347865  0.80262491  0.32415056  1
  Y  Y12  1  0.21157340  0.25000000  0.00000000  1
  Y  Y13  1  0.78842660  0.75000000  0.00000000  1
  Y  Y14  1  0.50000000  -0.00000000  0.50000000  1
  Y  Y15  1  0.00000000  0.50000000  0.50000000  1
  Cl  Cl16  1  0.37396666  0.07763550  0.66089522  1
  Cl  Cl17  1  0.62603334  0.92236450  0.33910478  1
  Cl  Cl18  1  0.71307143  0.42236450  0.33910478  1
  Cl  Cl19  1  0.28692857  0.57763550  0.66089522  1
  Cl  Cl20  1  0.49929514  0.17340511  0.12564437  1
  Cl  Cl21  1  0.50070486  0.82659489  0.87435563  1
  Cl  Cl22  1  0.37365076  0.32659489  0.87435563  1
  Cl  Cl23  1  0.62634924  0.67340511  0.12564437  1
  Cl  Cl24  1  0.20338923  0.03085905  0.35070449  1
  Cl  Cl25  1  0.79661077  0.96914095  0.64929551  1
  Cl  Cl26  1  0.85268475  0.46914095  0.64929551  1
  Cl  Cl27  1  0.14731525  0.53085905  0.35070449  1
  Cl  Cl28  1  0.10883116  0.71051275  0.12836738  1
  Cl  Cl29  1  0.89116884  0.28948725  0.87163262  1
  Cl  Cl30  1  0.98046379  0.78948725  0.87163262  1
  Cl  Cl31  1  0.01953621  0.21051275  0.12836738  1
  Cl  Cl32  1  0.27745797  0.44060229  0.11138164  1
  Cl  Cl33  1  0.72254203  0.55939771  0.88861836  1
  Cl  Cl34  1  0.16607632  0.05939771  0.88861836  1
  Cl  Cl35  1  0.83392368  0.94060229  0.11138164  1
  Cl  Cl36  1  0.64130050  0.19031881  0.49761668  1
  Cl  Cl37  1  0.35869950  0.80968119  0.50238332  1
  Cl  Cl38  1  0.14368382  0.30968119  0.50238332  1
  Cl  Cl39  1  0.85631618  0.69031881  0.49761668  1
