# generated using pymatgen
data_KLu3F10
_symmetry_space_group_name_H-M   'P 1'
_cell_length_a   8.04472279
_cell_length_b   8.04472279
_cell_length_c   13.14800472
_cell_angle_alpha   90.00000000
_cell_angle_beta   90.00000000
_cell_angle_gamma   120.00000004
_symmetry_Int_Tables_number   1
_chemical_formula_structural   KLu3F10
_chemical_formula_sum   'K4 Lu12 F40'
_cell_volume   736.90694460
_cell_formula_units_Z   4
loop_
 _symmetry_equiv_pos_site_id
 _symmetry_equiv_pos_as_xyz
  1  'x, y, z'
loop_
 _atom_site_type_symbol
 _atom_site_label
 _atom_site_symmetry_multiplicity
 _atom_site_fract_x
 _atom_site_fract_y
 _atom_site_fract_z
 _atom_site_occupancy
  K  K0  1  0.66666700  0.33333300  0.73165688  1
  K  K1  1  0.33333300  0.66666700  0.23165688  1
  K  K2  1  0.00000000  -0.00000000  0.99402211  1
  K  K3  1  0.00000000  -0.00000000  0.49402211  1
  Lu  Lu4  1  0.17415371  0.34830743  0.72599840  1
  Lu  Lu5  1  0.17415371  0.82584629  0.72599840  1
  Lu  Lu6  1  0.82584629  0.65169257  0.22599840  1
  Lu  Lu7  1  0.65169257  0.82584629  0.72599840  1
  Lu  Lu8  1  0.82584629  0.17415371  0.22599840  1
  Lu  Lu9  1  0.34830743  0.17415371  0.22599840  1
  Lu  Lu10  1  0.50561734  0.01123469  0.98430857  1
  Lu  Lu11  1  0.50561734  0.49438266  0.98430857  1
  Lu  Lu12  1  0.49438266  0.98876531  0.48430857  1
  Lu  Lu13  1  0.98876531  0.49438266  0.98430857  1
  Lu  Lu14  1  0.49438266  0.50561734  0.48430857  1
  Lu  Lu15  1  0.01123469  0.50561734  0.48430857  1
  F  F16  1  0.18427397  0.36854794  0.54911163  1
  F  F17  1  0.18427397  0.81572603  0.54911163  1
  F  F18  1  0.81572603  0.63145206  0.04911163  1
  F  F19  1  0.63145206  0.81572603  0.54911163  1
  F  F20  1  0.81572603  0.18427397  0.04911163  1
  F  F21  1  0.36854794  0.18427397  0.04911163  1
  F  F22  1  0.66666700  0.33333300  0.93904566  1
  F  F23  1  0.33333300  0.66666700  0.43904566  1
  F  F24  1  0.66666700  0.33333300  0.27601127  1
  F  F25  1  0.33333300  0.66666700  0.77601127  1
  F  F26  1  0.77749038  0.55498076  0.52067932  1
  F  F27  1  0.77749038  0.22250962  0.52067932  1
  F  F28  1  0.22250962  0.44501924  0.02067932  1
  F  F29  1  0.44501924  0.22250962  0.52067932  1
  F  F30  1  0.22250962  0.77749038  0.02067932  1
  F  F31  1  0.55498076  0.77749038  0.02067932  1
  F  F32  1  0.89018271  0.78036543  0.69163767  1
  F  F33  1  0.89018271  0.10981729  0.69163767  1
  F  F34  1  0.10981729  0.21963457  0.19163767  1
  F  F35  1  0.21963457  0.10981729  0.69163767  1
  F  F36  1  0.10981729  0.89018271  0.19163767  1
  F  F37  1  0.78036543  0.89018271  0.19163767  1
  F  F38  1  0.66136770  0.66467552  0.85448672  1
  F  F39  1  0.00330782  0.33863230  0.85448672  1
  F  F40  1  0.33863230  0.33532448  0.35448672  1
  F  F41  1  0.00330782  0.66467552  0.85448672  1
  F  F42  1  0.33532448  0.99669218  0.85448672  1
  F  F43  1  0.99669218  0.66136770  0.35448672  1
  F  F44  1  0.33532448  0.33863230  0.85448672  1
  F  F45  1  0.99669218  0.33532448  0.35448672  1
  F  F46  1  0.66467552  0.00330782  0.35448672  1
  F  F47  1  0.66467552  0.66136770  0.35448672  1
  F  F48  1  0.66136770  0.99669218  0.85448672  1
  F  F49  1  0.33863230  0.00330782  0.35448672  1
  F  F50  1  0.48086838  0.96173677  0.66067899  1
  F  F51  1  0.48086838  0.51913162  0.66067899  1
  F  F52  1  0.51913162  0.03826323  0.16067899  1
  F  F53  1  0.03826323  0.51913162  0.66067899  1
  F  F54  1  0.51913162  0.48086838  0.16067899  1
  F  F55  1  0.96173677  0.48086838  0.16067899  1
