# generated using pymatgen
data_KV2AgO6
_symmetry_space_group_name_H-M   'P 1'
_cell_length_a   5.90457243
_cell_length_b   7.44997543
_cell_length_c   7.44997543
_cell_angle_alpha   85.51389507
_cell_angle_beta   79.77023589
_cell_angle_gamma   79.77023589
_symmetry_Int_Tables_number   1
_chemical_formula_structural   KV2AgO6
_chemical_formula_sum   'K2 V4 Ag2 O12'
_cell_volume   317.01123984
_cell_formula_units_Z   2
loop_
 _symmetry_equiv_pos_site_id
 _symmetry_equiv_pos_as_xyz
  1  'x, y, z'
loop_
 _atom_site_type_symbol
 _atom_site_label
 _atom_site_symmetry_multiplicity
 _atom_site_fract_x
 _atom_site_fract_y
 _atom_site_fract_z
 _atom_site_occupancy
  K  K0  1  0.25000000  0.19644460  0.80355540  1
  K  K1  1  0.75000000  0.80355540  0.19644460  1
  V  V2  1  0.23127876  0.12389766  0.29763008  1
  V  V3  1  0.76872124  0.87610234  0.70236992  1
  V  V4  1  0.26872124  0.70236992  0.87610234  1
  V  V5  1  0.73127876  0.29763008  0.12389766  1
  Ag  Ag6  1  0.25000000  0.59302743  0.40697257  1
  Ag  Ag7  1  0.75000000  0.40697257  0.59302743  1
  O  O8  1  0.00957314  0.86371756  0.82965015  1
  O  O9  1  0.99042686  0.13628244  0.17034985  1
  O  O10  1  0.49042686  0.17034985  0.13628244  1
  O  O11  1  0.50957314  0.82965015  0.86371756  1
  O  O12  1  0.15872017  0.28098224  0.45942567  1
  O  O13  1  0.84127983  0.71901776  0.54057433  1
  O  O14  1  0.34127983  0.54057433  0.71901776  1
  O  O15  1  0.65872017  0.45942567  0.28098224  1
  O  O16  1  0.29874534  0.91280119  0.39046781  1
  O  O17  1  0.70125466  0.08719881  0.60953219  1
  O  O18  1  0.20125466  0.60953219  0.08719881  1
  O  O19  1  0.79874534  0.39046781  0.91280119  1
