# generated using pymatgen
data_Ho6Co2Sn
_symmetry_space_group_name_H-M   'P 1'
_cell_length_a   8.30910976
_cell_length_b   8.30910976
_cell_length_c   8.30910976
_cell_angle_alpha   107.10786309
_cell_angle_beta   109.74585800
_cell_angle_gamma   111.59108198
_symmetry_Int_Tables_number   1
_chemical_formula_structural   Ho6Co2Sn
_chemical_formula_sum   'Ho12 Co4 Sn2'
_cell_volume   440.93256783
_cell_formula_units_Z   2
loop_
 _symmetry_equiv_pos_site_id
 _symmetry_equiv_pos_as_xyz
  1  'x, y, z'
loop_
 _atom_site_type_symbol
 _atom_site_label
 _atom_site_symmetry_multiplicity
 _atom_site_fract_x
 _atom_site_fract_y
 _atom_site_fract_z
 _atom_site_occupancy
  Ho  Ho0  1  0.78932671  0.76582794  0.55515465  1
  Ho  Ho1  1  0.21067329  0.23417206  0.44484535  1
  Ho  Ho2  1  0.21067329  0.76582794  0.97650123  1
  Ho  Ho3  1  0.78932671  0.23417206  0.02349877  1
  Ho  Ho4  1  0.52933667  0.71481022  0.81452645  1
  Ho  Ho5  1  0.47066333  0.28518978  0.18547355  1
  Ho  Ho6  1  0.09971622  0.28518978  0.81452645  1
  Ho  Ho7  1  0.90028378  0.71481022  0.18547355  1
  Ho  Ho8  1  0.69014987  0.36881775  0.67866788  1
  Ho  Ho9  1  0.30985013  0.63118225  0.32133212  1
  Ho  Ho10  1  0.30985013  0.98851801  0.67866788  1
  Ho  Ho11  1  0.69014987  0.01148199  0.32133212  1
  Co  Co12  1  0.64224110  -0.00000000  0.64224110  1
  Co  Co13  1  0.35775890  0.00000000  0.35775890  1
  Co  Co14  1  0.50000000  0.38666695  0.88666695  1
  Co  Co15  1  0.50000000  0.61333305  0.11333305  1
  Sn  Sn16  1  -0.00000000  0.50000000  0.50000000  1
  Sn  Sn17  1  -0.00000000  -0.00000000  -0.00000000  1
