# generated using pymatgen
data_La6Ni20As13
_symmetry_space_group_name_H-M   'P 1'
_cell_length_a   4.02754957
_cell_length_b   13.25817825
_cell_length_c   13.25817826
_cell_angle_alpha   119.99999523
_cell_angle_beta   90.00000000
_cell_angle_gamma   90.00000000
_symmetry_Int_Tables_number   1
_chemical_formula_structural   La6Ni20As13
_chemical_formula_sum   'La6 Ni20 As13'
_cell_volume   613.11120662
_cell_formula_units_Z   1
loop_
 _symmetry_equiv_pos_site_id
 _symmetry_equiv_pos_as_xyz
  1  'x, y, z'
loop_
 _atom_site_type_symbol
 _atom_site_label
 _atom_site_symmetry_multiplicity
 _atom_site_fract_x
 _atom_site_fract_y
 _atom_site_fract_z
 _atom_site_occupancy
  La  La0  1  0.00000000  0.53396627  0.81680078  1
  La  La1  1  -0.00000000  0.28283451  0.46603373  1
  La  La2  1  0.00000000  0.18319922  0.71716549  1
  La  La3  1  0.50000000  0.81491588  0.27917716  1
  La  La4  1  0.50000000  0.46426129  0.18508412  1
  La  La5  1  0.50000000  0.72082284  0.53573871  1
  Ni  Ni6  1  -0.00000000  0.80389667  0.91527293  1
  Ni  Ni7  1  -0.00000000  0.11137626  0.19610333  1
  Ni  Ni8  1  0.00000000  0.08472707  0.88862374  1
  Ni  Ni9  1  0.50000000  0.33333300  0.66666700  1
  Ni  Ni10  1  0.50000000  0.93962283  0.07600848  1
  Ni  Ni11  1  0.50000000  0.13638565  0.06037717  1
  Ni  Ni12  1  0.50000000  0.92399152  0.86361435  1
  Ni  Ni13  1  -0.00000000  0.66666700  0.33333300  1
  Ni  Ni14  1  0.00000000  0.56142439  0.58610603  1
  Ni  Ni15  1  0.00000000  0.02468164  0.43857561  1
  Ni  Ni16  1  -0.00000000  0.41389397  0.97531836  1
  Ni  Ni17  1  0.50000000  0.69380750  0.76471007  1
  Ni  Ni18  1  0.50000000  0.07090256  0.30619250  1
  Ni  Ni19  1  0.50000000  0.23528993  0.92909744  1
  Ni  Ni20  1  0.50000000  0.97442781  0.56351999  1
  Ni  Ni21  1  0.50000000  0.58909218  0.02557219  1
  Ni  Ni22  1  0.50000000  0.43648001  0.41090782  1
  Ni  Ni23  1  0.00000000  0.75819783  0.07752194  1
  Ni  Ni24  1  0.00000000  0.31932411  0.24180217  1
  Ni  Ni25  1  -0.00000000  0.92247806  0.68067589  1
  As  As26  1  0.50000000  0.48275616  0.61572164  1
  As  As27  1  0.50000000  0.13296548  0.51724384  1
  As  As28  1  0.50000000  0.38427836  0.86703452  1
  As  As29  1  0.50000000  0.73013154  0.96316810  1
  As  As30  1  0.50000000  0.23303657  0.26986846  1
  As  As31  1  0.50000000  0.03683190  0.76696343  1
  As  As32  1  -0.00000000  0.86589371  0.47855548  1
  As  As33  1  0.00000000  0.61266177  0.13410629  1
  As  As34  1  -0.00000000  0.52144452  0.38733823  1
  As  As35  1  -0.00000000  0.95804627  0.23364292  1
  As  As36  1  -0.00000000  0.27559665  0.04195373  1
  As  As37  1  0.00000000  0.76635708  0.72440335  1
  As  As38  1  -0.00000000  0.00000000  0.00000000  1
