# generated using pymatgen
data_KSmTiO4
_symmetry_space_group_name_H-M   'P 1'
_cell_length_a   5.50518225
_cell_length_b   13.23762198
_cell_length_c   5.42156123
_cell_angle_alpha   90.00000000
_cell_angle_beta   90.00000000
_cell_angle_gamma   90.00000000
_symmetry_Int_Tables_number   1
_chemical_formula_structural   KSmTiO4
_chemical_formula_sum   'K4 Sm4 Ti4 O16'
_cell_volume   395.09910229
_cell_formula_units_Z   4
loop_
 _symmetry_equiv_pos_site_id
 _symmetry_equiv_pos_as_xyz
  1  'x, y, z'
loop_
 _atom_site_type_symbol
 _atom_site_label
 _atom_site_symmetry_multiplicity
 _atom_site_fract_x
 _atom_site_fract_y
 _atom_site_fract_z
 _atom_site_occupancy
  K  K0  1  0.01633875  0.40666981  0.75000000  1
  K  K1  1  0.98366125  0.59333019  0.25000000  1
  K  K2  1  0.51633875  0.59333019  0.75000000  1
  K  K3  1  0.48366125  0.40666981  0.25000000  1
  Sm  Sm4  1  0.52219140  0.89655549  0.75000000  1
  Sm  Sm5  1  0.47780860  0.10344451  0.25000000  1
  Sm  Sm6  1  0.02219140  0.10344451  0.75000000  1
  Sm  Sm7  1  0.97780860  0.89655549  0.25000000  1
  Ti  Ti8  1  0.00600390  0.74846031  0.75000000  1
  Ti  Ti9  1  0.99399610  0.25153969  0.25000000  1
  Ti  Ti10  1  0.50600390  0.25153969  0.75000000  1
  Ti  Ti11  1  0.49399610  0.74846031  0.25000000  1
  O  O12  1  0.93935892  0.93598923  0.75000000  1
  O  O13  1  0.06064108  0.06401077  0.25000000  1
  O  O14  1  0.43935892  0.06401077  0.75000000  1
  O  O15  1  0.56064108  0.93598923  0.25000000  1
  O  O16  1  0.52759682  0.38413792  0.75000000  1
  O  O17  1  0.47240318  0.61586208  0.25000000  1
  O  O18  1  0.02759682  0.61586208  0.75000000  1
  O  O19  1  0.97240318  0.38413792  0.25000000  1
  O  O20  1  0.75000000  0.76935712  0.00000000  1
  O  O21  1  0.25000000  0.23064288  0.00000000  1
  O  O22  1  0.25000000  0.23064288  0.50000000  1
  O  O23  1  0.75000000  0.76935712  0.50000000  1
  O  O24  1  0.75000000  0.20973138  -0.00000000  1
  O  O25  1  0.25000000  0.79026862  -0.00000000  1
  O  O26  1  0.25000000  0.79026862  0.50000000  1
  O  O27  1  0.75000000  0.20973138  0.50000000  1
