# generated using pymatgen
data_Ca5V3O12
_symmetry_space_group_name_H-M   'P 1'
_cell_length_a   6.79726887
_cell_length_b   10.52093481
_cell_length_c   16.29278169
_cell_angle_alpha   90.00000000
_cell_angle_beta   90.00000000
_cell_angle_gamma   90.00000000
_symmetry_Int_Tables_number   1
_chemical_formula_structural   Ca5V3O12
_chemical_formula_sum   'Ca20 V12 O48'
_cell_volume   1165.15584198
_cell_formula_units_Z   4
loop_
 _symmetry_equiv_pos_site_id
 _symmetry_equiv_pos_as_xyz
  1  'x, y, z'
loop_
 _atom_site_type_symbol
 _atom_site_label
 _atom_site_symmetry_multiplicity
 _atom_site_fract_x
 _atom_site_fract_y
 _atom_site_fract_z
 _atom_site_occupancy
  Ca  Ca0  1  0.95655172  0.82048942  0.75000000  1
  Ca  Ca1  1  0.04344828  0.17951058  0.25000000  1
  Ca  Ca2  1  0.54344828  0.32048942  0.25000000  1
  Ca  Ca3  1  0.45655172  0.67951058  0.75000000  1
  Ca  Ca4  1  0.62530774  0.93214197  0.90852116  1
  Ca  Ca5  1  0.37469226  0.06785803  0.09147884  1
  Ca  Ca6  1  0.87469226  0.43214197  0.09147884  1
  Ca  Ca7  1  0.37469226  0.06785803  0.40852116  1
  Ca  Ca8  1  0.12530774  0.56785803  0.90852116  1
  Ca  Ca9  1  0.62530774  0.93214197  0.59147884  1
  Ca  Ca10  1  0.12530774  0.56785803  0.59147884  1
  Ca  Ca11  1  0.87469226  0.43214197  0.40852116  1
  Ca  Ca12  1  0.81279038  0.82977127  0.39398206  1
  Ca  Ca13  1  0.18720962  0.17022873  0.60601794  1
  Ca  Ca14  1  0.68720962  0.32977127  0.60601794  1
  Ca  Ca15  1  0.18720962  0.17022873  0.89398206  1
  Ca  Ca16  1  0.31279038  0.67022873  0.39398206  1
  Ca  Ca17  1  0.81279038  0.82977127  0.10601794  1
  Ca  Ca18  1  0.31279038  0.67022873  0.10601794  1
  Ca  Ca19  1  0.68720962  0.32977127  0.89398206  1
  V  V20  1  0.63809863  0.62752406  0.92809108  1
  V  V21  1  0.36190137  0.37247594  0.07190892  1
  V  V22  1  0.86190137  0.12752406  0.07190892  1
  V  V23  1  0.36190137  0.37247594  0.42809108  1
  V  V24  1  0.13809863  0.87247594  0.92809108  1
  V  V25  1  0.63809863  0.62752406  0.57190892  1
  V  V26  1  0.13809863  0.87247594  0.57190892  1
  V  V27  1  0.86190137  0.12752406  0.42809108  1
  V  V28  1  0.97467376  0.42378402  0.75000000  1
  V  V29  1  0.02532624  0.57621598  0.25000000  1
  V  V30  1  0.52532624  0.92378402  0.25000000  1
  V  V31  1  0.47467376  0.07621598  0.75000000  1
  O  O32  1  0.72211841  0.41880040  0.75000000  1
  O  O33  1  0.27788159  0.58119960  0.25000000  1
  O  O34  1  0.77788159  0.91880040  0.25000000  1
  O  O35  1  0.22211841  0.08119960  0.75000000  1
  O  O36  1  0.72666271  0.72777820  0.84811697  1
  O  O37  1  0.27333729  0.27222180  0.15188303  1
  O  O38  1  0.77333729  0.22777820  0.15188303  1
  O  O39  1  0.27333729  0.27222180  0.34811697  1
  O  O40  1  0.22666271  0.77222180  0.84811697  1
  O  O41  1  0.72666271  0.72777820  0.65188303  1
  O  O42  1  0.22666271  0.77222180  0.65188303  1
  O  O43  1  0.77333729  0.22777820  0.34811697  1
  O  O44  1  0.81259743  0.51044964  0.95993453  1
  O  O45  1  0.18740257  0.48955036  0.04006547  1
  O  O46  1  0.68740257  0.01044964  0.04006547  1
  O  O47  1  0.18740257  0.48955036  0.45993453  1
  O  O48  1  0.31259743  0.98955036  0.95993453  1
  O  O49  1  0.81259743  0.51044964  0.54006547  1
  O  O50  1  0.31259743  0.98955036  0.54006547  1
  O  O51  1  0.68740257  0.01044964  0.45993453  1
  O  O52  1  0.95504633  0.96544587  0.87946874  1
  O  O53  1  0.04495367  0.03455413  0.12053126  1
  O  O54  1  0.54495367  0.46544587  0.12053126  1
  O  O55  1  0.04495367  0.03455413  0.37946874  1
  O  O56  1  0.45504633  0.53455413  0.87946874  1
  O  O57  1  0.95504633  0.96544587  0.62053126  1
  O  O58  1  0.45504633  0.53455413  0.62053126  1
  O  O59  1  0.54495367  0.46544587  0.37946874  1
  O  O60  1  0.95301659  0.64719020  0.34208337  1
  O  O61  1  0.04698341  0.35280980  0.65791663  1
  O  O62  1  0.54698341  0.14719020  0.65791663  1
  O  O63  1  0.04698341  0.35280980  0.84208337  1
  O  O64  1  0.45301659  0.85280980  0.34208337  1
  O  O65  1  0.95301659  0.64719020  0.15791663  1
  O  O66  1  0.45301659  0.85280980  0.15791663  1
  O  O67  1  0.54698341  0.14719020  0.84208337  1
  O  O68  1  0.57099626  0.73162509  0.49079773  1
  O  O69  1  0.42900374  0.26837491  0.50920227  1
  O  O70  1  0.92900374  0.23162509  0.50920227  1
  O  O71  1  0.42900374  0.26837491  0.99079773  1
  O  O72  1  0.07099626  0.76837491  0.49079773  1
  O  O73  1  0.57099626  0.73162509  0.00920227  1
  O  O74  1  0.07099626  0.76837491  0.00920227  1
  O  O75  1  0.92900374  0.23162509  0.99079773  1
  O  O76  1  0.57123949  0.92248691  0.75000000  1
  O  O77  1  0.42876051  0.07751309  0.25000000  1
  O  O78  1  0.92876051  0.42248691  0.25000000  1
  O  O79  1  0.07123949  0.57751309  0.75000000  1
