# generated using pymatgen
data_Dy2Fe17C3
_symmetry_space_group_name_H-M   'P 1'
_cell_length_a   8.34779561
_cell_length_b   8.64808768
_cell_length_c   8.64808768
_cell_angle_alpha   120.00000110
_cell_angle_beta   90.00000000
_cell_angle_gamma   90.00000000
_symmetry_Int_Tables_number   1
_chemical_formula_structural   Dy2Fe17C3
_chemical_formula_sum   'Dy4 Fe34 C6'
_cell_volume   540.68286035
_cell_formula_units_Z   2
loop_
 _symmetry_equiv_pos_site_id
 _symmetry_equiv_pos_as_xyz
  1  'x, y, z'
loop_
 _atom_site_type_symbol
 _atom_site_label
 _atom_site_symmetry_multiplicity
 _atom_site_fract_x
 _atom_site_fract_y
 _atom_site_fract_z
 _atom_site_occupancy
  Dy  Dy0  1  0.75000000  0.66666700  0.33333300  1
  Dy  Dy1  1  0.25000000  0.33333300  0.66666700  1
  Dy  Dy2  1  0.75000000  0.00000000  0.00000000  1
  Dy  Dy3  1  0.25000000  0.00000000  0.00000000  1
  Fe  Fe4  1  0.75000000  0.62162272  0.67388918  1
  Fe  Fe5  1  0.25000000  0.37837728  0.32611082  1
  Fe  Fe6  1  0.75000000  0.05226647  0.37837728  1
  Fe  Fe7  1  0.25000000  0.94773353  0.32611082  1
  Fe  Fe8  1  0.25000000  0.94773353  0.62162272  1
  Fe  Fe9  1  0.75000000  0.05226647  0.67388918  1
  Fe  Fe10  1  0.75000000  0.32611082  0.94773353  1
  Fe  Fe11  1  0.25000000  0.67388918  0.62162272  1
  Fe  Fe12  1  0.25000000  0.67388918  0.05226647  1
  Fe  Fe13  1  0.75000000  0.32611082  0.37837728  1
  Fe  Fe14  1  0.25000000  0.37837728  0.05226647  1
  Fe  Fe15  1  0.75000000  0.62162272  0.94773353  1
  Fe  Fe16  1  0.39234784  0.66666700  0.33333300  1
  Fe  Fe17  1  0.60765216  0.33333300  0.66666700  1
  Fe  Fe18  1  0.89234784  0.33333300  0.66666700  1
  Fe  Fe19  1  0.10765216  0.66666700  0.33333300  1
  Fe  Fe20  1  0.98025062  0.83167718  0.16832282  1
  Fe  Fe21  1  0.01974938  0.16832282  0.83167718  1
  Fe  Fe22  1  0.98025062  0.33664565  0.16832282  1
  Fe  Fe23  1  0.48025062  0.16832282  0.83167718  1
  Fe  Fe24  1  0.01974938  0.66335435  0.83167718  1
  Fe  Fe25  1  0.51974938  0.83167718  0.16832282  1
  Fe  Fe26  1  0.98025062  0.83167718  0.66335435  1
  Fe  Fe27  1  0.48025062  0.66335435  0.83167718  1
  Fe  Fe28  1  0.01974938  0.16832282  0.33664565  1
  Fe  Fe29  1  0.51974938  0.33664565  0.16832282  1
  Fe  Fe30  1  0.48025062  0.16832282  0.33664565  1
  Fe  Fe31  1  0.51974938  0.83167718  0.66335435  1
  Fe  Fe32  1  -0.00000000  0.50000000  0.50000000  1
  Fe  Fe33  1  -0.00000000  0.00000000  0.50000000  1
  Fe  Fe34  1  0.50000000  0.50000000  0.50000000  1
  Fe  Fe35  1  -0.00000000  0.50000000  0.00000000  1
  Fe  Fe36  1  0.50000000  0.00000000  0.50000000  1
  Fe  Fe37  1  0.50000000  0.50000000  0.00000000  1
  C  C38  1  0.75000000  0.83434120  0.16565880  1
  C  C39  1  0.25000000  0.16565880  0.83434120  1
  C  C40  1  0.75000000  0.33131759  0.16565880  1
  C  C41  1  0.25000000  0.66868241  0.83434120  1
  C  C42  1  0.75000000  0.83434120  0.66868241  1
  C  C43  1  0.25000000  0.16565880  0.33131759  1
