# generated using pymatgen
data_Eu2Ta2O7
_symmetry_space_group_name_H-M   'P 1'
_cell_length_a   3.98406947
_cell_length_b   5.70414192
_cell_length_c   13.69425983
_cell_angle_alpha   90.00000000
_cell_angle_beta   98.36420575
_cell_angle_gamma   90.00000000
_symmetry_Int_Tables_number   1
_chemical_formula_structural   Eu2Ta2O7
_chemical_formula_sum   'Eu4 Ta4 O14'
_cell_volume   307.90137606
_cell_formula_units_Z   2
loop_
 _symmetry_equiv_pos_site_id
 _symmetry_equiv_pos_as_xyz
  1  'x, y, z'
loop_
 _atom_site_type_symbol
 _atom_site_label
 _atom_site_symmetry_multiplicity
 _atom_site_fract_x
 _atom_site_fract_y
 _atom_site_fract_z
 _atom_site_occupancy
  Eu  Eu0  1  0.71100382  0.35289271  0.42200764  1
  Eu  Eu1  1  0.28899618  0.85289271  0.57799236  1
  Eu  Eu2  1  0.44744832  0.29372495  0.89489664  1
  Eu  Eu3  1  0.55255168  0.79372495  0.10510336  1
  Ta  Ta4  1  0.83988334  0.31727516  0.67976668  1
  Ta  Ta5  1  0.16011666  0.81727516  0.32023332  1
  Ta  Ta6  1  0.94365007  0.79367077  0.88730013  1
  Ta  Ta7  1  0.05634993  0.29367077  0.11269987  1
  O  O8  1  0.90722333  0.48970795  0.81444665  1
  O  O9  1  0.09277667  0.98970795  0.18555335  1
  O  O10  1  0.80045642  0.58710195  0.60091284  1
  O  O11  1  0.19954358  0.08710195  0.39908716  1
  O  O12  1  0.34932234  0.28838156  0.69864467  1
  O  O13  1  0.65067766  0.78838156  0.30135533  1
  O  O14  1  0.89034799  0.00590956  0.78069598  1
  O  O15  1  0.10965201  0.50590956  0.21930402  1
  O  O16  1  0.78447084  0.10576247  0.56894167  1
  O  O17  1  0.21552916  0.60576247  0.43105833  1
  O  O18  1  0.99366469  0.05430698  0.98732938  1
  O  O19  1  0.00633531  0.55430698  0.01267062  1
  O  O20  1  0.54797756  0.27438594  0.09595511  1
  O  O21  1  0.45202244  0.77438594  0.90404489  1
