# generated using pymatgen
data_GdCu5Sn
_symmetry_space_group_name_H-M   'P 1'
_cell_length_a   5.02062391
_cell_length_b   8.22849037
_cell_length_c   10.53912719
_cell_angle_alpha   90.00000000
_cell_angle_beta   90.00000000
_cell_angle_gamma   90.00000000
_symmetry_Int_Tables_number   1
_chemical_formula_structural   GdCu5Sn
_chemical_formula_sum   'Gd4 Cu20 Sn4'
_cell_volume   435.39406125
_cell_formula_units_Z   4
loop_
 _symmetry_equiv_pos_site_id
 _symmetry_equiv_pos_as_xyz
  1  'x, y, z'
loop_
 _atom_site_type_symbol
 _atom_site_label
 _atom_site_symmetry_multiplicity
 _atom_site_fract_x
 _atom_site_fract_y
 _atom_site_fract_z
 _atom_site_occupancy
  Gd  Gd0  1  0.75000000  0.74692652  0.43731511  1
  Gd  Gd1  1  0.25000000  0.25307348  0.56268489  1
  Gd  Gd2  1  0.25000000  0.75307348  0.93731511  1
  Gd  Gd3  1  0.75000000  0.24692652  0.06268489  1
  Cu  Cu4  1  0.75000000  0.68575812  0.75497367  1
  Cu  Cu5  1  0.25000000  0.31424188  0.24502633  1
  Cu  Cu6  1  0.25000000  0.81424188  0.25497367  1
  Cu  Cu7  1  0.75000000  0.18575812  0.74502633  1
  Cu  Cu8  1  0.49972846  0.93510668  0.68663357  1
  Cu  Cu9  1  0.50027154  0.06489332  0.31336643  1
  Cu  Cu10  1  0.50027154  0.56489332  0.18663357  1
  Cu  Cu11  1  -0.00027154  0.06489332  0.31336643  1
  Cu  Cu12  1  0.49972846  0.43510668  0.81336643  1
  Cu  Cu13  1  0.00027154  0.93510668  0.68663357  1
  Cu  Cu14  1  0.00027154  0.43510668  0.81336643  1
  Cu  Cu15  1  -0.00027154  0.56489332  0.18663357  1
  Cu  Cu16  1  0.75000000  0.58583773  0.98186901  1
  Cu  Cu17  1  0.25000000  0.41416227  0.01813099  1
  Cu  Cu18  1  0.25000000  0.91416227  0.48186901  1
  Cu  Cu19  1  0.75000000  0.08583773  0.51813099  1
  Cu  Cu20  1  0.75000000  0.93997219  0.89659992  1
  Cu  Cu21  1  0.25000000  0.06002781  0.10340008  1
  Cu  Cu22  1  0.25000000  0.56002781  0.39659992  1
  Cu  Cu23  1  0.75000000  0.43997219  0.60340008  1
  Sn  Sn24  1  0.75000000  0.85928447  0.13866215  1
  Sn  Sn25  1  0.25000000  0.14071553  0.86133785  1
  Sn  Sn26  1  0.25000000  0.64071553  0.63866215  1
  Sn  Sn27  1  0.75000000  0.35928447  0.36133785  1
