# generated using pymatgen
data_Ho2NiB10
_symmetry_space_group_name_H-M   'P 1'
_cell_length_a   4.13151213
_cell_length_b   5.53192218
_cell_length_c   11.03955539
_cell_angle_alpha   90.00000000
_cell_angle_beta   90.00000000
_cell_angle_gamma   90.00000000
_symmetry_Int_Tables_number   1
_chemical_formula_structural   Ho2NiB10
_chemical_formula_sum   'Ho4 Ni2 B20'
_cell_volume   252.31128597
_cell_formula_units_Z   2
loop_
 _symmetry_equiv_pos_site_id
 _symmetry_equiv_pos_as_xyz
  1  'x, y, z'
loop_
 _atom_site_type_symbol
 _atom_site_label
 _atom_site_symmetry_multiplicity
 _atom_site_fract_x
 _atom_site_fract_y
 _atom_site_fract_z
 _atom_site_occupancy
  Ho  Ho0  1  0.50000000  0.19216467  0.36344665  1
  Ho  Ho1  1  0.50000000  0.80783533  0.63655335  1
  Ho  Ho2  1  0.50000000  0.30783533  0.86344665  1
  Ho  Ho3  1  0.50000000  0.69216467  0.13655335  1
  Ni  Ni4  1  -0.00000000  0.00000000  -0.00000000  1
  Ni  Ni5  1  0.00000000  0.50000000  0.50000000  1
  B  B6  1  -0.00000000  0.37440745  0.04067417  1
  B  B7  1  0.00000000  0.62559255  0.95932583  1
  B  B8  1  0.00000000  0.12559255  0.54067417  1
  B  B9  1  -0.00000000  0.87440745  0.45932583  1
  B  B10  1  -0.00000000  0.34581238  0.19771787  1
  B  B11  1  0.00000000  0.65418762  0.80228213  1
  B  B12  1  0.00000000  0.15418762  0.69771787  1
  B  B13  1  -0.00000000  0.84581238  0.30228213  1
  B  B14  1  0.00000000  0.03439284  0.18752249  1
  B  B15  1  -0.00000000  0.96560716  0.81247751  1
  B  B16  1  -0.00000000  0.46560716  0.68752249  1
  B  B17  1  0.00000000  0.53439284  0.31247751  1
  B  B18  1  0.30087527  0.20396363  0.11428536  1
  B  B19  1  0.69912473  0.79603637  0.88571464  1
  B  B20  1  0.30087527  0.79603637  0.88571464  1
  B  B21  1  0.69912473  0.29603637  0.61428536  1
  B  B22  1  0.69912473  0.20396363  0.11428536  1
  B  B23  1  0.30087527  0.70396363  0.38571464  1
  B  B24  1  0.69912473  0.70396363  0.38571464  1
  B  B25  1  0.30087527  0.29603637  0.61428536  1
