# generated using pymatgen
data_DyCo5Si3
_symmetry_space_group_name_H-M   'P 1'
_cell_length_a   3.67616111
_cell_length_b   14.73043005
_cell_length_c   14.73043004
_cell_angle_alpha   119.99999954
_cell_angle_beta   90.00000000
_cell_angle_gamma   90.00000000
_symmetry_Int_Tables_number   1
_chemical_formula_structural   DyCo5Si3
_chemical_formula_sum   'Dy6 Co30 Si18'
_cell_volume   690.80587458
_cell_formula_units_Z   6
loop_
 _symmetry_equiv_pos_site_id
 _symmetry_equiv_pos_as_xyz
  1  'x, y, z'
loop_
 _atom_site_type_symbol
 _atom_site_label
 _atom_site_symmetry_multiplicity
 _atom_site_fract_x
 _atom_site_fract_y
 _atom_site_fract_z
 _atom_site_occupancy
  Dy  Dy0  1  0.75000000  0.70715175  0.10126717  1
  Dy  Dy1  1  0.25000000  0.29284825  0.89873283  1
  Dy  Dy2  1  0.75000000  0.39411542  0.29284825  1
  Dy  Dy3  1  0.25000000  0.60588458  0.70715175  1
  Dy  Dy4  1  0.75000000  0.89873283  0.60588458  1
  Dy  Dy5  1  0.25000000  0.10126717  0.39411542  1
  Co  Co6  1  0.75000000  0.58579636  0.85295617  1
  Co  Co7  1  0.25000000  0.41420364  0.14704383  1
  Co  Co8  1  0.75000000  0.26715981  0.41420364  1
  Co  Co9  1  0.25000000  0.73284019  0.58579636  1
  Co  Co10  1  0.75000000  0.14704383  0.73284019  1
  Co  Co11  1  0.25000000  0.85295617  0.26715981  1
  Co  Co12  1  0.75000000  0.45994587  0.53438787  1
  Co  Co13  1  0.25000000  0.54005413  0.46561213  1
  Co  Co14  1  0.75000000  0.07444200  0.54005413  1
  Co  Co15  1  0.25000000  0.92555800  0.45994587  1
  Co  Co16  1  0.75000000  0.46561213  0.92555800  1
  Co  Co17  1  0.25000000  0.53438787  0.07444200  1
  Co  Co18  1  0.75000000  0.89692159  0.03067005  1
  Co  Co19  1  0.25000000  0.10307841  0.96932995  1
  Co  Co20  1  0.75000000  0.13374846  0.10307841  1
  Co  Co21  1  0.25000000  0.86625154  0.89692159  1
  Co  Co22  1  0.75000000  0.96932995  0.86625154  1
  Co  Co23  1  0.25000000  0.03067005  0.13374846  1
  Co  Co24  1  0.75000000  0.77445256  0.34787715  1
  Co  Co25  1  0.25000000  0.22554744  0.65212285  1
  Co  Co26  1  0.75000000  0.57342459  0.22554744  1
  Co  Co27  1  0.25000000  0.42657541  0.77445256  1
  Co  Co28  1  0.75000000  0.65212285  0.42657541  1
  Co  Co29  1  0.25000000  0.34787715  0.57342459  1
  Co  Co30  1  0.75000000  0.95380516  0.22155778  1
  Co  Co31  1  0.25000000  0.04619484  0.77844222  1
  Co  Co32  1  0.75000000  0.26775262  0.04619484  1
  Co  Co33  1  0.25000000  0.73224738  0.95380516  1
  Co  Co34  1  0.75000000  0.77844222  0.73224738  1
  Co  Co35  1  0.25000000  0.22155778  0.26775262  1
  Si  Si36  1  0.75000000  0.44283618  0.68223947  1
  Si  Si37  1  0.25000000  0.55716382  0.31776053  1
  Si  Si38  1  0.75000000  0.23940329  0.55716382  1
  Si  Si39  1  0.25000000  0.76059671  0.44283618  1
  Si  Si40  1  0.75000000  0.31776053  0.76059671  1
  Si  Si41  1  0.25000000  0.68223947  0.23940329  1
  Si  Si42  1  0.75000000  0.75096468  0.87184790  1
  Si  Si43  1  0.25000000  0.24903532  0.12815210  1
  Si  Si44  1  0.75000000  0.12088322  0.24903532  1
  Si  Si45  1  0.25000000  0.87911678  0.75096468  1
  Si  Si46  1  0.75000000  0.12815210  0.87911678  1
  Si  Si47  1  0.25000000  0.87184790  0.12088322  1
  Si  Si48  1  0.75000000  0.93784186  0.37072357  1
  Si  Si49  1  0.25000000  0.06215814  0.62927643  1
  Si  Si50  1  0.75000000  0.43288171  0.06215814  1
  Si  Si51  1  0.25000000  0.56711829  0.93784186  1
  Si  Si52  1  0.75000000  0.62927643  0.56711829  1
  Si  Si53  1  0.25000000  0.37072357  0.43288171  1
