# generated using pymatgen
data_CsTm(MoO4)2
_symmetry_space_group_name_H-M   'P 1'
_cell_length_a   5.07385368
_cell_length_b   8.06105322
_cell_length_c   9.59945265
_cell_angle_alpha   90.00000000
_cell_angle_beta   90.00000000
_cell_angle_gamma   90.00000000
_symmetry_Int_Tables_number   1
_chemical_formula_structural   CsTm(MoO4)2
_chemical_formula_sum   'Cs2 Tm2 Mo4 O16'
_cell_volume   392.62341669
_cell_formula_units_Z   2
loop_
 _symmetry_equiv_pos_site_id
 _symmetry_equiv_pos_as_xyz
  1  'x, y, z'
loop_
 _atom_site_type_symbol
 _atom_site_label
 _atom_site_symmetry_multiplicity
 _atom_site_fract_x
 _atom_site_fract_y
 _atom_site_fract_z
 _atom_site_occupancy
  Cs  Cs0  1  -0.00000000  0.75000000  0.50000000  1
  Cs  Cs1  1  -0.00000000  0.25000000  0.50000000  1
  Tm  Tm2  1  -0.00000000  0.75000000  0.00000000  1
  Tm  Tm3  1  -0.00000000  0.25000000  0.00000000  1
  Mo  Mo4  1  0.47813313  -0.00000000  0.80636055  1
  Mo  Mo5  1  0.52186687  -0.00000000  0.19363945  1
  Mo  Mo6  1  0.52186687  0.50000000  0.80636055  1
  Mo  Mo7  1  0.47813313  0.50000000  0.19363945  1
  O  O8  1  0.75461425  -0.00000000  0.93551061  1
  O  O9  1  0.24538575  -0.00000000  0.06448939  1
  O  O10  1  0.24538575  0.50000000  0.93551061  1
  O  O11  1  0.75461425  0.50000000  0.06448939  1
  O  O12  1  0.74174596  0.67672560  0.81551150  1
  O  O13  1  0.25825404  0.32327440  0.18448850  1
  O  O14  1  0.25825404  0.67672560  0.18448850  1
  O  O15  1  0.25825404  0.82327440  0.81551150  1
  O  O16  1  0.74174596  0.32327440  0.81551150  1
  O  O17  1  0.74174596  0.17672560  0.18448850  1
  O  O18  1  0.74174596  0.82327440  0.18448850  1
  O  O19  1  0.25825404  0.17672560  0.81551150  1
  O  O20  1  0.61463891  -0.00000000  0.63867496  1
  O  O21  1  0.38536109  -0.00000000  0.36132504  1
  O  O22  1  0.38536109  0.50000000  0.63867496  1
  O  O23  1  0.61463891  0.50000000  0.36132504  1
