# generated using pymatgen
data_Ho5NiBi2
_symmetry_space_group_name_H-M   'P 1'
_cell_length_a   7.95897061
_cell_length_b   8.75357935
_cell_length_c   12.36864790
_cell_angle_alpha   90.00000000
_cell_angle_beta   90.00000000
_cell_angle_gamma   90.00000000
_symmetry_Int_Tables_number   1
_chemical_formula_structural   Ho5NiBi2
_chemical_formula_sum   'Ho20 Ni4 Bi8'
_cell_volume   861.71727713
_cell_formula_units_Z   4
loop_
 _symmetry_equiv_pos_site_id
 _symmetry_equiv_pos_as_xyz
  1  'x, y, z'
loop_
 _atom_site_type_symbol
 _atom_site_label
 _atom_site_symmetry_multiplicity
 _atom_site_fract_x
 _atom_site_fract_y
 _atom_site_fract_z
 _atom_site_occupancy
  Ho  Ho0  1  0.67175475  0.75000000  0.70466494  1
  Ho  Ho1  1  0.32824525  0.25000000  0.29533506  1
  Ho  Ho2  1  0.17175475  0.25000000  0.79533506  1
  Ho  Ho3  1  0.82824525  0.75000000  0.20466494  1
  Ho  Ho4  1  0.14891303  0.75000000  0.82153741  1
  Ho  Ho5  1  0.85108697  0.25000000  0.17846259  1
  Ho  Ho6  1  0.64891303  0.25000000  0.67846259  1
  Ho  Ho7  1  0.35108697  0.75000000  0.32153741  1
  Ho  Ho8  1  0.55249888  0.75000000  0.99546953  1
  Ho  Ho9  1  0.44750112  0.25000000  0.00453047  1
  Ho  Ho10  1  0.05249888  0.25000000  0.50453047  1
  Ho  Ho11  1  0.94750112  0.75000000  0.49546953  1
  Ho  Ho12  1  0.83414142  0.45963987  0.92591380  1
  Ho  Ho13  1  0.16585858  0.54036013  0.07408620  1
  Ho  Ho14  1  0.33414142  0.54036013  0.57408620  1
  Ho  Ho15  1  0.16585858  0.95963987  0.07408620  1
  Ho  Ho16  1  0.66585858  0.45963987  0.42591380  1
  Ho  Ho17  1  0.83414142  0.04036013  0.92591380  1
  Ho  Ho18  1  0.66585858  0.04036013  0.42591380  1
  Ho  Ho19  1  0.33414142  0.95963987  0.57408620  1
  Ni  Ni20  1  0.92751899  0.75000000  0.99203569  1
  Ni  Ni21  1  0.07248101  0.25000000  0.00796431  1
  Ni  Ni22  1  0.42751899  0.25000000  0.50796431  1
  Ni  Ni23  1  0.57248101  0.75000000  0.49203569  1
  Bi  Bi24  1  0.95534966  0.99994654  0.67563573  1
  Bi  Bi25  1  0.04465034  0.00005346  0.32436427  1
  Bi  Bi26  1  0.45534966  0.00005346  0.82436427  1
  Bi  Bi27  1  0.04465034  0.49994654  0.32436427  1
  Bi  Bi28  1  0.54465034  0.99994654  0.17563573  1
  Bi  Bi29  1  0.95534966  0.50005346  0.67563573  1
  Bi  Bi30  1  0.54465034  0.50005346  0.17563573  1
  Bi  Bi31  1  0.45534966  0.49994654  0.82436427  1
