# generated using pymatgen
data_Er4MgGe4
_symmetry_space_group_name_H-M   'P 1'
_cell_length_a   7.17279127
_cell_length_b   7.71721766
_cell_length_c   14.45865055
_cell_angle_alpha   90.00000000
_cell_angle_beta   90.00000000
_cell_angle_gamma   90.00000000
_symmetry_Int_Tables_number   1
_chemical_formula_structural   Er4MgGe4
_chemical_formula_sum   'Er16 Mg4 Ge16'
_cell_volume   800.34401907
_cell_formula_units_Z   4
loop_
 _symmetry_equiv_pos_site_id
 _symmetry_equiv_pos_as_xyz
  1  'x, y, z'
loop_
 _atom_site_type_symbol
 _atom_site_label
 _atom_site_symmetry_multiplicity
 _atom_site_fract_x
 _atom_site_fract_y
 _atom_site_fract_z
 _atom_site_occupancy
  Er  Er0  1  0.99107082  0.81731091  0.40546527  1
  Er  Er1  1  0.00892918  0.18268909  0.59453473  1
  Er  Er2  1  0.50892918  0.31731091  0.59453473  1
  Er  Er3  1  0.00892918  0.18268909  0.90546527  1
  Er  Er4  1  0.49107082  0.68268909  0.40546527  1
  Er  Er5  1  0.99107082  0.81731091  0.09453473  1
  Er  Er6  1  0.49107082  0.68268909  0.09453473  1
  Er  Er7  1  0.50892918  0.31731091  0.90546527  1
  Er  Er8  1  0.66912768  0.82277662  0.87341935  1
  Er  Er9  1  0.33087232  0.17722338  0.12658065  1
  Er  Er10  1  0.83087232  0.32277662  0.12658065  1
  Er  Er11  1  0.33087232  0.17722338  0.37341935  1
  Er  Er12  1  0.16912768  0.67722338  0.87341935  1
  Er  Er13  1  0.66912768  0.82277662  0.62658065  1
  Er  Er14  1  0.16912768  0.67722338  0.62658065  1
  Er  Er15  1  0.83087232  0.32277662  0.37341935  1
  Mg  Mg16  1  0.83912008  0.48428818  0.75000000  1
  Mg  Mg17  1  0.16087992  0.51571182  0.25000000  1
  Mg  Mg18  1  0.66087992  0.98428818  0.25000000  1
  Mg  Mg19  1  0.33912008  0.01571182  0.75000000  1
  Ge  Ge20  1  0.97508961  0.90835424  0.75000000  1
  Ge  Ge21  1  0.02491039  0.09164576  0.25000000  1
  Ge  Ge22  1  0.52491039  0.40835424  0.25000000  1
  Ge  Ge23  1  0.47508961  0.59164576  0.75000000  1
  Ge  Ge24  1  0.82791435  0.53410763  0.96382487  1
  Ge  Ge25  1  0.17208565  0.46589237  0.03617513  1
  Ge  Ge26  1  0.67208565  0.03410763  0.03617513  1
  Ge  Ge27  1  0.17208565  0.46589237  0.46382487  1
  Ge  Ge28  1  0.32791435  0.96589237  0.96382487  1
  Ge  Ge29  1  0.82791435  0.53410763  0.53617513  1
  Ge  Ge30  1  0.32791435  0.96589237  0.53617513  1
  Ge  Ge31  1  0.67208565  0.03410763  0.46382487  1
  Ge  Ge32  1  0.71072622  0.13894079  0.75000000  1
  Ge  Ge33  1  0.28927378  0.86105921  0.25000000  1
  Ge  Ge34  1  0.78927378  0.63894079  0.25000000  1
  Ge  Ge35  1  0.21072622  0.36105921  0.75000000  1
