# generated using pymatgen
data_Cs2LaNb2O7
_symmetry_space_group_name_H-M   'P 1'
_cell_length_a   5.79406703
_cell_length_b   5.80519631
_cell_length_c   12.25729715
_cell_angle_alpha   103.69808808
_cell_angle_beta   90.00000000
_cell_angle_gamma   90.00000000
_symmetry_Int_Tables_number   1
_chemical_formula_structural   Cs2LaNb2O7
_chemical_formula_sum   'Cs4 La2 Nb4 O14'
_cell_volume   400.55617893
_cell_formula_units_Z   2
loop_
 _symmetry_equiv_pos_site_id
 _symmetry_equiv_pos_as_xyz
  1  'x, y, z'
loop_
 _atom_site_type_symbol
 _atom_site_label
 _atom_site_symmetry_multiplicity
 _atom_site_fract_x
 _atom_site_fract_y
 _atom_site_fract_z
 _atom_site_occupancy
  Cs  Cs0  1  0.75000000  0.45629242  0.38439792  1
  Cs  Cs1  1  0.25000000  0.54370758  0.61560208  1
  Cs  Cs2  1  0.75000000  0.07189450  0.61560208  1
  Cs  Cs3  1  0.25000000  0.92810550  0.38439792  1
  La  La4  1  0.75000000  0.26278470  -0.00000000  1
  La  La5  1  0.25000000  0.73721530  -0.00000000  1
  Nb  Nb6  1  0.75000000  0.66232374  0.82316867  1
  Nb  Nb7  1  0.25000000  0.33767626  0.17683133  1
  Nb  Nb8  1  0.75000000  0.83915507  0.17683133  1
  Nb  Nb9  1  0.25000000  0.16084493  0.82316867  1
  O  O10  1  0.75000000  0.69087357  -0.00000000  1
  O  O11  1  0.25000000  0.30912643  -0.00000000  1
  O  O12  1  0.00000000  0.93140146  0.86280293  1
  O  O13  1  -0.00000000  0.06859854  0.13719707  1
  O  O14  1  0.50000000  0.06859854  0.13719707  1
  O  O15  1  0.50000000  0.93140146  0.86280293  1
  O  O16  1  0.75000000  0.60622187  0.66552669  1
  O  O17  1  0.25000000  0.39377813  0.33447331  1
  O  O18  1  0.75000000  0.94069517  0.33447331  1
  O  O19  1  0.25000000  0.05930483  0.66552669  1
  O  O20  1  -0.00000000  0.58340773  0.16681545  1
  O  O21  1  0.00000000  0.41659227  0.83318455  1
  O  O22  1  0.50000000  0.41659227  0.83318455  1
  O  O23  1  0.50000000  0.58340773  0.16681545  1
