# generated using pymatgen
data_SrPm3
_symmetry_space_group_name_H-M   'P 1'
_cell_length_a   7.61168887
_cell_length_b   7.61168992
_cell_length_c   6.02820488
_cell_angle_alpha   90.00000000
_cell_angle_beta   90.00000000
_cell_angle_gamma   120.00000985
_symmetry_Int_Tables_number   1
_chemical_formula_structural   SrPm3
_chemical_formula_sum   'Sr2 Pm6'
_cell_volume   302.46888732
_cell_formula_units_Z   2
loop_
 _symmetry_equiv_pos_site_id
 _symmetry_equiv_pos_as_xyz
  1  'x, y, z'
loop_
 _atom_site_type_symbol
 _atom_site_label
 _atom_site_symmetry_multiplicity
 _atom_site_fract_x
 _atom_site_fract_y
 _atom_site_fract_z
 _atom_site_occupancy
  Sr  Sr0  1  0.33333400  0.66666700  0.75000100  1
  Sr  Sr1  1  0.66666700  0.33333300  0.25000000  1
  Pm  Pm2  1  0.16003402  0.32006803  0.25000000  1
  Pm  Pm3  1  0.67993297  0.83996698  0.25000000  1
  Pm  Pm4  1  0.16003402  0.83996698  0.25000000  1
  Pm  Pm5  1  0.83996698  0.67993197  0.75000100  1
  Pm  Pm6  1  0.32006803  0.16003302  0.75000100  1
  Pm  Pm7  1  0.83996598  0.16003302  0.75000100  1
