# generated using pymatgen
data_Ba(MgIn)2
_symmetry_space_group_name_H-M   'P 1'
_cell_length_a   4.88786822
_cell_length_b   4.88786822
_cell_length_c   7.21555008
_cell_angle_alpha   109.79792499
_cell_angle_beta   109.79792499
_cell_angle_gamma   90.00000000
_symmetry_Int_Tables_number   1
_chemical_formula_structural   Ba(MgIn)2
_chemical_formula_sum   'Ba1 Mg2 In2'
_cell_volume   151.32528007
_cell_formula_units_Z   1
loop_
 _symmetry_equiv_pos_site_id
 _symmetry_equiv_pos_as_xyz
  1  'x, y, z'
loop_
 _atom_site_type_symbol
 _atom_site_label
 _atom_site_symmetry_multiplicity
 _atom_site_fract_x
 _atom_site_fract_y
 _atom_site_fract_z
 _atom_site_occupancy
  Ba  Ba0  1  0.00000000  0.00000000  0.00000000  1
  Mg  Mg1  1  0.25000000  0.75000000  0.50000000  1
  Mg  Mg2  1  0.75000000  0.25000000  0.50000000  1
  In  In3  1  0.38566707  0.38566707  0.77133414  1
  In  In4  1  0.61433293  0.61433293  0.22866586  1
