# generated using pymatgen
data_Ca2ZnAs2(H2O5)2
_symmetry_space_group_name_H-M   'P 1'
_cell_length_a   5.68299292
_cell_length_b   5.96214040
_cell_length_c   7.12875263
_cell_angle_alpha   108.61024168
_cell_angle_beta   97.02399895
_cell_angle_gamma   109.47636361
_symmetry_Int_Tables_number   1
_chemical_formula_structural   Ca2ZnAs2(H2O5)2
_chemical_formula_sum   'Ca2 Zn1 As2 H4 O10'
_cell_volume   208.62480729
_cell_formula_units_Z   1
loop_
 _symmetry_equiv_pos_site_id
 _symmetry_equiv_pos_as_xyz
  1  'x, y, z'
loop_
 _atom_site_type_symbol
 _atom_site_label
 _atom_site_symmetry_multiplicity
 _atom_site_fract_x
 _atom_site_fract_y
 _atom_site_fract_z
 _atom_site_occupancy
  Ca  Ca0  1  0.14717978  0.29314178  0.76229181  1
  Ca  Ca1  1  0.85282022  0.70685822  0.23770819  1
  Zn  Zn2  1  0.50000000  -0.00000000  -0.00000000  1
  As  As3  1  0.17359610  0.33875467  0.24550220  1
  As  As4  1  0.82640390  0.66124533  0.75449780  1
  H  H5  1  0.42499229  0.84066477  0.30443534  1
  H  H6  1  0.57500771  0.15933523  0.69556466  1
  H  H7  1  0.65537400  0.12422300  0.39390490  1
  H  H8  1  0.34462600  0.87577700  0.60609510  1
  O  O9  1  0.90482942  0.24676834  0.04860152  1
  O  O10  1  0.09517058  0.75323166  0.95139848  1
  O  O11  1  0.42128893  0.04551973  0.72855618  1
  O  O12  1  0.57871107  0.95448027  0.27144382  1
  O  O13  1  0.22316682  0.65505851  0.38310370  1
  O  O14  1  0.77683318  0.34494149  0.61689630  1
  O  O15  1  0.13674091  0.15842604  0.39127211  1
  O  O16  1  0.86325909  0.84157396  0.60872789  1
  O  O17  1  0.42697100  0.34563511  0.13050863  1
  O  O18  1  0.57302900  0.65436489  0.86949137  1
