# generated using pymatgen
data_Ba5Lu8Ni4O21
_symmetry_space_group_name_H-M   'P 1'
_cell_length_a   5.65571241
_cell_length_b   10.02898498
_cell_length_c   10.02898498
_cell_angle_alpha   85.43982210
_cell_angle_beta   73.62228642
_cell_angle_gamma   73.62228642
_symmetry_Int_Tables_number   1
_chemical_formula_structural   Ba5Lu8Ni4O21
_chemical_formula_sum   'Ba5 Lu8 Ni4 O21'
_cell_volume   523.62718597
_cell_formula_units_Z   1
loop_
 _symmetry_equiv_pos_site_id
 _symmetry_equiv_pos_as_xyz
  1  'x, y, z'
loop_
 _atom_site_type_symbol
 _atom_site_label
 _atom_site_symmetry_multiplicity
 _atom_site_fract_x
 _atom_site_fract_y
 _atom_site_fract_z
 _atom_site_occupancy
  Ba  Ba0  1  0.13939246  0.32252255  0.39869253  1
  Ba  Ba1  1  0.86060754  0.67747745  0.60130747  1
  Ba  Ba2  1  0.53808499  0.60130747  0.32252255  1
  Ba  Ba3  1  0.46191501  0.39869253  0.67747745  1
  Ba  Ba4  1  0.00000000  -0.00000000  -0.00000000  1
  Lu  Lu5  1  0.41108539  0.94696787  0.23086135  1
  Lu  Lu6  1  0.58891461  0.05303213  0.76913865  1
  Lu  Lu7  1  0.64194674  0.76913865  0.94696787  1
  Lu  Lu8  1  0.35805326  0.23086135  0.05303213  1
  Lu  Lu9  1  0.25019795  0.91737219  0.58223191  1
  Lu  Lu10  1  0.74980205  0.08262781  0.41776809  1
  Lu  Lu11  1  0.83242986  0.41776809  0.91737219  1
  Lu  Lu12  1  0.16757014  0.58223191  0.08262781  1
  Ni  Ni13  1  0.04091958  0.20280724  0.71535360  1
  Ni  Ni14  1  0.95908042  0.79719276  0.28464640  1
  Ni  Ni15  1  0.75627318  0.28464640  0.20280724  1
  Ni  Ni16  1  0.24372682  0.71535360  0.79719276  1
  O  O17  1  0.42903371  0.87104960  0.77362836  1
  O  O18  1  0.57096629  0.12895040  0.22637164  1
  O  O19  1  0.07371166  0.12895040  0.22637164  1
  O  O20  1  0.20266206  0.22637164  0.87104960  1
  O  O21  1  0.92628834  0.87104960  0.77362836  1
  O  O22  1  0.79733794  0.77362836  0.12895040  1
  O  O23  1  0.30008330  0.77362836  0.12895040  1
  O  O24  1  0.69991670  0.22637164  0.87104960  1
  O  O25  1  0.39697214  0.10842351  0.59495210  1
  O  O26  1  0.60302786  0.89157649  0.40504790  1
  O  O27  1  0.10034775  0.89157649  0.40504790  1
  O  O28  1  0.99192424  0.40504790  0.10842351  1
  O  O29  1  0.89965225  0.10842351  0.59495210  1
  O  O30  1  0.00807576  0.59495210  0.89157649  1
  O  O31  1  0.50539565  0.59495210  0.89157649  1
  O  O32  1  0.49460435  0.40504790  0.10842351  1
  O  O33  1  0.50000000  -0.00000000  -0.00000000  1
  O  O34  1  0.36720866  0.67289106  0.59269163  1
  O  O35  1  0.63279134  0.32710894  0.40730837  1
  O  O36  1  0.95990028  0.40730837  0.67289106  1
  O  O37  1  0.04009972  0.59269163  0.32710894  1
