# generated using pymatgen
data_Be3Tl2Cd2F12
_symmetry_space_group_name_H-M   'P 1'
_cell_length_a   10.65504589
_cell_length_b   10.65504589
_cell_length_c   10.65504589
_cell_angle_alpha   90.00000000
_cell_angle_beta   90.00000000
_cell_angle_gamma   90.00000000
_symmetry_Int_Tables_number   1
_chemical_formula_structural   Be3Tl2Cd2F12
_chemical_formula_sum   'Be12 Tl8 Cd8 F48'
_cell_volume   1209.66739098
_cell_formula_units_Z   4
loop_
 _symmetry_equiv_pos_site_id
 _symmetry_equiv_pos_as_xyz
  1  'x, y, z'
loop_
 _atom_site_type_symbol
 _atom_site_label
 _atom_site_symmetry_multiplicity
 _atom_site_fract_x
 _atom_site_fract_y
 _atom_site_fract_z
 _atom_site_occupancy
  Be  Be0  1  0.01745982  0.21690541  0.37561107  1
  Be  Be1  1  0.48254018  0.78309459  0.87561107  1
  Be  Be2  1  0.98254018  0.71690541  0.12438893  1
  Be  Be3  1  0.37561107  0.01745982  0.21690541  1
  Be  Be4  1  0.51745982  0.28309459  0.62438893  1
  Be  Be5  1  0.87561107  0.48254018  0.78309459  1
  Be  Be6  1  0.12438893  0.98254018  0.71690541  1
  Be  Be7  1  0.62438893  0.51745982  0.28309459  1
  Be  Be8  1  0.21690541  0.37561107  0.01745982  1
  Be  Be9  1  0.71690541  0.12438893  0.98254018  1
  Be  Be10  1  0.28309459  0.62438893  0.51745982  1
  Be  Be11  1  0.78309459  0.87561107  0.48254018  1
  Tl  Tl12  1  0.04998121  0.04998121  0.04998121  1
  Tl  Tl13  1  0.45001879  0.95001879  0.54998121  1
  Tl  Tl14  1  0.95001879  0.54998121  0.45001879  1
  Tl  Tl15  1  0.54998121  0.45001879  0.95001879  1
  Tl  Tl16  1  0.81638574  0.81638574  0.81638574  1
  Tl  Tl17  1  0.68361426  0.18361426  0.31638574  1
  Tl  Tl18  1  0.18361426  0.31638574  0.68361426  1
  Tl  Tl19  1  0.31638574  0.68361426  0.18361426  1
  Cd  Cd20  1  0.33362571  0.33362571  0.33362571  1
  Cd  Cd21  1  0.16637429  0.66637429  0.83362571  1
  Cd  Cd22  1  0.66637429  0.83362571  0.16637429  1
  Cd  Cd23  1  0.83362571  0.16637429  0.66637429  1
  Cd  Cd24  1  0.59551460  0.59551460  0.59551460  1
  Cd  Cd25  1  0.90448540  0.40448540  0.09551460  1
  Cd  Cd26  1  0.40448540  0.09551460  0.90448540  1
  Cd  Cd27  1  0.09551460  0.90448540  0.40448540  1
  F  F28  1  0.00890631  0.07936500  0.32318129  1
  F  F29  1  0.49109369  0.92063500  0.82318129  1
  F  F30  1  0.99109369  0.57936500  0.17681871  1
  F  F31  1  0.32318129  0.00890631  0.07936500  1
  F  F32  1  0.50890631  0.42063500  0.67681871  1
  F  F33  1  0.82318129  0.49109369  0.92063500  1
  F  F34  1  0.17681871  0.99109369  0.57936500  1
  F  F35  1  0.67681871  0.50890631  0.42063500  1
  F  F36  1  0.07936500  0.32318129  0.00890631  1
  F  F37  1  0.57936500  0.17681871  0.99109369  1
  F  F38  1  0.42063500  0.67681871  0.50890631  1
  F  F39  1  0.92063500  0.82318129  0.49109369  1
  F  F40  1  0.26348510  0.50092645  0.44025538  1
  F  F41  1  0.23651490  0.49907355  0.94025538  1
  F  F42  1  0.73651490  0.00092645  0.05974462  1
  F  F43  1  0.44025538  0.26348510  0.50092645  1
  F  F44  1  0.76348510  0.99907355  0.55974462  1
  F  F45  1  0.94025538  0.23651490  0.49907355  1
  F  F46  1  0.05974462  0.73651490  0.00092645  1
  F  F47  1  0.55974462  0.76348510  0.99907355  1
  F  F48  1  0.50092645  0.44025538  0.26348510  1
  F  F49  1  0.00092645  0.05974462  0.73651490  1
  F  F50  1  0.99907355  0.55974462  0.76348510  1
  F  F51  1  0.49907355  0.94025538  0.23651490  1
  F  F52  1  0.04460966  0.80572791  0.22370910  1
  F  F53  1  0.45539034  0.19427209  0.72370910  1
  F  F54  1  0.95539034  0.30572791  0.27629090  1
  F  F55  1  0.22370910  0.04460966  0.80572791  1
  F  F56  1  0.54460966  0.69427209  0.77629090  1
  F  F57  1  0.72370910  0.45539034  0.19427209  1
  F  F58  1  0.27629090  0.95539034  0.30572791  1
  F  F59  1  0.77629090  0.54460966  0.69427209  1
  F  F60  1  0.80572791  0.22370910  0.04460966  1
  F  F61  1  0.30572791  0.27629090  0.95539034  1
  F  F62  1  0.69427209  0.77629090  0.54460966  1
  F  F63  1  0.19427209  0.72370910  0.45539034  1
  F  F64  1  0.15560703  0.25145000  0.40822521  1
  F  F65  1  0.34439297  0.74855000  0.90822521  1
  F  F66  1  0.84439297  0.75145000  0.09177479  1
  F  F67  1  0.40822521  0.15560703  0.25145000  1
  F  F68  1  0.65560703  0.24855000  0.59177479  1
  F  F69  1  0.90822521  0.34439297  0.74855000  1
  F  F70  1  0.09177479  0.84439297  0.75145000  1
  F  F71  1  0.59177479  0.65560703  0.24855000  1
  F  F72  1  0.25145000  0.40822521  0.15560703  1
  F  F73  1  0.75145000  0.09177479  0.84439297  1
  F  F74  1  0.24855000  0.59177479  0.65560703  1
  F  F75  1  0.74855000  0.90822521  0.34439297  1
