# generated using pymatgen
data_PrMnSi2
_symmetry_space_group_name_H-M   'P 1'
_cell_length_a   4.21344237
_cell_length_b   4.33206677
_cell_length_c   8.45410255
_cell_angle_alpha   104.84534961
_cell_angle_beta   90.00000000
_cell_angle_gamma   90.00000000
_symmetry_Int_Tables_number   1
_chemical_formula_structural   PrMnSi2
_chemical_formula_sum   'Pr2 Mn2 Si4'
_cell_volume   149.16120834
_cell_formula_units_Z   2
loop_
 _symmetry_equiv_pos_site_id
 _symmetry_equiv_pos_as_xyz
  1  'x, y, z'
loop_
 _atom_site_type_symbol
 _atom_site_label
 _atom_site_symmetry_multiplicity
 _atom_site_fract_x
 _atom_site_fract_y
 _atom_site_fract_z
 _atom_site_occupancy
  Pr  Pr0  1  0.25000000  0.39381825  0.78763651  1
  Pr  Pr1  1  0.75000000  0.60618175  0.21236349  1
  Mn  Mn2  1  0.25000000  0.18655122  0.37310243  1
  Mn  Mn3  1  0.75000000  0.81344878  0.62689757  1
  Si  Si4  1  0.25000000  0.04247042  0.08494084  1
  Si  Si5  1  0.75000000  0.95752958  0.91505916  1
  Si  Si6  1  0.25000000  0.74921757  0.49843514  1
  Si  Si7  1  0.75000000  0.25078243  0.50156486  1
