# generated using pymatgen
data_YbEu(SiAu)4
_symmetry_space_group_name_H-M   'P 1'
_cell_length_a   4.41206308
_cell_length_b   4.41206308
_cell_length_c   10.08302152
_cell_angle_alpha   90.00000000
_cell_angle_beta   90.00000000
_cell_angle_gamma   90.00000000
_symmetry_Int_Tables_number   1
_chemical_formula_structural   YbEu(SiAu)4
_chemical_formula_sum   'Yb1 Eu1 Si4 Au4'
_cell_volume   196.27912809
_cell_formula_units_Z   1
loop_
 _symmetry_equiv_pos_site_id
 _symmetry_equiv_pos_as_xyz
  1  'x, y, z'
loop_
 _atom_site_type_symbol
 _atom_site_label
 _atom_site_symmetry_multiplicity
 _atom_site_fract_x
 _atom_site_fract_y
 _atom_site_fract_z
 _atom_site_occupancy
  Yb  Yb0  1  0.50000000  0.50000000  0.50000000  1
  Eu  Eu1  1  0.00000000  -0.00000000  0.00000000  1
  Si  Si2  1  0.50000000  0.50000000  0.11555061  1
  Si  Si3  1  -0.00000000  -0.00000000  0.61511781  1
  Si  Si4  1  0.00000000  0.00000000  0.38488219  1
  Si  Si5  1  0.50000000  0.50000000  0.88444939  1
  Au  Au6  1  -0.00000000  0.50000000  0.25252745  1
  Au  Au7  1  0.50000000  -0.00000000  0.74747255  1
  Au  Au8  1  0.50000000  0.00000000  0.25252745  1
  Au  Au9  1  0.00000000  0.50000000  0.74747255  1
