# generated using pymatgen
data_Y6Mg(SiS7)2
_symmetry_space_group_name_H-M   'P 1'
_cell_length_a   5.62041106
_cell_length_b   9.95626073
_cell_length_c   9.95613665
_cell_angle_alpha   119.99881111
_cell_angle_beta   90.00011247
_cell_angle_gamma   89.99983963
_symmetry_Int_Tables_number   1
_chemical_formula_structural   Y6Mg(SiS7)2
_chemical_formula_sum   'Y6 Mg1 Si2 S14'
_cell_volume   482.49300763
_cell_formula_units_Z   1
loop_
 _symmetry_equiv_pos_site_id
 _symmetry_equiv_pos_as_xyz
  1  'x, y, z'
loop_
 _atom_site_type_symbol
 _atom_site_label
 _atom_site_symmetry_multiplicity
 _atom_site_fract_x
 _atom_site_fract_y
 _atom_site_fract_z
 _atom_site_occupancy
  Y  Y0  1  0.24785640  0.23378207  0.35690595  1
  Y  Y1  1  0.24785638  0.64310522  0.87688152  1
  Y  Y2  1  0.24786189  0.12312760  0.76622206  1
  Y  Y3  1  0.75110769  0.76618387  0.64353667  1
  Y  Y4  1  0.75110959  0.35645447  0.12264171  1
  Y  Y5  1  0.75111261  0.87734690  0.23381453  1
  Mg  Mg6  1  0.48704504  0.00000168  0.00000470  1
  Si  Si7  1  0.83483479  0.33335237  0.66667845  1
  Si  Si8  1  0.33934287  0.66664420  0.33332071  1
  S  S9  1  0.46032041  0.33333677  0.66666912  1
  S  S10  1  0.96374738  0.66665906  0.33332971  1
  S  S11  1  0.72581846  0.16307692  0.25077060  1
  S  S12  1  0.72581996  0.74923212  0.91231109  1
  S  S13  1  0.72581605  0.08768752  0.83691498  1
  S  S14  1  0.24272575  0.83474722  0.74982776  1
  S  S15  1  0.24272531  0.25017059  0.08491381  1
  S  S16  1  0.24271960  0.91508600  0.16526305  1
  S  S17  1  0.98646152  0.10869840  0.51998826  1
  S  S18  1  0.98646828  0.48001773  0.58870940  1
  S  S19  1  0.98647200  0.41130019  0.89130590  1
  S  S20  1  0.48958800  0.89130089  0.48020925  1
  S  S21  1  0.48959429  0.51978307  0.41108555  1
  S  S22  1  0.48959575  0.58890516  0.10869522  1
