# generated using pymatgen
data_ZrMnCr
_symmetry_space_group_name_H-M   'P 1'
_cell_length_a   5.04047541
_cell_length_b   5.05184968
_cell_length_c   8.10322068
_cell_angle_alpha   90.00000000
_cell_angle_beta   90.00000000
_cell_angle_gamma   59.68004820
_symmetry_Int_Tables_number   1
_chemical_formula_structural   ZrMnCr
_chemical_formula_sum   'Zr4 Mn4 Cr4'
_cell_volume   178.11520071
_cell_formula_units_Z   4
loop_
 _symmetry_equiv_pos_site_id
 _symmetry_equiv_pos_as_xyz
  1  'x, y, z'
loop_
 _atom_site_type_symbol
 _atom_site_label
 _atom_site_symmetry_multiplicity
 _atom_site_fract_x
 _atom_site_fract_y
 _atom_site_fract_z
 _atom_site_occupancy
  Zr  Zr0  1  0.33350795  0.33325694  0.55953847  1
  Zr  Zr1  1  0.66694567  0.66664910  0.43601813  1
  Zr  Zr2  1  0.66694567  0.66664910  0.06398187  1
  Zr  Zr3  1  0.33350795  0.33325694  0.94046153  1
  Mn  Mn4  1  0.83283086  0.83294832  0.75000000  1
  Mn  Mn5  1  0.17131773  0.65936938  0.25000000  1
  Mn  Mn6  1  0.65825427  0.17140626  0.25000000  1
  Mn  Mn7  1  0.17055909  0.16962706  0.25000000  1
  Cr  Cr8  1  0.99894019  0.99926131  0.49045992  1
  Cr  Cr9  1  0.99894019  0.99926131  0.00954008  1
  Cr  Cr10  1  0.83359299  0.33472093  0.75000000  1
  Cr  Cr11  1  0.33465745  0.83359334  0.75000000  1
