# generated using pymatgen
data_TlP(HO2)2
_symmetry_space_group_name_H-M   'P 1'
_cell_length_a   4.55745995
_cell_length_b   6.63027095
_cell_length_c   14.51954871
_cell_angle_alpha   91.63299611
_cell_angle_beta   90.00000000
_cell_angle_gamma   90.00000000
_symmetry_Int_Tables_number   1
_chemical_formula_structural   TlP(HO2)2
_chemical_formula_sum   'Tl4 P4 H8 O16'
_cell_volume   438.56183880
_cell_formula_units_Z   4
loop_
 _symmetry_equiv_pos_site_id
 _symmetry_equiv_pos_as_xyz
  1  'x, y, z'
loop_
 _atom_site_type_symbol
 _atom_site_label
 _atom_site_symmetry_multiplicity
 _atom_site_fract_x
 _atom_site_fract_y
 _atom_site_fract_z
 _atom_site_occupancy
  Tl  Tl0  1  0.49847711  0.25521500  0.63020225  1
  Tl  Tl1  1  0.01025163  0.73488155  0.86876828  1
  Tl  Tl2  1  0.48974837  0.73488155  0.36876828  1
  Tl  Tl3  1  0.00152289  0.25521500  0.13020225  1
  P  P4  1  0.98249772  0.76506180  0.62465636  1
  P  P5  1  0.47745847  0.24902615  0.87651774  1
  P  P6  1  0.02254153  0.24902615  0.37651774  1
  P  P7  1  0.51750228  0.76506180  0.12465636  1
  H  H8  1  0.51170125  0.75508828  0.68326340  1
  H  H9  1  0.01325502  0.23923613  0.81606328  1
  H  H10  1  0.48674498  0.23923613  0.31606328  1
  H  H11  1  0.98829875  0.75508828  0.18326340  1
  H  H12  1  0.98966299  0.01153846  0.48865244  1
  H  H13  1  0.51033701  0.01153846  0.98865244  1
  H  H14  1  0.98058643  0.51942080  0.50979096  1
  H  H15  1  0.51941357  0.51942080  0.00979096  1
  O  O16  1  0.09248809  0.95217126  0.57551905  1
  O  O17  1  0.59968937  0.05425008  0.92415022  1
  O  O18  1  0.90031063  0.05425008  0.42415022  1
  O  O19  1  0.40751191  0.95217126  0.07551905  1
  O  O20  1  0.71995840  0.82693031  0.69119084  1
  O  O21  1  0.22218260  0.17180807  0.80972368  1
  O  O22  1  0.27781740  0.17180807  0.30972368  1
  O  O23  1  0.78004160  0.82693031  0.19119084  1
  O  O24  1  0.83994750  0.60758523  0.55375181  1
  O  O25  1  0.34863832  0.39947756  0.94803232  1
  O  O26  1  0.15136168  0.39947756  0.44803232  1
  O  O27  1  0.66005250  0.60758523  0.05375181  1
  O  O28  1  0.22576821  0.66624454  0.68129851  1
  O  O29  1  0.72435062  0.33176477  0.81681887  1
  O  O30  1  0.77564938  0.33176477  0.31681887  1
  O  O31  1  0.27423179  0.66624454  0.18129851  1
