# generated using pymatgen
data_Y3Sn4BiO14
_symmetry_space_group_name_H-M   'P 1'
_cell_length_a   7.48833568
_cell_length_b   7.46328874
_cell_length_c   7.48833568
_cell_angle_alpha   90.00000000
_cell_angle_beta   60.00000000
_cell_angle_gamma   120.11107848
_symmetry_Int_Tables_number   1
_chemical_formula_structural   Y3Sn4BiO14
_chemical_formula_sum   'Y3 Sn4 Bi1 O14'
_cell_volume   295.43003882
_cell_formula_units_Z   1
loop_
 _symmetry_equiv_pos_site_id
 _symmetry_equiv_pos_as_xyz
  1  'x, y, z'
loop_
 _atom_site_type_symbol
 _atom_site_label
 _atom_site_symmetry_multiplicity
 _atom_site_fract_x
 _atom_site_fract_y
 _atom_site_fract_z
 _atom_site_occupancy
  Y  Y0  1  0.50000000  0.50000000  0.50000000  1
  Y  Y1  1  0.00000000  0.50000000  -0.00000000  1
  Y  Y2  1  0.00000000  0.50000000  0.50000000  1
  Sn  Sn3  1  0.50000000  0.50000000  -0.00000000  1
  Sn  Sn4  1  0.50000000  0.00000000  -0.00000000  1
  Sn  Sn5  1  0.00000000  0.00000000  0.50000000  1
  Sn  Sn6  1  0.00000000  0.00000000  -0.00000000  1
  Bi  Bi7  1  0.50000000  0.00000000  0.50000000  1
  O  O8  1  0.75845895  0.38768843  0.37077052  1
  O  O9  1  0.24154105  0.61231157  0.62922948  1
  O  O10  1  0.82664791  0.90847997  0.33667604  1
  O  O11  1  0.67547634  0.33808590  0.91226183  1
  O  O12  1  0.24515601  0.90847997  0.91816794  1
  O  O13  1  0.25034773  0.33808590  0.33739044  1
  O  O14  1  0.25034773  0.33808590  0.91226183  1
  O  O15  1  0.24515601  0.90847997  0.33667604  1
  O  O16  1  0.17335209  0.09152003  0.66332396  1
  O  O17  1  0.32452366  0.66191410  0.08773817  1
  O  O18  1  0.75484399  0.09152003  0.08183206  1
  O  O19  1  0.74965227  0.66191410  0.66260956  1
  O  O20  1  0.74965227  0.66191410  0.08773817  1
  O  O21  1  0.75484399  0.09152003  0.66332396  1
