# generated using pymatgen
data_Y3(FeRu2)2
_symmetry_space_group_name_H-M   'P 1'
_cell_length_a   5.24156090
_cell_length_b   5.20078947
_cell_length_c   13.10311673
_cell_angle_alpha   90.74864769
_cell_angle_beta   88.81115482
_cell_angle_gamma   117.91770191
_symmetry_Int_Tables_number   1
_chemical_formula_structural   Y3(FeRu2)2
_chemical_formula_sum   'Y6 Fe4 Ru8'
_cell_volume   315.55417867
_cell_formula_units_Z   2
loop_
 _symmetry_equiv_pos_site_id
 _symmetry_equiv_pos_as_xyz
  1  'x, y, z'
loop_
 _atom_site_type_symbol
 _atom_site_label
 _atom_site_symmetry_multiplicity
 _atom_site_fract_x
 _atom_site_fract_y
 _atom_site_fract_z
 _atom_site_occupancy
  Y  Y0  1  0.33208156  0.66601546  0.91589487  1
  Y  Y1  1  0.99662226  0.99733055  0.25057385  1
  Y  Y2  1  0.66586302  0.33408636  0.58360816  1
  Y  Y3  1  0.33413698  0.66591364  0.66639184  1
  Y  Y4  1  0.00337774  0.00266945  0.99942615  1
  Y  Y5  1  0.66791844  0.33398454  0.33410513  1
  Fe  Fe6  1  0.50000000  0.50000000  0.12500000  1
  Fe  Fe7  1  0.16826182  0.83597270  0.45863335  1
  Fe  Fe8  1  0.83173818  0.16402730  0.79136665  1
  Fe  Fe9  1  0.50000000  -0.00000000  0.12500000  1
  Ru  Ru10  1  0.16963759  0.33767940  0.45567827  1
  Ru  Ru11  1  0.83036241  0.66232060  0.79432173  1
  Ru  Ru12  1  0.33555170  0.67140267  0.28795921  1
  Ru  Ru13  1  -0.00000000  -0.00000000  0.62500000  1
  Ru  Ru14  1  0.66444830  0.32859733  0.96204079  1
  Ru  Ru15  1  -0.00000000  0.50000000  0.12500000  1
  Ru  Ru16  1  0.66765472  0.83476133  0.45832519  1
  Ru  Ru17  1  0.33234528  0.16523867  0.79167481  1
