# generated using pymatgen
data_Tm5S7
_symmetry_space_group_name_H-M   'P 1'
_cell_length_a   3.75838114
_cell_length_b   6.59503800
_cell_length_c   11.47847410
_cell_angle_alpha   103.82983887
_cell_angle_beta   90.00000000
_cell_angle_gamma   73.44473386
_symmetry_Int_Tables_number   1
_chemical_formula_structural   Tm5S7
_chemical_formula_sum   'Tm5 S7'
_cell_volume   264.10256757
_cell_formula_units_Z   1
loop_
 _symmetry_equiv_pos_site_id
 _symmetry_equiv_pos_as_xyz
  1  'x, y, z'
loop_
 _atom_site_type_symbol
 _atom_site_label
 _atom_site_symmetry_multiplicity
 _atom_site_fract_x
 _atom_site_fract_y
 _atom_site_fract_z
 _atom_site_occupancy
  Tm  Tm0  1  0.11377996  0.77244007  0.57725894  1
  Tm  Tm1  1  0.88933830  0.22132340  0.41984993  1
  Tm  Tm2  1  0.99962733  0.00074534  0.99797440  1
  Tm  Tm3  1  0.29890144  0.40219711  0.81505385  1
  Tm  Tm4  1  0.69940959  0.60118082  0.18821576  1
  S  S5  1  0.65837515  0.68324970  0.94896788  1
  S  S6  1  0.34060979  0.31878043  0.05060911  1
  S  S7  1  0.04113658  0.91772684  0.21278859  1
  S  S8  1  0.95881334  0.08237331  0.78295180  1
  S  S9  1  0.74281059  0.51437882  0.64592516  1
  S  S10  1  0.26104053  0.47791894  0.35081641  1
  S  S11  1  0.50515740  0.98968520  0.49338818  1
