# generated using pymatgen
data_Y5O4F7
_symmetry_space_group_name_H-M   'P 1'
_cell_length_a   5.48179854
_cell_length_b   5.61826901
_cell_length_c   14.28898036
_cell_angle_alpha   78.66211688
_cell_angle_beta   89.86002067
_cell_angle_gamma   90.00000000
_symmetry_Int_Tables_number   1
_chemical_formula_structural   Y5O4F7
_chemical_formula_sum   'Y10 O8 F14'
_cell_volume   431.48568911
_cell_formula_units_Z   2
loop_
 _symmetry_equiv_pos_site_id
 _symmetry_equiv_pos_as_xyz
  1  'x, y, z'
loop_
 _atom_site_type_symbol
 _atom_site_label
 _atom_site_symmetry_multiplicity
 _atom_site_fract_x
 _atom_site_fract_y
 _atom_site_fract_z
 _atom_site_occupancy
  Y  Y0  1  0.71238298  0.07180246  0.29443809  1
  Y  Y1  1  0.28761702  0.36624055  0.70556191  1
  Y  Y2  1  0.29244554  0.54566167  0.29504547  1
  Y  Y3  1  0.70755446  0.84070714  0.70495453  1
  Y  Y4  1  0.27652829  0.01697141  0.50154725  1
  Y  Y5  1  0.72347171  0.51851866  0.49845275  1
  Y  Y6  1  0.29306573  0.20122357  0.09811409  1
  Y  Y7  1  0.70693427  0.29933766  0.90188591  1
  Y  Y8  1  0.70535065  0.70431570  0.09915838  1
  Y  Y9  1  0.29464935  0.80347408  0.90084162  1
  O  O10  1  0.52718229  0.36954408  0.20011105  1
  O  O11  1  0.47281771  0.56965513  0.79988895  1
  O  O12  1  0.47404668  0.86686109  0.20538479  1
  O  O13  1  0.52595332  0.07224588  0.79461521  1
  O  O14  1  0.50000000  0.51497524  -0.00000000  1
  O  O15  1  0.50000000  0.01350568  -0.00000000  1
  O  O16  1  0.53739634  0.28595133  0.40488198  1
  O  O17  1  0.46260366  0.69083331  0.59511802  1
  F  F18  1  0.95166577  0.00442950  0.17184931  1
  F  F19  1  0.04833423  0.17627881  0.82815069  1
  F  F20  1  0.04431994  0.49607912  0.17444233  1
  F  F21  1  0.95568006  0.67052145  0.82555767  1
  F  F22  1  0.89078001  0.88943341  0.49680272  1
  F  F23  1  0.10921999  0.38623614  0.50319728  1
  F  F24  1  0.00000000  0.39852745  -0.00000000  1
  F  F25  1  0.00000000  0.89931398  -0.00000000  1
  F  F26  1  0.45153755  0.78857847  0.39970980  1
  F  F27  1  0.54846245  0.18828827  0.60029020  1
  F  F28  1  0.09319329  0.16528419  0.34374932  1
  F  F29  1  0.90680671  0.50903351  0.65625068  1
  F  F30  1  0.90908702  0.67513816  0.34629475  1
  F  F31  1  0.09091298  0.02143291  0.65370525  1
