# generated using pymatgen
data_Zr8Ni61B18
_symmetry_space_group_name_H-M   'P 1'
_cell_length_a   7.52045581
_cell_length_b   7.52045581
_cell_length_c   18.53253793
_cell_angle_alpha   90.00000000
_cell_angle_beta   90.00000000
_cell_angle_gamma   120.00000000
_symmetry_Int_Tables_number   1
_chemical_formula_structural   Zr8Ni61B18
_chemical_formula_sum   'Zr8 Ni61 B18'
_cell_volume   907.72407997
_cell_formula_units_Z   1
loop_
 _symmetry_equiv_pos_site_id
 _symmetry_equiv_pos_as_xyz
  1  'x, y, z'
loop_
 _atom_site_type_symbol
 _atom_site_label
 _atom_site_symmetry_multiplicity
 _atom_site_fract_x
 _atom_site_fract_y
 _atom_site_fract_z
 _atom_site_occupancy
  Zr  Zr0  1  0.00000000  -0.00000000  0.75078032  1
  Zr  Zr1  1  0.66666700  0.33333300  0.08270542  1
  Zr  Zr2  1  0.33333300  0.66666700  0.41668007  1
  Zr  Zr3  1  0.33333300  0.66666700  0.91729458  1
  Zr  Zr4  1  0.00000000  0.00000000  0.24921968  1
  Zr  Zr5  1  0.66666700  0.33333300  0.58331993  1
  Zr  Zr6  1  0.66666700  0.33333300  0.33206173  1
  Zr  Zr7  1  0.33333300  0.66666700  0.66793827  1
  Ni  Ni8  1  0.98996676  0.66668482  0.66692294  1
  Ni  Ni9  1  0.66159460  -0.00000000  0.00000000  1
  Ni  Ni10  1  0.32328294  0.33331518  0.33307706  1
  Ni  Ni11  1  0.21676484  0.78323516  0.78406101  1
  Ni  Ni12  1  0.88906943  0.11093057  0.11037093  1
  Ni  Ni13  1  0.55171569  0.44828431  0.44781263  1
  Ni  Ni14  1  -0.00000000  0.33840540  0.00000000  1
  Ni  Ni15  1  0.66668482  0.67671706  0.33307706  1
  Ni  Ni16  1  0.33331518  0.01003324  0.66692294  1
  Ni  Ni17  1  0.21676484  0.43352967  0.78406101  1
  Ni  Ni18  1  0.88906943  0.77813786  0.11037093  1
  Ni  Ni19  1  0.55171569  0.10343237  0.44781263  1
  Ni  Ni20  1  0.98996676  0.32328294  0.66692294  1
  Ni  Ni21  1  0.66159460  0.66159460  0.00000000  1
  Ni  Ni22  1  0.32328294  0.98996676  0.33307706  1
  Ni  Ni23  1  0.33331518  0.32328294  0.66692294  1
  Ni  Ni24  1  0.00000000  0.66159460  -0.00000000  1
  Ni  Ni25  1  0.66668482  0.98996676  0.33307706  1
  Ni  Ni26  1  0.11093057  0.22186214  0.88962907  1
  Ni  Ni27  1  0.78323516  0.56647033  0.21593899  1
  Ni  Ni28  1  0.44828431  0.89656763  0.55218737  1
  Ni  Ni29  1  0.11093057  0.88906943  0.88962907  1
  Ni  Ni30  1  0.78323516  0.21676484  0.21593899  1
  Ni  Ni31  1  0.44828431  0.55171569  0.55218737  1
  Ni  Ni32  1  0.77813786  0.88906943  0.88962907  1
  Ni  Ni33  1  0.43352967  0.21676484  0.21593899  1
  Ni  Ni34  1  0.10343237  0.55171569  0.55218737  1
  Ni  Ni35  1  0.33840540  0.00000000  -0.00000000  1
  Ni  Ni36  1  0.01003324  0.33331518  0.33307706  1
  Ni  Ni37  1  0.67671706  0.66668482  0.66692294  1
  Ni  Ni38  1  0.67671706  0.01003324  0.66692294  1
  Ni  Ni39  1  0.33840540  0.33840540  -0.00000000  1
  Ni  Ni40  1  0.01003324  0.67671706  0.33307706  1
  Ni  Ni41  1  0.56647033  0.78323516  0.78406101  1
  Ni  Ni42  1  0.22186214  0.11093057  0.11037093  1
  Ni  Ni43  1  0.89656763  0.44828431  0.44781263  1
  Ni  Ni44  1  0.81781822  0.18218178  0.79586519  1
  Ni  Ni45  1  0.48483801  0.51516199  0.12852435  1
  Ni  Ni46  1  0.15121032  0.84878968  0.46211439  1
  Ni  Ni47  1  0.81781822  0.63563544  0.79586519  1
  Ni  Ni48  1  0.48483801  0.96967702  0.12852435  1
  Ni  Ni49  1  0.15121032  0.30242065  0.46211439  1
  Ni  Ni50  1  0.66666700  0.33333300  0.94692941  1
  Ni  Ni51  1  0.33333300  0.66666700  0.28032233  1
  Ni  Ni52  1  -0.00000000  -0.00000000  0.61407158  1
  Ni  Ni53  1  0.36436456  0.18218178  0.79586519  1
  Ni  Ni54  1  0.03032298  0.51516199  0.12852435  1
  Ni  Ni55  1  0.69757935  0.84878968  0.46211439  1
  Ni  Ni56  1  0.51516199  0.48483801  0.87147565  1
  Ni  Ni57  1  0.18218178  0.81781822  0.20413481  1
  Ni  Ni58  1  0.84878968  0.15121032  0.53788561  1
  Ni  Ni59  1  0.51516199  0.03032298  0.87147565  1
  Ni  Ni60  1  0.18218178  0.36436456  0.20413481  1
  Ni  Ni61  1  0.84878968  0.69757935  0.53788561  1
  Ni  Ni62  1  0.66666700  0.33333300  0.71967767  1
  Ni  Ni63  1  0.33333300  0.66666700  0.05307059  1
  Ni  Ni64  1  0.00000000  -0.00000000  0.38592842  1
  Ni  Ni65  1  0.96967702  0.48483801  0.87147565  1
  Ni  Ni66  1  0.63563544  0.81781822  0.20413481  1
  Ni  Ni67  1  0.30242065  0.15121032  0.53788561  1
  Ni  Ni68  1  0.00000000  -0.00000000  0.00000000  1
  B  B69  1  0.50938370  0.01876840  0.75540743  1
  B  B70  1  0.17877179  0.35754358  0.08896804  1
  B  B71  1  0.84316733  0.68633366  0.42189235  1
  B  B72  1  0.82122821  0.17877179  0.91103196  1
  B  B73  1  0.49061630  0.50938370  0.24459257  1
  B  B74  1  0.15683267  0.84316733  0.57810765  1
  B  B75  1  0.98123160  0.49061630  0.75540743  1
  B  B76  1  0.64245642  0.82122821  0.08896804  1
  B  B77  1  0.31366634  0.15683267  0.42189235  1
  B  B78  1  0.82122821  0.64245642  0.91103196  1
  B  B79  1  0.49061630  0.98123160  0.24459257  1
  B  B80  1  0.15683267  0.31366634  0.57810765  1
  B  B81  1  0.50938370  0.49061630  0.75540743  1
  B  B82  1  0.17877179  0.82122821  0.08896804  1
  B  B83  1  0.84316733  0.15683267  0.42189235  1
  B  B84  1  0.35754358  0.17877179  0.91103196  1
  B  B85  1  0.01876840  0.50938370  0.24459257  1
  B  B86  1  0.68633366  0.84316733  0.57810765  1
