# generated using pymatgen
data_TbYNi2
_symmetry_space_group_name_H-M   'P 1'
_cell_length_a   4.21381382
_cell_length_b   5.40134920
_cell_length_c   7.13701764
_cell_angle_alpha   90.00000000
_cell_angle_beta   90.00000000
_cell_angle_gamma   90.00000000
_symmetry_Int_Tables_number   1
_chemical_formula_structural   TbYNi2
_chemical_formula_sum   'Tb2 Y2 Ni4'
_cell_volume   162.44051918
_cell_formula_units_Z   2
loop_
 _symmetry_equiv_pos_site_id
 _symmetry_equiv_pos_as_xyz
  1  'x, y, z'
loop_
 _atom_site_type_symbol
 _atom_site_label
 _atom_site_symmetry_multiplicity
 _atom_site_fract_x
 _atom_site_fract_y
 _atom_site_fract_z
 _atom_site_occupancy
  Tb  Tb0  1  0.25000000  0.37155171  0.67708081  1
  Tb  Tb1  1  0.25000000  0.12844829  0.17708081  1
  Y  Y2  1  0.75000000  0.62834203  0.32309843  1
  Y  Y3  1  0.75000000  0.87165797  0.82309843  1
  Ni  Ni4  1  0.25000000  0.87442229  0.53860893  1
  Ni  Ni5  1  0.25000000  0.62557771  0.03860893  1
  Ni  Ni6  1  0.75000000  0.12720274  0.46121184  1
  Ni  Ni7  1  0.75000000  0.37279726  0.96121184  1
