# generated using pymatgen
data_TbThRe4
_symmetry_space_group_name_H-M   'P 1'
_cell_length_a   5.42783543
_cell_length_b   5.42481373
_cell_length_c   9.16348067
_cell_angle_alpha   90.00000000
_cell_angle_beta   89.96625328
_cell_angle_gamma   60.01841389
_symmetry_Int_Tables_number   1
_chemical_formula_structural   TbThRe4
_chemical_formula_sum   'Tb2 Th2 Re8'
_cell_volume   233.71309966
_cell_formula_units_Z   2
loop_
 _symmetry_equiv_pos_site_id
 _symmetry_equiv_pos_as_xyz
  1  'x, y, z'
loop_
 _atom_site_type_symbol
 _atom_site_label
 _atom_site_symmetry_multiplicity
 _atom_site_fract_x
 _atom_site_fract_y
 _atom_site_fract_z
 _atom_site_occupancy
  Tb  Tb0  1  0.33325072  0.33337464  0.56185089  1
  Tb  Tb1  1  0.66674928  0.66662536  0.43814911  1
  Th  Th2  1  0.66691751  0.66654125  0.06092053  1
  Th  Th3  1  0.33308249  0.33345875  0.93907947  1
  Re  Re4  1  0.00000000  -0.00000000  0.50000000  1
  Re  Re5  1  0.00000000  -0.00000000  0.00000000  1
  Re  Re6  1  0.82995423  0.34007058  0.74248130  1
  Re  Re7  1  0.33994865  0.83002567  0.74247606  1
  Re  Re8  1  0.82995423  0.82997520  0.74248130  1
  Re  Re9  1  0.17004577  0.65992942  0.25751870  1
  Re  Re10  1  0.66005135  0.16997433  0.25752394  1
  Re  Re11  1  0.17004577  0.17002480  0.25751870  1
