# generated using pymatgen
data_Ti4CuS8
_symmetry_space_group_name_H-M   'P 1'
_cell_length_a   7.02872865
_cell_length_b   7.02872865
_cell_length_c   7.02872865
_cell_angle_alpha   90.00000000
_cell_angle_beta   60.00000000
_cell_angle_gamma   120.00000000
_symmetry_Int_Tables_number   1
_chemical_formula_structural   Ti4CuS8
_chemical_formula_sum   'Ti4 Cu1 S8'
_cell_volume   245.53608890
_cell_formula_units_Z   1
loop_
 _symmetry_equiv_pos_site_id
 _symmetry_equiv_pos_as_xyz
  1  'x, y, z'
loop_
 _atom_site_type_symbol
 _atom_site_label
 _atom_site_symmetry_multiplicity
 _atom_site_fract_x
 _atom_site_fract_y
 _atom_site_fract_z
 _atom_site_occupancy
  Ti  Ti0  1  0.49252465  0.98878697  0.50373768  1
  Ti  Ti1  1  0.49252465  0.50373768  0.50373768  1
  Ti  Ti2  1  0.00747535  0.50373768  0.98878697  1
  Ti  Ti3  1  0.00747535  0.50373768  0.50373768  1
  Cu  Cu4  1  0.25000000  0.12500000  0.12500000  1
  S  S5  1  0.98921852  0.73382778  0.25539074  1
  S  S6  1  0.98921852  0.25539074  0.25539074  1
  S  S7  1  0.51078148  0.25539074  0.73382778  1
  S  S8  1  0.51078148  0.25539074  0.25539074  1
  S  S9  1  0.00680302  0.26020453  0.74659849  1
  S  S10  1  0.00680302  0.74659849  0.74659849  1
  S  S11  1  0.49319698  0.74659849  0.26020453  1
  S  S12  1  0.49319698  0.74659849  0.74659849  1
