# generated using pymatgen
data_Tl5Re6Se8Cl7
_symmetry_space_group_name_H-M   'P 1'
_cell_length_a   9.58842353
_cell_length_b   9.58842409
_cell_length_c   18.45444345
_cell_angle_alpha   89.99288695
_cell_angle_beta   74.95034090
_cell_angle_gamma   120.00076765
_symmetry_Int_Tables_number   1
_chemical_formula_structural   Tl5Re6Se8Cl7
_chemical_formula_sum   'Tl10 Re12 Se16 Cl14'
_cell_volume   1401.70882653
_cell_formula_units_Z   2
loop_
 _symmetry_equiv_pos_site_id
 _symmetry_equiv_pos_as_xyz
  1  'x, y, z'
loop_
 _atom_site_type_symbol
 _atom_site_label
 _atom_site_symmetry_multiplicity
 _atom_site_fract_x
 _atom_site_fract_y
 _atom_site_fract_z
 _atom_site_occupancy
  Tl  Tl0  1  0.49982005  0.44787590  0.75023540  1
  Tl  Tl1  1  0.19778120  0.74993958  0.75024842  1
  Tl  Tl2  1  0.80187429  0.05193855  0.75024046  1
  Tl  Tl3  1  0.80188870  0.24994455  0.25023540  1
  Tl  Tl4  1  0.19782099  0.94788526  0.25024046  1
  Tl  Tl5  1  0.49981200  0.55197038  0.25024842  1
  Tl  Tl6  1  0.30636539  0.15321255  0.54044128  1
  Tl  Tl7  1  0.30634617  0.65319333  0.04044128  1
  Tl  Tl8  1  0.69416795  0.84705964  0.45875096  1
  Tl  Tl9  1  0.69418940  0.34708110  0.95875096  1
  Re  Re10  1  0.89964871  0.55192974  0.43831183  1
  Re  Re11  1  0.21397106  0.66210702  0.43832200  1
  Re  Re12  1  0.00978724  0.34772621  0.43830669  1
  Re  Re13  1  0.00975843  0.16203946  0.93831183  1
  Re  Re14  1  0.21396710  0.05190607  0.93830669  1
  Re  Re15  1  0.89957098  0.84770694  0.93832200  1
  Re  Re16  1  0.10041075  0.44823825  0.56171729  1
  Re  Re17  1  0.78609496  0.33785905  0.56170959  1
  Re  Re18  1  0.99006711  0.65216663  0.56171869  1
  Re  Re19  1  0.99004446  0.83787196  0.06171729  1
  Re  Re20  1  0.78611468  0.94821420  0.06171869  1
  Re  Re21  1  0.10043136  0.15219545  0.06170959  1
  Se  Se22  1  0.10131669  0.85375644  0.44075788  1
  Se  Se23  1  0.31170293  0.45796350  0.44075466  1
  Se  Se24  1  0.70551200  0.24761715  0.44073303  1
  Se  Se25  1  0.70548567  0.95792543  0.94075788  1
  Se  Se26  1  0.31164982  0.35375497  0.94073303  1
  Se  Se27  1  0.10128184  0.74754240  0.94075466  1
  Se  Se28  1  0.89894586  0.14626109  0.55929858  1
  Se  Se29  1  0.68802442  0.54173361  0.55929445  1
  Se  Se30  1  0.29442981  0.75263416  0.55931796  1
  Se  Se31  1  0.29444033  0.04175556  0.05929858  1
  Se  Se32  1  0.68804787  0.64625223  0.05931796  1
  Se  Se33  1  0.89897194  0.25268113  0.05929445  1
  Se  Se34  1  0.11857952  0.55936353  0.32207910  1
  Se  Se35  1  0.11855738  0.05934138  0.82207910  1
  Se  Se36  1  0.88141568  0.44063432  0.67793131  1
  Se  Se37  1  0.88143437  0.94065302  0.17793131  1
  Cl  Cl38  1  0.77517364  0.62618784  0.35487470  1
  Cl  Cl39  1  0.49609957  0.86990604  0.35486733  1
  Cl  Cl40  1  0.01893480  0.14901319  0.35488373  1
  Cl  Cl41  1  0.01893746  0.36995166  0.85487470  1
  Cl  Cl42  1  0.49610307  0.12618146  0.85488373  1
  Cl  Cl43  1  0.77522663  0.64903310  0.85486733  1
  Cl  Cl44  1  0.22614193  0.37551745  0.64521584  1
  Cl  Cl45  1  0.50421094  0.12869450  0.64522366  1
  Cl  Cl46  1  0.97926249  0.85058849  0.64521576  1
  Cl  Cl47  1  0.97926671  0.62864223  0.14521584  1
  Cl  Cl48  1  0.50419575  0.87552174  0.14521576  1
  Cl  Cl49  1  0.22608184  0.35056540  0.14522366  1
  Cl  Cl50  1  0.48382502  0.24193956  0.27424938  1
  Cl  Cl51  1  0.48381105  0.74192560  0.77424938  1
