# generated using pymatgen
data_U2Be25Cu
_symmetry_space_group_name_H-M   'P 1'
_cell_length_a   7.25087271
_cell_length_b   7.25087271
_cell_length_c   7.25087271
_cell_angle_alpha   90.00000000
_cell_angle_beta   60.00000000
_cell_angle_gamma   120.00000000
_symmetry_Int_Tables_number   1
_chemical_formula_structural   U2Be25Cu
_chemical_formula_sum   'U2 Be25 Cu1'
_cell_volume   269.56024645
_cell_formula_units_Z   1
loop_
 _symmetry_equiv_pos_site_id
 _symmetry_equiv_pos_as_xyz
  1  'x, y, z'
loop_
 _atom_site_type_symbol
 _atom_site_label
 _atom_site_symmetry_multiplicity
 _atom_site_fract_x
 _atom_site_fract_y
 _atom_site_fract_z
 _atom_site_occupancy
  U  U0  1  0.50000000  0.75000000  0.75000000  1
  U  U1  1  0.50000000  0.25000000  0.25000000  1
  Be  Be2  1  0.65025507  0.21280704  0.78719296  1
  Be  Be3  1  0.34974493  0.78719296  0.21280704  1
  Be  Be4  1  0.65025507  0.43744802  0.56255198  1
  Be  Be5  1  0.34974493  0.56255198  0.43744802  1
  Be  Be6  1  0.75596575  0.69722760  0.30277240  1
  Be  Be7  1  0.24403425  0.30277240  0.69722760  1
  Be  Be8  1  0.75596575  0.05873815  0.94126185  1
  Be  Be9  1  0.24403425  0.94126185  0.05873815  1
  Be  Be10  1  -0.00000000  0.78719296  0.43744802  1
  Be  Be11  1  -0.00000000  0.21280704  0.56255198  1
  Be  Be12  1  -0.00000000  0.56255198  0.21280704  1
  Be  Be13  1  -0.00000000  0.43744802  0.78719296  1
  Be  Be14  1  -0.00000000  0.30277240  0.05873815  1
  Be  Be15  1  -0.00000000  0.69722760  0.94126185  1
  Be  Be16  1  -0.00000000  0.94126185  0.69722760  1
  Be  Be17  1  -0.00000000  0.05873815  0.30277240  1
  Be  Be18  1  0.22464098  0.43744802  0.21280704  1
  Be  Be19  1  0.77535902  0.56255198  0.78719296  1
  Be  Be20  1  0.77535902  0.21280704  0.43744802  1
  Be  Be21  1  0.22464098  0.78719296  0.56255198  1
  Be  Be22  1  0.36151055  0.05873815  0.69722760  1
  Be  Be23  1  0.63848945  0.94126185  0.30277240  1
  Be  Be24  1  0.63848945  0.69722760  0.05873815  1
  Be  Be25  1  0.36151055  0.30277240  0.94126185  1
  Be  Be26  1  -0.00000000  0.50000000  0.50000000  1
  Cu  Cu27  1  -0.00000000  -0.00000000  0.00000000  1
