# generated using pymatgen
data_SrCuSi
_symmetry_space_group_name_H-M   'P 1'
_cell_length_a   4.14079558
_cell_length_b   4.13999067
_cell_length_c   4.66460184
_cell_angle_alpha   90.00000000
_cell_angle_beta   90.00000000
_cell_angle_gamma   119.96148152
_symmetry_Int_Tables_number   1
_chemical_formula_structural   SrCuSi
_chemical_formula_sum   'Sr1 Cu1 Si1'
_cell_volume   69.27823268
_cell_formula_units_Z   1
loop_
 _symmetry_equiv_pos_site_id
 _symmetry_equiv_pos_as_xyz
  1  'x, y, z'
loop_
 _atom_site_type_symbol
 _atom_site_label
 _atom_site_symmetry_multiplicity
 _atom_site_fract_x
 _atom_site_fract_y
 _atom_site_fract_z
 _atom_site_occupancy
  Sr  Sr0  1  0.99999358  0.99998841  -0.00000000  1
  Cu  Cu1  1  0.33314623  0.66671656  0.50000000  1
  Si  Si2  1  0.66676019  0.33329502  0.50000000  1
