# generated using pymatgen
data_SrCaU2O8
_symmetry_space_group_name_H-M   'P 1'
_cell_length_a   3.91222433
_cell_length_b   12.44046052
_cell_length_c   3.91222406
_cell_angle_alpha   80.95338065
_cell_angle_beta   60.00000449
_cell_angle_gamma   90.00000376
_symmetry_Int_Tables_number   1
_chemical_formula_structural   SrCaU2O8
_chemical_formula_sum   'Sr1 Ca1 U2 O8'
_cell_volume   162.15698278
_cell_formula_units_Z   1
loop_
 _symmetry_equiv_pos_site_id
 _symmetry_equiv_pos_as_xyz
  1  'x, y, z'
loop_
 _atom_site_type_symbol
 _atom_site_label
 _atom_site_symmetry_multiplicity
 _atom_site_fract_x
 _atom_site_fract_y
 _atom_site_fract_z
 _atom_site_occupancy
  Sr  Sr0  1  0.75000000  0.25000000  0.50000000  1
  Ca  Ca1  1  0.25000000  0.75000000  0.50000000  1
  U  U2  1  0.99801080  0.99403241  0.00397839  1
  U  U3  1  0.50198920  0.50596759  0.99602161  1
  O  O4  1  0.67849823  0.03549469  0.64300354  1
  O  O5  1  0.18275068  0.54825203  0.63449865  1
  O  O6  1  0.82150177  0.46450531  0.35699646  1
  O  O7  1  0.31724932  0.95174797  0.36550135  1
  O  O8  1  0.05220438  0.15661314  0.89559124  1
  O  O9  1  0.55623218  0.66869655  0.88753564  1
  O  O10  1  0.44779562  0.34338686  0.10440876  1
  O  O11  1  0.94376782  0.83130345  0.11246436  1
