# generated using pymatgen
data_SrCaZr8(PO4)12
_symmetry_space_group_name_H-M   'P 1'
_cell_length_a   8.89232258
_cell_length_b   9.33625877
_cell_length_c   15.40173008
_cell_angle_alpha   105.95913439
_cell_angle_beta   89.99992939
_cell_angle_gamma   118.43973223
_symmetry_Int_Tables_number   1
_chemical_formula_structural   SrCaZr8(PO4)12
_chemical_formula_sum   'Sr1 Ca1 Zr8 P12 O48'
_cell_volume   1067.97666273
_cell_formula_units_Z   1
loop_
 _symmetry_equiv_pos_site_id
 _symmetry_equiv_pos_as_xyz
  1  'x, y, z'
loop_
 _atom_site_type_symbol
 _atom_site_label
 _atom_site_symmetry_multiplicity
 _atom_site_fract_x
 _atom_site_fract_y
 _atom_site_fract_z
 _atom_site_occupancy
  Sr  Sr0  1  0.75000000  0.50000000  0.25000000  1
  Ca  Ca1  1  0.25000000  0.50000000  0.75000000  1
  Zr  Zr2  1  0.28554624  0.57113314  0.42857043  1
  Zr  Zr3  1  0.78562923  0.57124008  0.92847397  1
  Zr  Zr4  1  0.21445376  0.42886686  0.07142957  1
  Zr  Zr5  1  0.71437077  0.42875992  0.57152603  1
  Zr  Zr6  1  0.02672042  0.05315005  0.67569103  1
  Zr  Zr7  1  0.52572744  0.05170961  0.17511673  1
  Zr  Zr8  1  0.47327958  0.94684995  0.82430897  1
  Zr  Zr9  1  0.97427256  0.94829039  0.32488327  1
  P  P10  1  0.77765633  0.25597196  0.73382066  1
  P  P11  1  0.27631826  0.25503276  0.23358971  1
  P  P12  1  0.26659898  0.25620146  0.52203133  1
  P  P13  1  0.76630611  0.25481386  0.02124625  1
  P  P14  1  0.33995449  0.25602130  0.87229405  1
  P  P15  1  0.83968669  0.25497632  0.37252880  1
  P  P16  1  0.72234367  0.74402804  0.76617934  1
  P  P17  1  0.22368174  0.74496724  0.26641029  1
  P  P18  1  0.23340102  0.74379854  0.97796867  1
  P  P19  1  0.73369389  0.74518614  0.47875375  1
  P  P20  1  0.16004551  0.74397870  0.62770595  1
  P  P21  1  0.66031331  0.74502368  0.12747120  1
  O  O22  1  0.83590672  0.40983641  0.82092711  1
  O  O23  1  0.33651428  0.40967170  0.32060779  1
  O  O24  1  0.26056595  0.40997820  0.50751244  1
  O  O25  1  0.76041340  0.40953158  0.00792961  1
  O  O26  1  0.51836948  0.40982598  0.87651592  1
  O  O27  1  0.01749340  0.40963593  0.37624250  1
  O  O28  1  0.66409328  0.59016359  0.67907289  1
  O  O29  1  0.16348572  0.59032830  0.17939221  1
  O  O30  1  0.23943405  0.59002180  0.99248756  1
  O  O31  1  0.73958660  0.59046842  0.49207039  1
  O  O32  1  0.98163052  0.59017402  0.62348408  1
  O  O33  1  0.48250660  0.59036407  0.12375750  1
  O  O34  1  0.64955699  0.91122267  0.14937606  1
  O  O35  1  0.15033599  0.91124794  0.65006758  1
  O  O36  1  0.36231047  0.91118002  0.25003013  1
  O  O37  1  0.86103033  0.91125604  0.75017078  1
  O  O38  1  0.35509133  0.91081067  0.05516137  1
  O  O39  1  0.85535150  0.91164843  0.55642210  1
  O  O40  1  0.85044301  0.08877733  0.35062394  1
  O  O41  1  0.34966401  0.08875206  0.84993242  1
  O  O42  1  0.13768953  0.08881998  0.24996987  1
  O  O43  1  0.63896967  0.08874396  0.74982922  1
  O  O44  1  0.14490867  0.08918933  0.44483863  1
  O  O45  1  0.64464850  0.08835157  0.94357790  1
  O  O46  1  0.79853698  0.71852167  0.84643799  1
  O  O47  1  0.29895519  0.71830986  0.34647346  1
  O  O48  1  0.04941816  0.71829330  0.97598253  1
  O  O49  1  0.54927015  0.71846703  0.47629405  1
  O  O50  1  0.22956597  0.71847725  0.53671859  1
  O  O51  1  0.72938270  0.71829144  0.03645959  1
  O  O52  1  0.70146302  0.28147833  0.65356201  1
  O  O53  1  0.20104481  0.28169014  0.15352654  1
  O  O54  1  0.45058184  0.28170670  0.52401747  1
  O  O55  1  0.95072985  0.28153297  0.02370595  1
  O  O56  1  0.27043403  0.28152275  0.96328141  1
  O  O57  1  0.77061730  0.28170856  0.46354041  1
  O  O58  1  0.21588455  0.24367235  0.79509007  1
  O  O59  1  0.71369975  0.23807445  0.29506649  1
  O  O60  1  0.94317619  0.24363003  0.71042354  1
  O  O61  1  0.43857960  0.23814655  0.20928256  1
  O  O62  1  0.20649996  0.24373158  0.61646057  1
  O  O63  1  0.70478688  0.23801158  0.11454249  1
  O  O64  1  0.28411545  0.75632765  0.70490993  1
  O  O65  1  0.78630025  0.76192555  0.20493351  1
  O  O66  1  0.55682381  0.75636997  0.78957646  1
  O  O67  1  0.06142040  0.76185345  0.29071744  1
  O  O68  1  0.29350004  0.75626842  0.88353943  1
  O  O69  1  0.79521312  0.76198842  0.38545751  1
