# generated using pymatgen
data_Ta3(InS3)2
_symmetry_space_group_name_H-M   'P 1'
_cell_length_a   5.83090408
_cell_length_b   5.83242174
_cell_length_c   8.73868957
_cell_angle_alpha   70.51229366
_cell_angle_beta   90.00000004
_cell_angle_gamma   60.00861324
_symmetry_Int_Tables_number   1
_chemical_formula_structural   Ta3(InS3)2
_chemical_formula_sum   'Ta3 In2 S6'
_cell_volume   237.53442103
_cell_formula_units_Z   1
loop_
 _symmetry_equiv_pos_site_id
 _symmetry_equiv_pos_as_xyz
  1  'x, y, z'
loop_
 _atom_site_type_symbol
 _atom_site_label
 _atom_site_symmetry_multiplicity
 _atom_site_fract_x
 _atom_site_fract_y
 _atom_site_fract_z
 _atom_site_occupancy
  Ta  Ta0  1  0.83321052  0.33353604  0.49970788  1
  Ta  Ta1  1  0.50008056  0.99979696  0.50029212  1
  Ta  Ta2  1  0.16663095  0.66666700  0.50000000  1
  In  In3  1  0.00001700  0.99991379  0.99986323  1
  In  In4  1  0.33326380  0.33341921  0.00013677  1
  S  S5  1  0.10199522  0.46156632  0.30724207  1
  S  S6  1  0.43641147  0.79472355  0.30723929  1
  S  S7  1  0.76883230  0.12916232  0.30724615  1
  S  S8  1  0.23132762  0.20417068  0.69275385  1
  S  S9  1  0.56446802  0.53861045  0.69276071  1
  S  S10  1  0.89689554  0.87176668  0.69275793  1
