# generated using pymatgen
data_Sr4LaFe2(CoO5)3
_symmetry_space_group_name_H-M   'P 1'
_cell_length_a   5.48843016
_cell_length_b   8.78654259
_cell_length_c   6.75956754
_cell_angle_alpha   105.84028075
_cell_angle_beta   89.53248335
_cell_angle_gamma   107.89276535
_symmetry_Int_Tables_number   1
_chemical_formula_structural   Sr4LaFe2(CoO5)3
_chemical_formula_sum   'Sr4 La1 Fe2 Co3 O15'
_cell_volume   297.40737789
_cell_formula_units_Z   1
loop_
 _symmetry_equiv_pos_site_id
 _symmetry_equiv_pos_as_xyz
  1  'x, y, z'
loop_
 _atom_site_type_symbol
 _atom_site_label
 _atom_site_symmetry_multiplicity
 _atom_site_fract_x
 _atom_site_fract_y
 _atom_site_fract_z
 _atom_site_occupancy
  Sr  Sr0  1  0.40292948  0.79938553  0.10010432  1
  Sr  Sr1  1  -0.00231884  -0.00100852  0.49982320  1
  Sr  Sr2  1  0.20231884  0.40100852  0.30017680  1
  Sr  Sr3  1  0.79707052  0.60061447  0.69989568  1
  La  La4  1  0.60000000  0.20000000  0.90000000  1
  Fe  Fe5  1  0.80145790  0.60202269  0.20150296  1
  Fe  Fe6  1  0.39854210  0.79797731  0.59849704  1
  Co  Co7  1  -0.00298553  -0.00116150  -0.00052387  1
  Co  Co8  1  0.60000000  0.20000000  0.40000000  1
  Co  Co9  1  0.20298553  0.40116150  0.80052387  1
  O  O10  1  0.38373556  0.30454576  0.61324725  1
  O  O11  1  0.81626444  0.09545424  0.18675275  1
  O  O12  1  0.19893476  0.91325695  0.81513029  1
  O  O13  1  0.00106524  0.48674305  0.98486971  1
  O  O14  1  0.60000000  0.70000000  0.40000000  1
  O  O15  1  0.10000000  0.70000000  0.40000000  1
  O  O16  1  0.50777438  0.49112162  0.00061079  1
  O  O17  1  0.87197824  0.29137353  0.59184005  1
  O  O18  1  0.69222562  0.90887838  0.79938921  1
  O  O19  1  0.32802176  0.10862647  0.20815995  1
  O  O20  1  0.70643750  0.39338557  0.28848485  1
  O  O21  1  0.10000000  0.20000000  0.90000000  1
  O  O22  1  0.49356250  0.00661443  0.51151515  1
  O  O23  1  0.29631268  0.60308244  0.70433082  1
  O  O24  1  0.90368732  0.79691756  0.09566918  1
