# generated using pymatgen
data_TaFe4W
_symmetry_space_group_name_H-M   'P 1'
_cell_length_a   4.74923941
_cell_length_b   4.74923941
_cell_length_c   7.83028063
_cell_angle_alpha   90.01948687
_cell_angle_beta   89.98051313
_cell_angle_gamma   119.97817479
_symmetry_Int_Tables_number   1
_chemical_formula_structural   TaFe4W
_chemical_formula_sum   'Ta2 Fe8 W2'
_cell_volume   152.98594074
_cell_formula_units_Z   2
loop_
 _symmetry_equiv_pos_site_id
 _symmetry_equiv_pos_as_xyz
  1  'x, y, z'
loop_
 _atom_site_type_symbol
 _atom_site_label
 _atom_site_symmetry_multiplicity
 _atom_site_fract_x
 _atom_site_fract_y
 _atom_site_fract_z
 _atom_site_occupancy
  Ta  Ta0  1  0.66662095  0.33337905  0.57191794  1
  Ta  Ta1  1  0.33337905  0.66662095  0.42808206  1
  Fe  Fe2  1  0.00000000  -0.00000000  0.50000000  1
  Fe  Fe3  1  0.00000000  -0.00000000  0.00000000  1
  Fe  Fe4  1  0.17002750  0.34001893  0.75197140  1
  Fe  Fe5  1  0.16994952  0.83005048  0.75184992  1
  Fe  Fe6  1  0.65998107  0.82997250  0.75197140  1
  Fe  Fe7  1  0.82997250  0.65998107  0.24802860  1
  Fe  Fe8  1  0.83005048  0.16994952  0.24815008  1
  Fe  Fe9  1  0.34001893  0.17002750  0.24802860  1
  W  W10  1  0.33322619  0.66677381  0.05943579  1
  W  W11  1  0.66677381  0.33322619  0.94056421  1
