# generated using pymatgen
data_Sr4LaMn5O13
_symmetry_space_group_name_H-M   'P 1'
_cell_length_a   3.89391953
_cell_length_b   8.79578192
_cell_length_c   8.84320822
_cell_angle_alpha   90.60631593
_cell_angle_beta   90.00000000
_cell_angle_gamma   90.00000000
_symmetry_Int_Tables_number   1
_chemical_formula_structural   Sr4LaMn5O13
_chemical_formula_sum   'Sr4 La1 Mn5 O13'
_cell_volume   302.86351540
_cell_formula_units_Z   1
loop_
 _symmetry_equiv_pos_site_id
 _symmetry_equiv_pos_as_xyz
  1  'x, y, z'
loop_
 _atom_site_type_symbol
 _atom_site_label
 _atom_site_symmetry_multiplicity
 _atom_site_fract_x
 _atom_site_fract_y
 _atom_site_fract_z
 _atom_site_occupancy
  Sr  Sr0  1  0.50000000  0.11230155  0.28459221  1
  Sr  Sr1  1  0.50000000  0.88320654  0.71724599  1
  Sr  Sr2  1  0.50000000  0.71966537  0.11750279  1
  Sr  Sr3  1  0.50000000  0.50382815  0.49715418  1
  La  La4  1  0.50000000  0.27796108  0.88303756  1
  Mn  Mn5  1  -0.00000000  0.99737175  0.00094069  1
  Mn  Mn6  1  0.00000000  0.19669990  0.59201643  1
  Mn  Mn7  1  0.00000000  0.80369137  0.40551380  1
  Mn  Mn8  1  0.00000000  0.40409319  0.19370542  1
  Mn  Mn9  1  -0.00000000  0.59687943  0.80681287  1
  O  O10  1  -0.00000000  0.22372342  0.06010353  1
  O  O11  1  -0.00000000  0.78217656  0.92772754  1
  O  O12  1  0.00000000  0.92884266  0.22546153  1
  O  O13  1  -0.00000000  0.08039027  0.77816629  1
  O  O14  1  0.50000000  0.41518358  0.15264868  1
  O  O15  1  0.50000000  0.57173764  0.83995381  1
  O  O16  1  0.50000000  0.17160676  0.58539559  1
  O  O17  1  0.50000000  0.83271253  0.42303691  1
  O  O18  1  0.00000000  0.39201838  0.72559118  1
  O  O19  1  -0.00000000  0.60050742  0.28680238  1
  O  O20  1  0.00000000  0.29208169  0.39718390  1
  O  O21  1  -0.00000000  0.70551958  0.60204878  1
  O  O22  1  0.50000000  0.00780118  0.99735792  1
