# generated using pymatgen
data_Sr3LaTa2(FeO6)2
_symmetry_space_group_name_H-M   'P 1'
_cell_length_a   5.70013526
_cell_length_b   5.68257036
_cell_length_c   8.09019304
_cell_angle_alpha   90.27877668
_cell_angle_beta   89.76178046
_cell_angle_gamma   89.63500011
_symmetry_Int_Tables_number   1
_chemical_formula_structural   Sr3LaTa2(FeO6)2
_chemical_formula_sum   'Sr3 La1 Ta2 Fe2 O12'
_cell_volume   262.04211968
_cell_formula_units_Z   1
loop_
 _symmetry_equiv_pos_site_id
 _symmetry_equiv_pos_as_xyz
  1  'x, y, z'
loop_
 _atom_site_type_symbol
 _atom_site_label
 _atom_site_symmetry_multiplicity
 _atom_site_fract_x
 _atom_site_fract_y
 _atom_site_fract_z
 _atom_site_occupancy
  Sr  Sr0  1  0.50368227  0.52019167  0.75142855  1
  Sr  Sr1  1  0.99903503  0.01769507  0.75080384  1
  Sr  Sr2  1  0.49821618  0.47746185  0.24721755  1
  La  La3  1  0.00322968  0.95859681  0.24175448  1
  Ta  Ta4  1  0.99835507  0.49549512  0.50194388  1
  Ta  Ta5  1  0.50161804  0.00258230  0.99650138  1
  Fe  Fe6  1  0.50197564  0.99810248  0.49792266  1
  Fe  Fe7  1  -0.00013796  0.49707384  0.99974590  1
  O  O8  1  0.94284425  0.52501320  0.26013861  1
  O  O9  1  0.44585265  0.99722684  0.75245372  1
  O  O10  1  0.05996207  0.48803785  0.73883914  1
  O  O11  1  0.57209303  0.00486055  0.24958603  1
  O  O12  1  0.27018741  0.72675310  0.46816745  1
  O  O13  1  0.78376908  0.80131624  0.97554119  1
  O  O14  1  0.72321918  0.28036472  0.52535398  1
  O  O15  1  0.21377585  0.19901022  0.04368112  1
  O  O16  1  0.21367443  0.21965271  0.46024806  1
  O  O17  1  0.69356178  0.28643932  0.97702611  1
  O  O18  1  0.78112862  0.77662473  0.52879944  1
  O  O19  1  0.29395770  0.72750137  0.03284693  1
