# generated using pymatgen
data_Rb5Bi4
_symmetry_space_group_name_H-M   'P 1'
_cell_length_a   5.90366685
_cell_length_b   7.29744963
_cell_length_c   11.83021690
_cell_angle_alpha   86.05901094
_cell_angle_beta   75.55110348
_cell_angle_gamma   113.85992379
_symmetry_Int_Tables_number   1
_chemical_formula_structural   Rb5Bi4
_chemical_formula_sum   'Rb5 Bi4'
_cell_volume   443.00571420
_cell_formula_units_Z   1
loop_
 _symmetry_equiv_pos_site_id
 _symmetry_equiv_pos_as_xyz
  1  'x, y, z'
loop_
 _atom_site_type_symbol
 _atom_site_label
 _atom_site_symmetry_multiplicity
 _atom_site_fract_x
 _atom_site_fract_y
 _atom_site_fract_z
 _atom_site_occupancy
  Rb  Rb0  1  0.70915684  0.30729121  0.88897753  1
  Rb  Rb1  1  0.29562040  0.69743977  0.10619897  1
  Rb  Rb2  1  0.58231754  0.83175854  0.66712346  1
  Rb  Rb3  1  0.40800726  0.14697755  0.33096302  1
  Rb  Rb4  1  0.98831052  0.46089383  0.48427279  1
  Bi  Bi5  1  0.27991190  0.23528261  0.67545881  1
  Bi  Bi6  1  0.72028503  0.76621572  0.32564566  1
  Bi  Bi7  1  0.00307546  0.89731301  0.89116208  1
  Bi  Bi8  1  0.99801503  0.10412775  0.10809770  1
