# generated using pymatgen
data_Sr10P6BrClO24
_symmetry_space_group_name_H-M   'P 1'
_cell_length_a   7.28661158
_cell_length_b   10.05032403
_cell_length_c   10.05036794
_cell_angle_alpha   120.00047552
_cell_angle_beta   90.00006697
_cell_angle_gamma   89.99999056
_symmetry_Int_Tables_number   1
_chemical_formula_structural   Sr10P6BrClO24
_chemical_formula_sum   'Sr10 P6 Br1 Cl1 O24'
_cell_volume   637.40607140
_cell_formula_units_Z   1
loop_
 _symmetry_equiv_pos_site_id
 _symmetry_equiv_pos_as_xyz
  1  'x, y, z'
loop_
 _atom_site_type_symbol
 _atom_site_label
 _atom_site_symmetry_multiplicity
 _atom_site_fract_x
 _atom_site_fract_y
 _atom_site_fract_z
 _atom_site_occupancy
  Sr  Sr0  1  0.50028946  0.66664235  0.33332222  1
  Sr  Sr1  1  0.00031318  0.33335672  0.66667917  1
  Sr  Sr2  1  0.49971054  0.33335765  0.66667778  1
  Sr  Sr3  1  0.99968682  0.66664328  0.33332083  1
  Sr  Sr4  1  0.75193121  0.74629723  0.73914213  1
  Sr  Sr5  1  0.75192989  0.26084226  0.00713128  1
  Sr  Sr6  1  0.75193059  0.99285700  0.25372003  1
  Sr  Sr7  1  0.24806879  0.25370277  0.26085787  1
  Sr  Sr8  1  0.24807011  0.73915774  0.99286872  1
  Sr  Sr9  1  0.24806941  0.00714300  0.74627997  1
  P  P10  1  0.74980165  0.03204239  0.62419556  1
  P  P11  1  0.74980197  0.37580261  0.40784486  1
  P  P12  1  0.74980181  0.59215493  0.96795867  1
  P  P13  1  0.25019835  0.96795761  0.37580444  1
  P  P14  1  0.25019803  0.62419739  0.59215514  1
  P  P15  1  0.25019819  0.40784507  0.03204133  1
  Br  Br16  1  0.50000000  0.00000000  -0.00000000  1
  Cl  Cl17  1  -0.00000000  0.00000000  -0.00000000  1
  O  O18  1  0.57662034  0.08336971  0.72856237  1
  O  O19  1  0.57661835  0.27144084  0.35481039  1
  O  O20  1  0.57661857  0.64518809  0.91662746  1
  O  O21  1  0.07705524  0.91676662  0.27103646  1
  O  O22  1  0.07705270  0.72895973  0.64572530  1
  O  O23  1  0.07705383  0.35427601  0.08323599  1
  O  O24  1  0.42337966  0.91663029  0.27143763  1
  O  O25  1  0.42338165  0.72855916  0.64518961  1
  O  O26  1  0.42338143  0.35481191  0.08337254  1
  O  O27  1  0.92294476  0.08323338  0.72896354  1
  O  O28  1  0.92294730  0.27104027  0.35427470  1
  O  O29  1  0.92294617  0.64572399  0.91676401  1
  O  O30  1  0.75013355  0.85534555  0.51130981  1
  O  O31  1  0.75013359  0.48868519  0.34403320  1
  O  O32  1  0.75013369  0.65596313  0.14465249  1
  O  O33  1  0.24986645  0.14465445  0.48869019  1
  O  O34  1  0.24986641  0.51131481  0.65596680  1
  O  O35  1  0.24986631  0.34403687  0.85534751  1
  O  O36  1  0.75022997  0.12210563  0.53428203  1
  O  O37  1  0.75022985  0.46572951  0.58782351  1
  O  O38  1  0.75022994  0.41217718  0.87790052  1
  O  O39  1  0.24977003  0.87789437  0.46571797  1
  O  O40  1  0.24977015  0.53427049  0.41217649  1
  O  O41  1  0.24977006  0.58782282  0.12209948  1
