# generated using pymatgen
data_Sm(Fe5Re)2
_symmetry_space_group_name_H-M   'P 1'
_cell_length_a   4.70058572
_cell_length_b   6.51564706
_cell_length_c   6.51564706
_cell_angle_alpha   96.13570277
_cell_angle_beta   111.14412470
_cell_angle_gamma   68.85587530
_symmetry_Int_Tables_number   1
_chemical_formula_structural   Sm(Fe5Re)2
_chemical_formula_sum   'Sm1 Fe10 Re2'
_cell_volume   173.52967884
_cell_formula_units_Z   1
loop_
 _symmetry_equiv_pos_site_id
 _symmetry_equiv_pos_as_xyz
  1  'x, y, z'
loop_
 _atom_site_type_symbol
 _atom_site_label
 _atom_site_symmetry_multiplicity
 _atom_site_fract_x
 _atom_site_fract_y
 _atom_site_fract_z
 _atom_site_occupancy
  Sm  Sm0  1  -0.00000000  0.00000000  0.00000000  1
  Fe  Fe1  1  0.72189868  0.77810132  0.22189868  1
  Fe  Fe2  1  0.27810132  0.22189868  0.77810132  1
  Fe  Fe3  1  0.50000000  0.76714348  0.76714348  1
  Fe  Fe4  1  0.50000000  0.23285652  0.23285652  1
  Fe  Fe5  1  0.50000000  0.00000000  0.50000000  1
  Fe  Fe6  1  -0.00000000  0.00000000  0.50000000  1
  Fe  Fe7  1  0.50000000  0.50000000  0.00000000  1
  Fe  Fe8  1  -0.00000000  0.50000000  0.00000000  1
  Fe  Fe9  1  0.64021347  0.35978653  0.64021347  1
  Fe  Fe10  1  0.35978653  0.64021347  0.35978653  1
  Re  Re11  1  -0.00000000  0.35788622  0.35788622  1
  Re  Re12  1  0.00000000  0.64211378  0.64211378  1
