# generated using pymatgen
data_Sr2Eu3Ge10
_symmetry_space_group_name_H-M   'P 1'
_cell_length_a   4.20232516
_cell_length_b   4.20232566
_cell_length_c   24.93014205
_cell_angle_alpha   90.00058501
_cell_angle_beta   90.00058502
_cell_angle_gamma   59.99930643
_symmetry_Int_Tables_number   1
_chemical_formula_structural   Sr2Eu3Ge10
_chemical_formula_sum   'Sr2 Eu3 Ge10'
_cell_volume   381.26918634
_cell_formula_units_Z   1
loop_
 _symmetry_equiv_pos_site_id
 _symmetry_equiv_pos_as_xyz
  1  'x, y, z'
loop_
 _atom_site_type_symbol
 _atom_site_label
 _atom_site_symmetry_multiplicity
 _atom_site_fract_x
 _atom_site_fract_y
 _atom_site_fract_z
 _atom_site_occupancy
  Sr  Sr0  1  0.00000143  0.00000143  0.59953219  1
  Sr  Sr1  1  0.99999857  0.99999857  0.80046781  1
  Eu  Eu2  1  0.99998636  0.99998636  0.00027907  1
  Eu  Eu3  1  0.00000000  -0.00000000  0.20000000  1
  Eu  Eu4  1  0.00001364  0.00001364  0.39972093  1
  Ge  Ge5  1  0.66665894  0.66665894  0.08030518  1
  Ge  Ge6  1  0.66665768  0.66665768  0.28021007  1
  Ge  Ge7  1  0.66666618  0.66666618  0.47855024  1
  Ge  Ge8  1  0.66666781  0.66666781  0.68046439  1
  Ge  Ge9  1  0.66666645  0.66666645  0.88241607  1
  Ge  Ge10  1  0.33334232  0.33334232  0.11978993  1
  Ge  Ge11  1  0.33334106  0.33334106  0.31969482  1
  Ge  Ge12  1  0.33333355  0.33333355  0.51758393  1
  Ge  Ge13  1  0.33333219  0.33333219  0.71953561  1
  Ge  Ge14  1  0.33333382  0.33333382  0.92144976  1
