# generated using pymatgen
data_ScZnCu
_symmetry_space_group_name_H-M   'P 1'
_cell_length_a   5.11057106
_cell_length_b   5.14818660
_cell_length_c   8.31361592
_cell_angle_alpha   90.00000000
_cell_angle_beta   90.00000000
_cell_angle_gamma   120.24120465
_symmetry_Int_Tables_number   1
_chemical_formula_structural   ScZnCu
_chemical_formula_sum   'Sc4 Zn4 Cu4'
_cell_volume   188.96596526
_cell_formula_units_Z   4
loop_
 _symmetry_equiv_pos_site_id
 _symmetry_equiv_pos_as_xyz
  1  'x, y, z'
loop_
 _atom_site_type_symbol
 _atom_site_label
 _atom_site_symmetry_multiplicity
 _atom_site_fract_x
 _atom_site_fract_y
 _atom_site_fract_z
 _atom_site_occupancy
  Sc  Sc0  1  0.66504978  0.33249679  0.56381870  1
  Sc  Sc1  1  0.32973735  0.66488522  0.45000970  1
  Sc  Sc2  1  0.32973735  0.66488522  0.04999030  1
  Sc  Sc3  1  0.66504978  0.33249679  0.93618130  1
  Zn  Zn4  1  0.66953653  0.83478394  0.75000000  1
  Zn  Zn5  1  0.83103034  0.66212630  0.25000000  1
  Zn  Zn6  1  0.83102668  0.16891917  0.25000000  1
  Zn  Zn7  1  0.33746167  0.16872305  0.25000000  1
  Cu  Cu8  1  0.00015366  0.00006745  0.50038285  1
  Cu  Cu9  1  0.00015366  0.00006745  0.99961715  1
  Cu  Cu10  1  0.17057352  0.33703808  0.75000000  1
  Cu  Cu11  1  0.17048968  0.83351055  0.75000000  1
