# generated using pymatgen
data_ScTlF6
_symmetry_space_group_name_H-M   'P 1'
_cell_length_a   5.61865495
_cell_length_b   5.61865517
_cell_length_c   5.88775795
_cell_angle_alpha   89.99999994
_cell_angle_beta   61.50074904
_cell_angle_gamma   120.00000123
_symmetry_Int_Tables_number   1
_chemical_formula_structural   ScTlF6
_chemical_formula_sum   'Sc1 Tl1 F6'
_cell_volume   134.33443915
_cell_formula_units_Z   1
loop_
 _symmetry_equiv_pos_site_id
 _symmetry_equiv_pos_as_xyz
  1  'x, y, z'
loop_
 _atom_site_type_symbol
 _atom_site_label
 _atom_site_symmetry_multiplicity
 _atom_site_fract_x
 _atom_site_fract_y
 _atom_site_fract_z
 _atom_site_occupancy
  Sc  Sc0  1  -0.00000000  0.50000000  0.50000000  1
  Tl  Tl1  1  -0.00000000  -0.00000000  -0.00000000  1
  F  F2  1  0.52000205  0.36066504  0.73992417  1
  F  F3  1  0.10073883  0.74007378  0.73992417  1
  F  F4  1  0.89941079  0.15933701  0.73992417  1
  F  F5  1  0.89926117  0.25992622  0.26007583  1
  F  F6  1  0.10058921  0.84066299  0.26007583  1
  F  F7  1  0.47999795  0.63933496  0.26007583  1
