# generated using pymatgen
data_Sm9Al5Se21
_symmetry_space_group_name_H-M   'P 1'
_cell_length_a   12.11812342
_cell_length_b   12.11810953
_cell_length_c   12.11812169
_cell_angle_alpha   95.11325198
_cell_angle_beta   84.88659859
_cell_angle_gamma   84.88646377
_symmetry_Int_Tables_number   1
_chemical_formula_structural   Sm9Al5Se21
_chemical_formula_sum   'Sm18 Al10 Se42'
_cell_volume   1756.92351126
_cell_formula_units_Z   2
loop_
 _symmetry_equiv_pos_site_id
 _symmetry_equiv_pos_as_xyz
  1  'x, y, z'
loop_
 _atom_site_type_symbol
 _atom_site_label
 _atom_site_symmetry_multiplicity
 _atom_site_fract_x
 _atom_site_fract_y
 _atom_site_fract_z
 _atom_site_occupancy
  Sm  Sm0  1  0.25677828  0.11363282  0.88263587  1
  Sm  Sm1  1  0.92322965  0.45490578  0.22457336  1
  Sm  Sm2  1  0.59795710  0.77367423  0.55347682  1
  Sm  Sm3  1  0.44652415  0.40205139  0.77368177  1
  Sm  Sm4  1  0.11736699  0.74322140  0.11362936  1
  Sm  Sm5  1  0.77544017  0.07677080  0.45489807  1
  Sm  Sm6  1  0.54509832  0.22456713  0.07677551  1
  Sm  Sm7  1  0.22631525  0.55347709  0.40205264  1
  Sm  Sm8  1  0.88636262  0.88263025  0.74322198  1
  Sm  Sm9  1  0.41609800  0.21216607  0.43906990  1
  Sm  Sm10  1  0.07240355  0.54885477  0.77881190  1
  Sm  Sm11  1  0.75185494  0.87698972  0.10492219  1
  Sm  Sm12  1  0.22119176  0.92759750  0.54885936  1
  Sm  Sm13  1  0.89508733  0.24814223  0.87698780  1
  Sm  Sm14  1  0.56092570  0.58390041  0.21217477  1
  Sm  Sm15  1  0.12300915  0.10492027  0.24814269  1
  Sm  Sm16  1  0.78781872  0.43907385  0.58390915  1
  Sm  Sm17  1  0.45114003  0.77881055  0.92758939  1
  Al  Al18  1  0.94869469  0.72178838  0.38886139  1
  Al  Al19  1  0.61114005  0.05131907  0.72178188  1
  Al  Al20  1  0.27820946  0.38886052  0.05130935  1
  Al  Al21  1  0.44884796  0.88558339  0.22398325  1
  Al  Al22  1  0.11441152  0.22397840  0.55116120  1
  Al  Al23  1  0.77600631  0.55115421  0.88559312  1
  Al  Al24  1  0.14930168  0.85070021  0.85069787  1
  Al  Al25  1  0.83383153  0.16617031  0.16616545  1
  Al  Al26  1  0.33462032  0.66537597  0.66536985  1
  Al  Al27  1  0.64841073  0.35159043  0.35159709  1
  Se  Se28  1  0.82321526  0.84502300  0.51315667  1
  Se  Se29  1  0.48683867  0.17679208  0.84502074  1
  Se  Se30  1  0.15497751  0.51315774  0.17678726  1
  Se  Se31  1  0.65561261  0.67737493  0.01251495  1
  Se  Se32  1  0.32261864  0.01250009  0.34438627  1
  Se  Se33  1  0.98749067  0.34438489  0.67737839  1
  Se  Se34  1  0.98596254  0.54096851  0.44985973  1
  Se  Se35  1  0.64486875  0.87126285  0.78359031  1
  Se  Se36  1  0.30643073  0.20508268  0.10844429  1
  Se  Se37  1  0.89156539  0.69357630  0.20508350  1
  Se  Se38  1  0.55015432  0.01404096  0.54096053  1
  Se  Se39  1  0.21639571  0.35512366  0.87125152  1
  Se  Se40  1  0.12874982  0.78359394  0.35512228  1
  Se  Se41  1  0.79492700  0.10843001  0.69357101  1
  Se  Se42  1  0.45902694  0.44985791  0.01403694  1
  Se  Se43  1  0.52058815  0.96706488  0.06398005  1
  Se  Se44  1  0.18516264  0.30015584  0.38758147  1
  Se  Se45  1  0.84216598  0.63191993  0.72178571  1
  Se  Se46  1  0.61242046  0.81482793  0.30016540  1
  Se  Se47  1  0.27822404  0.15784170  0.63191475  1
  Se  Se48  1  0.93599853  0.47941440  0.96707722  1
  Se  Se49  1  0.36808472  0.72178767  0.15782478  1
  Se  Se50  1  0.03293174  0.06397848  0.47941328  1
  Se  Se51  1  0.69984619  0.38757699  0.81482692  1
  Se  Se52  1  0.69187471  0.55350808  0.40309358  1
  Se  Se53  1  0.34253900  0.88946935  0.75027966  1
  Se  Se54  1  0.00801587  0.23454041  0.09003448  1
  Se  Se55  1  0.90997237  0.99198325  0.23452959  1
  Se  Se56  1  0.59690274  0.30813258  0.55350710  1
  Se  Se57  1  0.24971219  0.65746704  0.88946350  1
  Se  Se58  1  0.11054997  0.75027445  0.65745473  1
  Se  Se59  1  0.76547203  0.09003203  0.99198073  1
  Se  Se60  1  0.44649667  0.40308458  0.30812250  1
  Se  Se61  1  0.62676824  0.14289183  0.28214643  1
  Se  Se62  1  0.28023027  0.47724244  0.61783369  1
  Se  Se63  1  0.96691212  0.78750374  0.93946768  1
  Se  Se64  1  0.38216139  0.71978380  0.47724297  1
  Se  Se65  1  0.06053052  0.03308486  0.78750640  1
  Se  Se66  1  0.71785114  0.37323814  0.14290507  1
  Se  Se67  1  0.21249047  0.93946991  0.03308829  1
  Se  Se68  1  0.85709933  0.28215267  0.37324741  1
  Se  Se69  1  0.52275405  0.61783036  0.71976325  1
