# generated using pymatgen
data_Sm2FeGe4
_symmetry_space_group_name_H-M   'P 1'
_cell_length_a   4.22373732
_cell_length_b   4.26713900
_cell_length_c   8.18905697
_cell_angle_alpha   74.89794463
_cell_angle_beta   90.00000000
_cell_angle_gamma   90.00000000
_symmetry_Int_Tables_number   1
_chemical_formula_structural   Sm2FeGe4
_chemical_formula_sum   'Sm2 Fe1 Ge4'
_cell_volume   142.49622073
_cell_formula_units_Z   1
loop_
 _symmetry_equiv_pos_site_id
 _symmetry_equiv_pos_as_xyz
  1  'x, y, z'
loop_
 _atom_site_type_symbol
 _atom_site_label
 _atom_site_symmetry_multiplicity
 _atom_site_fract_x
 _atom_site_fract_y
 _atom_site_fract_z
 _atom_site_occupancy
  Sm  Sm0  1  0.25000000  0.89683394  0.20633212  1
  Sm  Sm1  1  0.75000000  0.10062331  0.79875338  1
  Fe  Fe2  1  0.25000000  0.69563311  0.60873378  1
  Ge  Ge3  1  0.25000000  0.54828742  0.90342515  1
  Ge  Ge4  1  0.75000000  0.44182868  0.11634263  1
  Ge  Ge5  1  0.25000000  0.25711762  0.48576475  1
  Ge  Ge6  1  0.75000000  0.75367590  0.49264819  1
