# generated using pymatgen
data_NdSmFe4Co13
_symmetry_space_group_name_H-M   'P 1'
_cell_length_a   6.35399903
_cell_length_b   6.35399913
_cell_length_c   6.35399903
_cell_angle_alpha   82.88075770
_cell_angle_beta   82.88075577
_cell_angle_gamma   82.88075770
_symmetry_Int_Tables_number   1
_chemical_formula_structural   NdSmFe4Co13
_chemical_formula_sum   'Nd1 Sm1 Fe4 Co13'
_cell_volume   251.05130234
_cell_formula_units_Z   1
loop_
 _symmetry_equiv_pos_site_id
 _symmetry_equiv_pos_as_xyz
  1  'x, y, z'
loop_
 _atom_site_type_symbol
 _atom_site_label
 _atom_site_symmetry_multiplicity
 _atom_site_fract_x
 _atom_site_fract_y
 _atom_site_fract_z
 _atom_site_occupancy
  Nd  Nd0  1  0.65640937  0.65640937  0.65640937  1
  Sm  Sm1  1  0.34346209  0.34346209  0.34346209  1
  Fe  Fe2  1  0.99832717  0.50459944  0.99832717  1
  Fe  Fe3  1  0.50459944  0.99832717  0.99832717  1
  Fe  Fe4  1  0.99832717  0.99832717  0.50459944  1
  Fe  Fe5  1  0.09266471  0.09266471  0.09266471  1
  Co  Co6  1  0.71386907  0.00015294  0.28564284  1
  Co  Co7  1  0.00015294  0.28564284  0.71386907  1
  Co  Co8  1  0.28564284  0.71386907  0.00015294  1
  Co  Co9  1  0.00015294  0.71386907  0.28564284  1
  Co  Co10  1  0.71386907  0.28564284  0.00015294  1
  Co  Co11  1  0.28564284  0.00015294  0.71386907  1
  Co  Co12  1  0.34305550  0.84707721  0.34305550  1
  Co  Co13  1  0.84707721  0.34305550  0.34305550  1
  Co  Co14  1  0.34305550  0.34305550  0.84707721  1
  Co  Co15  1  0.65592319  0.15730565  0.65592319  1
  Co  Co16  1  0.15730565  0.65592319  0.65592319  1
  Co  Co17  1  0.65592319  0.65592319  0.15730565  1
  Co  Co18  1  0.90454013  0.90454013  0.90454013  1
