# generated using pymatgen
data_Ni(Te4Mo3)2
_symmetry_space_group_name_H-M   'P 1'
_cell_length_a   7.15492550
_cell_length_b   7.18309901
_cell_length_c   7.23750577
_cell_angle_alpha   91.22303561
_cell_angle_beta   95.46042085
_cell_angle_gamma   90.04769260
_symmetry_Int_Tables_number   1
_chemical_formula_structural   Ni(Te4Mo3)2
_chemical_formula_sum   'Ni1 Te8 Mo6'
_cell_volume   370.19444982
_cell_formula_units_Z   1
loop_
 _symmetry_equiv_pos_site_id
 _symmetry_equiv_pos_as_xyz
  1  'x, y, z'
loop_
 _atom_site_type_symbol
 _atom_site_label
 _atom_site_symmetry_multiplicity
 _atom_site_fract_x
 _atom_site_fract_y
 _atom_site_fract_z
 _atom_site_occupancy
  Ni  Ni0  1  0.82792867  0.93166970  0.50721781  1
  Te  Te1  1  0.79246762  0.77351034  0.80590673  1
  Te  Te2  1  0.20502866  0.22873239  0.21084978  1
  Te  Te3  1  0.90259171  0.25590458  0.63766117  1
  Te  Te4  1  0.10603080  0.75084506  0.37447374  1
  Te  Te5  1  0.26937203  0.62647330  0.86673176  1
  Te  Te6  1  0.73140287  0.37347877  0.12919459  1
  Te  Te7  1  0.58788260  0.88701340  0.24362927  1
  Te  Te8  1  0.38873945  0.11948605  0.73932694  1
  Mo  Mo9  1  0.59045848  0.44362270  0.74743903  1
  Mo  Mo10  1  0.41398496  0.54668950  0.24632577  1
  Mo  Mo11  1  0.75651443  0.57096490  0.45766750  1
  Mo  Mo12  1  0.24812223  0.42351455  0.54180760  1
  Mo  Mo13  1  0.45988418  0.76029282  0.57697056  1
  Mo  Mo14  1  0.54779131  0.24330193  0.42319775  1
