# generated using pymatgen
data_NaLaScNbO6
_symmetry_space_group_name_H-M   'P 1'
_cell_length_a   5.69240456
_cell_length_b   5.69240456
_cell_length_c   8.13016724
_cell_angle_alpha   90.27529080
_cell_angle_beta   90.27529080
_cell_angle_gamma   90.65401879
_symmetry_Int_Tables_number   1
_chemical_formula_structural   NaLaScNbO6
_chemical_formula_sum   'Na2 La2 Sc2 Nb2 O12'
_cell_volume   263.42231334
_cell_formula_units_Z   2
loop_
 _symmetry_equiv_pos_site_id
 _symmetry_equiv_pos_as_xyz
  1  'x, y, z'
loop_
 _atom_site_type_symbol
 _atom_site_label
 _atom_site_symmetry_multiplicity
 _atom_site_fract_x
 _atom_site_fract_y
 _atom_site_fract_z
 _atom_site_occupancy
  Na  Na0  1  0.73545410  0.26454590  -0.00000000  1
  Na  Na1  1  0.26454590  0.73545410  -0.00000000  1
  La  La2  1  0.74243037  0.25756963  0.50000000  1
  La  La3  1  0.25756963  0.74243037  0.50000000  1
  Sc  Sc4  1  0.75571660  0.75571660  0.75309419  1
  Sc  Sc5  1  0.24428340  0.24428340  0.24690581  1
  Nb  Nb6  1  0.74787863  0.74787863  0.23669940  1
  Nb  Nb7  1  0.25212137  0.25212137  0.76330060  1
  O  O8  1  0.49815533  0.00987991  0.72129763  1
  O  O9  1  0.00987991  0.49815533  0.72129763  1
  O  O10  1  0.50184467  0.99012009  0.27870237  1
  O  O11  1  0.99012009  0.50184467  0.27870237  1
  O  O12  1  0.80335328  0.80335328  0.00830344  1
  O  O13  1  0.19664672  0.19664672  0.99169656  1
  O  O14  1  0.00847059  0.00847059  0.68111874  1
  O  O15  1  0.99152941  0.99152941  0.31888126  1
  O  O16  1  0.68531049  0.68531049  0.50023154  1
  O  O17  1  0.31468951  0.31468951  0.49976846  1
  O  O18  1  0.49651127  0.49651127  0.79525020  1
  O  O19  1  0.50348873  0.50348873  0.20474980  1
