# generated using pymatgen
data_Nd4Mn(NiO4)3
_symmetry_space_group_name_H-M   'P 1'
_cell_length_a   5.44383738
_cell_length_b   5.53575582
_cell_length_c   7.71551103
_cell_angle_alpha   90.17431880
_cell_angle_beta   90.04387012
_cell_angle_gamma   90.14608889
_symmetry_Int_Tables_number   1
_chemical_formula_structural   Nd4Mn(NiO4)3
_chemical_formula_sum   'Nd4 Mn1 Ni3 O12'
_cell_volume   232.51084456
_cell_formula_units_Z   1
loop_
 _symmetry_equiv_pos_site_id
 _symmetry_equiv_pos_as_xyz
  1  'x, y, z'
loop_
 _atom_site_type_symbol
 _atom_site_label
 _atom_site_symmetry_multiplicity
 _atom_site_fract_x
 _atom_site_fract_y
 _atom_site_fract_z
 _atom_site_occupancy
  Nd  Nd0  1  0.51094154  0.54667050  0.25280103  1
  Nd  Nd1  1  0.98933856  0.04988710  0.25219018  1
  Nd  Nd2  1  0.48905846  0.45332950  0.74719897  1
  Nd  Nd3  1  0.01066144  0.95011290  0.74780982  1
  Mn  Mn4  1  0.50000000  0.00000000  -0.00000000  1
  Ni  Ni5  1  0.00000000  0.50000000  -0.00000000  1
  Ni  Ni6  1  0.50000000  0.00000000  0.50000000  1
  Ni  Ni7  1  0.00000000  0.50000000  0.50000000  1
  O  O8  1  0.78152255  0.79658628  0.04317322  1
  O  O9  1  0.71798587  0.29302506  0.45684408  1
  O  O10  1  0.20646914  0.21700224  0.54392316  1
  O  O11  1  0.29767665  0.71767226  0.95514439  1
  O  O12  1  0.21847745  0.20341372  0.95682678  1
  O  O13  1  0.28201413  0.70697494  0.54315592  1
  O  O14  1  0.79353086  0.78299776  0.45607684  1
  O  O15  1  0.70232335  0.28232774  0.04485561  1
  O  O16  1  0.41896564  0.98169922  0.24365328  1
  O  O17  1  0.08228346  0.48131707  0.25563076  1
  O  O18  1  0.58103436  0.01830078  0.75634672  1
  O  O19  1  0.91771654  0.51868293  0.74436924  1
