# generated using pymatgen
data_Rb2ErTi(PO4)3
_symmetry_space_group_name_H-M   'P 1'
_cell_length_a   10.32263370
_cell_length_b   10.32263370
_cell_length_c   10.32263370
_cell_angle_alpha   90.00000000
_cell_angle_beta   90.00000000
_cell_angle_gamma   90.00000000
_symmetry_Int_Tables_number   1
_chemical_formula_structural   Rb2ErTi(PO4)3
_chemical_formula_sum   'Rb8 Er4 Ti4 P12 O48'
_cell_volume   1099.94646888
_cell_formula_units_Z   4
loop_
 _symmetry_equiv_pos_site_id
 _symmetry_equiv_pos_as_xyz
  1  'x, y, z'
loop_
 _atom_site_type_symbol
 _atom_site_label
 _atom_site_symmetry_multiplicity
 _atom_site_fract_x
 _atom_site_fract_y
 _atom_site_fract_z
 _atom_site_occupancy
  Rb  Rb0  1  0.82139394  0.67860606  0.32139394  1
  Rb  Rb1  1  0.67860606  0.32139394  0.82139394  1
  Rb  Rb2  1  0.32139394  0.82139394  0.67860606  1
  Rb  Rb3  1  0.17860606  0.17860606  0.17860606  1
  Rb  Rb4  1  0.04212906  0.45787094  0.54212906  1
  Rb  Rb5  1  0.45787094  0.54212906  0.04212906  1
  Rb  Rb6  1  0.54212906  0.04212906  0.45787094  1
  Rb  Rb7  1  0.95787094  0.95787094  0.95787094  1
  Er  Er8  1  0.33505829  0.16494171  0.83505829  1
  Er  Er9  1  0.16494171  0.83505829  0.33505829  1
  Er  Er10  1  0.83505829  0.33505829  0.16494171  1
  Er  Er11  1  0.66494171  0.66494171  0.66494171  1
  Ti  Ti12  1  0.60671743  0.89328257  0.10671743  1
  Ti  Ti13  1  0.89328257  0.10671743  0.60671743  1
  Ti  Ti14  1  0.10671743  0.60671743  0.89328257  1
  Ti  Ti15  1  0.39328257  0.39328257  0.39328257  1
  P  P16  1  0.51278284  0.20354989  0.13452322  1
  P  P17  1  0.63452322  0.98721716  0.79645011  1
  P  P18  1  0.29645011  0.86547678  0.01278284  1
  P  P19  1  0.98721716  0.79645011  0.63452322  1
  P  P20  1  0.86547678  0.01278284  0.29645011  1
  P  P21  1  0.20354989  0.13452322  0.51278284  1
  P  P22  1  0.01278284  0.29645011  0.86547678  1
  P  P23  1  0.13452322  0.51278284  0.20354989  1
  P  P24  1  0.79645011  0.63452322  0.98721716  1
  P  P25  1  0.48721716  0.70354989  0.36547678  1
  P  P26  1  0.36547678  0.48721716  0.70354989  1
  P  P27  1  0.70354989  0.36547678  0.48721716  1
  O  O28  1  0.51537551  0.05466606  0.16440315  1
  O  O29  1  0.66440315  0.98462449  0.94533394  1
  O  O30  1  0.44533394  0.83559685  0.01537551  1
  O  O31  1  0.98462449  0.94533394  0.66440315  1
  O  O32  1  0.83559685  0.01537551  0.44533394  1
  O  O33  1  0.05466606  0.16440315  0.51537551  1
  O  O34  1  0.01537551  0.44533394  0.83559685  1
  O  O35  1  0.16440315  0.51537551  0.05466606  1
  O  O36  1  0.94533394  0.66440315  0.98462449  1
  O  O37  1  0.48462449  0.55466606  0.33559685  1
  O  O38  1  0.33559685  0.48462449  0.55466606  1
  O  O39  1  0.55466606  0.33559685  0.48462449  1
  O  O40  1  0.54476195  0.77459263  0.24391077  1
  O  O41  1  0.74391077  0.95523805  0.22540737  1
  O  O42  1  0.72540737  0.75608923  0.04476195  1
  O  O43  1  0.95523805  0.22540737  0.74391077  1
  O  O44  1  0.75608923  0.04476195  0.72540737  1
  O  O45  1  0.77459263  0.24391077  0.54476195  1
  O  O46  1  0.04476195  0.72540737  0.75608923  1
  O  O47  1  0.24391077  0.54476195  0.77459263  1
  O  O48  1  0.22540737  0.74391077  0.95523805  1
  O  O49  1  0.45523805  0.27459263  0.25608923  1
  O  O50  1  0.25608923  0.45523805  0.27459263  1
  O  O51  1  0.27459263  0.25608923  0.45523805  1
  O  O52  1  0.39644182  0.35276555  0.75617985  1
  O  O53  1  0.25617985  0.10355818  0.64723445  1
  O  O54  1  0.14723445  0.24382015  0.89644182  1
  O  O55  1  0.10355818  0.64723445  0.25617985  1
  O  O56  1  0.24382015  0.89644182  0.14723445  1
  O  O57  1  0.35276555  0.75617985  0.39644182  1
  O  O58  1  0.89644182  0.14723445  0.24382015  1
  O  O59  1  0.75617985  0.39644182  0.35276555  1
  O  O60  1  0.64723445  0.25617985  0.10355818  1
  O  O61  1  0.60355818  0.85276555  0.74382015  1
  O  O62  1  0.74382015  0.60355818  0.85276555  1
  O  O63  1  0.85276555  0.74382015  0.60355818  1
  O  O64  1  0.42065624  0.23126171  0.02059919  1
  O  O65  1  0.52059919  0.07934376  0.76873829  1
  O  O66  1  0.26873829  0.97940081  0.92065624  1
  O  O67  1  0.07934376  0.76873829  0.52059919  1
  O  O68  1  0.97940081  0.92065624  0.26873829  1
  O  O69  1  0.23126171  0.02059919  0.42065624  1
  O  O70  1  0.92065624  0.26873829  0.97940081  1
  O  O71  1  0.02059919  0.42065624  0.23126171  1
  O  O72  1  0.76873829  0.52059919  0.07934376  1
  O  O73  1  0.57934376  0.73126171  0.47940081  1
  O  O74  1  0.47940081  0.57934376  0.73126171  1
  O  O75  1  0.73126171  0.47940081  0.57934376  1
