# generated using pymatgen
data_SbH6C(NCl2)3
_symmetry_space_group_name_H-M   'P 1'
_cell_length_a   7.89179534
_cell_length_b   7.70970966
_cell_length_c   14.37023138
_cell_angle_alpha   72.91172738
_cell_angle_beta   72.77056295
_cell_angle_gamma   66.05425287
_symmetry_Int_Tables_number   1
_chemical_formula_structural   SbH6C(NCl2)3
_chemical_formula_sum   'Sb2 H12 C2 N6 Cl12'
_cell_volume   747.97315951
_cell_formula_units_Z   2
loop_
 _symmetry_equiv_pos_site_id
 _symmetry_equiv_pos_as_xyz
  1  'x, y, z'
loop_
 _atom_site_type_symbol
 _atom_site_label
 _atom_site_symmetry_multiplicity
 _atom_site_fract_x
 _atom_site_fract_y
 _atom_site_fract_z
 _atom_site_occupancy
  Sb  Sb0  1  0.00000000  0.00000000  -0.00000000  1
  Sb  Sb1  1  0.50000000  0.50000000  0.50000000  1
  H  H2  1  0.42150791  0.14221561  0.14472012  1
  H  H3  1  0.14227651  0.42075995  0.14398391  1
  H  H4  1  0.57849209  0.85778439  0.85527988  1
  H  H5  1  0.85772349  0.57924005  0.85601609  1
  H  H6  1  0.26183342  0.05821143  0.40655790  1
  H  H7  1  0.05777592  0.26230867  0.40621504  1
  H  H8  1  0.73816658  0.94178857  0.59344210  1
  H  H9  1  0.94222408  0.73769133  0.59378496  1
  H  H10  1  0.46949722  0.98938928  0.25679928  1
  H  H11  1  0.99114987  0.47174836  0.25574302  1
  H  H12  1  0.53050278  0.01061072  0.74320072  1
  H  H13  1  0.00885013  0.52825164  0.74425698  1
  C  C14  1  0.22403917  0.22455545  0.26862937  1
  C  C15  1  0.77596083  0.77544455  0.73137063  1
  N  N16  1  0.18059558  0.18094342  0.36793343  1
  N  N17  1  0.81940442  0.81905658  0.63206657  1
  N  N18  1  0.11029670  0.38236307  0.21909440  1
  N  N19  1  0.38217339  0.10951731  0.21967684  1
  N  N20  1  0.88970330  0.61763693  0.78090560  1
  N  N21  1  0.61782661  0.89048269  0.78032316  1
  Cl  Cl22  1  0.79782492  0.81153857  0.03577783  1
  Cl  Cl23  1  0.20217508  0.18846143  0.96422217  1
  Cl  Cl24  1  0.65433332  0.24809784  0.40474781  1
  Cl  Cl25  1  0.25453227  0.65400975  0.40470680  1
  Cl  Cl26  1  0.34566668  0.75190216  0.59525219  1
  Cl  Cl27  1  0.74546773  0.34599025  0.59529320  1
  Cl  Cl28  1  0.68367276  0.68889212  0.38143322  1
  Cl  Cl29  1  0.31632724  0.31110788  0.61856678  1
  Cl  Cl30  1  0.72358792  0.28827905  0.01845979  1
  Cl  Cl31  1  0.27641208  0.71172095  0.98154021  1
  Cl  Cl32  1  0.99734913  0.93462901  0.17435974  1
  Cl  Cl33  1  0.00265087  0.06537099  0.82564026  1
