# generated using pymatgen
data_Nb3S5
_symmetry_space_group_name_H-M   'P 1'
_cell_length_a   5.86418725
_cell_length_b   7.95103434
_cell_length_c   7.19049278
_cell_angle_alpha   71.93828229
_cell_angle_beta   74.18955974
_cell_angle_gamma   97.09474132
_symmetry_Int_Tables_number   1
_chemical_formula_structural   Nb3S5
_chemical_formula_sum   'Nb6 S10'
_cell_volume   298.65469818
_cell_formula_units_Z   2
loop_
 _symmetry_equiv_pos_site_id
 _symmetry_equiv_pos_as_xyz
  1  'x, y, z'
loop_
 _atom_site_type_symbol
 _atom_site_label
 _atom_site_symmetry_multiplicity
 _atom_site_fract_x
 _atom_site_fract_y
 _atom_site_fract_z
 _atom_site_occupancy
  Nb  Nb0  1  0.67451931  0.98359421  0.47901618  1
  Nb  Nb1  1  0.00239782  0.00192043  0.00544489  1
  Nb  Nb2  1  0.59780641  0.20395005  0.79616540  1
  Nb  Nb3  1  0.19709418  0.39743301  0.60201356  1
  Nb  Nb4  1  0.79486244  0.60564709  0.40246633  1
  Nb  Nb5  1  0.40090406  0.80078044  0.20633708  1
  S  S6  1  0.23212087  0.30491296  0.95348980  1
  S  S7  1  0.05208310  0.90603591  0.35906956  1
  S  S8  1  0.83067021  0.50197793  0.75405675  1
  S  S9  1  0.63187263  0.11600174  0.14444158  1
  S  S10  1  0.41434630  0.69170009  0.57434461  1
  S  S11  1  0.90130667  0.29814395  0.44050484  1
  S  S12  1  0.70249655  0.89547052  0.84574731  1
  S  S13  1  0.50122769  0.50024691  0.24591487  1
  S  S14  1  0.30099695  0.09450224  0.64384294  1
  S  S15  1  0.09809481  0.69928254  0.04954431  1
