# generated using pymatgen
data_Pr2Ho
_symmetry_space_group_name_H-M   'P 1'
_cell_length_a   3.65135472
_cell_length_b   3.65135472
_cell_length_c   35.59005659
_cell_angle_alpha   90.00000000
_cell_angle_beta   90.00000000
_cell_angle_gamma   119.99517329
_symmetry_Int_Tables_number   1
_chemical_formula_structural   Pr2Ho
_chemical_formula_sum   'Pr8 Ho4'
_cell_volume   410.94952360
_cell_formula_units_Z   4
loop_
 _symmetry_equiv_pos_site_id
 _symmetry_equiv_pos_as_xyz
  1  'x, y, z'
loop_
 _atom_site_type_symbol
 _atom_site_label
 _atom_site_symmetry_multiplicity
 _atom_site_fract_x
 _atom_site_fract_y
 _atom_site_fract_z
 _atom_site_occupancy
  Pr  Pr0  1  0.33327029  0.66672971  0.41676527  1
  Pr  Pr1  1  0.33327029  0.66672971  0.74990173  1
  Pr  Pr2  1  0.00000507  0.99999493  0.16648093  1
  Pr  Pr3  1  0.00000970  0.99999030  0.50247521  1
  Pr  Pr4  1  0.00001657  0.99998343  0.83596093  1
  Pr  Pr5  1  0.00000507  0.99999493  0.00018607  1
  Pr  Pr6  1  0.00001657  0.99998343  0.33070507  1
  Pr  Pr7  1  0.00000970  0.99999030  0.66419179  1
  Ho  Ho8  1  0.66669652  0.33330348  0.24966130  1
  Ho  Ho9  1  0.66667445  0.33332555  0.58333300  1
  Ho  Ho10  1  0.66669652  0.33330348  0.91700570  1
  Ho  Ho11  1  0.33332923  0.66667077  0.08333300  1
