# generated using pymatgen
data_Na2ScIn(SiO3)4
_symmetry_space_group_name_H-M   'P 1'
_cell_length_a   5.42202577
_cell_length_b   6.80580426
_cell_length_c   6.80580426
_cell_angle_alpha   85.13256939
_cell_angle_beta   77.35294291
_cell_angle_gamma   77.35294291
_symmetry_Int_Tables_number   1
_chemical_formula_structural   Na2ScIn(SiO3)4
_chemical_formula_sum   'Na2 Sc1 In1 Si4 O12'
_cell_volume   238.92389881
_cell_formula_units_Z   1
loop_
 _symmetry_equiv_pos_site_id
 _symmetry_equiv_pos_as_xyz
  1  'x, y, z'
loop_
 _atom_site_type_symbol
 _atom_site_label
 _atom_site_symmetry_multiplicity
 _atom_site_fract_x
 _atom_site_fract_y
 _atom_site_fract_z
 _atom_site_occupancy
  Na  Na0  1  0.75000000  0.69699757  0.30300243  1
  Na  Na1  1  0.25000000  0.30337075  0.69662925  1
  Sc  Sc2  1  0.75000000  0.10854514  0.89145486  1
  In  In3  1  0.25000000  0.89572395  0.10427605  1
  Si  Si4  1  0.74582939  0.62165515  0.79614236  1
  Si  Si5  1  0.75417061  0.20385764  0.37834485  1
  Si  Si6  1  0.25479831  0.37663623  0.20530380  1
  Si  Si7  1  0.24520169  0.79469620  0.62336377  1
  O  O8  1  0.81039636  0.39268889  0.88474774  1
  O  O9  1  0.68960364  0.11525226  0.60731111  1
  O  O10  1  0.18338426  0.60108530  0.11167769  1
  O  O11  1  0.31661574  0.88832231  0.39891470  1
  O  O12  1  0.51799141  0.64082124  0.66215626  1
  O  O13  1  0.98200859  0.33784374  0.35917876  1
  O  O14  1  0.48123394  0.35844342  0.34092637  1
  O  O15  1  0.01876606  0.65907363  0.64155658  1
  O  O16  1  0.65391851  0.80250749  0.95842806  1
  O  O17  1  0.84608149  0.04157194  0.19749251  1
  O  O18  1  0.35631424  0.19920688  0.03829974  1
  O  O19  1  0.14368576  0.96170026  0.80079312  1
