# generated using pymatgen
data_NaEu(MoO4)2
_symmetry_space_group_name_H-M   'P 1'
_cell_length_a   5.28808661
_cell_length_b   5.39218199
_cell_length_c   6.87670310
_cell_angle_alpha   66.98688245
_cell_angle_beta   67.45858160
_cell_angle_gamma   90.16685471
_symmetry_Int_Tables_number   1
_chemical_formula_structural   NaEu(MoO4)2
_chemical_formula_sum   'Na1 Eu1 Mo2 O8'
_cell_volume   163.97698264
_cell_formula_units_Z   1
loop_
 _symmetry_equiv_pos_site_id
 _symmetry_equiv_pos_as_xyz
  1  'x, y, z'
loop_
 _atom_site_type_symbol
 _atom_site_label
 _atom_site_symmetry_multiplicity
 _atom_site_fract_x
 _atom_site_fract_y
 _atom_site_fract_z
 _atom_site_occupancy
  Na  Na0  1  0.37419776  0.62419776  0.75160448  1
  Eu  Eu1  1  0.62662051  0.37662051  0.24675897  1
  Mo  Mo2  1  0.87375764  0.12375764  0.75248472  1
  Mo  Mo3  1  0.12541714  0.87541714  0.24916571  1
  O  O4  1  0.20297006  0.07168700  0.57323107  1
  O  O5  1  0.79918448  0.94370580  0.41770685  1
  O  O6  1  0.28310866  0.63858735  0.41770685  1
  O  O7  1  0.72379886  0.35508193  0.57323107  1
  O  O8  1  0.04833670  0.72121291  0.08197213  1
  O  O9  1  0.93797095  0.27421032  0.92708300  1
  O  O10  1  0.63494605  0.79870668  0.92708300  1
  O  O11  1  0.36969117  0.19681496  0.08197213  1
