# generated using pymatgen
data_Yb2Mo4O15
_symmetry_space_group_name_H-M   'P 1'
_cell_length_a   6.76609114
_cell_length_b   9.99409779
_cell_length_c   10.91177034
_cell_angle_alpha   90.00000000
_cell_angle_beta   105.24925161
_cell_angle_gamma   90.00000000
_symmetry_Int_Tables_number   1
_chemical_formula_structural   Yb2Mo4O15
_chemical_formula_sum   'Yb4 Mo8 O30'
_cell_volume   711.88491460
_cell_formula_units_Z   2
loop_
 _symmetry_equiv_pos_site_id
 _symmetry_equiv_pos_as_xyz
  1  'x, y, z'
loop_
 _atom_site_type_symbol
 _atom_site_label
 _atom_site_symmetry_multiplicity
 _atom_site_fract_x
 _atom_site_fract_y
 _atom_site_fract_z
 _atom_site_occupancy
  Yb  Yb0  1  0.28967405  0.47899374  0.22460525  1
  Yb  Yb1  1  0.71032595  0.52100626  0.77539475  1
  Yb  Yb2  1  0.71032595  0.97899374  0.27539475  1
  Yb  Yb3  1  0.28967405  0.02100626  0.72460525  1
  Mo  Mo4  1  0.58161428  0.25649840  0.01029294  1
  Mo  Mo5  1  0.41838572  0.74350160  0.98970706  1
  Mo  Mo6  1  0.41838572  0.75649840  0.48970706  1
  Mo  Mo7  1  0.58161428  0.24350160  0.51029294  1
  Mo  Mo8  1  0.11205044  0.09272949  0.15559013  1
  Mo  Mo9  1  0.88794956  0.90727051  0.84440987  1
  Mo  Mo10  1  0.88794956  0.59272949  0.34440987  1
  Mo  Mo11  1  0.11205044  0.40727051  0.65559013  1
  O  O12  1  0.11681243  0.27493367  0.14912489  1
  O  O13  1  0.88318757  0.72506633  0.85087511  1
  O  O14  1  0.88318757  0.77493367  0.35087511  1
  O  O15  1  0.11681243  0.22506633  0.64912489  1
  O  O16  1  0.46701601  0.36843387  0.10104122  1
  O  O17  1  0.53298399  0.63156613  0.89895878  1
  O  O18  1  0.53298399  0.86843387  0.39895878  1
  O  O19  1  0.46701601  0.13156613  0.60104122  1
  O  O20  1  0.28404869  0.65027306  0.07960117  1
  O  O21  1  0.71595131  0.34972694  0.92039883  1
  O  O22  1  0.71595131  0.15027306  0.42039883  1
  O  O23  1  0.28404869  0.84972694  0.57960117  1
  O  O24  1  -0.00000000  0.00000000  -0.00000000  1
  O  O25  1  -0.00000000  0.50000000  0.50000000  1
  O  O26  1  0.38645180  0.33627377  0.40268277  1
  O  O27  1  0.61354820  0.66372623  0.59731723  1
  O  O28  1  0.61354820  0.83627377  0.09731723  1
  O  O29  1  0.38645180  0.16372623  0.90268277  1
  O  O30  1  0.05641915  0.02637521  0.29150931  1
  O  O31  1  0.94358085  0.97362479  0.70849069  1
  O  O32  1  0.94358085  0.52637521  0.20849069  1
  O  O33  1  0.05641915  0.47362479  0.79150931  1
  O  O34  1  0.37596096  0.05765999  0.18052438  1
  O  O35  1  0.62403904  0.94234001  0.81947562  1
  O  O36  1  0.62403904  0.55765999  0.31947562  1
  O  O37  1  0.37596096  0.44234001  0.68052438  1
  O  O38  1  0.76099794  0.14032699  0.11651690  1
  O  O39  1  0.23900206  0.85967301  0.88348310  1
  O  O40  1  0.23900206  0.64032699  0.38348310  1
  O  O41  1  0.76099794  0.35967301  0.61651690  1
