# generated using pymatgen
data_Na5Ca2Fe3(PO4)6
_symmetry_space_group_name_H-M   'P 1'
_cell_length_a   6.57443200
_cell_length_b   8.84173547
_cell_length_c   9.06218945
_cell_angle_alpha   91.24852479
_cell_angle_beta   107.32149491
_cell_angle_gamma   106.56263064
_symmetry_Int_Tables_number   1
_chemical_formula_structural   Na5Ca2Fe3(PO4)6
_chemical_formula_sum   'Na5 Ca2 Fe3 P6 O24'
_cell_volume   478.73815230
_cell_formula_units_Z   1
loop_
 _symmetry_equiv_pos_site_id
 _symmetry_equiv_pos_as_xyz
  1  'x, y, z'
loop_
 _atom_site_type_symbol
 _atom_site_label
 _atom_site_symmetry_multiplicity
 _atom_site_fract_x
 _atom_site_fract_y
 _atom_site_fract_z
 _atom_site_occupancy
  Na  Na0  1  0.74328324  0.02153985  0.98146384  1
  Na  Na1  1  0.25317477  0.97344037  0.02068580  1
  Na  Na2  1  0.51329908  0.51389341  0.48966511  1
  Na  Na3  1  0.99277644  0.50241849  0.49794261  1
  Na  Na4  1  0.76423656  0.73125733  0.27160432  1
  Ca  Ca5  1  0.32360177  0.90649823  0.61284476  1
  Ca  Ca6  1  0.25429385  0.27665882  0.73098776  1
  Fe  Fe7  1  0.14156537  0.38135189  0.06505064  1
  Fe  Fe8  1  0.64005441  0.06236540  0.38591219  1
  Fe  Fe9  1  0.84962885  0.61543711  0.92890623  1
  P  P10  1  0.75121095  0.27897833  0.72490895  1
  P  P11  1  0.25000923  0.71732211  0.25852071  1
  P  P12  1  0.36673113  0.65272818  0.87186332  1
  P  P13  1  0.13670636  0.14838313  0.34583398  1
  P  P14  1  0.63315514  0.34231829  0.14223977  1
  P  P15  1  0.86914862  0.86818720  0.66101066  1
  O  O16  1  0.54337798  0.16152278  0.74846561  1
  O  O17  1  0.96370247  0.25912317  0.84845331  1
  O  O18  1  0.46559724  0.84838552  0.25514986  1
  O  O19  1  0.05020320  0.74540595  0.12853873  1
  O  O20  1  0.16786068  0.57716183  0.93787004  1
  O  O21  1  0.32707592  0.06871231  0.39082608  1
  O  O22  1  0.81962821  0.40336446  0.06032820  1
  O  O23  1  0.66888560  0.93118980  0.57925064  1
  O  O24  1  0.59107713  0.64083538  0.98633735  1
  O  O25  1  0.91613239  0.02481139  0.35203150  1
  O  O26  1  0.40009423  0.32724583  0.01678053  1
  O  O27  1  0.08847345  0.00793518  0.69900149  1
  O  O28  1  0.77942599  0.25328757  0.56192807  1
  O  O29  1  0.73021485  0.45029538  0.74214321  1
  O  O30  1  0.19929776  0.72010776  0.41149270  1
  O  O31  1  0.28768140  0.55273106  0.23575152  1
  O  O32  1  0.31462983  0.55649543  0.71405170  1
  O  O33  1  0.19693803  0.29721375  0.46017989  1
  O  O34  1  0.67978990  0.45348510  0.28638968  1
  O  O35  1  0.87076182  0.72980815  0.55734663  1
  O  O36  1  0.38738912  0.82964839  0.86127869  1
  O  O37  1  0.09820888  0.18585295  0.17270896  1
  O  O38  1  0.62005669  0.16835555  0.18159047  1
  O  O39  1  0.85062149  0.81424718  0.82266448  1
