# generated using pymatgen
data_NaNiP2HO7
_symmetry_space_group_name_H-M   'P 1'
_cell_length_a   6.54364211
_cell_length_b   6.53199895
_cell_length_c   6.64147123
_cell_angle_alpha   67.65708613
_cell_angle_beta   84.17153788
_cell_angle_gamma   88.49417148
_symmetry_Int_Tables_number   1
_chemical_formula_structural   NaNiP2HO7
_chemical_formula_sum   'Na2 Ni2 P4 H2 O14'
_cell_volume   261.18404900
_cell_formula_units_Z   2
loop_
 _symmetry_equiv_pos_site_id
 _symmetry_equiv_pos_as_xyz
  1  'x, y, z'
loop_
 _atom_site_type_symbol
 _atom_site_label
 _atom_site_symmetry_multiplicity
 _atom_site_fract_x
 _atom_site_fract_y
 _atom_site_fract_z
 _atom_site_occupancy
  Na  Na0  1  0.11761930  0.23074510  0.75549383  1
  Na  Na1  1  0.88238070  0.76925490  0.24450617  1
  Ni  Ni2  1  0.35885371  0.71237697  0.88987927  1
  Ni  Ni3  1  0.64114629  0.28762303  0.11012073  1
  P  P4  1  0.61915100  0.16777317  0.63615792  1
  P  P5  1  0.38084900  0.83222683  0.36384208  1
  P  P6  1  0.85670190  0.74400554  0.78392417  1
  P  P7  1  0.14329810  0.25599446  0.21607583  1
  H  H8  1  0.80152090  0.45259969  0.69206030  1
  H  H9  1  0.19847910  0.54740031  0.30793970  1
  O  O10  1  0.66971401  0.63613522  0.94986238  1
  O  O11  1  0.33028599  0.36386478  0.05013762  1
  O  O12  1  0.79291152  0.98646942  0.62563316  1
  O  O13  1  0.20708848  0.01353058  0.37436684  1
  O  O14  1  0.70828797  0.27847204  0.78116802  1
  O  O15  1  0.29171203  0.72152796  0.21883198  1
  O  O16  1  0.42085503  0.04364311  0.75238941  1
  O  O17  1  0.57914497  0.95635689  0.24761059  1
  O  O18  1  0.90674080  0.61662110  0.63049715  1
  O  O19  1  0.09325920  0.38337890  0.36950285  1
  O  O20  1  0.03953295  0.77556578  0.89434554  1
  O  O21  1  0.96046705  0.22443422  0.10565446  1
  O  O22  1  0.61496077  0.32797865  0.40277988  1
  O  O23  1  0.38503923  0.67202135  0.59722012  1
