# generated using pymatgen
data_NaTa4O8
_symmetry_space_group_name_H-M   'P 1'
_cell_length_a   7.10886110
_cell_length_b   7.10886110
_cell_length_c   9.69694497
_cell_angle_alpha   86.08836866
_cell_angle_beta   93.91163134
_cell_angle_gamma   86.20450893
_symmetry_Int_Tables_number   1
_chemical_formula_structural   NaTa4O8
_chemical_formula_sum   'Na3 Ta12 O24'
_cell_volume   486.52616953
_cell_formula_units_Z   3
loop_
 _symmetry_equiv_pos_site_id
 _symmetry_equiv_pos_as_xyz
  1  'x, y, z'
loop_
 _atom_site_type_symbol
 _atom_site_label
 _atom_site_symmetry_multiplicity
 _atom_site_fract_x
 _atom_site_fract_y
 _atom_site_fract_z
 _atom_site_occupancy
  Na  Na0  1  0.61722994  0.38277006  0.11557591  1
  Na  Na1  1  0.90570775  0.09429225  0.40508289  1
  Na  Na2  1  0.38132790  0.61867210  0.88321272  1
  Ta  Ta3  1  0.10103449  0.89896551  0.10035759  1
  Ta  Ta4  1  0.60174274  0.39825726  0.60316932  1
  Ta  Ta5  1  0.39617602  0.60382398  0.39723186  1
  Ta  Ta6  1  0.89913645  0.10086355  0.89710404  1
  Ta  Ta7  1  0.59663060  0.83720550  0.61929141  1
  Ta  Ta8  1  0.10468975  0.33122264  0.11286638  1
  Ta  Ta9  1  0.66877736  0.89531025  0.11286638  1
  Ta  Ta10  1  0.16279450  0.40336940  0.61929141  1
  Ta  Ta11  1  0.32991685  0.10428914  0.88518730  1
  Ta  Ta12  1  0.83733584  0.59949088  0.38183657  1
  Ta  Ta13  1  0.40050912  0.16266416  0.38183657  1
  Ta  Ta14  1  0.89571086  0.67008315  0.88518730  1
  O  O15  1  0.58647297  0.08368582  0.24957094  1
  O  O16  1  0.08210516  0.57942214  0.75345490  1
  O  O17  1  0.42057786  0.91789484  0.75345490  1
  O  O18  1  0.91631418  0.41352703  0.24957094  1
  O  O19  1  0.80898792  0.81005925  0.49965224  1
  O  O20  1  0.32613879  0.32585801  0.99980760  1
  O  O21  1  0.18994075  0.19101208  0.49965224  1
  O  O22  1  0.67414199  0.67386121  0.99980760  1
  O  O23  1  0.17928988  0.09157843  0.23564583  1
  O  O24  1  0.67908460  0.59260487  0.73401525  1
  O  O25  1  0.12934926  0.59527626  0.45298887  1
  O  O26  1  0.62939458  0.10028939  0.95759093  1
  O  O27  1  0.09167437  0.18336906  0.76541556  1
  O  O28  1  0.59299239  0.67852083  0.26542159  1
  O  O29  1  0.59878900  0.13027226  0.54483100  1
  O  O30  1  0.09950142  0.62906422  0.04280646  1
  O  O31  1  0.81663094  0.90832563  0.76541556  1
  O  O32  1  0.32147917  0.40700761  0.26542159  1
  O  O33  1  0.86972774  0.40121100  0.54483100  1
  O  O34  1  0.37093578  0.90049858  0.04280646  1
  O  O35  1  0.90842157  0.82071012  0.23564583  1
  O  O36  1  0.40739513  0.32091540  0.73401525  1
  O  O37  1  0.40472374  0.87065074  0.45298887  1
  O  O38  1  0.89971061  0.37060542  0.95759093  1
