# generated using pymatgen
data_NaLi4(H2N)5
_symmetry_space_group_name_H-M   'P 1'
_cell_length_a   5.07744299
_cell_length_b   5.07744299
_cell_length_c   28.68239566
_cell_angle_alpha   84.92201996
_cell_angle_beta   84.92201996
_cell_angle_gamma   90.00000000
_symmetry_Int_Tables_number   1
_chemical_formula_structural   NaLi4(H2N)5
_chemical_formula_sum   'Na4 Li16 H40 N20'
_cell_volume   733.62852749
_cell_formula_units_Z   4
loop_
 _symmetry_equiv_pos_site_id
 _symmetry_equiv_pos_as_xyz
  1  'x, y, z'
loop_
 _atom_site_type_symbol
 _atom_site_label
 _atom_site_symmetry_multiplicity
 _atom_site_fract_x
 _atom_site_fract_y
 _atom_site_fract_z
 _atom_site_occupancy
  Na  Na0  1  0.95033302  0.45033302  0.09933396  1
  Na  Na1  1  0.34999595  0.84999595  0.30000810  1
  Na  Na2  1  0.75000405  0.25000405  0.49999190  1
  Na  Na3  1  0.14966698  0.64966698  0.70066604  1
  Li  Li4  1  0.90158921  0.40158921  0.19682158  1
  Li  Li5  1  0.30158500  0.80158500  0.39683001  1
  Li  Li6  1  0.70158957  0.20158957  0.59682087  1
  Li  Li7  1  0.10022627  0.60022627  0.79954745  1
  Li  Li8  1  0.50330040  0.00330040  0.99339919  1
  Li  Li9  1  0.99977373  0.49977373  0.00045255  1
  Li  Li10  1  0.39841043  0.89841043  0.20317913  1
  Li  Li11  1  0.79841500  0.29841500  0.40316999  1
  Li  Li12  1  0.19841079  0.69841079  0.60317842  1
  Li  Li13  1  0.59669960  0.09669960  0.80660081  1
  Li  Li14  1  0.00191422  0.00191422  0.99617156  1
  Li  Li15  1  0.39999517  0.39999517  0.20000967  1
  Li  Li16  1  0.80000000  0.80000000  0.40000000  1
  Li  Li17  1  0.20000483  0.20000483  0.59999033  1
  Li  Li18  1  0.59808578  0.59808578  0.80382844  1
  Li  Li19  1  0.55000000  0.05000000  0.90000000  1
  H  H20  1  0.08853412  0.84058393  0.15460941  1
  H  H21  1  0.48847915  0.24054914  0.35461145  1
  H  H22  1  0.88845524  0.64055761  0.55459638  1
  H  H23  1  0.29113269  0.03743393  0.75622758  1
  H  H24  1  0.68634267  0.43208924  0.95003327  1
  H  H25  1  0.75685647  0.00480666  0.15460941  1
  H  H26  1  0.15690940  0.40483941  0.35461145  1
  H  H27  1  0.55694838  0.80484601  0.55459638  1
  H  H28  1  0.95263973  0.20633850  0.75622758  1
  H  H29  1  0.36362405  0.61787749  0.95003327  1
  H  H30  1  0.56256607  0.64736027  0.04377242  1
  H  H31  1  0.95944239  0.04305162  0.24540362  1
  H  H32  1  0.35945086  0.44309060  0.44538855  1
  H  H33  1  0.75941607  0.84314353  0.64539059  1
  H  H34  1  0.16791076  0.23637595  0.84996673  1
  H  H35  1  0.39366150  0.30886731  0.04377242  1
  H  H36  1  0.79515399  0.71154476  0.24540362  1
  H  H37  1  0.19516059  0.11152085  0.44538855  1
  H  H38  1  0.59519334  0.51146588  0.64539059  1
  H  H39  1  0.98212251  0.91365733  0.84996673  1
  H  H40  1  0.32790038  0.67973491  0.13105308  1
  H  H41  1  0.72789250  0.07971549  0.33105800  1
  H  H42  1  0.12788061  0.47977504  0.53103855  1
  H  H43  1  0.52810730  0.87114205  0.73326303  1
  H  H44  1  0.92713325  0.27256575  0.92641603  1
  H  H45  1  0.54104654  0.18921201  0.13105308  1
  H  H46  1  0.94104950  0.58922651  0.33105800  1
  H  H47  1  0.34108084  0.98918641  0.53103855  1
  H  H48  1  0.73862967  0.39559491  0.73326303  1
  H  H49  1  0.14645072  0.80101821  0.92641603  1
  H  H50  1  0.72885795  0.86137033  0.06673697  1
  H  H51  1  0.12022496  0.25891916  0.26896145  1
  H  H52  1  0.52028451  0.65895050  0.46894200  1
  H  H53  1  0.92026509  0.05895346  0.66894692  1
  H  H54  1  0.32743425  0.45354928  0.87358397  1
  H  H55  1  0.20440509  0.07189270  0.06673697  1
  H  H56  1  0.61081359  0.47211939  0.26896145  1
  H  H57  1  0.01077349  0.87210750  0.46894200  1
  H  H58  1  0.41078799  0.27209962  0.66894692  1
  H  H59  1  0.79898179  0.67286675  0.87358397  1
  N  N60  1  0.18449676  0.66278292  0.15883722  1
  N  N61  1  0.58440966  0.06304086  0.35888649  1
  N  N62  1  0.98441216  0.46305235  0.55886771  1
  N  N63  1  0.38383966  0.85834963  0.76098855  1
  N  N64  1  0.77865546  0.25241394  0.95336813  1
  N  N65  1  0.65666602  0.17837986  0.15883722  1
  N  N66  1  0.05670385  0.57807265  0.35888649  1
  N  N67  1  0.45672014  0.97807994  0.55886771  1
  N  N68  1  0.85517179  0.38066182  0.76098855  1
  N  N69  1  0.26797640  0.79421792  0.95336813  1
  N  N70  1  0.74165037  0.74482821  0.03901145  1
  N  N71  1  0.13694765  0.14327986  0.24113229  1
  N  N72  1  0.53695914  0.54329615  0.44111351  1
  N  N73  1  0.93721708  0.94333398  0.64116278  1
  N  N74  1  0.34758606  0.33202360  0.84663187  1
  N  N75  1  0.21933818  0.21616034  0.03901145  1
  N  N76  1  0.62192006  0.61558784  0.24113229  1
  N  N77  1  0.02192735  0.01559034  0.44111351  1
  N  N78  1  0.42162014  0.41550324  0.64116278  1
  N  N79  1  0.80578208  0.82134454  0.84663187  1
