# generated using pymatgen
data_Na3B2PO5F4
_symmetry_space_group_name_H-M   'P 1'
_cell_length_a   6.84027915
_cell_length_b   7.07407458
_cell_length_c   9.17001858
_cell_angle_alpha   90.00000000
_cell_angle_beta   90.00000000
_cell_angle_gamma   61.08738053
_symmetry_Int_Tables_number   1
_chemical_formula_structural   Na3B2PO5F4
_chemical_formula_sum   'Na6 B4 P2 O10 F8'
_cell_volume   388.41805714
_cell_formula_units_Z   2
loop_
 _symmetry_equiv_pos_site_id
 _symmetry_equiv_pos_as_xyz
  1  'x, y, z'
loop_
 _atom_site_type_symbol
 _atom_site_label
 _atom_site_symmetry_multiplicity
 _atom_site_fract_x
 _atom_site_fract_y
 _atom_site_fract_z
 _atom_site_occupancy
  Na  Na0  1  0.19455315  0.61089371  0.00000000  1
  Na  Na1  1  0.19455315  0.61089371  0.50000000  1
  Na  Na2  1  0.80900238  0.38199523  0.00000000  1
  Na  Na3  1  0.80900238  0.38199523  0.50000000  1
  Na  Na4  1  0.49157103  0.01685794  0.00000000  1
  Na  Na5  1  0.49157103  0.01685794  0.50000000  1
  B  B6  1  0.93474433  0.98865166  0.25000000  1
  B  B7  1  0.07660401  0.98865166  0.75000000  1
  B  B8  1  0.36250311  0.78687692  0.25000000  1
  B  B9  1  0.85061997  0.78687692  0.75000000  1
  P  P10  1  0.61545137  0.23240122  0.75000000  1
  P  P11  1  0.15214741  0.23240122  0.25000000  1
  O  O12  1  0.14959412  0.80008968  0.25000000  1
  O  O13  1  0.05031620  0.80008968  0.75000000  1
  O  O14  1  0.86494763  0.19726542  0.75000000  1
  O  O15  1  0.93778695  0.19726542  0.25000000  1
  O  O16  1  0.36377716  0.99409294  0.25000000  1
  O  O17  1  0.64212990  0.99409294  0.75000000  1
  O  O18  1  0.50601330  0.33981727  0.89212786  1
  O  O19  1  0.15416942  0.33981727  0.10787214  1
  O  O20  1  0.50601330  0.33981727  0.60787214  1
  O  O21  1  0.15416942  0.33981727  0.39212786  1
  F  F22  1  0.80973434  0.98906696  0.12268402  1
  F  F23  1  0.20119871  0.98906696  0.87731598  1
  F  F24  1  0.80973434  0.98906696  0.37731598  1
  F  F25  1  0.20119871  0.98906696  0.62268402  1
  F  F26  1  0.49132344  0.66655341  0.12276705  1
  F  F27  1  0.84212314  0.66655341  0.87723295  1
  F  F28  1  0.49132344  0.66655341  0.37723295  1
  F  F29  1  0.84212314  0.66655341  0.62276705  1
