# generated using pymatgen
data_NaCaYCdF8
_symmetry_space_group_name_H-M   'P 1'
_cell_length_a   5.50548585
_cell_length_b   6.71122454
_cell_length_c   5.50548585
_cell_angle_alpha   114.21551400
_cell_angle_beta   90.00000000
_cell_angle_gamma   65.78448600
_symmetry_Int_Tables_number   1
_chemical_formula_structural   NaCaYCdF8
_chemical_formula_sum   'Na1 Ca1 Y1 Cd1 F8'
_cell_volume   165.69921737
_cell_formula_units_Z   1
loop_
 _symmetry_equiv_pos_site_id
 _symmetry_equiv_pos_as_xyz
  1  'x, y, z'
loop_
 _atom_site_type_symbol
 _atom_site_label
 _atom_site_symmetry_multiplicity
 _atom_site_fract_x
 _atom_site_fract_y
 _atom_site_fract_z
 _atom_site_occupancy
  Na  Na0  1  -0.00000000  0.00000000  0.00000000  1
  Ca  Ca1  1  0.75000000  0.50000000  0.75000000  1
  Y  Y2  1  0.50000000  -0.00000000  0.50000000  1
  Cd  Cd3  1  0.25000000  0.50000000  0.25000000  1
  F  F4  1  0.38451866  0.75133009  0.13582998  1
  F  F5  1  0.13582998  0.24866991  0.86415125  1
  F  F6  1  0.86415125  0.75133009  0.61550011  1
  F  F7  1  0.61550011  0.24866991  0.38451866  1
  F  F8  1  0.61550011  0.24866991  0.86415125  1
  F  F9  1  0.38451866  0.75133009  0.61550011  1
  F  F10  1  0.13582998  0.24866991  0.38451866  1
  F  F11  1  0.86415125  0.75133009  0.13582998  1
