# generated using pymatgen
data_NaTaWO6
_symmetry_space_group_name_H-M   'P 1'
_cell_length_a   7.40654700
_cell_length_b   7.40654700
_cell_length_c   7.40654700
_cell_angle_alpha   90.04133350
_cell_angle_beta   60.18559681
_cell_angle_gamma   120.23377384
_symmetry_Int_Tables_number   1
_chemical_formula_structural   NaTaWO6
_chemical_formula_sum   'Na2 Ta2 W2 O12'
_cell_volume   287.18833622
_cell_formula_units_Z   2
loop_
 _symmetry_equiv_pos_site_id
 _symmetry_equiv_pos_as_xyz
  1  'x, y, z'
loop_
 _atom_site_type_symbol
 _atom_site_label
 _atom_site_symmetry_multiplicity
 _atom_site_fract_x
 _atom_site_fract_y
 _atom_site_fract_z
 _atom_site_occupancy
  Na  Na0  1  0.75000000  0.37500000  0.87500000  1
  Na  Na1  1  0.25000000  0.37500000  0.37500000  1
  Ta  Ta2  1  0.25000000  0.37500000  0.87500000  1
  Ta  Ta3  1  0.75000000  0.87500000  0.87500000  1
  W  W4  1  0.75000000  0.87500000  0.37500000  1
  W  W5  1  0.25000000  0.87500000  0.87500000  1
  O  O6  1  0.87383924  0.94133145  0.55949783  1
  O  O7  1  0.49917072  0.56666293  0.55949783  1
  O  O8  1  0.50000000  0.93272322  0.56727678  1
  O  O9  1  0.12616076  0.56666293  0.93250779  1
  O  O10  1  0.50082928  0.94133145  0.93250779  1
  O  O11  1  0.50000000  0.55538020  0.94461980  1
  O  O12  1  0.62616076  0.80866855  0.19050217  1
  O  O13  1  0.00082928  0.18333707  0.19050217  1
  O  O14  1  -0.00000000  0.81727678  0.18272322  1
  O  O15  1  0.37383924  0.18333707  0.81749221  1
  O  O16  1  0.99917072  0.80866855  0.81749221  1
  O  O17  1  -0.00000000  0.19461980  0.80538020  1
