# generated using pymatgen
data_MnAlB2(PbO4)2
_symmetry_space_group_name_H-M   'P 1'
_cell_length_a   5.99327640
_cell_length_b   6.98169438
_cell_length_c   8.36697313
_cell_angle_alpha   90.00000000
_cell_angle_beta   92.10413133
_cell_angle_gamma   90.00000000
_symmetry_Int_Tables_number   1
_chemical_formula_structural   MnAlB2(PbO4)2
_chemical_formula_sum   'Mn2 Al2 B4 Pb4 O16'
_cell_volume   349.86507627
_cell_formula_units_Z   2
loop_
 _symmetry_equiv_pos_site_id
 _symmetry_equiv_pos_as_xyz
  1  'x, y, z'
loop_
 _atom_site_type_symbol
 _atom_site_label
 _atom_site_symmetry_multiplicity
 _atom_site_fract_x
 _atom_site_fract_y
 _atom_site_fract_z
 _atom_site_occupancy
  Mn  Mn0  1  0.50000000  0.50000000  0.50000000  1
  Mn  Mn1  1  -0.00000000  0.00000000  0.00000000  1
  Al  Al2  1  -0.00000000  0.50000000  0.50000000  1
  Al  Al3  1  0.50000000  0.00000000  0.00000000  1
  B  B4  1  0.24086475  0.78313867  0.73658409  1
  B  B5  1  0.25913525  0.28313867  0.76341591  1
  B  B6  1  0.75913525  0.21686133  0.26341591  1
  B  B7  1  0.74086475  0.71686133  0.23658409  1
  Pb  Pb8  1  0.24090617  0.55693496  0.14246505  1
  Pb  Pb9  1  0.25909383  0.05693496  0.35753495  1
  Pb  Pb10  1  0.75909383  0.44306504  0.85753495  1
  Pb  Pb11  1  0.74090617  0.94306504  0.64246505  1
  O  O12  1  0.22463221  0.68657518  0.59258970  1
  O  O13  1  0.27536779  0.18657518  0.90741030  1
  O  O14  1  0.77536779  0.31342482  0.40741030  1
  O  O15  1  0.72463221  0.81342482  0.09258970  1
  O  O16  1  0.26024273  0.89840708  0.10752358  1
  O  O17  1  0.23975727  0.39840708  0.39247642  1
  O  O18  1  0.73975727  0.10159292  0.89247642  1
  O  O19  1  0.76024273  0.60159292  0.60752358  1
  O  O20  1  0.04266794  0.83308716  0.81044423  1
  O  O21  1  0.45733206  0.33308716  0.68955577  1
  O  O22  1  0.55550187  0.16485311  0.19086734  1
  O  O23  1  0.94449813  0.66485311  0.30913266  1
  O  O24  1  0.95733206  0.16691284  0.18955577  1
  O  O25  1  0.54266794  0.66691284  0.31044423  1
  O  O26  1  0.44449813  0.83514689  0.80913266  1
  O  O27  1  0.05550187  0.33514689  0.69086734  1
