# generated using pymatgen
data_Mg2ZnP2
_symmetry_space_group_name_H-M   'P 1'
_cell_length_a   4.04345985
_cell_length_b   4.04346007
_cell_length_c   6.55278451
_cell_angle_alpha   89.99774685
_cell_angle_beta   89.99774690
_cell_angle_gamma   60.00087439
_symmetry_Int_Tables_number   1
_chemical_formula_structural   Mg2ZnP2
_chemical_formula_sum   'Mg2 Zn1 P2'
_cell_volume   92.78262123
_cell_formula_units_Z   1
loop_
 _symmetry_equiv_pos_site_id
 _symmetry_equiv_pos_as_xyz
  1  'x, y, z'
loop_
 _atom_site_type_symbol
 _atom_site_label
 _atom_site_symmetry_multiplicity
 _atom_site_fract_x
 _atom_site_fract_y
 _atom_site_fract_z
 _atom_site_occupancy
  Mg  Mg0  1  0.33332726  0.33332726  0.36485376  1
  Mg  Mg1  1  0.00000485  0.00000485  0.00454943  1
  Zn  Zn2  1  0.66666904  0.66666904  0.63913948  1
  P  P3  1  0.66667323  0.66667323  0.23212329  1
  P  P4  1  0.33332562  0.33332562  0.75933404  1
