# generated using pymatgen
data_NaCa4Nb5O17
_symmetry_space_group_name_H-M   'P 1'
_cell_length_a   5.53900701
_cell_length_b   7.80973066
_cell_length_c   33.02234255
_cell_angle_alpha   96.76722797
_cell_angle_beta   90.00000000
_cell_angle_gamma   90.00000000
_symmetry_Int_Tables_number   1
_chemical_formula_structural   NaCa4Nb5O17
_chemical_formula_sum   'Na4 Ca16 Nb20 O68'
_cell_volume   1418.53338469
_cell_formula_units_Z   4
loop_
 _symmetry_equiv_pos_site_id
 _symmetry_equiv_pos_as_xyz
  1  'x, y, z'
loop_
 _atom_site_type_symbol
 _atom_site_label
 _atom_site_symmetry_multiplicity
 _atom_site_fract_x
 _atom_site_fract_y
 _atom_site_fract_z
 _atom_site_occupancy
  Na  Na0  1  0.99626229  0.20683226  0.41668898  1
  Na  Na1  1  0.00373771  0.79316774  0.58331102  1
  Na  Na2  1  0.50373771  0.20683226  0.91668898  1
  Na  Na3  1  0.49626229  0.79316774  0.08331102  1
  Ca  Ca4  1  0.42203977  0.13754258  0.27713090  1
  Ca  Ca5  1  0.57796023  0.86245742  0.72286910  1
  Ca  Ca6  1  0.07796023  0.13754258  0.77713090  1
  Ca  Ca7  1  0.92203977  0.86245742  0.22286910  1
  Ca  Ca8  1  0.49773591  0.63599982  0.28958386  1
  Ca  Ca9  1  0.50226409  0.36400018  0.71041614  1
  Ca  Ca10  1  0.00226409  0.63599982  0.78958386  1
  Ca  Ca11  1  0.99773591  0.36400018  0.21041614  1
  Ca  Ca12  1  0.00612378  0.70292772  0.40445472  1
  Ca  Ca13  1  0.99387622  0.29707228  0.59554528  1
  Ca  Ca14  1  0.49387622  0.70292772  0.90445472  1
  Ca  Ca15  1  0.50612378  0.29707228  0.09554528  1
  Ca  Ca16  1  0.49080740  0.74575822  0.49304978  1
  Ca  Ca17  1  0.50919260  0.25424178  0.50695022  1
  Ca  Ca18  1  0.00919260  0.74575822  0.99304978  1
  Ca  Ca19  1  0.99080740  0.25424178  0.00695022  1
  Nb  Nb20  1  0.97961698  0.40570807  0.32245258  1
  Nb  Nb21  1  0.02038302  0.59429193  0.67754742  1
  Nb  Nb22  1  0.52038302  0.40570807  0.82245258  1
  Nb  Nb23  1  0.47961698  0.59429193  0.17754742  1
  Nb  Nb24  1  0.00000000  0.00000000  0.50000000  1
  Nb  Nb25  1  0.50000000  0.00000000  0.00000000  1
  Nb  Nb26  1  0.98246199  0.91471293  0.32290309  1
  Nb  Nb27  1  0.01753801  0.08528707  0.67709691  1
  Nb  Nb28  1  0.51753801  0.91471293  0.82290309  1
  Nb  Nb29  1  0.48246199  0.08528707  0.17709691  1
  Nb  Nb30  1  0.00000000  0.50000000  0.50000000  1
  Nb  Nb31  1  0.50000000  0.50000000  0.00000000  1
  Nb  Nb32  1  0.50057686  0.45711154  0.40938453  1
  Nb  Nb33  1  0.49942314  0.54288846  0.59061547  1
  Nb  Nb34  1  0.99942314  0.45711154  0.90938453  1
  Nb  Nb35  1  0.00057686  0.54288846  0.09061547  1
  Nb  Nb36  1  0.49829677  0.95979284  0.40955633  1
  Nb  Nb37  1  0.50170323  0.04020716  0.59044367  1
  Nb  Nb38  1  0.00170323  0.95979284  0.90955633  1
  Nb  Nb39  1  0.99829677  0.04020716  0.09044367  1
  O  O40  1  0.29811460  0.98132679  0.53370010  1
  O  O41  1  0.70188540  0.01867321  0.46629990  1
  O  O42  1  0.20188540  0.98132679  0.03370010  1
  O  O43  1  0.79811460  0.01867321  0.96629990  1
  O  O44  1  0.91410064  0.75335349  0.50627805  1
  O  O45  1  0.08589936  0.24664651  0.49372195  1
  O  O46  1  0.58589936  0.75335349  0.00627805  1
  O  O47  1  0.41410064  0.24664651  0.99372195  1
  O  O48  1  0.20502560  0.92109592  0.45072953  1
  O  O49  1  0.79497440  0.07890408  0.54927047  1
  O  O50  1  0.29497440  0.92109592  0.95072953  1
  O  O51  1  0.70502560  0.07890408  0.04927047  1
  O  O52  1  0.28515395  0.88125727  0.36666710  1
  O  O53  1  0.71484605  0.11874273  0.63333290  1
  O  O54  1  0.21484605  0.88125727  0.86666710  1
  O  O55  1  0.78515395  0.11874273  0.13333290  1
  O  O56  1  0.79744387  0.96930486  0.38039227  1
  O  O57  1  0.20255613  0.03069514  0.61960773  1
  O  O58  1  0.70255613  0.96930486  0.88039227  1
  O  O59  1  0.29744387  0.03069514  0.11960773  1
  O  O60  1  0.68606793  0.36367104  0.29702549  1
  O  O61  1  0.31393207  0.63632896  0.70297451  1
  O  O62  1  0.81393207  0.36367104  0.79702549  1
  O  O63  1  0.18606793  0.63632896  0.20297451  1
  O  O64  1  0.71281987  0.92098351  0.28804475  1
  O  O65  1  0.28718013  0.07901649  0.71195525  1
  O  O66  1  0.78718013  0.92098351  0.78804475  1
  O  O67  1  0.21281987  0.07901649  0.21195525  1
  O  O68  1  0.80316950  0.41838597  0.38206774  1
  O  O69  1  0.19683050  0.58161403  0.61793226  1
  O  O70  1  0.69683050  0.41838597  0.88206774  1
  O  O71  1  0.30316950  0.58161403  0.11793226  1
  O  O72  1  0.91088258  0.66586584  0.33100302  1
  O  O73  1  0.08911742  0.33413416  0.66899698  1
  O  O74  1  0.58911742  0.66586584  0.83100302  1
  O  O75  1  0.41088258  0.33413416  0.16899698  1
  O  O76  1  0.28845938  0.48817587  0.36578519  1
  O  O77  1  0.71154062  0.51182413  0.63421481  1
  O  O78  1  0.21154062  0.48817587  0.86578519  1
  O  O79  1  0.78845938  0.51182413  0.13421481  1
  O  O80  1  0.20773571  0.53173159  0.45087044  1
  O  O81  1  0.79226429  0.46826841  0.54912956  1
  O  O82  1  0.29226429  0.53173159  0.95087044  1
  O  O83  1  0.70773571  0.46826841  0.04912956  1
  O  O84  1  0.42496134  0.21009760  0.41536821  1
  O  O85  1  0.57503866  0.78990240  0.58463179  1
  O  O86  1  0.07503866  0.21009760  0.91536821  1
  O  O87  1  0.92496134  0.78990240  0.08463179  1
  O  O88  1  0.29755743  0.54879275  0.53365319  1
  O  O89  1  0.70244257  0.45120725  0.46634681  1
  O  O90  1  0.20244257  0.54879275  0.03365319  1
  O  O91  1  0.79755743  0.45120725  0.96634681  1
  O  O92  1  0.20759744  0.86063691  0.28066035  1
  O  O93  1  0.79240256  0.13936309  0.71933965  1
  O  O94  1  0.29240256  0.86063691  0.78066035  1
  O  O95  1  0.70759744  0.13936309  0.21933965  1
  O  O96  1  0.07952923  0.16456194  0.32886552  1
  O  O97  1  0.92047077  0.83543806  0.67113448  1
  O  O98  1  0.42047077  0.16456194  0.82886552  1
  O  O99  1  0.57952923  0.83543806  0.17113448  1
  O  O100  1  0.58604444  0.71347506  0.42117386  1
  O  O101  1  0.41395556  0.28652494  0.57882614  1
  O  O102  1  0.91395556  0.71347506  0.92117386  1
  O  O103  1  0.08604444  0.28652494  0.07882614  1
  O  O104  1  0.18525128  0.41239845  0.27613743  1
  O  O105  1  0.81474872  0.58760155  0.72386257  1
  O  O106  1  0.31474872  0.41239845  0.77613743  1
  O  O107  1  0.68525128  0.58760155  0.22386257  1
