# generated using pymatgen
data_Mn3Zn9(PO4)8
_symmetry_space_group_name_H-M   'P 1'
_cell_length_a   5.12652584
_cell_length_b   11.59284792
_cell_length_c   11.58555720
_cell_angle_alpha   83.13237206
_cell_angle_beta   86.54871479
_cell_angle_gamma   93.18361573
_symmetry_Int_Tables_number   1
_chemical_formula_structural   Mn3Zn9(PO4)8
_chemical_formula_sum   'Mn3 Zn9 P8 O32'
_cell_volume   680.99302562
_cell_formula_units_Z   1
loop_
 _symmetry_equiv_pos_site_id
 _symmetry_equiv_pos_as_xyz
  1  'x, y, z'
loop_
 _atom_site_type_symbol
 _atom_site_label
 _atom_site_symmetry_multiplicity
 _atom_site_fract_x
 _atom_site_fract_y
 _atom_site_fract_z
 _atom_site_occupancy
  Mn  Mn0  1  0.00000000  -0.00000000  0.50000000  1
  Mn  Mn1  1  0.50000000  -0.00000000  -0.00000000  1
  Mn  Mn2  1  0.50000000  0.50000000  0.50000000  1
  Zn  Zn3  1  0.42059199  0.75705159  0.87877939  1
  Zn  Zn4  1  0.42113593  0.25739019  0.37846094  1
  Zn  Zn5  1  0.92156540  0.62141127  0.24202966  1
  Zn  Zn6  1  0.92074432  0.12162562  0.74271608  1
  Zn  Zn7  1  0.57940801  0.24294841  0.12122061  1
  Zn  Zn8  1  0.57886407  0.74260981  0.62153906  1
  Zn  Zn9  1  0.07843460  0.37858873  0.75797034  1
  Zn  Zn10  1  0.07925568  0.87837438  0.25728392  1
  Zn  Zn11  1  0.00000000  0.50000000  -0.00000000  1
  P  P12  1  0.46863296  0.49634151  0.19514569  1
  P  P13  1  0.46623493  0.99669710  0.69693412  1
  P  P14  1  0.96597302  0.80216941  0.00325445  1
  P  P15  1  0.96629094  0.30321039  0.50323071  1
  P  P16  1  0.53136704  0.50365849  0.80485431  1
  P  P17  1  0.53376507  0.00330290  0.30306588  1
  P  P18  1  0.03402698  0.19783059  0.99674555  1
  P  P19  1  0.03370906  0.69678961  0.49676929  1
  O  O20  1  0.56749555  0.54961608  0.30458823  1
  O  O21  1  0.56773398  0.04953216  0.80604011  1
  O  O22  1  0.06756622  0.69227347  0.95092500  1
  O  O23  1  0.06801011  0.19402432  0.45040935  1
  O  O24  1  0.43250445  0.45038392  0.69541177  1
  O  O25  1  0.43226602  0.95046784  0.19395989  1
  O  O26  1  0.93243378  0.30772653  0.04907500  1
  O  O27  1  0.93198989  0.80597568  0.54959065  1
  O  O28  1  0.45343459  0.36047914  0.22094039  1
  O  O29  1  0.45294742  0.86061686  0.72117309  1
  O  O30  1  0.95263999  0.77876640  0.13962452  1
  O  O31  1  0.95284303  0.27901833  0.63960632  1
  O  O32  1  0.54656541  0.63952086  0.77905961  1
  O  O33  1  0.54705258  0.13938314  0.27882691  1
  O  O34  1  0.04736001  0.22123360  0.86037548  1
  O  O35  1  0.04715697  0.72098167  0.36039368  1
  O  O36  1  0.18986865  0.53352554  0.16743331  1
  O  O37  1  0.18767719  0.03358326  0.66980711  1
  O  O38  1  0.68780924  0.83005900  0.96642104  1
  O  O39  1  0.68764425  0.33031726  0.46645722  1
  O  O40  1  0.81013135  0.46647446  0.83256669  1
  O  O41  1  0.81232281  0.96641674  0.33019289  1
  O  O42  1  0.31219076  0.16994100  0.03357896  1
  O  O43  1  0.31235575  0.66968274  0.53354278  1
  O  O44  1  0.67136186  0.53956370  0.09294308  1
  O  O45  1  0.66444739  0.04076179  0.59452748  1
  O  O46  1  0.16413396  0.90437798  0.95918149  1
  O  O47  1  0.16437863  0.40535903  0.45933127  1
  O  O48  1  0.32863814  0.46043630  0.90705692  1
  O  O49  1  0.33555261  0.95923821  0.40547252  1
  O  O50  1  0.83586604  0.09562202  0.04081851  1
  O  O51  1  0.83562137  0.59464097  0.54066873  1
