# generated using pymatgen
data_MnNb8(FeO8)3
_symmetry_space_group_name_H-M   'P 1'
_cell_length_a   5.13262197
_cell_length_b   5.88021270
_cell_length_c   14.53049163
_cell_angle_alpha   90.00000000
_cell_angle_beta   89.88197952
_cell_angle_gamma   90.00000000
_symmetry_Int_Tables_number   1
_chemical_formula_structural   MnNb8(FeO8)3
_chemical_formula_sum   'Mn1 Nb8 Fe3 O24'
_cell_volume   438.54251388
_cell_formula_units_Z   1
loop_
 _symmetry_equiv_pos_site_id
 _symmetry_equiv_pos_as_xyz
  1  'x, y, z'
loop_
 _atom_site_type_symbol
 _atom_site_label
 _atom_site_symmetry_multiplicity
 _atom_site_fract_x
 _atom_site_fract_y
 _atom_site_fract_z
 _atom_site_occupancy
  Mn  Mn0  1  0.25000000  0.82745462  0.50000000  1
  Nb  Nb1  1  0.25250222  0.31851332  0.66177139  1
  Nb  Nb2  1  0.75160995  0.18105963  0.83969296  1
  Nb  Nb3  1  0.74839005  0.18105963  0.16030704  1
  Nb  Nb4  1  0.24749778  0.31851332  0.33822861  1
  Nb  Nb5  1  0.74579098  0.68147857  0.33771354  1
  Nb  Nb6  1  0.24726947  0.81942866  0.16071271  1
  Nb  Nb7  1  0.25273053  0.81942866  0.83928729  1
  Nb  Nb8  1  0.75420902  0.68147857  0.66228646  1
  Fe  Fe9  1  0.25000000  0.33653702  0.00000000  1
  Fe  Fe10  1  0.75000000  0.17000875  0.50000000  1
  Fe  Fe11  1  0.75000000  0.66575075  0.00000000  1
  O  O12  1  0.42887736  0.10288148  0.90256388  1
  O  O13  1  0.93311803  0.39807107  0.59716475  1
  O  O14  1  0.56688197  0.39807107  0.40283525  1
  O  O15  1  0.07112264  0.10288148  0.09743612  1
  O  O16  1  0.57122379  0.89378752  0.09711538  1
  O  O17  1  0.06622936  0.60138893  0.40103857  1
  O  O18  1  0.43377064  0.60138893  0.59896143  1
  O  O19  1  0.92877621  0.89378752  0.90288462  1
  O  O20  1  0.41915619  0.12677815  0.24405174  1
  O  O21  1  0.91681457  0.37196729  0.25412266  1
  O  O22  1  0.58318543  0.37196729  0.74587734  1
  O  O23  1  0.08084381  0.12677815  0.75594826  1
  O  O24  1  0.58244339  0.87342105  0.75592167  1
  O  O25  1  0.08267023  0.62705392  0.74471267  1
  O  O26  1  0.41732977  0.62705392  0.25528733  1
  O  O27  1  0.91755661  0.87342105  0.24407833  1
  O  O28  1  0.40526125  0.12053001  0.58068182  1
  O  O29  1  0.90866104  0.38105290  0.92000136  1
  O  O30  1  0.59133896  0.38105290  0.07999864  1
  O  O31  1  0.09473875  0.12053001  0.41931818  1
  O  O32  1  0.59983061  0.88379478  0.41919131  1
  O  O33  1  0.09609335  0.61891717  0.08061651  1
  O  O34  1  0.40390665  0.61891717  0.91938349  1
  O  O35  1  0.90016939  0.88379478  0.58080869  1
