# generated using pymatgen
data_Mn3Zn(IO3)8
_symmetry_space_group_name_H-M   'P 1'
_cell_length_a   5.30978174
_cell_length_b   11.31995754
_cell_length_c   11.25580173
_cell_angle_alpha   120.37719342
_cell_angle_beta   90.02502359
_cell_angle_gamma   90.05991865
_symmetry_Int_Tables_number   1
_chemical_formula_structural   Mn3Zn(IO3)8
_chemical_formula_sum   'Mn3 Zn1 I8 O24'
_cell_volume   583.66648333
_cell_formula_units_Z   1
loop_
 _symmetry_equiv_pos_site_id
 _symmetry_equiv_pos_as_xyz
  1  'x, y, z'
loop_
 _atom_site_type_symbol
 _atom_site_label
 _atom_site_symmetry_multiplicity
 _atom_site_fract_x
 _atom_site_fract_y
 _atom_site_fract_z
 _atom_site_occupancy
  Mn  Mn0  1  0.34826777  0.76070434  0.25385714  1
  Mn  Mn1  1  0.85088061  0.73998023  0.74376629  1
  Mn  Mn2  1  0.35252207  0.26004488  0.25637136  1
  Zn  Zn3  1  0.84036413  0.23973939  0.74678527  1
  I  I4  1  0.76485660  0.58003889  0.92898910  1
  I  I5  1  0.26033522  0.41565678  0.06729459  1
  I  I6  1  0.77476511  0.08745649  0.93325283  1
  I  I7  1  0.27330606  0.91345919  0.06487531  1
  I  I8  1  0.25250610  0.91969937  0.60157019  1
  I  I9  1  0.75812024  0.08568628  0.40353735  1
  I  I10  1  0.75296998  0.58302455  0.39754071  1
  I  I11  1  0.25140889  0.41559147  0.60334981  1
  O  O12  1  0.57567211  0.12020522  0.08039556  1
  O  O13  1  0.07580360  0.88124013  0.91760771  1
  O  O14  1  0.61627524  0.19808527  0.87932142  1
  O  O15  1  0.11344811  0.80254381  0.11737822  1
  O  O16  1  0.61348455  0.69275166  0.87619072  1
  O  O17  1  0.11216944  0.30354817  0.12179289  1
  O  O18  1  0.08110706  0.77895837  0.60243655  1
  O  O19  1  0.58166564  0.22324148  0.39962051  1
  O  O20  1  0.05850512  0.06640809  0.72309642  1
  O  O21  1  0.56476912  0.93848951  0.28239601  1
  O  O22  1  0.62610618  0.92405060  0.80838423  1
  O  O23  1  0.12676604  0.07642194  0.19127683  1
  O  O24  1  0.57555307  0.71983293  0.39279450  1
  O  O25  1  0.07111402  0.27897091  0.60809340  1
  O  O26  1  0.63496224  0.60570914  0.56116125  1
  O  O27  1  0.13499766  0.39322104  0.43948952  1
  O  O28  1  0.56594090  0.43396863  0.27423010  1
  O  O29  1  0.06630227  0.56577611  0.72577129  1
  O  O30  1  0.62282997  0.41583769  0.79896945  1
  O  O31  1  0.11824034  0.57873868  0.19719736  1
  O  O32  1  0.55023587  0.61238177  0.07079731  1
  O  O33  1  0.04591160  0.38393206  0.92507816  1
  O  O34  1  0.13670759  0.89601992  0.43728641  1
  O  O35  1  0.64152949  0.10858503  0.56804423  1
