# generated using pymatgen
data_Mn3FeCo2P3
_symmetry_space_group_name_H-M   'P 1'
_cell_length_a   3.49586295
_cell_length_b   5.83160750
_cell_length_c   20.05918177
_cell_angle_alpha   89.93703571
_cell_angle_beta   90.00000000
_cell_angle_gamma   90.00000000
_symmetry_Int_Tables_number   1
_chemical_formula_structural   Mn3FeCo2P3
_chemical_formula_sum   'Mn12 Fe4 Co8 P12'
_cell_volume   408.93627425
_cell_formula_units_Z   4
loop_
 _symmetry_equiv_pos_site_id
 _symmetry_equiv_pos_as_xyz
  1  'x, y, z'
loop_
 _atom_site_type_symbol
 _atom_site_label
 _atom_site_symmetry_multiplicity
 _atom_site_fract_x
 _atom_site_fract_y
 _atom_site_fract_z
 _atom_site_occupancy
  Mn  Mn0  1  0.75000000  0.52722748  0.05637597  1
  Mn  Mn1  1  0.75000000  0.52846945  0.38978978  1
  Mn  Mn2  1  0.75000000  0.52721795  0.72293670  1
  Mn  Mn3  1  0.75000000  0.02874873  0.11031948  1
  Mn  Mn4  1  0.75000000  0.02784233  0.44378012  1
  Mn  Mn5  1  0.75000000  0.02806821  0.77719930  1
  Mn  Mn6  1  0.25000000  0.47279916  0.27695214  1
  Mn  Mn7  1  0.25000000  0.47282197  0.61065755  1
  Mn  Mn8  1  0.25000000  0.47298089  0.94402840  1
  Mn  Mn9  1  0.25000000  0.97258956  0.22309229  1
  Mn  Mn10  1  0.25000000  0.97283450  0.55613233  1
  Mn  Mn11  1  0.25000000  0.97289078  0.88958378  1
  Fe  Fe12  1  0.75000000  0.64554745  0.18724656  1
  Fe  Fe13  1  0.75000000  0.64506068  0.52091367  1
  Fe  Fe14  1  0.75000000  0.64486437  0.85417633  1
  Fe  Fe15  1  0.75000000  0.14526614  0.31289900  1
  Co  Co16  1  0.75000000  0.14379808  0.64521165  1
  Co  Co17  1  0.75000000  0.14387870  0.97862469  1
  Co  Co18  1  0.25000000  0.35272707  0.14500722  1
  Co  Co19  1  0.25000000  0.35317800  0.47806183  1
  Co  Co20  1  0.25000000  0.35369463  0.81160494  1
  Co  Co21  1  0.25000000  0.85501250  0.02165278  1
  Co  Co22  1  0.25000000  0.85228475  0.35532131  1
  Co  Co23  1  0.25000000  0.85540029  0.68829995  1
  P  P24  1  0.75000000  0.26961376  0.20940419  1
  P  P25  1  0.75000000  0.26852300  0.54176578  1
  P  P26  1  0.75000000  0.26852061  0.87522388  1
  P  P27  1  0.75000000  0.76943907  0.29079619  1
  P  P28  1  0.75000000  0.76647378  0.62432275  1
  P  P29  1  0.75000000  0.76659221  0.95754266  1
  P  P30  1  0.25000000  0.73219458  0.12539603  1
  P  P31  1  0.25000000  0.73245170  0.45866899  1
  P  P32  1  0.25000000  0.73263768  0.79195764  1
  P  P33  1  0.25000000  0.23321199  0.04179020  1
  P  P34  1  0.25000000  0.23179032  0.37471067  1
  P  P35  1  0.25000000  0.23334763  0.70855326  1
