# generated using pymatgen
data_Na2AlCr(P2O7)2
_symmetry_space_group_name_H-M   'P 1'
_cell_length_a   7.30766709
_cell_length_b   7.91400174
_cell_length_c   9.50148502
_cell_angle_alpha   90.00000000
_cell_angle_beta   111.52701699
_cell_angle_gamma   90.00000000
_symmetry_Int_Tables_number   1
_chemical_formula_structural   Na2AlCr(P2O7)2
_chemical_formula_sum   'Na4 Al2 Cr2 P8 O28'
_cell_volume   511.16788749
_cell_formula_units_Z   2
loop_
 _symmetry_equiv_pos_site_id
 _symmetry_equiv_pos_as_xyz
  1  'x, y, z'
loop_
 _atom_site_type_symbol
 _atom_site_label
 _atom_site_symmetry_multiplicity
 _atom_site_fract_x
 _atom_site_fract_y
 _atom_site_fract_z
 _atom_site_occupancy
  Na  Na0  1  0.29013221  0.52108508  0.29438625  1
  Na  Na1  1  0.70986779  0.02108508  0.20561375  1
  Na  Na2  1  0.70916164  0.47863250  0.70519380  1
  Na  Na3  1  0.29083836  0.97863250  0.79480620  1
  Al  Al4  1  0.73838700  0.00965367  0.75092598  1
  Al  Al5  1  0.26161300  0.50965367  0.74907402  1
  Cr  Cr6  1  0.26113438  0.99320406  0.24704926  1
  Cr  Cr7  1  0.73886562  0.49320406  0.25295074  1
  P  P8  1  0.92214752  0.24118808  0.04393771  1
  P  P9  1  0.07785248  0.74118808  0.45606229  1
  P  P10  1  0.07201650  0.75484439  0.94851437  1
  P  P11  1  0.92798350  0.25484439  0.55148563  1
  P  P12  1  0.32599645  0.29197307  0.04073778  1
  P  P13  1  0.67400355  0.79197307  0.45926222  1
  P  P14  1  0.66951023  0.71111419  0.95106780  1
  P  P15  1  0.33048977  0.21111419  0.54893220  1
  O  O16  1  0.46301847  0.41630270  0.15213737  1
  O  O17  1  0.53698153  0.91630270  0.34786263  1
  O  O18  1  0.52489437  0.58666694  0.84551888  1
  O  O19  1  0.47510563  0.08666694  0.65448112  1
  O  O20  1  0.11759199  0.34513626  0.05406536  1
  O  O21  1  0.88240801  0.84513626  0.44593464  1
  O  O22  1  0.87685511  0.64916940  0.93975966  1
  O  O23  1  0.12314489  0.14916940  0.56024034  1
  O  O24  1  0.80904159  0.36348189  0.10340680  1
  O  O25  1  0.19095841  0.86348189  0.39659320  1
  O  O26  1  0.18175038  0.63517449  0.88342809  1
  O  O27  1  0.81824962  0.13517449  0.61657191  1
  O  O28  1  0.31153444  0.30997522  0.87720844  1
  O  O29  1  0.68846556  0.80997522  0.62279156  1
  O  O30  1  0.68492558  0.70437015  0.11607579  1
  O  O31  1  0.31507442  0.20437015  0.38392421  1
  O  O32  1  0.80494181  0.20166005  0.87815808  1
  O  O33  1  0.19505819  0.70166005  0.62184192  1
  O  O34  1  0.19481754  0.78740286  0.11548201  1
  O  O35  1  0.80518246  0.28740286  0.38451799  1
  O  O36  1  0.98768743  0.08208377  0.14271597  1
  O  O37  1  0.01231257  0.58208377  0.35728403  1
  O  O38  1  0.00087286  0.91610264  0.85416396  1
  O  O39  1  0.99912714  0.41610264  0.64583604  1
  O  O40  1  0.36289274  0.10604127  0.09231610  1
  O  O41  1  0.63710726  0.60604127  0.40768390  1
  O  O42  1  0.63953479  0.89473732  0.89273656  1
  O  O43  1  0.36046521  0.39473732  0.60726344  1
