# generated using pymatgen
data_MnCdHgTe3
_symmetry_space_group_name_H-M   'P 1'
_cell_length_a   4.63190771
_cell_length_b   6.50681446
_cell_length_c   7.99472495
_cell_angle_alpha   114.12365749
_cell_angle_beta   106.83911776
_cell_angle_gamma   90.00000000
_symmetry_Int_Tables_number   1
_chemical_formula_structural   MnCdHgTe3
_chemical_formula_sum   'Mn1 Cd1 Hg1 Te3'
_cell_volume   208.53769266
_cell_formula_units_Z   1
loop_
 _symmetry_equiv_pos_site_id
 _symmetry_equiv_pos_as_xyz
  1  'x, y, z'
loop_
 _atom_site_type_symbol
 _atom_site_label
 _atom_site_symmetry_multiplicity
 _atom_site_fract_x
 _atom_site_fract_y
 _atom_site_fract_z
 _atom_site_occupancy
  Mn  Mn0  1  0.33356853  0.32979836  0.66713807  1
  Cd  Cd1  1  0.99872645  0.99935532  0.99745290  1
  Hg  Hg2  1  0.66764859  0.66886747  0.33529618  1
  Te  Te3  1  0.49329537  0.73570675  0.98659074  1
  Te  Te4  1  0.17280125  0.41215724  0.34560150  1
  Te  Te5  1  0.83395981  0.10411485  0.66792062  1
