# generated using pymatgen
data_Na14Mg9(P2O7)8
_symmetry_space_group_name_H-M   'P 1'
_cell_length_a   9.85018061
_cell_length_b   11.03022417
_cell_length_c   12.93444337
_cell_angle_alpha   66.10424950
_cell_angle_beta   67.86207014
_cell_angle_gamma   72.36806726
_symmetry_Int_Tables_number   1
_chemical_formula_structural   Na14Mg9(P2O7)8
_chemical_formula_sum   'Na14 Mg9 P16 O56'
_cell_volume   1171.26224714
_cell_formula_units_Z   1
loop_
 _symmetry_equiv_pos_site_id
 _symmetry_equiv_pos_as_xyz
  1  'x, y, z'
loop_
 _atom_site_type_symbol
 _atom_site_label
 _atom_site_symmetry_multiplicity
 _atom_site_fract_x
 _atom_site_fract_y
 _atom_site_fract_z
 _atom_site_occupancy
  Na  Na0  1  0.87391966  0.87951469  0.60275401  1
  Na  Na1  1  0.37499087  0.89204866  0.08418930  1
  Na  Na2  1  0.12608034  0.12048531  0.39724599  1
  Na  Na3  1  0.62500913  0.10795134  0.91581070  1
  Na  Na4  1  0.04146835  0.65084167  0.94203414  1
  Na  Na5  1  0.53882647  0.65671805  0.44276354  1
  Na  Na6  1  0.95853165  0.34915833  0.05796586  1
  Na  Na7  1  0.46117353  0.34328195  0.55723646  1
  Na  Na8  1  0.12931001  0.52542151  0.66205162  1
  Na  Na9  1  0.63005321  0.52428691  0.16204874  1
  Na  Na10  1  0.87068999  0.47457849  0.33794838  1
  Na  Na11  1  0.36994679  0.47571309  0.83795126  1
  Na  Na12  1  0.65999281  0.96579657  0.39121450  1
  Na  Na13  1  0.34000719  0.03420343  0.60878550  1
  Mg  Mg14  1  0.80711625  0.21725397  0.58227944  1
  Mg  Mg15  1  0.30753425  0.21967808  0.07984395  1
  Mg  Mg16  1  0.19288375  0.78274603  0.41772056  1
  Mg  Mg17  1  0.69246575  0.78032192  0.92015605  1
  Mg  Mg18  1  0.93700816  0.26651373  0.79799790  1
  Mg  Mg19  1  0.44025589  0.26264503  0.29984922  1
  Mg  Mg20  1  0.06299184  0.73348627  0.20200210  1
  Mg  Mg21  1  0.55974411  0.73735497  0.70015078  1
  Mg  Mg22  1  -0.00000000  0.00000000  -0.00000000  1
  P  P23  1  0.71033698  0.45512409  0.63228253  1
  P  P24  1  0.20998773  0.45810864  0.13010300  1
  P  P25  1  0.28966302  0.54487591  0.36771747  1
  P  P26  1  0.79001227  0.54189136  0.86989700  1
  P  P27  1  0.87264467  0.68661960  0.48955138  1
  P  P28  1  0.36568865  0.69253750  0.98643101  1
  P  P29  1  0.12735533  0.31338040  0.51044862  1
  P  P30  1  0.63431135  0.30746250  0.01356899  1
  P  P31  1  0.76909719  0.21360386  0.34137699  1
  P  P32  1  0.26451933  0.19732975  0.84519856  1
  P  P33  1  0.23090281  0.78639614  0.65862301  1
  P  P34  1  0.73548067  0.80267025  0.15480144  1
  P  P35  1  0.97005258  0.95666930  0.77024754  1
  P  P36  1  0.46348054  0.96500375  0.26316971  1
  P  P37  1  0.02994742  0.04333070  0.22975246  1
  P  P38  1  0.53651946  0.03499625  0.73683029  1
  O  O39  1  0.90346294  0.70376885  0.36049849  1
  O  O40  1  0.39817011  0.69864759  0.86024857  1
  O  O41  1  0.09653706  0.29623115  0.63950151  1
  O  O42  1  0.60182989  0.30135241  0.13975143  1
  O  O43  1  0.80255866  0.35013354  0.25218743  1
  O  O44  1  0.28474798  0.33684287  0.75671399  1
  O  O45  1  0.19744134  0.64986646  0.74781257  1
  O  O46  1  0.71525202  0.66315713  0.24328601  1
  O  O47  1  0.92059393  0.04108163  0.65985354  1
  O  O48  1  0.41732541  0.03806264  0.15021299  1
  O  O49  1  0.07940607  0.95891837  0.34014646  1
  O  O50  1  0.58267459  0.96193736  0.84978701  1
  O  O51  1  0.07830267  0.54706067  0.18912137  1
  O  O52  1  0.58198986  0.54346613  0.69354638  1
  O  O53  1  0.92169733  0.45293933  0.81087863  1
  O  O54  1  0.41801014  0.45653387  0.30645362  1
  O  O55  1  0.14899220  0.90197109  0.72821798  1
  O  O56  1  0.64543532  0.91338879  0.22585447  1
  O  O57  1  0.85100780  0.09802891  0.27178202  1
  O  O58  1  0.35456468  0.08661121  0.77414553  1
  O  O59  1  0.00034935  0.70276286  0.52003906  1
  O  O60  1  0.49417284  0.71046343  0.01544464  1
  O  O61  1  0.99965065  0.29723714  0.47996094  1
  O  O62  1  0.50582716  0.28953657  0.98455536  1
  O  O63  1  0.85101173  0.53191424  0.56798494  1
  O  O64  1  0.34762551  0.53729716  0.06982317  1
  O  O65  1  0.14898827  0.46808576  0.43201506  1
  O  O66  1  0.65237449  0.46270284  0.93017683  1
  O  O67  1  0.72554166  0.77601533  0.53408222  1
  O  O68  1  0.21796346  0.78367983  0.02984015  1
  O  O69  1  0.27445834  0.22398467  0.46591778  1
  O  O70  1  0.78203654  0.21632017  0.97015985  1
  O  O71  1  0.67741886  0.43027885  0.53485416  1
  O  O72  1  0.18133606  0.43276300  0.03084300  1
  O  O73  1  0.32258114  0.56972115  0.46514584  1
  O  O74  1  0.81866394  0.56723700  0.96915700  1
  O  O75  1  0.84027480  0.16364527  0.44145625  1
  O  O76  1  0.33346201  0.15728835  0.94468123  1
  O  O77  1  0.15972520  0.83635473  0.55854375  1
  O  O78  1  0.66653799  0.84271165  0.05531877  1
  O  O79  1  0.95133600  0.04156011  0.84633804  1
  O  O80  1  0.44097349  0.05756833  0.33195404  1
  O  O81  1  0.04866400  0.95843989  0.15366196  1
  O  O82  1  0.55902651  0.94243167  0.66804596  1
  O  O83  1  0.77046853  0.31661661  0.71223724  1
  O  O84  1  0.26795070  0.31952750  0.21095522  1
  O  O85  1  0.22953147  0.68338339  0.28776276  1
  O  O86  1  0.73204930  0.68047250  0.78904478  1
  O  O87  1  0.10214836  0.17008519  0.89440496  1
  O  O88  1  0.60591308  0.19643072  0.38663967  1
  O  O89  1  0.89785164  0.82991481  0.10559504  1
  O  O90  1  0.39408692  0.80356928  0.61336033  1
  O  O91  1  0.89920857  0.83120837  0.83975126  1
  O  O92  1  0.39768244  0.83683818  0.33721105  1
  O  O93  1  0.10079143  0.16879163  0.16024874  1
  O  O94  1  0.60231756  0.16316182  0.66278895  1
