# generated using pymatgen
data_La3Nd(CuO4)2
_symmetry_space_group_name_H-M   'P 1'
_cell_length_a   4.00406634
_cell_length_b   4.00406634
_cell_length_c   12.61931753
_cell_angle_alpha   90.00000000
_cell_angle_beta   90.00000000
_cell_angle_gamma   90.00000000
_symmetry_Int_Tables_number   1
_chemical_formula_structural   La3Nd(CuO4)2
_chemical_formula_sum   'La3 Nd1 Cu2 O8'
_cell_volume   202.31980463
_cell_formula_units_Z   1
loop_
 _symmetry_equiv_pos_site_id
 _symmetry_equiv_pos_as_xyz
  1  'x, y, z'
loop_
 _atom_site_type_symbol
 _atom_site_label
 _atom_site_symmetry_multiplicity
 _atom_site_fract_x
 _atom_site_fract_y
 _atom_site_fract_z
 _atom_site_occupancy
  La  La0  1  0.00000000  -0.00000000  0.64926644  1
  La  La1  1  0.00000000  -0.00000000  0.34918249  1
  La  La2  1  0.50000000  0.50000000  0.85118717  1
  Nd  Nd3  1  0.50000000  0.50000000  0.14993625  1
  Cu  Cu4  1  0.00000000  0.00000000  0.00120206  1
  Cu  Cu5  1  0.50000000  0.50000000  0.50001879  1
  O  O6  1  0.50000000  0.00000000  0.24802305  1
  O  O7  1  0.00000000  0.50000000  0.75014842  1
  O  O8  1  0.00000000  0.50000000  0.24802305  1
  O  O9  1  0.50000000  -0.00000000  0.75014842  1
  O  O10  1  0.50000000  -0.00000000  0.00191684  1
  O  O11  1  0.00000000  0.50000000  0.49951509  1
  O  O12  1  0.50000000  0.00000000  0.49951509  1
  O  O13  1  0.00000000  0.50000000  0.00191684  1
