# generated using pymatgen
data_Mn7(Si2Mo)4
_symmetry_space_group_name_H-M   'P 1'
_cell_length_a   4.85879370
_cell_length_b   12.82304998
_cell_length_c   15.35925580
_cell_angle_alpha   90.00000000
_cell_angle_beta   90.00000000
_cell_angle_gamma   90.00000000
_symmetry_Int_Tables_number   1
_chemical_formula_structural   Mn7(Si2Mo)4
_chemical_formula_sum   'Mn28 Si32 Mo16'
_cell_volume   956.95158942
_cell_formula_units_Z   4
loop_
 _symmetry_equiv_pos_site_id
 _symmetry_equiv_pos_as_xyz
  1  'x, y, z'
loop_
 _atom_site_type_symbol
 _atom_site_label
 _atom_site_symmetry_multiplicity
 _atom_site_fract_x
 _atom_site_fract_y
 _atom_site_fract_z
 _atom_site_occupancy
  Mn  Mn0  1  0.75000000  0.18992235  0.25089633  1
  Mn  Mn1  1  0.75000000  0.68992235  0.24910367  1
  Mn  Mn2  1  0.25000000  0.81007765  0.74910367  1
  Mn  Mn3  1  0.25000000  0.31007765  0.75089633  1
  Mn  Mn4  1  0.01022865  0.13638053  0.82252955  1
  Mn  Mn5  1  0.48977135  0.63638053  0.67747045  1
  Mn  Mn6  1  0.51022865  0.86361947  0.17747045  1
  Mn  Mn7  1  0.98977135  0.36361947  0.32252955  1
  Mn  Mn8  1  0.98977135  0.86361947  0.17747045  1
  Mn  Mn9  1  0.51022865  0.36361947  0.32252955  1
  Mn  Mn10  1  0.48977135  0.13638053  0.82252955  1
  Mn  Mn11  1  0.01022865  0.63638053  0.67747045  1
  Mn  Mn12  1  0.75000000  0.36534727  0.15469074  1
  Mn  Mn13  1  0.75000000  0.86534727  0.34530926  1
  Mn  Mn14  1  0.25000000  0.63465273  0.84530926  1
  Mn  Mn15  1  0.25000000  0.13465273  0.65469074  1
  Mn  Mn16  1  0.99562751  0.43949687  0.87947028  1
  Mn  Mn17  1  0.50437249  0.93949687  0.62052972  1
  Mn  Mn18  1  0.49562751  0.56050313  0.12052972  1
  Mn  Mn19  1  0.00437249  0.06050313  0.37947028  1
  Mn  Mn20  1  0.00437249  0.56050313  0.12052972  1
  Mn  Mn21  1  0.49562751  0.06050313  0.37947028  1
  Mn  Mn22  1  0.50437249  0.43949687  0.87947028  1
  Mn  Mn23  1  0.99562751  0.93949687  0.62052972  1
  Mn  Mn24  1  0.75000000  0.37313239  0.49722449  1
  Mn  Mn25  1  0.75000000  0.87313239  0.00277551  1
  Mn  Mn26  1  0.25000000  0.62686761  0.50277551  1
  Mn  Mn27  1  0.25000000  0.12686761  0.99722449  1
  Si  Si28  1  0.75000000  0.44801209  0.01819542  1
  Si  Si29  1  0.75000000  0.94801209  0.48180458  1
  Si  Si30  1  0.25000000  0.55198791  0.98180458  1
  Si  Si31  1  0.25000000  0.05198791  0.51819542  1
  Si  Si32  1  0.75000000  0.08816670  0.69779653  1
  Si  Si33  1  0.75000000  0.58816670  0.80220347  1
  Si  Si34  1  0.25000000  0.91183330  0.30220347  1
  Si  Si35  1  0.25000000  0.41183330  0.19779653  1
  Si  Si36  1  0.75000000  0.22577111  0.39768924  1
  Si  Si37  1  0.75000000  0.72577111  0.10231076  1
  Si  Si38  1  0.25000000  0.77422889  0.60231076  1
  Si  Si39  1  0.25000000  0.27422889  0.89768924  1
  Si  Si40  1  0.75000000  0.05506253  0.93443904  1
  Si  Si41  1  0.75000000  0.55506253  0.56556096  1
  Si  Si42  1  0.25000000  0.94493747  0.06556096  1
  Si  Si43  1  0.25000000  0.44493747  0.43443904  1
  Si  Si44  1  0.75000000  0.00444420  0.25164892  1
  Si  Si45  1  0.75000000  0.50444420  0.24835108  1
  Si  Si46  1  0.25000000  0.99555580  0.74835108  1
  Si  Si47  1  0.25000000  0.49555580  0.75164892  1
  Si  Si48  1  0.99751239  0.28268230  0.62085791  1
  Si  Si49  1  0.50248761  0.78268230  0.87914209  1
  Si  Si50  1  0.49751239  0.71731770  0.37914209  1
  Si  Si51  1  0.00248761  0.21731770  0.12085791  1
  Si  Si52  1  0.00248761  0.71731770  0.37914209  1
  Si  Si53  1  0.49751239  0.21731770  0.12085791  1
  Si  Si54  1  0.50248761  0.28268230  0.62085791  1
  Si  Si55  1  0.99751239  0.78268230  0.87914209  1
  Si  Si56  1  0.75000000  0.29181185  0.80556078  1
  Si  Si57  1  0.75000000  0.79181185  0.69443922  1
  Si  Si58  1  0.25000000  0.70818815  0.19443922  1
  Si  Si59  1  0.25000000  0.20818815  0.30556078  1
  Mo  Mo60  1  0.75000000  0.43261210  0.69628982  1
  Mo  Mo61  1  0.75000000  0.93261210  0.80371018  1
  Mo  Mo62  1  0.25000000  0.56738790  0.30371018  1
  Mo  Mo63  1  0.25000000  0.06738790  0.19628982  1
  Mo  Mo64  1  0.75000000  0.13358768  0.54189652  1
  Mo  Mo65  1  0.75000000  0.63358768  0.95810348  1
  Mo  Mo66  1  0.25000000  0.86641232  0.45810348  1
  Mo  Mo67  1  0.25000000  0.36641232  0.04189652  1
  Mo  Mo68  1  0.75000000  0.25391789  0.97360864  1
  Mo  Mo69  1  0.75000000  0.75391789  0.52639136  1
  Mo  Mo70  1  0.25000000  0.74608211  0.02639136  1
  Mo  Mo71  1  0.25000000  0.24608211  0.47360864  1
  Mo  Mo72  1  0.75000000  0.04370655  0.09280407  1
  Mo  Mo73  1  0.75000000  0.54370655  0.40719593  1
  Mo  Mo74  1  0.25000000  0.95629345  0.90719593  1
  Mo  Mo75  1  0.25000000  0.45629345  0.59280407  1
