# generated using pymatgen
data_Lu2AlCo3
_symmetry_space_group_name_H-M   'P 1'
_cell_length_a   5.24859831
_cell_length_b   5.24859831
_cell_length_c   4.89751429
_cell_angle_alpha   90.00000000
_cell_angle_beta   57.59889465
_cell_angle_gamma   120.00000000
_symmetry_Int_Tables_number   1
_chemical_formula_structural   Lu2AlCo3
_chemical_formula_sum   'Lu2 Al1 Co3'
_cell_volume   91.78948412
_cell_formula_units_Z   1
loop_
 _symmetry_equiv_pos_site_id
 _symmetry_equiv_pos_as_xyz
  1  'x, y, z'
loop_
 _atom_site_type_symbol
 _atom_site_label
 _atom_site_symmetry_multiplicity
 _atom_site_fract_x
 _atom_site_fract_y
 _atom_site_fract_z
 _atom_site_occupancy
  Lu  Lu0  1  0.49252494  0.74626247  0.76121259  1
  Lu  Lu1  1  0.00747506  0.00373753  0.98878741  1
  Al  Al2  1  0.75000000  0.37500000  0.87500000  1
  Co  Co3  1  0.25000000  0.37500000  0.37500000  1
  Co  Co4  1  0.25000000  0.87500000  0.37500000  1
  Co  Co5  1  0.75000000  0.37500000  0.37500000  1
