# generated using pymatgen
data_La3Nd3Al22
_symmetry_space_group_name_H-M   'P 1'
_cell_length_a   4.40484903
_cell_length_b   8.52833380
_cell_length_c   16.56482435
_cell_angle_alpha   75.40056313
_cell_angle_beta   90.00000000
_cell_angle_gamma   104.96612567
_symmetry_Int_Tables_number   1
_chemical_formula_structural   La3Nd3Al22
_chemical_formula_sum   'La3 Nd3 Al22'
_cell_volume   580.34363357
_cell_formula_units_Z   1
loop_
 _symmetry_equiv_pos_site_id
 _symmetry_equiv_pos_as_xyz
  1  'x, y, z'
loop_
 _atom_site_type_symbol
 _atom_site_label
 _atom_site_symmetry_multiplicity
 _atom_site_fract_x
 _atom_site_fract_y
 _atom_site_fract_z
 _atom_site_occupancy
  La  La0  1  0.34184127  0.68368255  0.34157590  1
  La  La1  1  0.84162289  0.68324577  0.84162524  1
  La  La2  1  0.15810459  0.31620917  0.15852464  1
  Nd  Nd3  1  0.65876214  0.31752428  0.65867595  1
  Nd  Nd4  1  0.00029420  0.00058841  0.99977432  1
  Nd  Nd5  1  0.50012943  0.00025885  0.50061671  1
  Al  Al6  1  0.64801870  0.29603739  0.01669079  1
  Al  Al7  1  0.14766621  0.29533241  0.51761945  1
  Al  Al8  1  0.85208640  0.70417279  0.48299284  1
  Al  Al9  1  0.35203840  0.70407680  0.98328923  1
  Al  Al10  1  0.51720214  0.03440428  0.14818387  1
  Al  Al11  1  0.01813866  0.03627732  0.64808487  1
  Al  Al12  1  0.98284270  0.96568540  0.35172446  1
  Al  Al13  1  0.48248942  0.96497883  0.85184984  1
  Al  Al14  1  0.14161847  0.28323694  0.35881679  1
  Al  Al15  1  0.64137103  0.28274207  0.85784905  1
  Al  Al16  1  0.35839178  0.71678355  0.14143084  1
  Al  Al17  1  0.85802520  0.71605041  0.64128731  1
  Al  Al18  1  0.75004309  0.50008618  0.24986755  1
  Al  Al19  1  0.24954724  0.49909448  0.74967431  1
  Al  Al20  1  0.79545781  0.59091562  0.06841776  1
  Al  Al21  1  0.29474362  0.58948723  0.56836218  1
  Al  Al22  1  0.70475973  0.40951946  0.43200303  1
  Al  Al23  1  0.20450182  0.40900364  0.93160342  1
  Al  Al24  1  0.56846276  0.13692552  0.29527101  1
  Al  Al25  1  0.06865961  0.13731922  0.79457196  1
  Al  Al26  1  0.93153743  0.86307487  0.20475303  1
  Al  Al27  1  0.43164327  0.86328654  0.70486364  1
