# generated using pymatgen
data_LaNd3Mn4O12
_symmetry_space_group_name_H-M   'P 1'
_cell_length_a   5.52679416
_cell_length_b   5.86509330
_cell_length_c   7.72464168
_cell_angle_alpha   90.00000000
_cell_angle_beta   90.00000000
_cell_angle_gamma   90.01631624
_symmetry_Int_Tables_number   1
_chemical_formula_structural   LaNd3Mn4O12
_chemical_formula_sum   'La1 Nd3 Mn4 O12'
_cell_volume   250.39551191
_cell_formula_units_Z   1
loop_
 _symmetry_equiv_pos_site_id
 _symmetry_equiv_pos_as_xyz
  1  'x, y, z'
loop_
 _atom_site_type_symbol
 _atom_site_label
 _atom_site_symmetry_multiplicity
 _atom_site_fract_x
 _atom_site_fract_y
 _atom_site_fract_z
 _atom_site_occupancy
  La  La0  1  0.51215262  0.55874806  0.25000000  1
  Nd  Nd1  1  0.98527807  0.06563656  0.25000000  1
  Nd  Nd2  1  0.48440940  0.43249169  0.75000000  1
  Nd  Nd3  1  0.01463524  0.93490460  0.75000000  1
  Mn  Mn4  1  0.99930223  0.50051732  0.99863968  1
  Mn  Mn5  1  0.50060248  0.99903038  0.50062168  1
  Mn  Mn6  1  0.99930223  0.50051732  0.50136032  1
  Mn  Mn7  1  0.50060248  0.99903038  0.99937832  1
  O  O8  1  0.40411646  0.97820536  0.25000000  1
  O  O9  1  0.08815439  0.47438080  0.25000000  1
  O  O10  1  0.59659107  0.02570259  0.75000000  1
  O  O11  1  0.90207082  0.52789728  0.75000000  1
  O  O12  1  0.78664742  0.81391689  0.04697775  1
  O  O13  1  0.71849106  0.30860827  0.45461766  1
  O  O14  1  0.21816217  0.18994369  0.54907342  1
  O  O15  1  0.28309060  0.68899998  0.94998215  1
  O  O16  1  0.21816217  0.18994369  0.95092658  1
  O  O17  1  0.28309060  0.68899998  0.55001785  1
  O  O18  1  0.78664742  0.81391689  0.45302225  1
  O  O19  1  0.71849106  0.30860827  0.04538234  1
