# generated using pymatgen
data_LaPr3Al4O12
_symmetry_space_group_name_H-M   'P 1'
_cell_length_a   5.38142391
_cell_length_b   5.38142422
_cell_length_c   9.26793526
_cell_angle_alpha   106.87740943
_cell_angle_beta   90.00000000
_cell_angle_gamma   119.99999806
_symmetry_Int_Tables_number   1
_chemical_formula_structural   LaPr3Al4O12
_chemical_formula_sum   'La1 Pr3 Al4 O12'
_cell_volume   218.98806396
_cell_formula_units_Z   1
loop_
 _symmetry_equiv_pos_site_id
 _symmetry_equiv_pos_as_xyz
  1  'x, y, z'
loop_
 _atom_site_type_symbol
 _atom_site_label
 _atom_site_symmetry_multiplicity
 _atom_site_fract_x
 _atom_site_fract_y
 _atom_site_fract_z
 _atom_site_occupancy
  La  La0  1  0.87500000  0.75000000  0.62500000  1
  Pr  Pr1  1  0.12478154  0.24956309  0.37434463  1
  Pr  Pr2  1  0.62521846  0.25043691  0.87565537  1
  Pr  Pr3  1  0.37500000  0.75000000  0.12500000  1
  Al  Al4  1  0.25012043  0.50024086  0.75036128  1
  Al  Al5  1  0.74990356  0.49980711  0.24971067  1
  Al  Al6  1  0.00009644  0.00019289  0.00028933  1
  Al  Al7  1  0.49987957  0.99975914  0.49963872  1
  O  O8  1  0.08586082  0.25145727  0.87590624  1
  O  O9  1  0.58440354  0.24854273  0.37409376  1
  O  O10  1  0.16559646  0.79004543  0.87590624  1
  O  O11  1  0.66413918  0.78969021  0.37409376  1
  O  O12  1  0.62444897  0.71030979  0.87590624  1
  O  O13  1  0.12555103  0.70995457  0.37409376  1
  O  O14  1  0.33809568  0.21309568  0.62500000  1
  O  O15  1  0.83506483  0.21006483  0.12500000  1
  O  O16  1  0.87500000  0.28690432  0.62500000  1
  O  O17  1  0.37500000  0.28993517  0.12500000  1
  O  O18  1  0.41190432  0.75000000  0.62500000  1
  O  O19  1  0.91493517  0.75000000  0.12500000  1
