# generated using pymatgen
data_LiBi3(IO2)2
_symmetry_space_group_name_H-M   'P 1'
_cell_length_a   5.65370580
_cell_length_b   5.65091219
_cell_length_c   7.29663542
_cell_angle_alpha   90.00000000
_cell_angle_beta   67.20603026
_cell_angle_gamma   90.00000000
_symmetry_Int_Tables_number   1
_chemical_formula_structural   LiBi3(IO2)2
_chemical_formula_sum   'Li1 Bi3 I2 O4'
_cell_volume   214.91170936
_cell_formula_units_Z   1
loop_
 _symmetry_equiv_pos_site_id
 _symmetry_equiv_pos_as_xyz
  1  'x, y, z'
loop_
 _atom_site_type_symbol
 _atom_site_label
 _atom_site_symmetry_multiplicity
 _atom_site_fract_x
 _atom_site_fract_y
 _atom_site_fract_z
 _atom_site_occupancy
  Li  Li0  1  0.70350777  0.50000000  0.59298445  1
  Bi  Bi1  1  0.16228062  -0.00000000  0.67543876  1
  Bi  Bi2  1  0.82879622  0.00000000  0.34240757  1
  Bi  Bi3  1  0.33134341  0.50000000  0.33731318  1
  I  I4  1  0.98985323  0.50000000  0.02029354  1
  I  I5  1  0.49716031  0.00000000  0.00567937  1
  O  O6  1  0.49320924  0.24714690  0.50647078  1
  O  O7  1  0.00031998  0.75285310  0.50647078  1
  O  O8  1  0.00031998  0.24714690  0.50647078  1
  O  O9  1  0.49320924  0.75285310  0.50647078  1
