# generated using pymatgen
data_La(CeB8)3
_symmetry_space_group_name_H-M   'P 1'
_cell_length_a   4.13015571
_cell_length_b   5.83705336
_cell_length_c   11.68182249
_cell_angle_alpha   90.00000000
_cell_angle_beta   90.00000000
_cell_angle_gamma   90.00000000
_symmetry_Int_Tables_number   1
_chemical_formula_structural   La(CeB8)3
_chemical_formula_sum   'La1 Ce3 B24'
_cell_volume   281.62466691
_cell_formula_units_Z   1
loop_
 _symmetry_equiv_pos_site_id
 _symmetry_equiv_pos_as_xyz
  1  'x, y, z'
loop_
 _atom_site_type_symbol
 _atom_site_label
 _atom_site_symmetry_multiplicity
 _atom_site_fract_x
 _atom_site_fract_y
 _atom_site_fract_z
 _atom_site_occupancy
  La  La0  1  0.00000000  0.00000000  0.00000000  1
  Ce  Ce1  1  0.00000000  0.50000000  0.25084030  1
  Ce  Ce2  1  -0.00000000  0.00000000  0.50000000  1
  Ce  Ce3  1  -0.00000000  0.50000000  0.74915970  1
  B  B4  1  0.19865657  0.50000000  0.50000000  1
  B  B5  1  0.19882206  -0.00000000  0.74976463  1
  B  B6  1  0.19918446  0.50000000  0.00000000  1
  B  B7  1  0.19882206  0.00000000  0.25023537  1
  B  B8  1  0.50000000  0.65065841  0.57539354  1
  B  B9  1  0.50000000  0.15108320  0.82482694  1
  B  B10  1  0.50000000  0.64982121  0.07556790  1
  B  B11  1  0.50000000  0.15082855  0.32530351  1
  B  B12  1  0.50000000  0.34934159  0.57539354  1
  B  B13  1  0.50000000  0.84891680  0.82482694  1
  B  B14  1  0.50000000  0.35017879  0.07556790  1
  B  B15  1  0.50000000  0.84917145  0.32530351  1
  B  B16  1  0.50000000  0.34934159  0.42460646  1
  B  B17  1  0.50000000  0.84917145  0.67469649  1
  B  B18  1  0.50000000  0.35017879  0.92443210  1
  B  B19  1  0.50000000  0.84891680  0.17517306  1
  B  B20  1  0.50000000  0.65065841  0.42460646  1
  B  B21  1  0.50000000  0.15082855  0.67469649  1
  B  B22  1  0.50000000  0.64982121  0.92443210  1
  B  B23  1  0.50000000  0.15108320  0.17517306  1
  B  B24  1  0.80134343  0.50000000  0.50000000  1
  B  B25  1  0.80117794  -0.00000000  0.74976463  1
  B  B26  1  0.80081554  0.50000000  0.00000000  1
  B  B27  1  0.80117794  0.00000000  0.25023537  1
