# generated using pymatgen
data_La2NiPt
_symmetry_space_group_name_H-M   'P 1'
_cell_length_a   3.97067730
_cell_length_b   4.45972865
_cell_length_c   5.87764727
_cell_angle_alpha   90.00000000
_cell_angle_beta   70.25846291
_cell_angle_gamma   90.00000000
_symmetry_Int_Tables_number   1
_chemical_formula_structural   La2NiPt
_chemical_formula_sum   'La2 Ni1 Pt1'
_cell_volume   97.96488313
_cell_formula_units_Z   1
loop_
 _symmetry_equiv_pos_site_id
 _symmetry_equiv_pos_as_xyz
  1  'x, y, z'
loop_
 _atom_site_type_symbol
 _atom_site_label
 _atom_site_symmetry_multiplicity
 _atom_site_fract_x
 _atom_site_fract_y
 _atom_site_fract_z
 _atom_site_occupancy
  La  La0  1  0.13709048  0.75000000  0.72581903  1
  La  La1  1  0.86599397  0.25000000  0.26801207  1
  Ni  Ni2  1  0.41436619  0.75000000  0.17126762  1
  Pt  Pt3  1  0.58254936  0.25000000  0.83490128  1
