# generated using pymatgen
data_La6TaGa11O28
_symmetry_space_group_name_H-M   'P 1'
_cell_length_a   8.32151655
_cell_length_b   9.80066342
_cell_length_c   9.79919487
_cell_angle_alpha   63.78369418
_cell_angle_beta   64.87452054
_cell_angle_gamma   64.87854679
_symmetry_Int_Tables_number   1
_chemical_formula_structural   La6TaGa11O28
_chemical_formula_sum   'La6 Ta1 Ga11 O28'
_cell_volume   620.89717946
_cell_formula_units_Z   1
loop_
 _symmetry_equiv_pos_site_id
 _symmetry_equiv_pos_as_xyz
  1  'x, y, z'
loop_
 _atom_site_type_symbol
 _atom_site_label
 _atom_site_symmetry_multiplicity
 _atom_site_fract_x
 _atom_site_fract_y
 _atom_site_fract_z
 _atom_site_occupancy
  La  La0  1  0.99857331  0.79037029  0.79076287  1
  La  La1  1  0.00131159  0.28514628  0.28472886  1
  La  La2  1  0.41932129  1.00000000  1.00000000  1
  La  La3  1  0.42971837  0.50000000  0.50000000  1
  La  La4  1  0.57970647  0.20962971  0.20923713  1
  La  La5  1  0.57118673  0.71485372  0.71527114  1
  Ta  Ta6  1  -0.00001902  0.50000000  0.50000000  1
  Ga  Ga7  1  0.00050544  0.87479087  0.36548371  1
  Ga  Ga8  1  0.99949611  0.36588761  0.87518584  1
  Ga  Ga9  1  0.76006708  0.24371746  0.75472964  1
  Ga  Ga10  1  0.75851418  0.75628254  0.24527036  1
  Ga  Ga11  1  0.24078002  0.12520913  0.63451629  1
  Ga  Ga12  1  0.24056956  0.63411239  0.12481416  1
  Ga  Ga13  1  0.66907131  0.06709754  0.59703672  1
  Ga  Ga14  1  0.66424046  0.56906303  0.10011707  1
  Ga  Ga15  1  0.33320557  0.93290146  0.40296328  1
  Ga  Ga16  1  0.33342056  0.43093597  0.89988293  1
  Ga  Ga17  1  0.00013034  0.00000000  0.00000000  1
  O  O18  1  0.30876082  0.12171473  0.42443117  1
  O  O19  1  0.31199575  0.61928006  0.92097289  1
  O  O20  1  0.14701535  0.00513613  0.30696015  1
  O  O21  1  0.14591128  0.50300963  0.80550445  1
  O  O22  1  0.54057460  0.92342218  0.22492539  1
  O  O23  1  0.54573582  0.42090457  0.72359825  1
  O  O24  1  0.45911163  0.99486387  0.69303985  1
  O  O25  1  0.45442536  0.49699037  0.19449555  1
  O  O26  1  0.85490672  0.87828527  0.57556883  1
  O  O27  1  0.85224871  0.38071994  0.07902711  1
  O  O28  1  0.68892216  0.07657782  0.77507461  1
  O  O29  1  0.69023863  0.57909543  0.27640175  1
  O  O30  1  0.66732857  0.24511200  0.42330658  1
  O  O31  1  0.66596870  0.74296166  0.92195277  1
  O  O32  1  0.33574615  0.75488700  0.57669342  1
  O  O33  1  0.33088213  0.25703834  0.07804723  1
  O  O34  1  0.07499270  0.00994436  0.76995490  1
  O  O35  1  0.08020577  0.50618856  0.27344945  1
  O  O36  1  0.14016097  0.65651215  0.42369327  1
  O  O37  1  0.14520357  0.15750380  0.91747817  1
  O  O38  1  0.77939397  0.68626444  0.45380432  1
  O  O39  1  0.78016527  0.19299207  0.95239824  1
  O  O40  1  0.22036639  0.34348785  0.57630673  1
  O  O41  1  0.22018554  0.84249620  0.08252183  1
  O  O42  1  0.85489196  0.99005564  0.23004510  1
  O  O43  1  0.85984378  0.49381144  0.72655055  1
  O  O44  1  0.91946273  0.31373556  0.54619568  1
  O  O45  1  0.92555558  0.80700793  0.04760176  1
