# generated using pymatgen
data_La2MgNi9
_symmetry_space_group_name_H-M   'P 1'
_cell_length_a   4.99298980
_cell_length_b   4.99298980
_cell_length_c   8.51645124
_cell_angle_alpha   89.99999938
_cell_angle_beta   107.04591345
_cell_angle_gamma   60.00000182
_symmetry_Int_Tables_number   1
_chemical_formula_structural   La2MgNi9
_chemical_formula_sum   'La2 Mg1 Ni9'
_cell_volume   173.01629591
_cell_formula_units_Z   1
loop_
 _symmetry_equiv_pos_site_id
 _symmetry_equiv_pos_as_xyz
  1  'x, y, z'
loop_
 _atom_site_type_symbol
 _atom_site_label
 _atom_site_symmetry_multiplicity
 _atom_site_fract_x
 _atom_site_fract_y
 _atom_site_fract_z
 _atom_site_occupancy
  La  La0  1  0.00828357  0.99585822  0.01242535  1
  La  La1  1  0.71410797  0.14294602  0.57116195  1
  Mg  Mg2  1  0.28192201  0.85903900  0.42288301  1
  Ni  Ni3  1  0.33242351  0.33378825  0.99863526  1
  Ni  Ni4  1  0.66540424  0.66729788  0.99810636  1
  Ni  Ni5  1  0.83062447  0.58468776  0.74962874  1
  Ni  Ni6  1  0.33431650  0.58468776  0.74962874  1
  Ni  Ni7  1  0.33431650  0.08099574  0.74962874  1
  Ni  Ni8  1  0.16520467  0.41739766  0.25065303  1
  Ni  Ni9  1  0.66805070  0.41739766  0.25065303  1
  Ni  Ni10  1  0.66805070  0.91455164  0.25065303  1
  Ni  Ni11  1  0.99729516  0.50135242  0.49594274  1
