# generated using pymatgen
data_KMn8O16
_symmetry_space_group_name_H-M   'P 1'
_cell_length_a   5.90183398
_cell_length_b   7.20202260
_cell_length_c   7.21268600
_cell_angle_alpha   92.32412588
_cell_angle_beta   101.71925169
_cell_angle_gamma   78.15234216
_symmetry_Int_Tables_number   1
_chemical_formula_structural   KMn8O16
_chemical_formula_sum   'K1 Mn8 O16'
_cell_volume   293.79046361
_cell_formula_units_Z   1
loop_
 _symmetry_equiv_pos_site_id
 _symmetry_equiv_pos_as_xyz
  1  'x, y, z'
loop_
 _atom_site_type_symbol
 _atom_site_label
 _atom_site_symmetry_multiplicity
 _atom_site_fract_x
 _atom_site_fract_y
 _atom_site_fract_z
 _atom_site_occupancy
  K  K0  1  0.75000000  -0.00000000  -0.00000000  1
  Mn  Mn1  1  0.17425327  0.81688383  0.51747331  1
  Mn  Mn2  1  0.67333095  0.81711351  0.51330151  1
  Mn  Mn3  1  0.82666905  0.18288649  0.48669849  1
  Mn  Mn4  1  0.32574673  0.18311617  0.48252669  1
  Mn  Mn5  1  0.58322462  0.48630497  0.81716801  1
  Mn  Mn6  1  0.08396250  0.48268024  0.81765286  1
  Mn  Mn7  1  0.41603750  0.51731976  0.18234714  1
  Mn  Mn8  1  0.91677538  0.51369503  0.18283199  1
  O  O9  1  0.07634029  0.04725955  0.35982604  1
  O  O10  1  0.58089050  0.04869463  0.35791883  1
  O  O11  1  0.91910950  0.95130537  0.64208117  1
  O  O12  1  0.42365971  0.95274045  0.64017396  1
  O  O13  1  0.09896013  0.64084495  0.04726927  1
  O  O14  1  0.60308357  0.64215190  0.04860027  1
  O  O15  1  0.89691643  0.35784810  0.95139973  1
  O  O16  1  0.40103987  0.35915505  0.95273073  1
  O  O17  1  0.77206680  0.62480584  0.70996158  1
  O  O18  1  0.27116680  0.62090235  0.70737785  1
  O  O19  1  0.22883320  0.37909765  0.29262215  1
  O  O20  1  0.72793320  0.37519416  0.29003842  1
  O  O21  1  0.08304756  0.29320718  0.62085206  1
  O  O22  1  0.58326831  0.29120582  0.62365951  1
  O  O23  1  0.91673169  0.70879418  0.37634049  1
  O  O24  1  0.41695244  0.70679282  0.37914794  1
