# generated using pymatgen
data_La3Mn8BiO20
_symmetry_space_group_name_H-M   'P 1'
_cell_length_a   5.83022137
_cell_length_b   7.74606124
_cell_length_c   8.79087609
_cell_angle_alpha   90.08441845
_cell_angle_beta   90.00000000
_cell_angle_gamma   90.00000000
_symmetry_Int_Tables_number   1
_chemical_formula_structural   La3Mn8BiO20
_chemical_formula_sum   'La3 Mn8 Bi1 O20'
_cell_volume   397.00653740
_cell_formula_units_Z   1
loop_
 _symmetry_equiv_pos_site_id
 _symmetry_equiv_pos_as_xyz
  1  'x, y, z'
loop_
 _atom_site_type_symbol
 _atom_site_label
 _atom_site_symmetry_multiplicity
 _atom_site_fract_x
 _atom_site_fract_y
 _atom_site_fract_z
 _atom_site_occupancy
  La  La0  1  -0.00000000  0.35695474  0.67070635  1
  La  La1  1  -0.00000000  0.14773301  0.17342715  1
  La  La2  1  -0.00000000  0.85376960  0.82747886  1
  Mn  Mn3  1  0.50000000  0.90584586  0.14866078  1
  Mn  Mn4  1  0.50000000  0.09180999  0.85118130  1
  Mn  Mn5  1  0.50000000  0.41344979  0.34900420  1
  Mn  Mn6  1  0.50000000  0.59239162  0.64928143  1
  Mn  Mn7  1  0.25743071  0.50007874  0.00080254  1
  Mn  Mn8  1  0.74182176  0.99893734  0.50016892  1
  Mn  Mn9  1  0.74256929  0.50007874  0.00080254  1
  Mn  Mn10  1  0.25817824  0.99893734  0.50016892  1
  Bi  Bi11  1  -0.00000000  0.65260514  0.32837352  1
  O  O12  1  0.50000000  0.65053154  0.06296788  1
  O  O13  1  0.50000000  0.34883635  0.93669705  1
  O  O14  1  0.50000000  0.14944279  0.43324443  1
  O  O15  1  0.50000000  0.84884493  0.56557717  1
  O  O16  1  -0.00000000  0.65532610  0.05452592  1
  O  O17  1  -0.00000000  0.34613881  0.94862021  1
  O  O18  1  -0.00000000  0.15258116  0.44864600  1
  O  O19  1  -0.00000000  0.84360127  0.55009385  1
  O  O20  1  0.24857657  0.89756392  0.29555920  1
  O  O21  1  0.24978018  0.09661768  0.70466937  1
  O  O22  1  0.74942690  0.40367786  0.20430747  1
  O  O23  1  0.75045922  0.59644083  0.79536233  1
  O  O24  1  0.75021982  0.09661768  0.70466937  1
  O  O25  1  0.75142343  0.89756392  0.29555920  1
  O  O26  1  0.24954078  0.59644083  0.79536233  1
  O  O27  1  0.25057310  0.40367786  0.20430747  1
  O  O28  1  0.27841614  0.50178581  0.49915131  1
  O  O29  1  0.72164941  -0.00003353  0.00073580  1
  O  O30  1  0.72158386  0.50178581  0.49915131  1
  O  O31  1  0.27835059  -0.00003353  0.00073580  1
