# generated using pymatgen
data_KMg2AlFeSi3(HO6)2
_symmetry_space_group_name_H-M   'P 1'
_cell_length_a   5.38302314
_cell_length_b   5.39647830
_cell_length_c   10.59231330
_cell_angle_alpha   95.40183104
_cell_angle_beta   79.86791010
_cell_angle_gamma   119.90538602
_symmetry_Int_Tables_number   1
_chemical_formula_structural   KMg2AlFeSi3(HO6)2
_chemical_formula_sum   'K1 Mg2 Al1 Fe1 Si3 H2 O12'
_cell_volume   262.56254986
_cell_formula_units_Z   1
loop_
 _symmetry_equiv_pos_site_id
 _symmetry_equiv_pos_as_xyz
  1  'x, y, z'
loop_
 _atom_site_type_symbol
 _atom_site_label
 _atom_site_symmetry_multiplicity
 _atom_site_fract_x
 _atom_site_fract_y
 _atom_site_fract_z
 _atom_site_occupancy
  K  K0  1  0.48943757  0.99924775  0.03219366  1
  Mg  Mg1  1  0.67069911  0.33513223  0.49544323  1
  Mg  Mg2  1  0.33701527  0.66701804  0.49580900  1
  Al  Al3  1  0.75806722  0.66600572  0.23165243  1
  Fe  Fe4  1  0.99354673  0.99696012  0.49426043  1
  Si  Si5  1  0.09438116  0.33558950  0.22706359  1
  Si  Si6  1  0.24304076  0.33262118  0.76425321  1
  Si  Si7  1  0.91163942  0.66398468  0.76433448  1
  H  H8  1  0.39798161  0.00258789  0.30710085  1
  H  H9  1  0.60356999  0.00598938  0.69740384  1
  O  O10  1  0.37563398  0.99936799  0.39976180  1
  O  O11  1  0.61755919  0.00438273  0.60512322  1
  O  O12  1  0.69571644  0.65907843  0.40001359  1
  O  O13  1  0.04087102  0.34381130  0.38645400  1
  O  O14  1  0.29375146  0.33597050  0.60969014  1
  O  O15  1  0.96445494  0.65380044  0.61015941  1
  O  O16  1  0.00880588  0.01215293  0.17382065  1
  O  O17  1  0.04748723  0.99930942  0.82038082  1
  O  O18  1  0.43426574  0.54892988  0.16921262  1
  O  O19  1  0.89765040  0.43825011  0.16902113  1
  O  O20  1  0.55781068  0.49058525  0.82152722  1
  O  O21  1  0.06661422  0.50922454  0.82532068  1
