# generated using pymatgen
data_La2Mn(SeO)2
_symmetry_space_group_name_H-M   'P 1'
_cell_length_a   4.03739381
_cell_length_b   8.57063974
_cell_length_c   17.75060326
_cell_angle_alpha   89.99447067
_cell_angle_beta   89.97652450
_cell_angle_gamma   76.37676456
_symmetry_Int_Tables_number   1
_chemical_formula_structural   La2Mn(SeO)2
_chemical_formula_sum   'La8 Mn4 Se8 O8'
_cell_volume   596.94405010
_cell_formula_units_Z   4
loop_
 _symmetry_equiv_pos_site_id
 _symmetry_equiv_pos_as_xyz
  1  'x, y, z'
loop_
 _atom_site_type_symbol
 _atom_site_label
 _atom_site_symmetry_multiplicity
 _atom_site_fract_x
 _atom_site_fract_y
 _atom_site_fract_z
 _atom_site_occupancy
  La  La0  1  0.57564454  0.84834177  0.08595958  1
  La  La1  1  0.42273414  0.15401036  0.91620834  1
  La  La2  1  0.57674450  0.84598964  0.41620834  1
  La  La3  1  0.42398631  0.15165823  0.58595958  1
  La  La4  1  0.26948099  0.45863870  0.08964859  1
  La  La5  1  0.73117537  0.53581939  0.91168939  1
  La  La6  1  0.26699476  0.46418061  0.41168939  1
  La  La7  1  0.72811968  0.54136130  0.58964859  1
  Mn  Mn8  1  0.91813298  0.16872176  0.27517397  1
  Mn  Mn9  1  0.08685474  0.83127824  0.77517397  1
  Mn  Mn10  1  0.11393078  0.72198991  0.25041245  1
  Mn  Mn11  1  0.83592069  0.27801009  0.75041245  1
  Se  Se12  1  0.51156041  0.98059038  0.24975541  1
  Se  Se13  1  0.49215079  0.01940962  0.74975541  1
  Se  Se14  1  0.92050777  0.15624663  0.06694652  1
  Se  Se15  1  0.07915165  0.84076696  0.92669957  1
  Se  Se16  1  0.91991861  0.15923304  0.42669957  1
  Se  Se17  1  0.07675440  0.84375337  0.56694652  1
  Se  Se18  1  0.75452311  0.47553517  0.24991247  1
  Se  Se19  1  0.23005828  0.52446483  0.74991247  1
  O  O20  1  0.70945499  0.57868994  0.45587400  1
  O  O21  1  0.28911816  0.41929884  0.54469878  1
  O  O22  1  0.70841701  0.58070116  0.04469878  1
  O  O23  1  0.28814492  0.42131006  0.95587400  1
  O  O24  1  0.12912016  0.73846238  0.13534201  1
  O  O25  1  0.86747454  0.26206866  0.86525892  1
  O  O26  1  0.12954319  0.73793134  0.36525892  1
  O  O27  1  0.86758254  0.26153762  0.63534201  1
