# generated using pymatgen
data_KLiZnP2O7
_symmetry_space_group_name_H-M   'P 1'
_cell_length_a   5.14956017
_cell_length_b   10.40511786
_cell_length_c   12.51681297
_cell_angle_alpha   90.90201780
_cell_angle_beta   90.00000000
_cell_angle_gamma   90.00000000
_symmetry_Int_Tables_number   1
_chemical_formula_structural   KLiZnP2O7
_chemical_formula_sum   'K4 Li4 Zn4 P8 O28'
_cell_volume   670.59001444
_cell_formula_units_Z   4
loop_
 _symmetry_equiv_pos_site_id
 _symmetry_equiv_pos_as_xyz
  1  'x, y, z'
loop_
 _atom_site_type_symbol
 _atom_site_label
 _atom_site_symmetry_multiplicity
 _atom_site_fract_x
 _atom_site_fract_y
 _atom_site_fract_z
 _atom_site_occupancy
  K  K0  1  0.99706794  0.75664638  0.00549528  1
  K  K1  1  0.00293206  0.25664638  0.00549528  1
  K  K2  1  0.50157184  0.97654643  0.50598601  1
  K  K3  1  0.49842816  0.47654643  0.50598601  1
  Li  Li4  1  0.97433363  0.96883805  0.24934346  1
  Li  Li5  1  0.02566637  0.46883805  0.24934346  1
  Li  Li6  1  0.95038723  0.96316074  0.74978331  1
  Li  Li7  1  0.04961277  0.46316074  0.74978331  1
  Zn  Zn8  1  0.45680878  0.76871951  0.74979254  1
  Zn  Zn9  1  0.54319122  0.26871951  0.74979254  1
  Zn  Zn10  1  0.47124283  0.76107711  0.24911881  1
  Zn  Zn11  1  0.52875717  0.26107711  0.24911881  1
  P  P12  1  0.50642711  0.51045739  0.11481217  1
  P  P13  1  0.49357289  0.01045739  0.11481217  1
  P  P14  1  0.98885470  0.71627870  0.38413156  1
  P  P15  1  0.01114530  0.21627870  0.38413156  1
  P  P16  1  0.56147120  0.52424702  0.87957062  1
  P  P17  1  0.43852880  0.02424702  0.87957062  1
  P  P18  1  0.95545071  0.70673417  0.61861892  1
  P  P19  1  0.04454929  0.20673417  0.61861892  1
  O  O20  1  0.05693115  0.76666818  0.50602888  1
  O  O21  1  0.94306885  0.26666818  0.50602888  1
  O  O22  1  0.13452824  0.81415110  0.31393735  1
  O  O23  1  0.86547176  0.31415110  0.31393735  1
  O  O24  1  0.41848404  0.44371218  0.79259627  1
  O  O25  1  0.58151596  0.94371218  0.79259627  1
  O  O26  1  0.35340747  0.40758214  0.17761685  1
  O  O27  1  0.64659253  0.90758214  0.17761685  1
  O  O28  1  0.02524928  0.56591731  0.62216549  1
  O  O29  1  0.97475072  0.06591731  0.62216549  1
  O  O30  1  0.66053468  0.73375264  0.62073942  1
  O  O31  1  0.33946532  0.23375264  0.62073942  1
  O  O32  1  0.08687460  0.58026711  0.37084129  1
  O  O33  1  0.91312540  0.08026711  0.37084129  1
  O  O34  1  0.09256915  0.79112153  0.70460502  1
  O  O35  1  0.90743085  0.29112153  0.70460502  1
  O  O36  1  0.44685339  0.46691445  0.99101815  1
  O  O37  1  0.55314661  0.96691445  0.99101815  1
  O  O38  1  0.47016900  0.66567886  0.87849724  1
  O  O39  1  0.52983100  0.16567886  0.87849724  1
  O  O40  1  0.37873493  0.64352128  0.13070260  1
  O  O41  1  0.62126507  0.14352128  0.13070260  1
  O  O42  1  0.69238899  0.73242169  0.37377062  1
  O  O43  1  0.30761101  0.23242169  0.37377062  1
  O  O44  1  0.79528383  0.50941793  0.13342690  1
  O  O45  1  0.20471617  0.00941793  0.13342690  1
  O  O46  1  0.85243172  0.50716809  0.87740125  1
  O  O47  1  0.14756828  0.00716809  0.87740125  1
