# generated using pymatgen
data_K7Na17(ZnSn2)4
_symmetry_space_group_name_H-M   'P 1'
_cell_length_a   9.99014875
_cell_length_b   11.40785210
_cell_length_c   11.61099967
_cell_angle_alpha   119.35592997
_cell_angle_beta   89.89258811
_cell_angle_gamma   90.25607554
_symmetry_Int_Tables_number   1
_chemical_formula_structural   K7Na17(ZnSn2)4
_chemical_formula_sum   'K7 Na17 Zn4 Sn8'
_cell_volume   1153.33080069
_cell_formula_units_Z   1
loop_
 _symmetry_equiv_pos_site_id
 _symmetry_equiv_pos_as_xyz
  1  'x, y, z'
loop_
 _atom_site_type_symbol
 _atom_site_label
 _atom_site_symmetry_multiplicity
 _atom_site_fract_x
 _atom_site_fract_y
 _atom_site_fract_z
 _atom_site_occupancy
  K  K0  1  0.96822763  0.68370073  0.64346780  1
  K  K1  1  0.46460258  0.81559496  0.35443139  1
  K  K2  1  0.03268311  0.31732213  0.35497752  1
  K  K3  1  0.53284580  0.18360394  0.64499660  1
  K  K4  1  0.60772762  0.79665996  0.67694284  1
  K  K5  1  0.89243728  0.29677435  0.67681241  1
  K  K6  1  0.39250973  0.20327922  0.32337746  1
  Na  Na7  1  0.15892225  0.07592370  0.00980411  1
  Na  Na8  1  0.65957912  0.42420511  0.99025737  1
  Na  Na9  1  0.84023356  0.92390183  0.99033454  1
  Na  Na10  1  0.33929557  0.57647650  0.01104707  1
  Na  Na11  1  0.67736063  0.42723658  0.50724262  1
  Na  Na12  1  0.17635184  0.06984801  0.49145893  1
  Na  Na13  1  0.32047225  0.57381788  0.49117605  1
  Na  Na14  1  0.82553785  0.92541106  0.50547226  1
  Na  Na15  1  0.78013020  0.73825080  0.16864416  1
  Na  Na16  1  0.27801686  0.76115771  0.83220014  1
  Na  Na17  1  0.22191801  0.26167831  0.83188828  1
  Na  Na18  1  0.72242889  0.23828829  0.16792330  1
  Na  Na19  1  0.97638298  0.38110560  0.07753509  1
  Na  Na20  1  0.47571676  0.12215435  0.92457789  1
  Na  Na21  1  0.02452734  0.62219012  0.92544889  1
  Na  Na22  1  0.52498593  0.87775518  0.07544494  1
  Na  Na23  1  0.10858111  0.70268541  0.32014911  1
  Zn  Zn24  1  0.53626991  0.48784973  0.25631838  1
  Zn  Zn25  1  0.03458627  0.01285792  0.74366260  1
  Zn  Zn26  1  0.46504414  0.51249912  0.74330938  1
  Zn  Zn27  1  0.96462063  0.98773406  0.25735269  1
  Sn  Sn28  1  0.30494327  0.38799366  0.14919278  1
  Sn  Sn29  1  0.80695484  0.11489381  0.85297882  1
  Sn  Sn30  1  0.69325158  0.61466207  0.85275542  1
  Sn  Sn31  1  0.19231862  0.88305218  0.15020384  1
  Sn  Sn32  1  0.77939468  0.57763658  0.33914719  1
  Sn  Sn33  1  0.27518508  0.92158298  0.65939022  1
  Sn  Sn34  1  0.22316124  0.42300144  0.66136148  1
  Sn  Sn35  1  0.72279486  0.07721469  0.33871644  1
