# generated using pymatgen
data_HoCdIn
_symmetry_space_group_name_H-M   'P 1'
_cell_length_a   4.87667633
_cell_length_b   4.87667633
_cell_length_c   7.38368696
_cell_angle_alpha   90.00852185
_cell_angle_beta   89.99147815
_cell_angle_gamma   119.94743352
_symmetry_Int_Tables_number   1
_chemical_formula_structural   HoCdIn
_chemical_formula_sum   'Ho2 Cd2 In2'
_cell_volume   152.15336609
_cell_formula_units_Z   2
loop_
 _symmetry_equiv_pos_site_id
 _symmetry_equiv_pos_as_xyz
  1  'x, y, z'
loop_
 _atom_site_type_symbol
 _atom_site_label
 _atom_site_symmetry_multiplicity
 _atom_site_fract_x
 _atom_site_fract_y
 _atom_site_fract_z
 _atom_site_occupancy
  Ho  Ho0  1  0.00001391  0.99998609  0.73698316  1
  Ho  Ho1  1  0.99998609  0.00001391  0.26301684  1
  Cd  Cd2  1  0.66674489  0.33325511  0.52684368  1
  Cd  Cd3  1  0.33325511  0.66674489  0.47315632  1
  In  In4  1  0.33329715  0.66670285  0.04964179  1
  In  In5  1  0.66670285  0.33329715  0.95035821  1
