# generated using pymatgen
data_InGa(AgS2)2
_symmetry_space_group_name_H-M   'P 1'
_cell_length_a   5.85166430
_cell_length_b   5.85166430
_cell_length_c   6.89543098
_cell_angle_alpha   64.89271576
_cell_angle_beta   64.89271576
_cell_angle_gamma   90.00000000
_symmetry_Int_Tables_number   1
_chemical_formula_structural   InGa(AgS2)2
_chemical_formula_sum   'In1 Ga1 Ag2 S4'
_cell_volume   188.87789767
_cell_formula_units_Z   1
loop_
 _symmetry_equiv_pos_site_id
 _symmetry_equiv_pos_as_xyz
  1  'x, y, z'
loop_
 _atom_site_type_symbol
 _atom_site_label
 _atom_site_symmetry_multiplicity
 _atom_site_fract_x
 _atom_site_fract_y
 _atom_site_fract_z
 _atom_site_occupancy
  In  In0  1  0.50000000  0.50000000  -0.00000000  1
  Ga  Ga1  1  0.25000000  0.75000000  0.50000000  1
  Ag  Ag2  1  0.75000000  0.25000000  0.50000000  1
  Ag  Ag3  1  0.00000000  -0.00000000  -0.00000000  1
  S  S4  1  0.36691031  0.85895916  0.73660322  1
  S  S5  1  0.89648647  0.40443763  0.73660322  1
  S  S6  1  0.14104084  0.10351353  0.26339678  1
  S  S7  1  0.59556237  0.63308969  0.26339678  1
