# generated using pymatgen
data_K2CoH4(I2O7)2
_symmetry_space_group_name_H-M   'P 1'
_cell_length_a   8.15974736
_cell_length_b   8.00672937
_cell_length_c   8.06725456
_cell_angle_alpha   92.70957552
_cell_angle_beta   59.62000347
_cell_angle_gamma   120.63423212
_symmetry_Int_Tables_number   1
_chemical_formula_structural   K2CoH4(I2O7)2
_chemical_formula_sum   'K2 Co1 H4 I4 O14'
_cell_volume   375.18075878
_cell_formula_units_Z   1
loop_
 _symmetry_equiv_pos_site_id
 _symmetry_equiv_pos_as_xyz
  1  'x, y, z'
loop_
 _atom_site_type_symbol
 _atom_site_label
 _atom_site_symmetry_multiplicity
 _atom_site_fract_x
 _atom_site_fract_y
 _atom_site_fract_z
 _atom_site_occupancy
  K  K0  1  0.34582406  0.00000000  0.00000000  1
  K  K1  1  0.86925460  0.00000000  0.00000000  1
  Co  Co2  1  0.92292966  0.50000000  0.50000000  1
  H  H3  1  0.67587196  0.62515254  0.46917912  1
  H  H4  1  0.51989854  0.37484746  0.53082088  1
  H  H5  1  0.16678731  0.46631289  0.62684136  1
  H  H6  1  0.32731578  0.53368711  0.37315864  1
  I  I7  1  0.34470516  0.51160834  0.01685349  1
  I  I8  1  0.84995031  0.48839166  0.98314651  1
  I  I9  1  0.32932482  0.95983586  0.48317187  1
  I  I10  1  0.85266083  0.04016414  0.51682813  1
  O  O11  1  0.54199730  0.09350611  0.21549641  1
  O  O12  1  0.66398759  0.90649389  0.78450359  1
  O  O13  1  0.18232464  0.50000000  0.50000000  1
  O  O14  1  0.66645332  0.50000000  0.50000000  1
  O  O15  1  0.16643230  0.23468117  0.12294168  1
  O  O16  1  0.05469280  0.76531883  0.87705832  1
  O  O17  1  0.50990496  0.58929531  0.13047131  1
  O  O18  1  0.05108097  0.41070469  0.86952869  1
  O  O19  1  0.14030224  0.57881504  0.17552721  1
  O  O20  1  0.73701440  0.42118496  0.82447279  1
  O  O21  1  0.27957359  0.14972134  0.58585811  1
  O  O22  1  0.71571036  0.85027866  0.41414189  1
  O  O23  1  0.07172429  0.80892500  0.47329890  1
  O  O24  1  0.73609819  0.19107500  0.52670110  1
