# generated using pymatgen
data_H3Pd4
_symmetry_space_group_name_H-M   'P 1'
_cell_length_a   2.90663210
_cell_length_b   2.90663210
_cell_length_c   9.59942847
_cell_angle_alpha   81.29215268
_cell_angle_beta   98.70784732
_cell_angle_gamma   120.00000016
_symmetry_Int_Tables_number   1
_chemical_formula_structural   H3Pd4
_chemical_formula_sum   'H3 Pd4'
_cell_volume   69.15384990
_cell_formula_units_Z   1
loop_
 _symmetry_equiv_pos_site_id
 _symmetry_equiv_pos_as_xyz
  1  'x, y, z'
loop_
 _atom_site_type_symbol
 _atom_site_label
 _atom_site_symmetry_multiplicity
 _atom_site_fract_x
 _atom_site_fract_y
 _atom_site_fract_z
 _atom_site_occupancy
  H  H0  1  0.11534912  0.88465088  0.34604737  1
  H  H1  1  0.87500000  0.12500000  0.62500000  1
  H  H2  1  0.63465088  0.36534912  0.90395263  1
  Pd  Pd3  1  0.25019479  0.74980521  0.75058438  1
  Pd  Pd4  1  0.49980521  0.50019479  0.49941562  1
  Pd  Pd5  1  0.00080954  0.99919046  0.00242863  1
  Pd  Pd6  1  0.74919046  0.25080954  0.24757137  1
