# generated using pymatgen
data_La2InCuS5
_symmetry_space_group_name_H-M   'P 1'
_cell_length_a   3.97964602
_cell_length_b   11.60537217
_cell_length_c   16.91957017
_cell_angle_alpha   90.00000000
_cell_angle_beta   90.00000000
_cell_angle_gamma   90.00000000
_symmetry_Int_Tables_number   1
_chemical_formula_structural   La2InCuS5
_chemical_formula_sum   'La8 In4 Cu4 S20'
_cell_volume   781.43497017
_cell_formula_units_Z   4
loop_
 _symmetry_equiv_pos_site_id
 _symmetry_equiv_pos_as_xyz
  1  'x, y, z'
loop_
 _atom_site_type_symbol
 _atom_site_label
 _atom_site_symmetry_multiplicity
 _atom_site_fract_x
 _atom_site_fract_y
 _atom_site_fract_z
 _atom_site_occupancy
  La  La0  1  0.75000000  0.36456014  0.09189438  1
  La  La1  1  0.75000000  0.86456014  0.40810562  1
  La  La2  1  0.25000000  0.63543986  0.90810562  1
  La  La3  1  0.25000000  0.13543986  0.59189438  1
  La  La4  1  0.75000000  0.01961164  0.17853637  1
  La  La5  1  0.75000000  0.51961164  0.32146363  1
  La  La6  1  0.25000000  0.98038836  0.82146363  1
  La  La7  1  0.25000000  0.48038836  0.67853637  1
  In  In8  1  0.75000000  0.30455225  0.85883285  1
  In  In9  1  0.75000000  0.80455225  0.64116715  1
  In  In10  1  0.25000000  0.69544775  0.14116715  1
  In  In11  1  0.25000000  0.19544775  0.35883285  1
  Cu  Cu12  1  0.75000000  0.90498640  0.00310497  1
  Cu  Cu13  1  0.75000000  0.40498640  0.49689503  1
  Cu  Cu14  1  0.25000000  0.09501360  0.99689503  1
  Cu  Cu15  1  0.25000000  0.59501360  0.50310497  1
  S  S16  1  0.75000000  0.81764130  0.88318721  1
  S  S17  1  0.75000000  0.31764130  0.61681279  1
  S  S18  1  0.25000000  0.18235870  0.11681279  1
  S  S19  1  0.25000000  0.68235870  0.38318721  1
  S  S20  1  0.75000000  0.10121993  0.92646144  1
  S  S21  1  0.75000000  0.60121993  0.57353856  1
  S  S22  1  0.25000000  0.89878007  0.07353856  1
  S  S23  1  0.25000000  0.39878007  0.42646144  1
  S  S24  1  0.75000000  0.61393858  0.03784878  1
  S  S25  1  0.75000000  0.11393858  0.46215122  1
  S  S26  1  0.25000000  0.38606142  0.96215122  1
  S  S27  1  0.25000000  0.88606142  0.53784878  1
  S  S28  1  0.75000000  0.01352705  0.69418723  1
  S  S29  1  0.75000000  0.51352705  0.80581277  1
  S  S30  1  0.25000000  0.98647295  0.30581277  1
  S  S31  1  0.25000000  0.48647295  0.19418723  1
  S  S32  1  0.75000000  0.76029093  0.22980828  1
  S  S33  1  0.75000000  0.26029093  0.27019172  1
  S  S34  1  0.25000000  0.23970907  0.77019172  1
  S  S35  1  0.25000000  0.73970907  0.72980828  1
