# generated using pymatgen
data_GdZr3F15
_symmetry_space_group_name_H-M   'P 1'
_cell_length_a   8.27736474
_cell_length_b   8.26271783
_cell_length_c   8.27736474
_cell_angle_alpha   100.12621378
_cell_angle_beta   100.28868639
_cell_angle_gamma   100.12621378
_symmetry_Int_Tables_number   1
_chemical_formula_structural   GdZr3F15
_chemical_formula_sum   'Gd2 Zr6 F30'
_cell_volume   535.64286926
_cell_formula_units_Z   2
loop_
 _symmetry_equiv_pos_site_id
 _symmetry_equiv_pos_as_xyz
  1  'x, y, z'
loop_
 _atom_site_type_symbol
 _atom_site_label
 _atom_site_symmetry_multiplicity
 _atom_site_fract_x
 _atom_site_fract_y
 _atom_site_fract_z
 _atom_site_occupancy
  Gd  Gd0  1  0.82313006  0.25000000  0.67686994  1
  Gd  Gd1  1  0.17686994  0.75000000  0.32313006  1
  Zr  Zr2  1  0.24914654  0.25000000  0.25085346  1
  Zr  Zr3  1  0.75085346  0.75000000  0.74914654  1
  Zr  Zr4  1  0.25332162  0.67596118  0.82344676  1
  Zr  Zr5  1  0.67655324  0.82403882  0.24667838  1
  Zr  Zr6  1  0.74667838  0.32403882  0.17655324  1
  Zr  Zr7  1  0.32344676  0.17596118  0.75332162  1
  F  F8  1  0.68574041  0.05364489  0.15252051  1
  F  F9  1  0.06748121  0.15144202  0.68783991  1
  F  F10  1  0.15603651  0.68405731  0.03630109  1
  F  F11  1  0.53630109  0.18405731  0.65603651  1
  F  F12  1  0.18783991  0.65144202  0.56748121  1
  F  F13  1  0.65252051  0.55364489  0.18574041  1
  F  F14  1  0.31425959  0.94635511  0.84747949  1
  F  F15  1  0.93251879  0.84855798  0.31216009  1
  F  F16  1  0.84396349  0.31594269  0.96369891  1
  F  F17  1  0.46369891  0.81594269  0.34396349  1
  F  F18  1  0.81216009  0.34855798  0.43251879  1
  F  F19  1  0.34747949  0.44635511  0.81425959  1
  F  F20  1  0.22517904  0.99755787  0.21921673  1
  F  F21  1  0.99455166  0.22195662  0.22408669  1
  F  F22  1  0.22638534  0.22357980  0.99406674  1
  F  F23  1  0.49406674  0.72357980  0.72638534  1
  F  F24  1  0.72408669  0.72195662  0.49455166  1
  F  F25  1  0.71921673  0.49755787  0.72517904  1
  F  F26  1  0.77482096  0.00244213  0.78078327  1
  F  F27  1  0.00544834  0.77804338  0.77591331  1
  F  F28  1  0.77361466  0.77642020  0.00593326  1
  F  F29  1  0.50593326  0.27642020  0.27361466  1
  F  F30  1  0.27591331  0.27804338  0.50544834  1
  F  F31  1  0.28078327  0.50244213  0.27482096  1
  F  F32  1  0.53373190  0.25000000  0.96626810  1
  F  F33  1  0.25359142  0.97445330  0.54747566  1
  F  F34  1  0.95252434  0.52554670  0.24640858  1
  F  F35  1  0.74640858  0.02554670  0.45252434  1
  F  F36  1  0.04747566  0.47445330  0.75359142  1
  F  F37  1  0.46626810  0.75000000  0.03373190  1
