# generated using pymatgen
data_InCuGeSe4
_symmetry_space_group_name_H-M   'P 1'
_cell_length_a   5.89219662
_cell_length_b   5.89219662
_cell_length_c   6.81530721
_cell_angle_alpha   64.38786963
_cell_angle_beta   64.38786963
_cell_angle_gamma   90.00000000
_symmetry_Int_Tables_number   1
_chemical_formula_structural   InCuGeSe4
_chemical_formula_sum   'In1 Cu1 Ge1 Se4'
_cell_volume   187.25007761
_cell_formula_units_Z   1
loop_
 _symmetry_equiv_pos_site_id
 _symmetry_equiv_pos_as_xyz
  1  'x, y, z'
loop_
 _atom_site_type_symbol
 _atom_site_label
 _atom_site_symmetry_multiplicity
 _atom_site_fract_x
 _atom_site_fract_y
 _atom_site_fract_z
 _atom_site_occupancy
  In  In0  1  0.25000000  0.75000000  0.50000000  1
  Cu  Cu1  1  0.75000000  0.25000000  0.50000000  1
  Ge  Ge2  1  0.50000000  0.50000000  -0.00000000  1
  Se  Se3  1  0.38185007  0.87893213  0.77018538  1
  Se  Se4  1  0.84796454  0.35088249  0.77018538  1
  Se  Se5  1  0.12106787  0.15203546  0.22981462  1
  Se  Se6  1  0.64911751  0.61814993  0.22981462  1
