# generated using pymatgen
data_Cr2S2BrCl
_symmetry_space_group_name_H-M   'P 1'
_cell_length_a   3.50363681
_cell_length_b   4.75044771
_cell_length_c   8.17269576
_cell_angle_alpha   90.00000000
_cell_angle_beta   90.00000000
_cell_angle_gamma   90.00000000
_symmetry_Int_Tables_number   1
_chemical_formula_structural   Cr2S2BrCl
_chemical_formula_sum   'Cr2 S2 Br1 Cl1'
_cell_volume   136.02506888
_cell_formula_units_Z   1
loop_
 _symmetry_equiv_pos_site_id
 _symmetry_equiv_pos_as_xyz
  1  'x, y, z'
loop_
 _atom_site_type_symbol
 _atom_site_label
 _atom_site_symmetry_multiplicity
 _atom_site_fract_x
 _atom_site_fract_y
 _atom_site_fract_z
 _atom_site_occupancy
  Cr  Cr0  1  0.25000000  0.75000000  0.12447104  1
  Cr  Cr1  1  0.75000000  0.25000000  0.86790057  1
  S  S2  1  0.75000000  0.75000000  0.92632367  1
  S  S3  1  0.25000000  0.25000000  0.06710213  1
  Br  Br4  1  0.75000000  0.75000000  0.34479374  1
  Cl  Cl5  1  0.25000000  0.25000000  0.66940885  1
