# generated using pymatgen
data_Cr3NiP4
_symmetry_space_group_name_H-M   'P 1'
_cell_length_a   3.07335988
_cell_length_b   5.33635665
_cell_length_c   5.95783642
_cell_angle_alpha   90.09665503
_cell_angle_beta   90.00000000
_cell_angle_gamma   90.00000000
_symmetry_Int_Tables_number   1
_chemical_formula_structural   Cr3NiP4
_chemical_formula_sum   'Cr3 Ni1 P4'
_cell_volume   97.71162199
_cell_formula_units_Z   1
loop_
 _symmetry_equiv_pos_site_id
 _symmetry_equiv_pos_as_xyz
  1  'x, y, z'
loop_
 _atom_site_type_symbol
 _atom_site_label
 _atom_site_symmetry_multiplicity
 _atom_site_fract_x
 _atom_site_fract_y
 _atom_site_fract_z
 _atom_site_occupancy
  Cr  Cr0  1  0.75000000  0.99144548  0.80905158  1
  Cr  Cr1  1  0.25000000  0.50647169  0.29463063  1
  Cr  Cr2  1  0.25000000  0.00672127  0.19654222  1
  Ni  Ni3  1  0.75000000  0.49353365  0.69738738  1
  P  P4  1  0.75000000  0.30672848  0.06620278  1
  P  P5  1  0.75000000  0.81573745  0.43845762  1
  P  P6  1  0.25000000  0.69235535  0.93236127  1
  P  P7  1  0.25000000  0.18700664  0.56536651  1
