# generated using pymatgen
data_DyMn6GaGe5
_symmetry_space_group_name_H-M   'P 1'
_cell_length_a   5.16944919
_cell_length_b   5.17201456
_cell_length_c   8.21949405
_cell_angle_alpha   90.00000000
_cell_angle_beta   90.00000000
_cell_angle_gamma   60.05710609
_symmetry_Int_Tables_number   1
_chemical_formula_structural   DyMn6GaGe5
_chemical_formula_sum   'Dy1 Mn6 Ga1 Ge5'
_cell_volume   190.42736139
_cell_formula_units_Z   1
loop_
 _symmetry_equiv_pos_site_id
 _symmetry_equiv_pos_as_xyz
  1  'x, y, z'
loop_
 _atom_site_type_symbol
 _atom_site_label
 _atom_site_symmetry_multiplicity
 _atom_site_fract_x
 _atom_site_fract_y
 _atom_site_fract_z
 _atom_site_occupancy
  Dy  Dy0  1  0.00024112  0.99980511  -0.00000000  1
  Mn  Mn1  1  0.50040603  0.50045359  0.24792724  1
  Mn  Mn2  1  0.50042488  0.99908035  0.24798095  1
  Mn  Mn3  1  0.99909253  0.50049137  0.24800021  1
  Mn  Mn4  1  0.50040603  0.50045359  0.75207276  1
  Mn  Mn5  1  0.50042488  0.99908035  0.75201905  1
  Mn  Mn6  1  0.99909253  0.50049137  0.75199979  1
  Ga  Ga7  1  0.33374361  0.33309105  0.50000000  1
  Ge  Ge8  1  0.66646365  0.66686333  -0.00000000  1
  Ge  Ge9  1  0.33352668  0.33308574  -0.00000000  1
  Ge  Ge10  1  0.99983082  0.00005079  0.34302501  1
  Ge  Ge11  1  0.99983082  0.00005079  0.65697499  1
  Ge  Ge12  1  0.66631642  0.66700259  0.50000000  1
