# generated using pymatgen
data_Sr2CaFe2Bi2O9
_symmetry_space_group_name_H-M   'P 1'
_cell_length_a   5.33575390
_cell_length_b   5.59253946
_cell_length_c   16.52393635
_cell_angle_alpha   90.00000000
_cell_angle_beta   99.29137555
_cell_angle_gamma   90.00000000
_symmetry_Int_Tables_number   1
_chemical_formula_structural   Sr2CaFe2Bi2O9
_chemical_formula_sum   'Sr4 Ca2 Fe4 Bi4 O18'
_cell_volume   486.61189643
_cell_formula_units_Z   2
loop_
 _symmetry_equiv_pos_site_id
 _symmetry_equiv_pos_as_xyz
  1  'x, y, z'
loop_
 _atom_site_type_symbol
 _atom_site_label
 _atom_site_symmetry_multiplicity
 _atom_site_fract_x
 _atom_site_fract_y
 _atom_site_fract_z
 _atom_site_occupancy
  Sr  Sr0  1  0.36800120  0.24263429  0.73600240  1
  Sr  Sr1  1  0.63199880  0.75736571  0.26399760  1
  Sr  Sr2  1  0.13199880  0.24263429  0.26399760  1
  Sr  Sr3  1  0.86800120  0.75736571  0.73600240  1
  Ca  Ca4  1  0.75000000  0.78127333  0.50000000  1
  Ca  Ca5  1  0.25000000  0.21872667  0.50000000  1
  Fe  Fe6  1  0.80929476  0.25559553  0.61858951  1
  Fe  Fe7  1  0.19070524  0.74440447  0.38141049  1
  Fe  Fe8  1  0.69070524  0.25559553  0.38141049  1
  Fe  Fe9  1  0.30929476  0.74440447  0.61858951  1
  Bi  Bi10  1  0.95474534  0.27113972  0.90949068  1
  Bi  Bi11  1  0.04525466  0.72886028  0.09050932  1
  Bi  Bi12  1  0.54525466  0.27113972  0.09050932  1
  Bi  Bi13  1  0.45474534  0.72886028  0.90949068  1
  O  O14  1  0.06432274  -0.00000000  0.62864548  1
  O  O15  1  0.93567726  -0.00000000  0.37135452  1
  O  O16  1  0.43567726  -0.00000000  0.37135452  1
  O  O17  1  0.56432274  0.00000000  0.62864548  1
  O  O18  1  0.89169074  0.22305584  0.78338149  1
  O  O19  1  0.10830926  0.77694416  0.21661851  1
  O  O20  1  0.60830926  0.22305584  0.21661851  1
  O  O21  1  0.39169074  0.77694416  0.78338149  1
  O  O22  1  0.06928772  0.50000000  0.63857544  1
  O  O23  1  0.93071228  0.50000000  0.36142456  1
  O  O24  1  0.43071228  0.50000000  0.36142456  1
  O  O25  1  0.56928772  0.50000000  0.63857544  1
  O  O26  1  0.75000000  0.25108197  0.50000000  1
  O  O27  1  0.25000000  0.74891803  0.50000000  1
  O  O28  1  0.95365231  0.65335119  0.90730462  1
  O  O29  1  0.04634769  0.34664881  0.09269538  1
  O  O30  1  0.54634769  0.65335119  0.09269538  1
  O  O31  1  0.45365231  0.34664881  0.90730462  1
