# generated using pymatgen
data_Cs2Zr2Mn(MoO4)6
_symmetry_space_group_name_H-M   'P 1'
_cell_length_a   8.97076081
_cell_length_b   8.97799924
_cell_length_c   8.95801732
_cell_angle_alpha   100.27959540
_cell_angle_beta   100.11928623
_cell_angle_gamma   100.09099122
_symmetry_Int_Tables_number   1
_chemical_formula_structural   Cs2Zr2Mn(MoO4)6
_chemical_formula_sum   'Cs2 Zr2 Mn1 Mo6 O24'
_cell_volume   682.77482547
_cell_formula_units_Z   1
loop_
 _symmetry_equiv_pos_site_id
 _symmetry_equiv_pos_as_xyz
  1  'x, y, z'
loop_
 _atom_site_type_symbol
 _atom_site_label
 _atom_site_symmetry_multiplicity
 _atom_site_fract_x
 _atom_site_fract_y
 _atom_site_fract_z
 _atom_site_occupancy
  Cs  Cs0  1  0.66803110  0.66804499  0.66677736  1
  Cs  Cs1  1  0.33196890  0.33195501  0.33322264  1
  Zr  Zr2  1  -0.00000000  0.50000000  -0.00000000  1
  Zr  Zr3  1  0.50000000  0.00000000  -0.00000000  1
  Mn  Mn4  1  -0.00000000  0.00000000  0.50000000  1
  Mo  Mo5  1  0.15496259  0.71277902  0.69951646  1
  Mo  Mo6  1  0.71220296  0.70015784  0.15654270  1
  Mo  Mo7  1  0.70013928  0.15522908  0.71139833  1
  Mo  Mo8  1  0.84503741  0.28722098  0.30048354  1
  Mo  Mo9  1  0.28779704  0.29984216  0.84345730  1
  Mo  Mo10  1  0.29986072  0.84477092  0.28860167  1
  O  O11  1  0.05834835  0.58718321  0.81100193  1
  O  O12  1  0.58707204  0.81126988  0.05860255  1
  O  O13  1  0.80542070  0.06056313  0.58857801  1
  O  O14  1  0.94165165  0.41281679  0.18899807  1
  O  O15  1  0.41292796  0.18873012  0.94139745  1
  O  O16  1  0.19457930  0.93943687  0.41142199  1
  O  O17  1  0.02412502  0.83017551  0.64225549  1
  O  O18  1  0.83531694  0.64011833  0.02201483  1
  O  O19  1  0.64006939  0.02149617  0.83498813  1
  O  O20  1  0.97587498  0.16982449  0.35774451  1
  O  O21  1  0.16468306  0.35988167  0.97798517  1
  O  O22  1  0.35993061  0.97850383  0.16501187  1
  O  O23  1  0.19691965  0.60358457  0.53678592  1
  O  O24  1  0.60337247  0.53762320  0.19841292  1
  O  O25  1  0.53800962  0.19734330  0.60240352  1
  O  O26  1  0.80308035  0.39641543  0.46321408  1
  O  O27  1  0.39662753  0.46237680  0.80158708  1
  O  O28  1  0.46199038  0.80265670  0.39759648  1
  O  O29  1  0.33319917  0.83910049  0.82270295  1
  O  O30  1  0.83368385  0.81752344  0.32935734  1
  O  O31  1  0.82325898  0.33344491  0.83890010  1
  O  O32  1  0.66680083  0.16089951  0.17729705  1
  O  O33  1  0.16631615  0.18247656  0.67064266  1
  O  O34  1  0.17674102  0.66655509  0.16109990  1
