# generated using pymatgen
data_GdDy3Ni4
_symmetry_space_group_name_H-M   'P 1'
_cell_length_a   4.19259620
_cell_length_b   5.46988270
_cell_length_c   7.13140446
_cell_angle_alpha   89.98691515
_cell_angle_beta   90.00000000
_cell_angle_gamma   90.00000000
_symmetry_Int_Tables_number   1
_chemical_formula_structural   GdDy3Ni4
_chemical_formula_sum   'Gd1 Dy3 Ni4'
_cell_volume   163.54456120
_cell_formula_units_Z   1
loop_
 _symmetry_equiv_pos_site_id
 _symmetry_equiv_pos_as_xyz
  1  'x, y, z'
loop_
 _atom_site_type_symbol
 _atom_site_label
 _atom_site_symmetry_multiplicity
 _atom_site_fract_x
 _atom_site_fract_y
 _atom_site_fract_z
 _atom_site_occupancy
  Gd  Gd0  1  0.25000000  0.36583570  0.67931496  1
  Dy  Dy1  1  0.25000000  0.13380777  0.17993658  1
  Dy  Dy2  1  0.75000000  0.63464704  0.31904929  1
  Dy  Dy3  1  0.75000000  0.86582717  0.82087271  1
  Ni  Ni4  1  0.25000000  0.87413164  0.53741738  1
  Ni  Ni5  1  0.25000000  0.62649430  0.03902106  1
  Ni  Ni6  1  0.75000000  0.12453373  0.46056343  1
  Ni  Ni7  1  0.75000000  0.37472265  0.96382459  1
