# generated using pymatgen
data_Cs3H(SeO4)2
_symmetry_space_group_name_H-M   'P 1'
_cell_length_a   6.45328734
_cell_length_b   6.45328734
_cell_length_c   8.67163313
_cell_angle_alpha   71.17167016
_cell_angle_beta   71.17167016
_cell_angle_gamma   60.76504469
_symmetry_Int_Tables_number   1
_chemical_formula_structural   Cs3H(SeO4)2
_chemical_formula_sum   'Cs3 H1 Se2 O8'
_cell_volume   292.24677736
_cell_formula_units_Z   1
loop_
 _symmetry_equiv_pos_site_id
 _symmetry_equiv_pos_as_xyz
  1  'x, y, z'
loop_
 _atom_site_type_symbol
 _atom_site_label
 _atom_site_symmetry_multiplicity
 _atom_site_fract_x
 _atom_site_fract_y
 _atom_site_fract_z
 _atom_site_occupancy
  Cs  Cs0  1  0.99920556  0.99920556  0.00450295  1
  Cs  Cs1  1  0.80260696  0.80260696  0.60762650  1
  Cs  Cs2  1  0.19825854  0.19825854  0.38863392  1
  H  H3  1  0.48050770  0.48050770  0.99749811  1
  Se  Se4  1  0.57269450  0.57269450  0.23166961  1
  Se  Se5  1  0.42894804  0.42894804  0.76197101  1
  O  O6  1  0.60292040  0.60292040  0.02262635  1
  O  O7  1  0.39002819  0.39002819  0.97955763  1
  O  O8  1  0.72672014  0.30242798  0.69275819  1
  O  O9  1  0.30242798  0.72672014  0.69275819  1
  O  O10  1  0.27457795  0.69743096  0.31064652  1
  O  O11  1  0.69743096  0.27457795  0.31064652  1
  O  O12  1  0.71180094  0.71180094  0.26192038  1
  O  O13  1  0.28687215  0.28687215  0.74218412  1
