# generated using pymatgen
data_CeCu2SiGe
_symmetry_space_group_name_H-M   'P 1'
_cell_length_a   4.12842864
_cell_length_b   4.12842864
_cell_length_c   5.78352334
_cell_angle_alpha   69.08927030
_cell_angle_beta   69.08927030
_cell_angle_gamma   90.00000000
_symmetry_Int_Tables_number   1
_chemical_formula_structural   CeCu2SiGe
_chemical_formula_sum   'Ce1 Cu2 Si1 Ge1'
_cell_volume   85.09541202
_cell_formula_units_Z   1
loop_
 _symmetry_equiv_pos_site_id
 _symmetry_equiv_pos_as_xyz
  1  'x, y, z'
loop_
 _atom_site_type_symbol
 _atom_site_label
 _atom_site_symmetry_multiplicity
 _atom_site_fract_x
 _atom_site_fract_y
 _atom_site_fract_z
 _atom_site_occupancy
  Ce  Ce0  1  0.99814207  0.99814207  0.00371587  1
  Cu  Cu1  1  0.75431402  0.25431402  0.49137196  1
  Cu  Cu2  1  0.25431402  0.75431402  0.49137196  1
  Si  Si3  1  0.37513828  0.37513828  0.24972344  1
  Ge  Ge4  1  0.61809161  0.61809161  0.76381677  1
