# generated using pymatgen
data_Ca6Ge7Au15
_symmetry_space_group_name_H-M   'P 1'
_cell_length_a   4.55473247
_cell_length_b   9.58467715
_cell_length_c   13.43029410
_cell_angle_alpha   90.63098925
_cell_angle_beta   90.00000000
_cell_angle_gamma   90.00000000
_symmetry_Int_Tables_number   1
_chemical_formula_structural   Ca6Ge7Au15
_chemical_formula_sum   'Ca6 Ge7 Au15'
_cell_volume   586.27253303
_cell_formula_units_Z   1
loop_
 _symmetry_equiv_pos_site_id
 _symmetry_equiv_pos_as_xyz
  1  'x, y, z'
loop_
 _atom_site_type_symbol
 _atom_site_label
 _atom_site_symmetry_multiplicity
 _atom_site_fract_x
 _atom_site_fract_y
 _atom_site_fract_z
 _atom_site_occupancy
  Ca  Ca0  1  0.50000000  0.00066750  0.18873740  1
  Ca  Ca1  1  0.50000000  0.99981648  0.81118296  1
  Ca  Ca2  1  -0.00000000  0.50528109  0.31187554  1
  Ca  Ca3  1  -0.00000000  0.49907824  0.69038154  1
  Ca  Ca4  1  0.00000000  0.50166096  0.99872269  1
  Ca  Ca5  1  0.50000000  0.99358187  0.49943512  1
  Ge  Ge6  1  0.50000000  0.64982489  0.17967109  1
  Ge  Ge7  1  0.50000000  0.35089256  0.81784465  1
  Ge  Ge8  1  -0.00000000  0.15068872  0.31774898  1
  Ge  Ge9  1  -0.00000000  0.85452296  0.68599869  1
  Ge  Ge10  1  0.50000000  0.27127874  0.62648892  1
  Ge  Ge11  1  -0.00000000  0.22291418  0.12406834  1
  Ge  Ge12  1  -0.00000000  0.78014993  0.87537122  1
  Au  Au13  1  0.50000000  0.26259316  0.35917598  1
  Au  Au14  1  0.50000000  0.74029435  0.63941353  1
  Au  Au15  1  -0.00000000  0.76123981  0.13766498  1
  Au  Au16  1  -0.00000000  0.24214737  0.85855214  1
  Au  Au17  1  0.50000000  0.61635951  0.83991303  1
  Au  Au18  1  0.50000000  0.38585242  0.15944037  1
  Au  Au19  1  -0.00000000  0.11625929  0.65791932  1
  Au  Au20  1  -0.00000000  0.88938387  0.34113339  1
  Au  Au21  1  0.50000000  0.49535578  0.50894995  1
  Au  Au22  1  -0.00000000  0.00107859  0.99982780  1
  Au  Au23  1  0.50000000  0.79454769  0.00457433  1
  Au  Au24  1  0.50000000  0.20064587  0.99613954  1
  Au  Au25  1  -0.00000000  0.29857896  0.49509856  1
  Au  Au26  1  0.00000000  0.70220940  0.50562181  1
  Au  Au27  1  0.50000000  0.71309579  0.36904811  1
