# generated using pymatgen
data_Fe17Si8(H4O9)5
_symmetry_space_group_name_H-M   'P 1'
_cell_length_a   9.22396141
_cell_length_b   12.02022345
_cell_length_c   9.61474451
_cell_angle_alpha   66.45931515
_cell_angle_beta   90.17125417
_cell_angle_gamma   94.08770569
_symmetry_Int_Tables_number   1
_chemical_formula_structural   Fe17Si8(H4O9)5
_chemical_formula_sum   'Fe17 Si8 H20 O45'
_cell_volume   974.44300873
_cell_formula_units_Z   1
loop_
 _symmetry_equiv_pos_site_id
 _symmetry_equiv_pos_as_xyz
  1  'x, y, z'
loop_
 _atom_site_type_symbol
 _atom_site_label
 _atom_site_symmetry_multiplicity
 _atom_site_fract_x
 _atom_site_fract_y
 _atom_site_fract_z
 _atom_site_occupancy
  Fe  Fe0  1  0.25610174  0.16557213  0.08036832  1
  Fe  Fe1  1  0.65511788  0.56001334  0.55779803  1
  Fe  Fe2  1  0.56066860  0.06816139  0.96516843  1
  Fe  Fe3  1  0.96456338  0.46583292  0.76694971  1
  Fe  Fe4  1  0.36675158  0.86708749  0.56651499  1
  Fe  Fe5  1  0.76334944  0.27079639  0.36573586  1
  Fe  Fe6  1  0.16329902  0.66947944  0.16762857  1
  Fe  Fe7  1  0.56264154  0.06938752  0.63052625  1
  Fe  Fe8  1  0.96070909  0.46654720  0.43720747  1
  Fe  Fe9  1  0.36747241  0.87064994  0.23135586  1
  Fe  Fe10  1  0.76427728  0.26843126  0.03166118  1
  Fe  Fe11  1  0.16399747  0.66425057  0.83233268  1
  Fe  Fe12  1  0.36553542  0.86732995  0.89822631  1
  Fe  Fe13  1  0.76439329  0.26903959  0.70131944  1
  Fe  Fe14  1  0.16514584  0.66879780  0.50099661  1
  Fe  Fe15  1  0.56314170  0.06999113  0.29262444  1
  Fe  Fe16  1  0.96335290  0.46570601  0.10157413  1
  Si  Si17  1  0.67001737  0.55877531  0.90211344  1
  Si  Si18  1  0.06543938  0.94755251  0.68907609  1
  Si  Si19  1  0.45720364  0.35030667  0.48642689  1
  Si  Si20  1  0.87094750  0.76362999  0.28104956  1
  Si  Si21  1  0.25854453  0.15048214  0.74445140  1
  Si  Si22  1  0.06622633  0.95384178  0.36130065  1
  Si  Si23  1  0.46773562  0.36056268  0.15571686  1
  Si  Si24  1  0.87306131  0.75902270  0.95928292  1
  H  H25  1  0.40517364  0.63533234  0.69140751  1
  H  H26  1  0.20442059  0.44090118  0.27999014  1
  H  H27  1  0.00278869  0.23042023  0.87880313  1
  H  H28  1  0.79384122  0.03201769  0.47210935  1
  H  H29  1  0.59965961  0.83133737  0.08455736  1
  H  H30  1  0.38555053  0.61772536  0.03225231  1
  H  H31  1  0.19719268  0.42938606  0.60757160  1
  H  H32  1  0.98404032  0.21787822  0.21549683  1
  H  H33  1  0.79215351  0.02888460  0.81398159  1
  H  H34  1  0.60451883  0.83262626  0.40057463  1
  H  H35  1  0.38201464  0.61596236  0.35877779  1
  H  H36  1  0.19652576  0.42825253  0.96777891  1
  H  H37  1  0.99034609  0.22093754  0.56036551  1
  H  H38  1  0.79366597  0.02165006  0.17361758  1
  H  H39  1  0.59409449  0.82575202  0.75766381  1
  H  H40  1  0.33225964  0.11481591  0.42656984  1
  H  H41  1  0.12527850  0.90898134  0.04919603  1
  H  H42  1  0.92559091  0.71114713  0.64171584  1
  H  H43  1  0.72762501  0.51292969  0.24439742  1
  H  H44  1  0.52891980  0.31348764  0.84965779  1
  O  O45  1  0.41058700  0.06049917  0.45702678  1
  O  O46  1  0.20411958  0.85529295  0.07130603  1
  O  O47  1  0.00573237  0.65892273  0.66929860  1
  O  O48  1  0.80883356  0.46182244  0.27005800  1
  O  O49  1  0.60651281  0.25843353  0.87713201  1
  O  O50  1  0.19872984  0.86005331  0.73849002  1
  O  O51  1  0.00498350  0.67383666  0.31827855  1
  O  O52  1  0.80139878  0.46930348  0.93773945  1
  O  O53  1  0.59251237  0.26298653  0.53206094  1
  O  O54  1  0.41105899  0.06441057  0.14275671  1
  O  O55  1  0.20061442  0.86569784  0.40078105  1
  O  O56  1  0.00689232  0.67053702  0.01061266  1
  O  O57  1  0.80619401  0.46016825  0.60295170  1
  O  O58  1  0.59071131  0.26026532  0.20358629  1
  O  O59  1  0.39428394  0.06455607  0.79533685  1
  O  O60  1  0.00310964  0.96159330  0.52087524  1
  O  O61  1  0.82409129  0.79501451  0.10097112  1
  O  O62  1  0.60110318  0.58684017  0.73616603  1
  O  O63  1  0.40487464  0.37365657  0.31025161  1
  O  O64  1  0.19458261  0.17687408  0.88565067  1
  O  O65  1  0.10934977  0.09178963  0.23772615  1
  O  O66  1  0.92620171  0.88873100  0.81388012  1
  O  O67  1  0.72882953  0.70985289  0.39316124  1
  O  O68  1  0.54041622  0.49791298  0.03977438  1
  O  O69  1  0.31231633  0.28034241  0.59973170  1
  O  O70  1  0.93063150  0.89514197  0.28962961  1
  O  O71  1  0.73188578  0.69194357  0.90963366  1
  O  O72  1  0.49503601  0.48356977  0.49086712  1
  O  O73  1  0.33125956  0.31992482  0.07384390  1
  O  O74  1  0.12134652  0.08400526  0.68147749  1
  O  O75  1  0.31883774  0.68224610  0.66080041  1
  O  O76  1  0.11961891  0.48942974  0.25815585  1
  O  O77  1  0.91837029  0.27898231  0.86426306  1
  O  O78  1  0.70821794  0.07906391  0.44900708  1
  O  O79  1  0.51572177  0.88008996  0.05730004  1
  O  O80  1  0.52414750  0.88569882  0.38872549  1
  O  O81  1  0.30771008  0.67307478  0.00773056  1
  O  O82  1  0.11898554  0.48378674  0.58653813  1
  O  O83  1  0.90999013  0.27756244  0.19192814  1
  O  O84  1  0.71115941  0.08044579  0.79219048  1
  O  O85  1  0.31163809  0.67853939  0.31799474  1
  O  O86  1  0.11438992  0.47949252  0.93177154  1
  O  O87  1  0.91267479  0.27602303  0.52747679  1
  O  O88  1  0.71259431  0.07381348  0.14014529  1
  O  O89  1  0.51578980  0.88049881  0.72882573  1
