# generated using pymatgen
data_CaScAlSiO6
_symmetry_space_group_name_H-M   'P 1'
_cell_length_a   5.52301704
_cell_length_b   6.77163020
_cell_length_c   6.77163020
_cell_angle_alpha   84.41168729
_cell_angle_beta   78.11356728
_cell_angle_gamma   78.11356728
_symmetry_Int_Tables_number   1
_chemical_formula_structural   CaScAlSiO6
_chemical_formula_sum   'Ca2 Sc2 Al2 Si2 O12'
_cell_volume   242.11373331
_cell_formula_units_Z   2
loop_
 _symmetry_equiv_pos_site_id
 _symmetry_equiv_pos_as_xyz
  1  'x, y, z'
loop_
 _atom_site_type_symbol
 _atom_site_label
 _atom_site_symmetry_multiplicity
 _atom_site_fract_x
 _atom_site_fract_y
 _atom_site_fract_z
 _atom_site_occupancy
  Ca  Ca0  1  0.75000000  0.69226581  0.30773419  1
  Ca  Ca1  1  0.25000000  0.31242964  0.68757036  1
  Sc  Sc2  1  0.75000000  0.09780046  0.90219954  1
  Sc  Sc3  1  0.25000000  0.90213515  0.09786485  1
  Al  Al4  1  0.73027147  0.61979772  0.80397685  1
  Al  Al5  1  0.76972853  0.19602315  0.38020228  1
  Si  Si6  1  0.26635466  0.38350982  0.20205147  1
  Si  Si7  1  0.23364534  0.79794853  0.61649018  1
  O  O8  1  0.63048651  0.80239860  0.98674167  1
  O  O9  1  0.86951349  0.01325833  0.19760140  1
  O  O10  1  0.35360220  0.21071464  0.03158012  1
  O  O11  1  0.14639780  0.96841988  0.78928536  1
  O  O12  1  0.83890927  0.37191897  0.88628101  1
  O  O13  1  0.66109073  0.11371899  0.62808103  1
  O  O14  1  0.17581083  0.61355737  0.11225294  1
  O  O15  1  0.32418917  0.88774706  0.38644263  1
  O  O16  1  0.48553913  0.63061604  0.66294574  1
  O  O17  1  0.01446087  0.33705426  0.36938396  1
  O  O18  1  0.49558413  0.37654522  0.32785966  1
  O  O19  1  0.00441587  0.67214034  0.62345478  1
