# generated using pymatgen
data_Ce2Mn17C2
_symmetry_space_group_name_H-M   'P 1'
_cell_length_a   6.42074591
_cell_length_b   6.42582900
_cell_length_c   6.42074591
_cell_angle_alpha   83.64344207
_cell_angle_beta   84.46341752
_cell_angle_gamma   83.64344207
_symmetry_Int_Tables_number   1
_chemical_formula_structural   Ce2Mn17C2
_chemical_formula_sum   'Ce2 Mn17 C2'
_cell_volume   260.71085150
_cell_formula_units_Z   1
loop_
 _symmetry_equiv_pos_site_id
 _symmetry_equiv_pos_as_xyz
  1  'x, y, z'
loop_
 _atom_site_type_symbol
 _atom_site_label
 _atom_site_symmetry_multiplicity
 _atom_site_fract_x
 _atom_site_fract_y
 _atom_site_fract_z
 _atom_site_occupancy
  Ce  Ce0  1  0.64423682  0.65910675  0.64423682  1
  Ce  Ce1  1  0.35576318  0.34089325  0.35576318  1
  Mn  Mn2  1  0.90352880  0.90271650  0.90352880  1
  Mn  Mn3  1  0.09647120  0.09728350  0.09647120  1
  Mn  Mn4  1  0.72920926  0.00000000  0.27079074  1
  Mn  Mn5  1  0.99577857  0.27897513  0.72158971  1
  Mn  Mn6  1  0.27841029  0.72102487  0.00422143  1
  Mn  Mn7  1  0.00422143  0.72102487  0.27841029  1
  Mn  Mn8  1  0.72158971  0.27897513  0.99577857  1
  Mn  Mn9  1  0.27079074  -0.00000000  0.72920926  1
  Mn  Mn10  1  0.33907432  0.34020906  0.86088975  1
  Mn  Mn11  1  0.34970505  0.86545480  0.34970505  1
  Mn  Mn12  1  0.86088975  0.34020906  0.33907432  1
  Mn  Mn13  1  0.66092568  0.65979094  0.13911025  1
  Mn  Mn14  1  0.65029495  0.13454520  0.65029495  1
  Mn  Mn15  1  0.13911025  0.65979094  0.66092568  1
  Mn  Mn16  1  -0.00000000  0.50000000  -0.00000000  1
  Mn  Mn17  1  0.50000000  0.00000000  -0.00000000  1
  Mn  Mn18  1  -0.00000000  0.00000000  0.50000000  1
  C  C19  1  -0.00000000  0.50000000  0.50000000  1
  C  C20  1  0.50000000  0.50000000  -0.00000000  1
