# generated using pymatgen
data_CsMo2P3O13
_symmetry_space_group_name_H-M   'P 1'
_cell_length_a   6.45594665
_cell_length_b   9.96318626
_cell_length_c   10.28450526
_cell_angle_alpha   83.10821612
_cell_angle_beta   82.34185322
_cell_angle_gamma   71.86426334
_symmetry_Int_Tables_number   1
_chemical_formula_structural   CsMo2P3O13
_chemical_formula_sum   'Cs2 Mo4 P6 O26'
_cell_volume   620.87913337
_cell_formula_units_Z   2
loop_
 _symmetry_equiv_pos_site_id
 _symmetry_equiv_pos_as_xyz
  1  'x, y, z'
loop_
 _atom_site_type_symbol
 _atom_site_label
 _atom_site_symmetry_multiplicity
 _atom_site_fract_x
 _atom_site_fract_y
 _atom_site_fract_z
 _atom_site_occupancy
  Cs  Cs0  1  0.50078058  0.00100699  0.49820696  1
  Cs  Cs1  1  0.48925161  0.56941970  0.95652941  1
  Mo  Mo2  1  0.85596480  0.63755705  0.25730314  1
  Mo  Mo3  1  0.14506574  0.36174127  0.74214408  1
  Mo  Mo4  1  0.14963992  0.09038475  0.18010076  1
  Mo  Mo5  1  0.84917091  0.91168834  0.81966679  1
  P  P6  1  0.70484692  0.99578420  0.13648804  1
  P  P7  1  0.29487345  0.00427989  0.86382796  1
  P  P8  1  0.29755181  0.72378927  0.32359788  1
  P  P9  1  0.70292539  0.27643984  0.67669999  1
  P  P10  1  0.00879851  0.30318535  0.44472513  1
  P  P11  1  0.99078045  0.69737508  0.55506896  1
  O  O12  1  0.85719862  0.04587049  0.20996000  1
  O  O13  1  0.14405761  0.95265065  0.79007142  1
  O  O14  1  0.16674337  0.66452411  0.24271025  1
  O  O15  1  0.83321241  0.33670960  0.75692420  1
  O  O16  1  0.74253843  0.11765660  0.70308839  1
  O  O17  1  0.25739240  0.88250407  0.29829376  1
  O  O18  1  0.53904753  0.63445944  0.30689447  1
  O  O19  1  0.46151744  0.36639562  0.69350592  1
  O  O20  1  0.46917545  0.08491866  0.18438295  1
  O  O21  1  0.53062899  0.91247255  0.81657068  1
  O  O22  1  0.77067763  0.30778701  0.52191909  1
  O  O23  1  0.22944142  0.69123745  0.47861589  1
  O  O24  1  0.72947284  0.83853167  0.17921896  1
  O  O25  1  0.27198563  0.16052547  0.81968231  1
  O  O26  1  0.83391813  0.71737545  0.44994839  1
  O  O27  1  0.16508864  0.28336304  0.55049251  1
  O  O28  1  0.89655772  0.55861232  0.11447455  1
  O  O29  1  0.10205606  0.44258808  0.88411801  1
  O  O30  1  0.75117001  0.02096344  0.98544580  1
  O  O31  1  0.24929698  0.97759183  0.01433781  1
  O  O32  1  0.92179343  0.82824771  0.63400606  1
  O  O33  1  0.07822237  0.17231407  0.36620937  1
  O  O34  1  0.97647936  0.44217217  0.36145340  1
  O  O35  1  0.02172724  0.55883463  0.63963434  1
  O  O36  1  0.05220063  0.25136040  0.09818543  1
  O  O37  1  0.94865157  0.74894172  0.90020493  1
