# generated using pymatgen
data_Sb4ClO6
_symmetry_space_group_name_H-M   'P 1'
_cell_length_a   4.12630600
_cell_length_b   9.82820003
_cell_length_c   10.98136616
_cell_angle_alpha   110.81924902
_cell_angle_beta   90.00000000
_cell_angle_gamma   102.11776389
_symmetry_Int_Tables_number   1
_chemical_formula_structural   Sb4ClO6
_chemical_formula_sum   'Sb8 Cl2 O12'
_cell_volume   405.62850155
_cell_formula_units_Z   2
loop_
 _symmetry_equiv_pos_site_id
 _symmetry_equiv_pos_as_xyz
  1  'x, y, z'
loop_
 _atom_site_type_symbol
 _atom_site_label
 _atom_site_symmetry_multiplicity
 _atom_site_fract_x
 _atom_site_fract_y
 _atom_site_fract_z
 _atom_site_occupancy
  Sb  Sb0  1  0.92279816  0.84559631  0.52821778  1
  Sb  Sb1  1  0.07720184  0.15440369  0.47178222  1
  Sb  Sb2  1  0.73354488  0.46708976  0.32068928  1
  Sb  Sb3  1  0.26645512  0.53291024  0.67931072  1
  Sb  Sb4  1  0.69245748  0.38491496  0.84677657  1
  Sb  Sb5  1  0.30754252  0.61508504  0.15322343  1
  Sb  Sb6  1  0.50145122  0.00290243  0.78839173  1
  Sb  Sb7  1  0.49854878  0.99709757  0.21160827  1
  Cl  Cl8  1  0.88652054  0.77304108  0.00252863  1
  Cl  Cl9  1  0.11347946  0.22695892  0.99747137  1
  O  O10  1  0.58581253  0.17162505  0.72515770  1
  O  O11  1  0.41418747  0.82837495  0.27484230  1
  O  O12  1  0.73507757  0.47015514  0.70045615  1
  O  O13  1  0.26492243  0.52984486  0.29954385  1
  O  O14  1  0.43353890  0.86707780  0.58433491  1
  O  O15  1  0.56646110  0.13292220  0.41566509  1
  O  O16  1  0.96795102  0.93590204  0.72281356  1
  O  O17  1  0.03204898  0.06409796  0.27718644  1
  O  O18  1  0.81547338  0.63094677  0.49853872  1
  O  O19  1  0.18452662  0.36905323  0.50146128  1
  O  O20  1  0.20277292  0.40554585  0.79292623  1
  O  O21  1  0.79722708  0.59445415  0.20707377  1
