# generated using pymatgen
data_LiYbF4
_symmetry_space_group_name_H-M   'P 1'
_cell_length_a   5.46597709
_cell_length_b   5.46597710
_cell_length_c   6.22243932
_cell_angle_alpha   116.05380441
_cell_angle_beta   116.05380435
_cell_angle_gamma   89.99999996
_symmetry_Int_Tables_number   1
_chemical_formula_structural   LiYbF4
_chemical_formula_sum   'Li2 Yb2 F8'
_cell_volume   145.69487124
_cell_formula_units_Z   2
loop_
 _symmetry_equiv_pos_site_id
 _symmetry_equiv_pos_as_xyz
  1  'x, y, z'
loop_
 _atom_site_type_symbol
 _atom_site_label
 _atom_site_symmetry_multiplicity
 _atom_site_fract_x
 _atom_site_fract_y
 _atom_site_fract_z
 _atom_site_occupancy
  Li  Li0  1  0.12500000  0.37500000  0.25000000  1
  Li  Li1  1  0.87500000  0.62500000  0.75000000  1
  F  F2  1  0.69142145  0.89143918  0.91571139  1
  F  F3  1  0.77571007  0.47572779  0.08428861  1
  F  F4  1  0.39143918  0.72428993  0.41571139  1
  F  F5  1  0.02427221  0.19142145  0.41571139  1
  F  F6  1  0.22428993  0.52427221  0.91571139  1
  F  F7  1  0.97572779  0.80857855  0.58428861  1
  F  F8  1  0.30857855  0.10856082  0.08428861  1
  F  F9  1  0.60856082  0.27571007  0.58428861  1
  Yb  Yb10  1  0.62500000  0.87500000  0.25000000  1
  Yb  Yb11  1  0.37500000  0.12500000  0.75000000  1
