# generated using pymatgen
data_Ce2AlGaNi2
_symmetry_space_group_name_H-M   'P 1'
_cell_length_a   4.02288017
_cell_length_b   6.93977566
_cell_length_c   11.96268458
_cell_angle_alpha   89.75153337
_cell_angle_beta   90.00000000
_cell_angle_gamma   90.00000000
_symmetry_Int_Tables_number   1
_chemical_formula_structural   Ce2AlGaNi2
_chemical_formula_sum   'Ce6 Al3 Ga3 Ni6'
_cell_volume   333.96972281
_cell_formula_units_Z   3
loop_
 _symmetry_equiv_pos_site_id
 _symmetry_equiv_pos_as_xyz
  1  'x, y, z'
loop_
 _atom_site_type_symbol
 _atom_site_label
 _atom_site_symmetry_multiplicity
 _atom_site_fract_x
 _atom_site_fract_y
 _atom_site_fract_z
 _atom_site_occupancy
  Ce  Ce0  1  0.50000000  0.57295235  0.00002261  1
  Ce  Ce1  1  0.50000000  0.07452106  0.49956828  1
  Ce  Ce2  1  0.50000000  0.21301421  0.21264412  1
  Ce  Ce3  1  0.50000000  0.71174927  0.71125983  1
  Ce  Ce4  1  0.50000000  0.71034164  0.28970350  1
  Ce  Ce5  1  0.50000000  0.21204915  0.78844051  1
  Al  Al6  1  0.00000000  0.88472495  0.88453206  1
  Al  Al7  1  0.00000000  0.88497630  0.11567242  1
  Al  Al8  1  0.00000000  0.38496319  0.61462681  1
  Ga  Ga9  1  -0.00000000  0.73429272  0.50040721  1
  Ga  Ga10  1  0.00000000  0.23318624  0.00015542  1
  Ga  Ga11  1  -0.00000000  0.38212046  0.38323969  1
  Ni  Ni12  1  0.00000000  0.99924926  0.33195280  1
  Ni  Ni13  1  -0.00000000  0.50229683  0.83226507  1
  Ni  Ni14  1  0.00000000  0.50241445  0.16616654  1
  Ni  Ni15  1  -0.00000000  0.00226482  0.66756279  1
  Ni  Ni16  1  0.50000000  0.99638144  0.00013669  1
  Ni  Ni17  1  0.50000000  0.49830163  0.50164367  1
