# generated using pymatgen
data_Ba7Ti2Nb4O21
_symmetry_space_group_name_H-M   'P 1'
_cell_length_a   5.86119470
_cell_length_b   5.86119471
_cell_length_c   17.04923669
_cell_angle_alpha   90.00000000
_cell_angle_beta   80.10225935
_cell_angle_gamma   119.99999998
_symmetry_Int_Tables_number   1
_chemical_formula_structural   Ba7Ti2Nb4O21
_chemical_formula_sum   'Ba7 Ti2 Nb4 O21'
_cell_volume   497.14180829
_cell_formula_units_Z   1
loop_
 _symmetry_equiv_pos_site_id
 _symmetry_equiv_pos_as_xyz
  1  'x, y, z'
loop_
 _atom_site_type_symbol
 _atom_site_label
 _atom_site_symmetry_multiplicity
 _atom_site_fract_x
 _atom_site_fract_y
 _atom_site_fract_z
 _atom_site_occupancy
  Ba  Ba0  1  0.47076873  0.23538437  0.29384690  1
  Ba  Ba1  1  0.52923127  0.76461563  0.70615310  1
  Ba  Ba2  1  0.29758105  0.14879053  0.55362842  1
  Ba  Ba3  1  0.70241895  0.85120947  0.44637158  1
  Ba  Ba4  1  0.76456727  0.38228363  0.85314910  1
  Ba  Ba5  1  0.23543273  0.61771637  0.14685090  1
  Ba  Ba6  1  0.00000000  0.00000000  -0.00000000  1
  Ti  Ti7  1  0.15101187  0.07550593  0.77348220  1
  Ti  Ti8  1  0.84898813  0.92449407  0.22651780  1
  Nb  Nb9  1  0.91339154  0.45669577  0.62991269  1
  Nb  Nb10  1  0.08660846  0.54330423  0.37008731  1
  Nb  Nb11  1  0.61521570  0.30760785  0.07717645  1
  Nb  Nb12  1  0.38478430  0.69239215  0.92282355  1
  O  O13  1  0.02532990  0.25478415  0.71988595  1
  O  O14  1  0.50956831  0.25478415  0.71988595  1
  O  O15  1  0.02532990  0.77054574  0.71988595  1
  O  O16  1  0.97467010  0.74521585  0.28011405  1
  O  O17  1  0.49043169  0.74521585  0.28011405  1
  O  O18  1  0.97467010  0.22945426  0.28011405  1
  O  O19  1  0.73721858  0.12249511  0.14028631  1
  O  O20  1  0.24499023  0.12249511  0.14028631  1
  O  O21  1  0.73721858  0.61472346  0.14028631  1
  O  O22  1  0.26278142  0.87750489  0.85971369  1
  O  O23  1  0.75500977  0.87750489  0.85971369  1
  O  O24  1  0.26278142  0.38527654  0.85971369  1
  O  O25  1  0.21670724  0.36249658  0.42079618  1
  O  O26  1  0.72499315  0.36249658  0.42079618  1
  O  O27  1  0.21670724  0.85421066  0.42079618  1
  O  O28  1  0.78329276  0.63750342  0.57920382  1
  O  O29  1  0.27500685  0.63750342  0.57920382  1
  O  O30  1  0.78329276  0.14578934  0.57920382  1
  O  O31  1  0.00000000  0.50000000  -0.00000000  1
  O  O32  1  0.50000000  0.00000000  -0.00000000  1
  O  O33  1  0.50000000  0.50000000  -0.00000000  1
