# generated using pymatgen
data_CaNd3Mn4O12
_symmetry_space_group_name_H-M   'P 1'
_cell_length_a   5.43699088
_cell_length_b   5.69207655
_cell_length_c   7.74918194
_cell_angle_alpha   90.00000000
_cell_angle_beta   90.00000000
_cell_angle_gamma   90.67075033
_symmetry_Int_Tables_number   1
_chemical_formula_structural   CaNd3Mn4O12
_chemical_formula_sum   'Ca1 Nd3 Mn4 O12'
_cell_volume   239.80345386
_cell_formula_units_Z   1
loop_
 _symmetry_equiv_pos_site_id
 _symmetry_equiv_pos_as_xyz
  1  'x, y, z'
loop_
 _atom_site_type_symbol
 _atom_site_label
 _atom_site_symmetry_multiplicity
 _atom_site_fract_x
 _atom_site_fract_y
 _atom_site_fract_z
 _atom_site_occupancy
  Ca  Ca0  1  0.51154284  0.55766399  0.25000000  1
  Nd  Nd1  1  0.98681030  0.06008876  0.25000000  1
  Nd  Nd2  1  0.48541111  0.44007663  0.75000000  1
  Nd  Nd3  1  0.01315630  0.94015123  0.75000000  1
  Mn  Mn4  1  0.99813032  0.50135880  0.00359954  1
  Mn  Mn5  1  0.50096243  0.99798830  0.49730049  1
  Mn  Mn6  1  0.99813032  0.50135880  0.49640046  1
  Mn  Mn7  1  0.50096243  0.99798830  0.00269951  1
  O  O8  1  0.41397426  0.97246675  0.25000000  1
  O  O9  1  0.08722058  0.47690413  0.25000000  1
  O  O10  1  0.58341645  0.02108181  0.75000000  1
  O  O11  1  0.91567721  0.51738785  0.75000000  1
  O  O12  1  0.28957622  0.70509923  0.54877074  1
  O  O13  1  0.21344183  0.19697067  0.95587674  1
  O  O14  1  0.70624834  0.29752181  0.04494647  1
  O  O15  1  0.79303634  0.80815062  0.46051115  1
  O  O16  1  0.70624834  0.29752181  0.45505353  1
  O  O17  1  0.79303634  0.80815062  0.03948885  1
  O  O18  1  0.28957622  0.70509923  0.95122926  1
  O  O19  1  0.21344183  0.19697067  0.54412326  1
