# generated using pymatgen
data_Ba4ZrNb9O18
_symmetry_space_group_name_H-M   'P 1'
_cell_length_a   5.99034037
_cell_length_b   5.99034037
_cell_length_c   13.16942930
_cell_angle_alpha   76.85397837
_cell_angle_beta   76.85397837
_cell_angle_gamma   90.00000000
_symmetry_Int_Tables_number   1
_chemical_formula_structural   Ba4ZrNb9O18
_chemical_formula_sum   'Ba4 Zr1 Nb9 O18'
_cell_volume   447.46257354
_cell_formula_units_Z   1
loop_
 _symmetry_equiv_pos_site_id
 _symmetry_equiv_pos_as_xyz
  1  'x, y, z'
loop_
 _atom_site_type_symbol
 _atom_site_label
 _atom_site_symmetry_multiplicity
 _atom_site_fract_x
 _atom_site_fract_y
 _atom_site_fract_z
 _atom_site_occupancy
  Ba  Ba0  1  0.16553162  0.16553162  0.66893675  1
  Ba  Ba1  1  0.66553162  0.66553162  0.66893675  1
  Ba  Ba2  1  0.33446838  0.33446838  0.33106325  1
  Ba  Ba3  1  0.83446838  0.83446838  0.33106325  1
  Zr  Zr4  1  0.25000000  0.75000000  0.50000000  1
  Nb  Nb5  1  0.08121271  0.58121271  0.83757457  1
  Nb  Nb6  1  0.58122083  0.08122083  0.83755834  1
  Nb  Nb7  1  0.41878729  0.91878729  0.16242543  1
  Nb  Nb8  1  0.91877917  0.41877917  0.16244166  1
  Nb  Nb9  1  0.75000000  0.25000000  0.00000000  1
  Nb  Nb10  1  0.25000000  0.75000000  0.00000000  1
  Nb  Nb11  1  0.25000000  0.25000000  0.00000000  1
  Nb  Nb12  1  0.75000000  0.75000000  0.00000000  1
  Nb  Nb13  1  0.75000000  0.25000000  0.50000000  1
  O  O14  1  0.50576624  0.00576624  0.50000000  1
  O  O15  1  0.99423376  0.49423376  0.50000000  1
  O  O16  1  0.99423376  0.00576624  0.50000000  1
  O  O17  1  0.50576624  0.49423376  0.50000000  1
  O  O18  1  0.16689822  0.66689822  0.66620356  1
  O  O19  1  0.66957767  0.16957767  0.66084467  1
  O  O20  1  0.33310178  0.83310178  0.33379644  1
  O  O21  1  0.83042233  0.33042233  0.33915533  1
  O  O22  1  0.50000000  0.50000000  0.00000000  1
  O  O23  1  -0.00000000  -0.00000000  0.00000000  1
  O  O24  1  0.33580988  0.83580988  0.82856472  1
  O  O25  1  0.83562540  0.33562540  0.82856472  1
  O  O26  1  0.83562540  0.83580988  0.82856472  1
  O  O27  1  0.33580988  0.33562540  0.82856472  1
  O  O28  1  0.66437460  0.16437460  0.17143528  1
  O  O29  1  0.16419012  0.66419012  0.17143528  1
  O  O30  1  0.16419012  0.16437460  0.17143528  1
  O  O31  1  0.66437460  0.66419012  0.17143528  1
