# generated using pymatgen
data_Ca4Mg3Si8NiO24
_symmetry_space_group_name_H-M   'P 1'
_cell_length_a   5.32137346
_cell_length_b   9.85002686
_cell_length_c   9.03312768
_cell_angle_alpha   90.00000000
_cell_angle_beta   90.00000000
_cell_angle_gamma   105.34652654
_symmetry_Int_Tables_number   1
_chemical_formula_structural   Ca4Mg3Si8NiO24
_chemical_formula_sum   'Ca4 Mg3 Si8 Ni1 O24'
_cell_volume   456.59458499
_cell_formula_units_Z   1
loop_
 _symmetry_equiv_pos_site_id
 _symmetry_equiv_pos_as_xyz
  1  'x, y, z'
loop_
 _atom_site_type_symbol
 _atom_site_label
 _atom_site_symmetry_multiplicity
 _atom_site_fract_x
 _atom_site_fract_y
 _atom_site_fract_z
 _atom_site_occupancy
  Ca  Ca0  1  0.25000000  0.50000000  0.79913988  1
  Ca  Ca1  1  0.75000000  -0.00000000  0.29929768  1
  Ca  Ca2  1  0.75000000  0.50000000  0.20132678  1
  Ca  Ca3  1  0.25000000  -0.00000000  0.70070528  1
  Mg  Mg4  1  0.75000000  -0.00000000  0.90728308  1
  Mg  Mg5  1  0.75000000  0.50000000  0.59236445  1
  Mg  Mg6  1  0.25000000  -0.00000000  0.09272793  1
  Si  Si7  1  0.44210369  0.71325686  0.09257826  1
  Si  Si8  1  0.94280191  0.21328435  0.59239615  1
  Si  Si9  1  0.05789631  0.28674314  0.09257826  1
  Si  Si10  1  0.55719809  0.78671565  0.59239615  1
  Si  Si11  1  0.55744827  0.28664612  0.90738096  1
  Si  Si12  1  0.05797257  0.78672839  0.40733344  1
  Si  Si13  1  0.94255173  0.71335388  0.90738096  1
  Si  Si14  1  0.44202743  0.21327161  0.40733344  1
  Ni  Ni15  1  0.25000000  0.50000000  0.40731933  1
  O  O16  1  0.52526219  0.88416055  0.08656666  1
  O  O17  1  0.02524345  0.38428269  0.58671987  1
  O  O18  1  0.97473781  0.11583945  0.08656666  1
  O  O19  1  0.47475655  0.61571731  0.58671987  1
  O  O20  1  0.47475476  0.11577642  0.91344653  1
  O  O21  1  0.97433401  0.61571997  0.41348873  1
  O  O22  1  0.02524524  0.88422358  0.91344653  1
  O  O23  1  0.52566599  0.38428003  0.41348873  1
  O  O24  1  0.45894155  0.63708714  0.24813147  1
  O  O25  1  0.95820157  0.13694752  0.74801150  1
  O  O26  1  0.04105845  0.36291286  0.24813147  1
  O  O27  1  0.54179843  0.86305248  0.74801150  1
  O  O28  1  0.54185080  0.36308790  0.75194049  1
  O  O29  1  0.04174250  0.86313132  0.25194586  1
  O  O30  1  0.95814920  0.63691210  0.75194049  1
  O  O31  1  0.45825750  0.13686868  0.25194586  1
  O  O32  1  0.14422164  0.65004561  0.01849753  1
  O  O33  1  0.64424547  0.15010520  0.51849687  1
  O  O34  1  0.35577836  0.34995439  0.01849753  1
  O  O35  1  0.85575453  0.84989480  0.51849687  1
  O  O36  1  0.85574777  0.34991669  0.98152542  1
  O  O37  1  0.35575856  0.85002885  0.48145805  1
  O  O38  1  0.64425223  0.65008331  0.98152542  1
  O  O39  1  0.14424144  0.14997115  0.48145805  1
