# generated using pymatgen
data_CaLu2(GeO3)4
_symmetry_space_group_name_H-M   'P 1'
_cell_length_a   5.05183310
_cell_length_b   10.00289017
_cell_length_c   10.00289017
_cell_angle_alpha   89.85940719
_cell_angle_beta   90.00000000
_cell_angle_gamma   90.00000000
_symmetry_Int_Tables_number   1
_chemical_formula_structural   CaLu2(GeO3)4
_chemical_formula_sum   'Ca2 Lu4 Ge8 O24'
_cell_volume   505.47384341
_cell_formula_units_Z   2
loop_
 _symmetry_equiv_pos_site_id
 _symmetry_equiv_pos_as_xyz
  1  'x, y, z'
loop_
 _atom_site_type_symbol
 _atom_site_label
 _atom_site_symmetry_multiplicity
 _atom_site_fract_x
 _atom_site_fract_y
 _atom_site_fract_z
 _atom_site_occupancy
  Ca  Ca0  1  0.50000000  0.50000000  0.50000000  1
  Ca  Ca1  1  0.50000000  -0.00000000  -0.00000000  1
  Lu  Lu2  1  0.50000000  -0.00000000  0.50000000  1
  Lu  Lu3  1  0.50000000  0.50000000  -0.00000000  1
  Lu  Lu4  1  0.50000000  0.75000000  0.75000000  1
  Lu  Lu5  1  0.50000000  0.25000000  0.25000000  1
  Ge  Ge6  1  0.99780825  0.74936977  0.01837169  1
  Ge  Ge7  1  0.00219175  0.25063023  0.98162831  1
  Ge  Ge8  1  0.00219175  0.24936977  0.51837169  1
  Ge  Ge9  1  0.99780825  0.75063023  0.48162831  1
  Ge  Ge10  1  0.00219175  0.01837169  0.74936977  1
  Ge  Ge11  1  0.99780825  0.98162831  0.25063023  1
  Ge  Ge12  1  0.99780825  0.51837169  0.24936977  1
  Ge  Ge13  1  0.00219175  0.48162831  0.75063023  1
  O  O14  1  0.25224746  0.57397665  0.67696590  1
  O  O15  1  0.26509445  0.05822195  0.32970067  1
  O  O16  1  0.26509445  0.44177805  0.17029933  1
  O  O17  1  0.25224746  0.92602335  0.82303410  1
  O  O18  1  0.74775254  0.42602335  0.32303410  1
  O  O19  1  0.73490555  0.94177805  0.67029933  1
  O  O20  1  0.73490555  0.55822195  0.82970067  1
  O  O21  1  0.74775254  0.07397665  0.17696590  1
  O  O22  1  0.74775254  0.67696590  0.57397665  1
  O  O23  1  0.73490555  0.32970067  0.05822195  1
  O  O24  1  0.73490555  0.17029933  0.44177805  1
  O  O25  1  0.74775254  0.82303410  0.92602335  1
  O  O26  1  0.25224746  0.32303410  0.42602335  1
  O  O27  1  0.26509445  0.67029933  0.94177805  1
  O  O28  1  0.26509445  0.82970067  0.55822195  1
  O  O29  1  0.25224746  0.17696590  0.07397665  1
  O  O30  1  0.15052577  0.86987534  0.13012466  1
  O  O31  1  0.17096506  0.37808581  0.87808581  1
  O  O32  1  0.17096506  0.12191419  0.62191419  1
  O  O33  1  0.15052577  0.63012466  0.36987534  1
  O  O34  1  0.84947423  0.13012466  0.86987534  1
  O  O35  1  0.82903494  0.62191419  0.12191419  1
  O  O36  1  0.82903494  0.87808581  0.37808581  1
  O  O37  1  0.84947423  0.36987534  0.63012466  1
