# generated using pymatgen
data_CaTbMn2O6
_symmetry_space_group_name_H-M   'P 1'
_cell_length_a   5.37277122
_cell_length_b   5.55389104
_cell_length_c   7.58551583
_cell_angle_alpha   90.00000000
_cell_angle_beta   90.00000000
_cell_angle_gamma   90.00000000
_symmetry_Int_Tables_number   1
_chemical_formula_structural   CaTbMn2O6
_chemical_formula_sum   'Ca2 Tb2 Mn4 O12'
_cell_volume   226.35016860
_cell_formula_units_Z   2
loop_
 _symmetry_equiv_pos_site_id
 _symmetry_equiv_pos_as_xyz
  1  'x, y, z'
loop_
 _atom_site_type_symbol
 _atom_site_label
 _atom_site_symmetry_multiplicity
 _atom_site_fract_x
 _atom_site_fract_y
 _atom_site_fract_z
 _atom_site_occupancy
  Ca  Ca0  1  0.48979125  0.44916505  0.25000000  1
  Ca  Ca1  1  0.98979125  0.05083495  0.75000000  1
  Tb  Tb2  1  0.01555803  0.93932717  0.25000000  1
  Tb  Tb3  1  0.51555803  0.56067283  0.75000000  1
  Mn  Mn4  1  0.00043379  0.49632560  -0.00002433  1
  Mn  Mn5  1  0.50043379  0.00367440  0.49997567  1
  Mn  Mn6  1  0.00043379  0.49632560  0.50002433  1
  Mn  Mn7  1  0.50043379  0.00367440  0.00002433  1
  O  O8  1  0.19880251  0.19945968  0.04844019  1
  O  O9  1  0.29148023  0.70950327  0.45379573  1
  O  O10  1  0.79148023  0.79049673  0.54620427  1
  O  O11  1  0.69880251  0.30054032  0.95155981  1
  O  O12  1  0.79148023  0.79049673  0.95379573  1
  O  O13  1  0.69880251  0.30054032  0.54844019  1
  O  O14  1  0.19880251  0.19945968  0.45155981  1
  O  O15  1  0.29148023  0.70950327  0.04620427  1
  O  O16  1  0.59782705  0.02467237  0.25000000  1
  O  O17  1  0.91539063  0.53004723  0.25000000  1
  O  O18  1  0.41539063  0.96995277  0.75000000  1
  O  O19  1  0.09782705  0.47532763  0.75000000  1
