# generated using pymatgen
data_CaNdMn2O6
_symmetry_space_group_name_H-M   'P 1'
_cell_length_a   5.45427077
_cell_length_b   5.52702757
_cell_length_c   7.69558485
_cell_angle_alpha   90.00000000
_cell_angle_beta   90.00000000
_cell_angle_gamma   90.00000000
_symmetry_Int_Tables_number   1
_chemical_formula_structural   CaNdMn2O6
_chemical_formula_sum   'Ca2 Nd2 Mn4 O12'
_cell_volume   231.99036919
_cell_formula_units_Z   2
loop_
 _symmetry_equiv_pos_site_id
 _symmetry_equiv_pos_as_xyz
  1  'x, y, z'
loop_
 _atom_site_type_symbol
 _atom_site_label
 _atom_site_symmetry_multiplicity
 _atom_site_fract_x
 _atom_site_fract_y
 _atom_site_fract_z
 _atom_site_occupancy
  Ca  Ca0  1  0.50659589  0.54255093  0.25000000  1
  Ca  Ca1  1  0.00659589  0.95744907  0.75000000  1
  Nd  Nd2  1  0.98981264  0.04430674  0.25000000  1
  Nd  Nd3  1  0.48981264  0.45569326  0.75000000  1
  Mn  Mn4  1  0.99967388  0.50207504  0.00017541  1
  Mn  Mn5  1  0.49967388  0.99792496  0.50017541  1
  Mn  Mn6  1  0.99967388  0.50207504  0.49982459  1
  Mn  Mn7  1  0.49967388  0.99792496  0.99982459  1
  O  O8  1  0.42316617  0.98128805  0.25000000  1
  O  O9  1  0.07713011  0.48065064  0.25000000  1
  O  O10  1  0.57713011  0.01934936  0.75000000  1
  O  O11  1  0.92316617  0.51871195  0.75000000  1
  O  O12  1  0.79104399  0.79135257  0.03869116  1
  O  O13  1  0.71092973  0.28911818  0.45818112  1
  O  O14  1  0.21092973  0.21088182  0.54181888  1
  O  O15  1  0.29104399  0.70864743  0.96130884  1
  O  O16  1  0.21092973  0.21088182  0.95818112  1
  O  O17  1  0.29104399  0.70864743  0.53869116  1
  O  O18  1  0.79104399  0.79135257  0.46130884  1
  O  O19  1  0.71092973  0.28911818  0.04181888  1
