# generated using pymatgen
data_Ca6AlCr3(SiO4)6
_symmetry_space_group_name_H-M   'P 1'
_cell_length_a   10.50218030
_cell_length_b   10.50218030
_cell_length_c   10.47035872
_cell_angle_alpha   70.53663069
_cell_angle_beta   70.52154983
_cell_angle_gamma   109.59464604
_symmetry_Int_Tables_number   1
_chemical_formula_structural   Ca6AlCr3(SiO4)6
_chemical_formula_sum   'Ca12 Al2 Cr6 Si12 O48'
_cell_volume   887.64262351
_cell_formula_units_Z   2
loop_
 _symmetry_equiv_pos_site_id
 _symmetry_equiv_pos_as_xyz
  1  'x, y, z'
loop_
 _atom_site_type_symbol
 _atom_site_label
 _atom_site_symmetry_multiplicity
 _atom_site_fract_x
 _atom_site_fract_y
 _atom_site_fract_z
 _atom_site_occupancy
  Ca  Ca0  1  0.37502997  0.62502997  0.25000000  1
  Ca  Ca1  1  0.12542972  0.87542972  0.75000000  1
  Ca  Ca2  1  0.37543594  0.75025377  0.87477851  1
  Ca  Ca3  1  0.12503228  0.25021445  0.62522149  1
  Ca  Ca4  1  0.25020321  0.62519844  0.62457756  1
  Ca  Ca5  1  0.74977600  0.87478077  0.87542244  1
  Ca  Ca6  1  0.62497003  0.37497003  0.75000000  1
  Ca  Ca7  1  0.87457028  0.12457028  0.25000000  1
  Ca  Ca8  1  0.62456406  0.24974623  0.12522149  1
  Ca  Ca9  1  0.87496772  0.74978555  0.37477851  1
  Ca  Ca10  1  0.74979679  0.37480156  0.37542244  1
  Ca  Ca11  1  0.25022400  0.12521923  0.12457756  1
  Al  Al12  1  0.50000000  0.00000000  0.00000000  1
  Al  Al13  1  0.50000000  0.50000000  0.50000000  1
  Cr  Cr14  1  0.00000000  0.50000000  0.00000000  1
  Cr  Cr15  1  0.00000000  0.00000000  0.50000000  1
  Cr  Cr16  1  0.50000000  0.50000000  0.00000000  1
  Cr  Cr17  1  0.50000000  0.00000000  0.50000000  1
  Cr  Cr18  1  0.00000000  0.50000000  0.50000000  1
  Cr  Cr19  1  0.00000000  0.00000000  0.00000000  1
  Si  Si20  1  0.12468358  0.37468358  0.25000000  1
  Si  Si21  1  0.37693812  0.12693812  0.75000000  1
  Si  Si22  1  0.62404100  0.74785786  0.62393272  1
  Si  Si23  1  0.87179057  0.24797371  0.87606728  1
  Si  Si24  1  0.25210914  0.87646079  0.37209391  1
  Si  Si25  1  0.74855471  0.62420305  0.12790609  1
  Si  Si26  1  0.87531642  0.62531642  0.75000000  1
  Si  Si27  1  0.62306188  0.87306188  0.25000000  1
  Si  Si28  1  0.37595900  0.25214214  0.37606728  1
  Si  Si29  1  0.12820943  0.75202629  0.12393272  1
  Si  Si30  1  0.74789086  0.12353921  0.62790609  1
  Si  Si31  1  0.25144529  0.37579695  0.87209391  1
  O  O32  1  0.50751724  0.31082358  0.60628083  1
  O  O33  1  0.41710441  0.11379806  0.89371917  1
  O  O34  1  0.08717988  0.19421700  0.29648475  1
  O  O35  1  0.99070174  0.38366463  0.20351525  1
  O  O36  1  0.68873858  0.19634914  0.91641301  1
  O  O37  1  0.88273463  0.29635755  0.00916072  1
  O  O38  1  0.80551827  0.89189535  0.49083928  1
  O  O39  1  0.61276215  0.60515159  0.58358699  1
  O  O40  1  0.79642861  0.49130064  0.11698365  1
  O  O41  1  0.69637104  0.58337442  0.31167358  1
  O  O42  1  0.10828429  0.91341226  0.38301635  1
  O  O43  1  0.39504801  0.00804462  0.18832642  1
  O  O44  1  0.49248276  0.68917642  0.39371917  1
  O  O45  1  0.58289559  0.88620194  0.10628083  1
  O  O46  1  0.91282012  0.80578300  0.70351525  1
  O  O47  1  0.00929826  0.61633537  0.79648475  1
  O  O48  1  0.31126142  0.80365086  0.08358699  1
  O  O49  1  0.11726537  0.70364245  0.99083928  1
  O  O50  1  0.19448173  0.10810465  0.50916072  1
  O  O51  1  0.38723785  0.39484841  0.41641301  1
  O  O52  1  0.20357139  0.50869936  0.88301635  1
  O  O53  1  0.30362896  0.41662558  0.68832642  1
  O  O54  1  0.89171571  0.08658774  0.61698365  1
  O  O55  1  0.60495199  0.99195538  0.81167358  1
  O  O56  1  0.49075828  0.79634089  0.61607905  1
  O  O57  1  0.58730768  0.70286237  0.80513471  1
  O  O58  1  0.91241994  0.10683733  0.88392095  1
  O  O59  1  0.00799708  0.39244238  0.69486529  1
  O  O60  1  0.30610483  0.50963372  0.10666259  1
  O  O61  1  0.11629631  0.41276742  0.39333741  1
  O  O62  1  0.19535470  0.08765190  0.79700020  1
  O  O63  1  0.38465211  0.99235491  0.70299980  1
  O  O64  1  0.20376430  0.69440778  0.41235462  1
  O  O65  1  0.29725091  0.88449906  0.50787188  1
  O  O66  1  0.89237094  0.80512279  0.99212812  1
  O  O67  1  0.60676240  0.61611892  0.08764538  1
  O  O68  1  0.50924172  0.20365911  0.38392095  1
  O  O69  1  0.41269232  0.29713763  0.19486529  1
  O  O70  1  0.08758006  0.89316267  0.11607905  1
  O  O71  1  0.99200292  0.60755762  0.30513471  1
  O  O72  1  0.69389517  0.49036628  0.89333741  1
  O  O73  1  0.88370369  0.58723258  0.60666259  1
  O  O74  1  0.80464530  0.91234810  0.20299980  1
  O  O75  1  0.61534789  0.00764509  0.29700020  1
  O  O76  1  0.79623570  0.30559222  0.58764538  1
  O  O77  1  0.70274909  0.11550094  0.49212812  1
  O  O78  1  0.10762906  0.19487721  0.00787188  1
  O  O79  1  0.39323760  0.38388108  0.91235462  1
