# generated using pymatgen
data_BaSrMgSi2O7
_symmetry_space_group_name_H-M   'P 1'
_cell_length_a   5.34452172
_cell_length_b   8.20722512
_cell_length_c   8.21702544
_cell_angle_alpha   90.00000000
_cell_angle_beta   90.00000000
_cell_angle_gamma   88.98325659
_symmetry_Int_Tables_number   1
_chemical_formula_structural   BaSrMgSi2O7
_chemical_formula_sum   'Ba2 Sr2 Mg2 Si4 O14'
_cell_volume   360.37233169
_cell_formula_units_Z   2
loop_
 _symmetry_equiv_pos_site_id
 _symmetry_equiv_pos_as_xyz
  1  'x, y, z'
loop_
 _atom_site_type_symbol
 _atom_site_label
 _atom_site_symmetry_multiplicity
 _atom_site_fract_x
 _atom_site_fract_y
 _atom_site_fract_z
 _atom_site_occupancy
  Ba  Ba0  1  0.51233382  0.66283278  0.83520076  1
  Ba  Ba1  1  0.48766618  0.83716722  0.33520076  1
  Sr  Sr2  1  0.50551012  0.33241443  0.16896957  1
  Sr  Sr3  1  0.49448988  0.16758557  0.66896957  1
  Mg  Mg4  1  0.00086511  0.49746660  0.49869816  1
  Mg  Mg5  1  0.99913489  0.00253340  0.99869816  1
  Si  Si6  1  0.94553138  0.14801731  0.36231573  1
  Si  Si7  1  0.05446862  0.35198269  0.86231573  1
  Si  Si8  1  0.95465417  0.87292335  0.63773428  1
  Si  Si9  1  0.04534583  0.62707665  0.13773428  1
  O  O10  1  0.15220142  0.48895980  0.00105577  1
  O  O11  1  0.84779858  0.01104020  0.50105577  1
  O  O12  1  0.79509177  0.31544067  0.42010560  1
  O  O13  1  0.20490823  0.18455933  0.92010560  1
  O  O14  1  0.83221594  0.70006350  0.57734932  1
  O  O15  1  0.16778406  0.79993650  0.07734932  1
  O  O16  1  0.19016273  0.56935716  0.30567958  1
  O  O17  1  0.80983727  0.93064284  0.80567958  1
  O  O18  1  0.18535891  0.41194273  0.69104374  1
  O  O19  1  0.81464109  0.08805727  0.19104374  1
  O  O20  1  0.24843246  0.15423648  0.36035813  1
  O  O21  1  0.75156754  0.34576352  0.86035813  1
  O  O22  1  0.25729666  0.87525392  0.64148936  1
  O  O23  1  0.74270334  0.62474608  0.14148936  1
