# generated using pymatgen
data_RbYb(MoO4)2
_symmetry_space_group_name_H-M   'P 1'
_cell_length_a   7.59616705
_cell_length_b   7.59616705
_cell_length_c   7.78746805
_cell_angle_alpha   62.07981155
_cell_angle_beta   62.07981155
_cell_angle_gamma   88.38070896
_symmetry_Int_Tables_number   1
_chemical_formula_structural   RbYb(MoO4)2
_chemical_formula_sum   'Rb2 Yb2 Mo4 O16'
_cell_volume   340.17145661
_cell_formula_units_Z   2
loop_
 _symmetry_equiv_pos_site_id
 _symmetry_equiv_pos_as_xyz
  1  'x, y, z'
loop_
 _atom_site_type_symbol
 _atom_site_label
 _atom_site_symmetry_multiplicity
 _atom_site_fract_x
 _atom_site_fract_y
 _atom_site_fract_z
 _atom_site_occupancy
  Rb  Rb0  1  0.80165531  0.19834469  0.75000000  1
  Rb  Rb1  1  0.19834469  0.80165531  0.25000000  1
  Yb  Yb2  1  0.22943335  0.77056665  0.75000000  1
  Yb  Yb3  1  0.77056665  0.22943335  0.25000000  1
  Mo  Mo4  1  0.30254831  0.30192696  0.74026965  1
  Mo  Mo5  1  0.69745169  0.69807304  0.25973035  1
  Mo  Mo6  1  0.69807304  0.69745169  0.75973035  1
  Mo  Mo7  1  0.30192696  0.30254831  0.24026965  1
  O  O8  1  0.38387069  0.23510606  0.94049164  1
  O  O9  1  0.61612931  0.76489394  0.05950836  1
  O  O10  1  0.76489394  0.61612931  0.55950836  1
  O  O11  1  0.23510606  0.38387069  0.44049164  1
  O  O12  1  0.61672655  0.92893537  0.63076692  1
  O  O13  1  0.38327345  0.07106463  0.36923308  1
  O  O14  1  0.07106463  0.38327345  0.86923308  1
  O  O15  1  0.92893537  0.61672655  0.13076692  1
  O  O16  1  0.41891140  0.63015594  0.52725341  1
  O  O17  1  0.58108860  0.36984406  0.47274659  1
  O  O18  1  0.36984406  0.58108860  0.97274659  1
  O  O19  1  0.63015594  0.41891140  0.02725341  1
  O  O20  1  0.20873401  0.05099399  0.80642355  1
  O  O21  1  0.79126599  0.94900601  0.19357645  1
  O  O22  1  0.94900601  0.79126599  0.69357645  1
  O  O23  1  0.05099399  0.20873401  0.30642355  1
