# generated using pymatgen
data_Ca2Zr5Ti2O16
_symmetry_space_group_name_H-M   'P 1'
_cell_length_a   10.25356280
_cell_length_b   12.04193062
_cell_length_c   12.04193062
_cell_angle_alpha   100.50648199
_cell_angle_beta   115.19777416
_cell_angle_gamma   64.80222584
_symmetry_Int_Tables_number   1
_chemical_formula_structural   Ca2Zr5Ti2O16
_chemical_formula_sum   'Ca8 Zr20 Ti8 O64'
_cell_volume   1217.34502193
_cell_formula_units_Z   4
loop_
 _symmetry_equiv_pos_site_id
 _symmetry_equiv_pos_as_xyz
  1  'x, y, z'
loop_
 _atom_site_type_symbol
 _atom_site_label
 _atom_site_symmetry_multiplicity
 _atom_site_fract_x
 _atom_site_fract_y
 _atom_site_fract_z
 _atom_site_occupancy
  Ca  Ca0  1  0.95757438  0.08645690  0.24959227  1
  Ca  Ca1  1  0.45757438  0.75040773  0.91354310  1
  Ca  Ca2  1  0.04203163  0.91687900  0.74955303  1
  Ca  Ca3  1  0.54203163  0.25044697  0.08312100  1
  Ca  Ca4  1  0.79064240  0.75044697  0.58312100  1
  Ca  Ca5  1  0.29064240  0.41687900  0.24955303  1
  Ca  Ca6  1  0.20556099  0.25040773  0.41354310  1
  Ca  Ca7  1  0.70556099  0.58645690  0.74959227  1
  Zr  Zr8  1  0.80142138  0.10751837  0.92817829  1
  Zr  Zr9  1  0.30142138  0.07182171  0.89248163  1
  Zr  Zr10  1  0.91388020  0.88951896  0.43093062  1
  Zr  Zr11  1  0.41388020  0.56906938  0.11048104  1
  Zr  Zr12  1  0.19716817  0.89358057  0.06733300  1
  Zr  Zr13  1  0.69716817  0.93266700  0.10641943  1
  Zr  Zr14  1  0.09398516  0.10469828  0.56968108  1
  Zr  Zr15  1  0.59398516  0.43031892  0.89530172  1
  Zr  Zr16  1  0.97658426  0.43266700  0.60641943  1
  Zr  Zr17  1  0.47658426  0.39358057  0.56733300  1
  Zr  Zr18  1  0.37099764  0.93031892  0.39530172  1
  Zr  Zr19  1  0.87099764  0.60469828  0.06968108  1
  Zr  Zr20  1  0.01923854  0.57182171  0.39248163  1
  Zr  Zr21  1  0.51923854  0.60751837  0.42817829  1
  Zr  Zr22  1  0.62753146  0.06906938  0.61048104  1
  Zr  Zr23  1  0.12753146  0.38951896  0.93093062  1
  Zr  Zr24  1  0.60976980  0.78052761  0.24890937  1
  Zr  Zr25  1  0.10976980  0.75109063  0.21947239  1
  Zr  Zr26  1  0.85861197  0.25109063  0.71947239  1
  Zr  Zr27  1  0.35861197  0.28052761  0.74890937  1
  Ti  Ti28  1  0.29496185  0.75045500  0.58052933  1
  Ti  Ti29  1  0.79496185  0.41947067  0.24954500  1
  Ti  Ti30  1  0.03511247  0.25045500  0.08052933  1
  Ti  Ti31  1  0.53511247  0.91947067  0.74954500  1
  Ti  Ti32  1  0.70777703  0.24965923  0.40692743  1
  Ti  Ti33  1  0.20777703  0.59307257  0.75034077  1
  Ti  Ti34  1  0.94949117  0.74965923  0.90692743  1
  Ti  Ti35  1  0.44949117  0.09307257  0.25034077  1
  O  O36  1  0.93899260  0.39589708  0.76310808  1
  O  O37  1  0.43899260  0.23689192  0.60410292  1
  O  O38  1  0.33290753  0.60508410  0.26347537  1
  O  O39  1  0.83290753  0.73652463  0.39491590  1
  O  O40  1  0.06035650  0.60357187  0.23639718  1
  O  O41  1  0.56035650  0.76360282  0.39642813  1
  O  O42  1  0.66122113  0.39814266  0.73610274  1
  O  O43  1  0.16122113  0.26389726  0.60185734  1
  O  O44  1  0.57246881  0.26360282  0.89642813  1
  O  O45  1  0.07246881  0.10357187  0.73639718  1
  O  O46  1  0.67673895  0.76389726  0.10185734  1
  O  O47  1  0.17673895  0.89814266  0.23610274  1
  O  O48  1  0.42821841  0.73689192  0.10410292  1
  O  O49  1  0.92821841  0.89589708  0.26310808  1
  O  O50  1  0.32548373  0.23652463  0.89491590  1
  O  O51  1  0.82548373  0.10508410  0.76347537  1
  O  O52  1  0.05024935  0.57176835  0.58607734  1
  O  O53  1  0.55024935  0.41392266  0.42823165  1
  O  O54  1  0.62313492  0.42814232  0.08541034  1
  O  O55  1  0.12313492  0.91458966  0.57185768  1
  O  O56  1  0.94805255  0.42929527  0.41587979  1
  O  O57  1  0.44805255  0.58412021  0.57070473  1
  O  O58  1  0.37871506  0.57110893  0.91562205  1
  O  O59  1  0.87871506  0.08437795  0.42889107  1
  O  O60  1  0.03853197  0.08412021  0.07070473  1
  O  O61  1  0.53853197  0.92929527  0.91587979  1
  O  O62  1  0.96579806  0.58437795  0.92889107  1
  O  O63  1  0.46579806  0.07110893  0.41562205  1
  O  O64  1  0.96405964  0.91392266  0.92823165  1
  O  O65  1  0.46405964  0.07176835  0.08607734  1
  O  O66  1  0.03413310  0.41458966  0.07185768  1
  O  O67  1  0.53413310  0.92814232  0.58541034  1
  O  O68  1  0.39199373  0.94243653  0.22117652  1
  O  O69  1  0.89199373  0.77882348  0.05756347  1
  O  O70  1  0.33016084  0.04869391  0.71756377  1
  O  O71  1  0.83016084  0.28243623  0.95130609  1
  O  O72  1  0.62302111  0.04772619  0.78237108  1
  O  O73  1  0.12302111  0.21762892  0.95227381  1
  O  O74  1  0.66718827  0.94118458  0.27838731  1
  O  O75  1  0.16718827  0.72161269  0.05881542  1
  O  O76  1  0.11162378  0.71762892  0.45227381  1
  O  O77  1  0.61162378  0.54772619  0.28237108  1
  O  O78  1  0.67001446  0.22161269  0.55881542  1
  O  O79  1  0.17001446  0.44118458  0.77838731  1
  O  O80  1  0.88674627  0.27882348  0.55756347  1
  O  O81  1  0.38674627  0.44243653  0.72117652  1
  O  O82  1  0.33870902  0.78243623  0.45130609  1
  O  O83  1  0.83870902  0.54869391  0.21756377  1
  O  O84  1  0.74874923  0.57086804  0.57052477  1
  O  O85  1  0.24874923  0.42947523  0.42913196  1
  O  O86  1  0.32034129  0.42965871  0.07034129  1
  O  O87  1  0.82034129  0.92965871  0.57034129  1
  O  O88  1  0.67911549  0.57088451  0.92911549  1
  O  O89  1  0.17911549  0.07088451  0.42911549  1
  O  O90  1  0.75090751  0.07086804  0.07052477  1
  O  O91  1  0.25090751  0.92947523  0.92913196  1
  O  O92  1  0.25115475  0.71167421  0.71307028  1
  O  O93  1  0.75115475  0.28692972  0.28832579  1
  O  O94  1  0.96275199  0.28724801  0.21275199  1
  O  O95  1  0.46275199  0.78724801  0.71275199  1
  O  O96  1  0.03907814  0.71092186  0.78907814  1
  O  O97  1  0.53907814  0.21092186  0.28907814  1
  O  O98  1  0.25024132  0.21167421  0.21307028  1
  O  O99  1  0.75024132  0.78692972  0.78832579  1
