# generated using pymatgen
data_Ba4SrRe3ClO15
_symmetry_space_group_name_H-M   'P 1'
_cell_length_a   7.89237223
_cell_length_b   11.00379711
_cell_length_c   11.00379699
_cell_angle_alpha   59.99964100
_cell_angle_beta   89.99970891
_cell_angle_gamma   90.00029105
_symmetry_Int_Tables_number   1
_chemical_formula_structural   Ba4SrRe3ClO15
_chemical_formula_sum   'Ba8 Sr2 Re6 Cl2 O30'
_cell_volume   827.60244331
_cell_formula_units_Z   2
loop_
 _symmetry_equiv_pos_site_id
 _symmetry_equiv_pos_as_xyz
  1  'x, y, z'
loop_
 _atom_site_type_symbol
 _atom_site_label
 _atom_site_symmetry_multiplicity
 _atom_site_fract_x
 _atom_site_fract_y
 _atom_site_fract_z
 _atom_site_occupancy
  Ba  Ba0  1  0.76068719  0.73603607  0.26396393  1
  Ba  Ba1  1  0.76069704  0.26395082  0.00001247  1
  Ba  Ba2  1  0.76069704  0.99998753  0.73604918  1
  Ba  Ba3  1  0.26030542  0.26390182  0.73609818  1
  Ba  Ba4  1  0.26033350  0.73609770  0.99998730  1
  Ba  Ba5  1  0.26033350  0.00001270  0.26390230  1
  Ba  Ba6  1  0.50149840  0.33331912  0.33335282  1
  Ba  Ba7  1  0.50149840  0.66664718  0.66668088  1
  Sr  Sr8  1  0.00478125  0.66670396  0.66662721  1
  Sr  Sr9  1  0.00478125  0.33337279  0.33329604  1
  Re  Re10  1  0.20168030  0.60908388  0.39091612  1
  Re  Re11  1  0.20170409  0.39090156  0.00000198  1
  Re  Re12  1  0.20170409  -0.00000198  0.60909844  1
  Re  Re13  1  0.70588448  0.39047441  0.60952559  1
  Re  Re14  1  0.70590853  0.60954647  0.00000593  1
  Re  Re15  1  0.70590853  -0.00000593  0.39045353  1
  Cl  Cl16  1  0.03530343  0.00000381  0.99999619  1
  Cl  Cl17  1  0.53529385  0.99999504  0.00000496  1
  O  O18  1  0.05996220  0.60814889  0.25772891  1
  O  O19  1  0.05996749  0.25773411  0.13412234  1
  O  O20  1  0.05996732  0.13411318  0.60815477  1
  O  O21  1  0.05996220  0.74227109  0.39185111  1
  O  O22  1  0.05996749  0.86587766  0.74226589  1
  O  O23  1  0.05996732  0.39184523  0.86588682  1
  O  O24  1  0.56172634  0.38973283  0.74270388  1
  O  O25  1  0.56173430  0.74269599  0.86756474  1
  O  O26  1  0.56174096  0.86756363  0.38973928  1
  O  O27  1  0.56172634  0.25729612  0.61026717  1
  O  O28  1  0.56173430  0.13243526  0.25730401  1
  O  O29  1  0.56174096  0.61026072  0.13243637  1
  O  O30  1  0.24223905  0.42096419  0.44565859  1
  O  O31  1  0.24223356  0.44566502  0.13338553  1
  O  O32  1  0.24223815  0.13339225  0.42094593  1
  O  O33  1  0.24223905  0.55434141  0.57903581  1
  O  O34  1  0.24223356  0.86661447  0.55433498  1
  O  O35  1  0.24223815  0.57905407  0.86660775  1
  O  O36  1  0.75006813  0.57785960  0.55566051  1
  O  O37  1  0.75006469  0.55565010  0.86647527  1
  O  O38  1  0.75007359  0.86646657  0.57787241  1
  O  O39  1  0.75006813  0.44433949  0.42214040  1
  O  O40  1  0.75006469  0.13352473  0.44434990  1
  O  O41  1  0.75007359  0.42212759  0.13353343  1
  O  O42  1  0.37963350  0.70656787  0.29343213  1
  O  O43  1  0.37961805  0.29344837  -0.00000035  1
  O  O44  1  0.37961805  0.00000035  0.70655163  1
  O  O45  1  0.88123941  0.29172581  0.70827419  1
  O  O46  1  0.88122958  0.70825645  0.00000003  1
  O  O47  1  0.88122958  -0.00000003  0.29174355  1
