# generated using pymatgen
data_Ba2Fe4AsP3
_symmetry_space_group_name_H-M   'P 1'
_cell_length_a   5.45838940
_cell_length_b   5.46403600
_cell_length_c   6.81582406
_cell_angle_alpha   90.00000000
_cell_angle_beta   66.39554625
_cell_angle_gamma   90.00000000
_symmetry_Int_Tables_number   1
_chemical_formula_structural   Ba2Fe4AsP3
_chemical_formula_sum   'Ba2 Fe4 As1 P3'
_cell_volume   186.27265518
_cell_formula_units_Z   1
loop_
 _symmetry_equiv_pos_site_id
 _symmetry_equiv_pos_as_xyz
  1  'x, y, z'
loop_
 _atom_site_type_symbol
 _atom_site_label
 _atom_site_symmetry_multiplicity
 _atom_site_fract_x
 _atom_site_fract_y
 _atom_site_fract_z
 _atom_site_occupancy
  Ba  Ba0  1  0.50283364  0.50000000  0.99433273  1
  Ba  Ba1  1  0.00238125  0.00000000  0.99523751  1
  Fe  Fe2  1  0.00223034  0.24623194  0.50252674  1
  Fe  Fe3  1  0.49524292  0.75376806  0.50252674  1
  Fe  Fe4  1  0.49524292  0.24623194  0.50252674  1
  Fe  Fe5  1  0.00223034  0.75376806  0.50252674  1
  As  As6  1  0.84870586  0.50000000  0.30258829  1
  P  P7  1  0.33726333  0.00000000  0.32547334  1
  P  P8  1  0.66350908  -0.00000000  0.67298184  1
  P  P9  1  0.16446034  0.50000000  0.67107933  1
