# generated using pymatgen
data_Ba4Ge2Pb(S4Br)2
_symmetry_space_group_name_H-M   'P 1'
_cell_length_a   9.04818272
_cell_length_b   9.34902980
_cell_length_c   12.15722277
_cell_angle_alpha   90.00000000
_cell_angle_beta   90.00000000
_cell_angle_gamma   90.00000000
_symmetry_Int_Tables_number   1
_chemical_formula_structural   Ba4Ge2Pb(S4Br)2
_chemical_formula_sum   'Ba8 Ge4 Pb2 S16 Br4'
_cell_volume   1028.40050471
_cell_formula_units_Z   2
loop_
 _symmetry_equiv_pos_site_id
 _symmetry_equiv_pos_as_xyz
  1  'x, y, z'
loop_
 _atom_site_type_symbol
 _atom_site_label
 _atom_site_symmetry_multiplicity
 _atom_site_fract_x
 _atom_site_fract_y
 _atom_site_fract_z
 _atom_site_occupancy
  Ba  Ba0  1  0.89046808  0.00884222  0.16958275  1
  Ba  Ba1  1  0.60086895  0.49279925  0.67311116  1
  Ba  Ba2  1  0.10086895  0.50720075  0.82688884  1
  Ba  Ba3  1  0.39046808  0.99115778  0.33041725  1
  Ba  Ba4  1  0.10086895  0.99279925  0.82688884  1
  Ba  Ba5  1  0.39046808  0.50884222  0.33041725  1
  Ba  Ba6  1  0.89046808  0.49115778  0.16958275  1
  Ba  Ba7  1  0.60086895  0.00720075  0.67311116  1
  Ge  Ge8  1  0.19447054  0.75000000  0.10114787  1
  Ge  Ge9  1  0.30146065  0.75000000  0.59012571  1
  Ge  Ge10  1  0.80146065  0.25000000  0.90987429  1
  Ge  Ge11  1  0.69447054  0.25000000  0.39885213  1
  Pb  Pb12  1  0.53433952  0.75000000  0.98159146  1
  Pb  Pb13  1  0.03433952  0.25000000  0.51840854  1
  S  S14  1  0.82464024  0.05433827  0.44060211  1
  S  S15  1  0.70193947  0.46243277  0.93552320  1
  S  S16  1  0.20193947  0.53756723  0.56447680  1
  S  S17  1  0.32464024  0.94566173  0.05939789  1
  S  S18  1  0.20193947  0.96243277  0.56447680  1
  S  S19  1  0.32464024  0.55433827  0.05939789  1
  S  S20  1  0.82464024  0.44566173  0.44060211  1
  S  S21  1  0.70193947  0.03756723  0.93552320  1
  S  S22  1  0.01559582  0.25000000  0.00277890  1
  S  S23  1  0.48693786  0.25000000  0.49750928  1
  S  S24  1  0.98693786  0.75000000  0.00249072  1
  S  S25  1  0.51559582  0.75000000  0.49722110  1
  S  S26  1  0.63217056  0.25000000  0.22197577  1
  S  S27  1  0.86636615  0.25000000  0.72527549  1
  S  S28  1  0.36636615  0.75000000  0.77472451  1
  S  S29  1  0.13217056  0.75000000  0.27802423  1
  Br  Br30  1  0.64573888  0.75000000  0.22409695  1
  Br  Br31  1  0.85283652  0.75000000  0.71624542  1
  Br  Br32  1  0.35283652  0.25000000  0.78375458  1
  Br  Br33  1  0.14573888  0.25000000  0.27590305  1
