# generated using pymatgen
data_Sm2RuO5
_symmetry_space_group_name_H-M   'P 1'
_cell_length_a   3.93631320
_cell_length_b   10.53945290
_cell_length_c   11.52952930
_cell_angle_alpha   90.00000000
_cell_angle_beta   90.00000000
_cell_angle_gamma   90.00000000
_symmetry_Int_Tables_number   1
_chemical_formula_structural   Sm2RuO5
_chemical_formula_sum   'Sm8 Ru4 O20'
_cell_volume   478.32082696
_cell_formula_units_Z   4
loop_
 _symmetry_equiv_pos_site_id
 _symmetry_equiv_pos_as_xyz
  1  'x, y, z'
loop_
 _atom_site_type_symbol
 _atom_site_label
 _atom_site_symmetry_multiplicity
 _atom_site_fract_x
 _atom_site_fract_y
 _atom_site_fract_z
 _atom_site_occupancy
  Sm  Sm0  1  0.75000000  0.89581719  0.26878998  1
  Sm  Sm1  1  0.25000000  0.10418281  0.73121002  1
  Sm  Sm2  1  0.25000000  0.60418281  0.76878998  1
  Sm  Sm3  1  0.75000000  0.39581719  0.23121002  1
  Sm  Sm4  1  0.75000000  0.86719363  0.93508738  1
  Sm  Sm5  1  0.25000000  0.13280637  0.06491262  1
  Sm  Sm6  1  0.25000000  0.63280637  0.43508738  1
  Sm  Sm7  1  0.75000000  0.36719363  0.56491262  1
  Ru  Ru8  1  0.75000000  0.81316952  0.61695930  1
  Ru  Ru9  1  0.25000000  0.18683048  0.38304070  1
  Ru  Ru10  1  0.25000000  0.68683048  0.11695930  1
  Ru  Ru11  1  0.75000000  0.31316952  0.88304070  1
  O  O12  1  0.75000000  0.51008485  0.40311788  1
  O  O13  1  0.25000000  0.48991515  0.59688212  1
  O  O14  1  0.25000000  0.98991515  0.90311788  1
  O  O15  1  0.75000000  0.01008485  0.09688212  1
  O  O16  1  0.75000000  0.77873532  0.45373525  1
  O  O17  1  0.25000000  0.22126468  0.54626475  1
  O  O18  1  0.25000000  0.72126468  0.95373525  1
  O  O19  1  0.75000000  0.27873532  0.04626475  1
  O  O20  1  0.75000000  0.72871141  0.77180400  1
  O  O21  1  0.25000000  0.27128859  0.22819600  1
  O  O22  1  0.25000000  0.77128859  0.27180400  1
  O  O23  1  0.75000000  0.22871141  0.72819600  1
  O  O24  1  0.75000000  0.97109390  0.69661559  1
  O  O25  1  0.25000000  0.02890610  0.30338441  1
  O  O26  1  0.25000000  0.52890610  0.19661559  1
  O  O27  1  0.75000000  0.47109390  0.80338441  1
  O  O28  1  0.75000000  0.73717485  0.11422277  1
  O  O29  1  0.25000000  0.26282515  0.88577723  1
  O  O30  1  0.25000000  0.76282515  0.61422277  1
  O  O31  1  0.75000000  0.23717485  0.38577723  1
