# generated using pymatgen
data_Ba4Bi(PbO4)3
_symmetry_space_group_name_H-M   'P 1'
_cell_length_a   6.15624283
_cell_length_b   8.71292459
_cell_length_c   6.22388003
_cell_angle_alpha   89.97702051
_cell_angle_beta   90.00000000
_cell_angle_gamma   90.00000000
_symmetry_Int_Tables_number   1
_chemical_formula_structural   Ba4Bi(PbO4)3
_chemical_formula_sum   'Ba4 Bi1 Pb3 O12'
_cell_volume   333.84192426
_cell_formula_units_Z   1
loop_
 _symmetry_equiv_pos_site_id
 _symmetry_equiv_pos_as_xyz
  1  'x, y, z'
loop_
 _atom_site_type_symbol
 _atom_site_label
 _atom_site_symmetry_multiplicity
 _atom_site_fract_x
 _atom_site_fract_y
 _atom_site_fract_z
 _atom_site_occupancy
  Ba  Ba0  1  -0.00000000  0.24745478  0.49522719  1
  Ba  Ba1  1  0.50000000  0.75281645  0.99383975  1
  Ba  Ba2  1  0.50000000  0.24718355  0.00616025  1
  Ba  Ba3  1  -0.00000000  0.75254522  0.50477281  1
  Bi  Bi4  1  0.50000000  0.50000000  0.50000000  1
  Pb  Pb5  1  -0.00000000  0.50000000  -0.00000000  1
  Pb  Pb6  1  0.50000000  0.00000000  0.50000000  1
  Pb  Pb7  1  -0.00000000  0.00000000  -0.00000000  1
  O  O8  1  -0.00000000  0.24835466  0.93457693  1
  O  O9  1  0.50000000  0.74899123  0.43452470  1
  O  O10  1  0.50000000  0.25100877  0.56547530  1
  O  O11  1  -0.00000000  0.75164534  0.06542307  1
  O  O12  1  0.25139325  0.53527763  0.74755642  1
  O  O13  1  0.74936669  0.03779473  0.25055969  1
  O  O14  1  0.25139325  0.46472237  0.25244358  1
  O  O15  1  0.74936669  0.96220527  0.74944031  1
  O  O16  1  0.25063331  0.03779473  0.25055969  1
  O  O17  1  0.74860675  0.53527763  0.74755642  1
  O  O18  1  0.25063331  0.96220527  0.74944031  1
  O  O19  1  0.74860675  0.46472237  0.25244358  1
