# generated using pymatgen
data_Al4Zn3Cr2O12
_symmetry_space_group_name_H-M   'P 1'
_cell_length_a   5.81443527
_cell_length_b   8.28029753
_cell_length_c   10.21796210
_cell_angle_alpha   65.49177077
_cell_angle_beta   73.46982328
_cell_angle_gamma   90.00000000
_symmetry_Int_Tables_number   1
_chemical_formula_structural   Al4Zn3Cr2O12
_chemical_formula_sum   'Al8 Zn6 Cr4 O24'
_cell_volume   425.17639700
_cell_formula_units_Z   2
loop_
 _symmetry_equiv_pos_site_id
 _symmetry_equiv_pos_as_xyz
  1  'x, y, z'
loop_
 _atom_site_type_symbol
 _atom_site_label
 _atom_site_symmetry_multiplicity
 _atom_site_fract_x
 _atom_site_fract_y
 _atom_site_fract_z
 _atom_site_occupancy
  Al  Al0  1  0.99968755  0.49933311  0.50062491  1
  Al  Al1  1  0.33364545  0.83399989  0.83270809  1
  Al  Al2  1  0.50001121  0.50265163  0.99809726  1
  Al  Al3  1  0.83332179  0.83068137  0.33523574  1
  Al  Al4  1  0.16666700  0.16666700  0.66666700  1
  Al  Al5  1  0.00189153  0.50265163  0.99809726  1
  Al  Al6  1  0.33144147  0.83068137  0.33523574  1
  Al  Al7  1  0.66666700  0.16666700  0.66666700  1
  Zn  Zn8  1  0.25076894  0.12241043  0.99846212  1
  Zn  Zn9  1  0.58319301  0.45870470  0.33361297  1
  Zn  Zn10  1  0.91735179  0.79164287  0.66529742  1
  Zn  Zn11  1  0.75013999  0.87462830  0.99972003  1
  Zn  Zn12  1  0.08256406  0.21092257  0.33487088  1
  Zn  Zn13  1  0.41598221  0.54169113  0.66803658  1
  Cr  Cr14  1  0.83427756  0.33509212  0.83144388  1
  Cr  Cr15  1  0.16666700  0.66666700  0.16666700  1
  Cr  Cr16  1  0.49905544  0.99824088  0.50188912  1
  Cr  Cr17  1  0.66666700  0.16666700  0.16666700  1
  O  O18  1  0.67753809  0.42188413  0.14492483  1
  O  O19  1  0.00864659  0.74308836  0.48270682  1
  O  O20  1  0.34280672  0.07861948  0.81438557  1
  O  O21  1  0.82254277  0.56554895  0.85491346  1
  O  O22  1  0.15524368  0.89760755  0.18951363  1
  O  O23  1  0.48883697  0.23089311  0.52232605  1
  O  O24  1  0.98322598  0.27046157  0.99923437  1
  O  O25  1  0.30449986  0.59617949  0.34023538  1
  O  O26  1  0.63936907  0.93062235  0.67318184  1
  O  O27  1  0.51753964  0.27046157  0.99923437  1
  O  O28  1  0.85526376  0.59617949  0.34023538  1
  O  O29  1  0.18745008  0.93062235  0.67318184  1
  O  O30  1  0.32468641  0.59024464  0.85062618  1
  O  O31  1  0.65579591  0.91144987  0.18840917  1
  O  O32  1  0.99052628  0.25471352  0.51894743  1
  O  O33  1  0.17809032  0.43572645  0.14382037  1
  O  O34  1  0.51079023  0.76778405  0.47841954  1
  O  O35  1  0.84449603  0.10243989  0.81100695  1
  O  O36  1  0.02883314  0.73715351  0.99309762  1
  O  O37  1  0.35010702  0.06287143  0.33409863  1
  O  O38  1  0.69396493  0.40271165  0.66015216  1
  O  O39  1  0.47806924  0.73715351  0.99309762  1
  O  O40  1  0.81579336  0.06287143  0.33409863  1
  O  O41  1  0.14588392  0.40271165  0.66015216  1
