# generated using pymatgen
data_Ba3LiIrRuO9
_symmetry_space_group_name_H-M   'P 1'
_cell_length_a   5.88381747
_cell_length_b   5.88381747
_cell_length_c   14.21346220
_cell_angle_alpha   90.00000000
_cell_angle_beta   90.00000000
_cell_angle_gamma   119.99428210
_symmetry_Int_Tables_number   1
_chemical_formula_structural   Ba3LiIrRuO9
_chemical_formula_sum   'Ba6 Li2 Ir2 Ru2 O18'
_cell_volume   426.16120691
_cell_formula_units_Z   2
loop_
 _symmetry_equiv_pos_site_id
 _symmetry_equiv_pos_as_xyz
  1  'x, y, z'
loop_
 _atom_site_type_symbol
 _atom_site_label
 _atom_site_symmetry_multiplicity
 _atom_site_fract_x
 _atom_site_fract_y
 _atom_site_fract_z
 _atom_site_occupancy
  Ba  Ba0  1  0.99993282  0.00006718  0.74913332  1
  Ba  Ba1  1  0.00006718  0.99993282  0.24913332  1
  Ba  Ba2  1  0.66675259  0.33324741  0.41560581  1
  Ba  Ba3  1  0.33330038  0.66669962  0.58708850  1
  Ba  Ba4  1  0.33324741  0.66675259  0.91560581  1
  Ba  Ba5  1  0.66669962  0.33330038  0.08708850  1
  Li  Li6  1  0.00000310  0.99999690  0.50125300  1
  Li  Li7  1  0.99999690  0.00000310  0.00125300  1
  Ir  Ir8  1  0.66678837  0.33321163  0.66109037  1
  Ir  Ir9  1  0.33321163  0.66678837  0.16109037  1
  Ru  Ru10  1  0.33336989  0.66663011  0.34226793  1
  Ru  Ru11  1  0.66663011  0.33336989  0.84226793  1
  O  O12  1  0.50855248  0.01766074  0.74884833  1
  O  O13  1  0.50896533  0.49103467  0.74898639  1
  O  O14  1  0.98233926  0.49144752  0.74884833  1
  O  O15  1  0.49144752  0.98233926  0.24884833  1
  O  O16  1  0.49103467  0.50896533  0.24898639  1
  O  O17  1  0.01766074  0.50855248  0.24884833  1
  O  O18  1  0.82372453  0.64756110  0.91354447  1
  O  O19  1  0.82375619  0.17624381  0.91360193  1
  O  O20  1  0.35243890  0.17627547  0.91354447  1
  O  O21  1  0.17633873  0.35260778  0.08547901  1
  O  O22  1  0.17614062  0.82385938  0.08522914  1
  O  O23  1  0.64739222  0.82366127  0.08547901  1
  O  O24  1  0.17627547  0.35243890  0.41354447  1
  O  O25  1  0.17624381  0.82375619  0.41360193  1
  O  O26  1  0.64756110  0.82372453  0.41354447  1
  O  O27  1  0.82366127  0.64739222  0.58547901  1
  O  O28  1  0.82385938  0.17614062  0.58522914  1
  O  O29  1  0.35260778  0.17633873  0.58547901  1
