# generated using pymatgen
data_Ba2LaTlCu2O7
_symmetry_space_group_name_H-M   'P 1'
_cell_length_a   3.94580172
_cell_length_b   3.97539261
_cell_length_c   12.85357202
_cell_angle_alpha   90.00000000
_cell_angle_beta   90.00000000
_cell_angle_gamma   90.00000000
_symmetry_Int_Tables_number   1
_chemical_formula_structural   Ba2LaTlCu2O7
_chemical_formula_sum   'Ba2 La1 Tl1 Cu2 O7'
_cell_volume   201.62255743
_cell_formula_units_Z   1
loop_
 _symmetry_equiv_pos_site_id
 _symmetry_equiv_pos_as_xyz
  1  'x, y, z'
loop_
 _atom_site_type_symbol
 _atom_site_label
 _atom_site_symmetry_multiplicity
 _atom_site_fract_x
 _atom_site_fract_y
 _atom_site_fract_z
 _atom_site_occupancy
  Ba  Ba0  1  0.50000000  0.50399214  0.79595949  1
  Ba  Ba1  1  0.50000000  0.50399214  0.20404051  1
  La  La2  1  0.50000000  0.50026852  0.50000000  1
  Tl  Tl3  1  0.00000000  0.06966420  0.00000000  1
  Cu  Cu4  1  -0.00000000  0.00027616  0.64016452  1
  Cu  Cu5  1  -0.00000000  0.00027616  0.35983548  1
  O  O6  1  0.00000000  0.50022609  0.62328620  1
  O  O7  1  0.50000000  0.00169677  0.62252842  1
  O  O8  1  0.00000000  0.50022609  0.37671380  1
  O  O9  1  0.50000000  0.00169677  0.37747158  1
  O  O10  1  0.00000000  0.99075897  0.83426588  1
  O  O11  1  0.00000000  0.99075897  0.16573412  1
  O  O12  1  0.50000000  0.38566704  -0.00000000  1
