# generated using pymatgen
data_Ag2Te2O7
_symmetry_space_group_name_H-M   'P 1'
_cell_length_a   7.41682210
_cell_length_b   7.45075959
_cell_length_c   7.45075959
_cell_angle_alpha   62.13007467
_cell_angle_beta   60.15056093
_cell_angle_gamma   60.15056096
_symmetry_Int_Tables_number   1
_chemical_formula_structural   Ag2Te2O7
_chemical_formula_sum   'Ag4 Te4 O14'
_cell_volume   296.22938990
_cell_formula_units_Z   2
loop_
 _symmetry_equiv_pos_site_id
 _symmetry_equiv_pos_as_xyz
  1  'x, y, z'
loop_
 _atom_site_type_symbol
 _atom_site_label
 _atom_site_symmetry_multiplicity
 _atom_site_fract_x
 _atom_site_fract_y
 _atom_site_fract_z
 _atom_site_occupancy
  O  O0  1  0.67624997  0.19080299  0.04855957  1
  O  O1  1  0.91561253  0.80919701  0.95144043  1
  O  O2  1  0.82375003  0.45144043  0.30919701  1
  O  O3  1  0.58438747  0.54855957  0.69080299  1
  O  O4  1  0.32375003  0.80919701  0.95144043  1
  O  O5  1  0.08438747  0.19080299  0.04855957  1
  O  O6  1  0.17624997  0.54855957  0.69080299  1
  O  O7  1  0.41561253  0.45144043  0.30919701  1
  O  O8  1  0.25000000  0.40910675  0.09089325  1
  O  O9  1  0.75000000  0.59089325  0.90910675  1
  O  O10  1  0.08578272  0.13360474  0.69482982  1
  O  O11  1  0.91421728  0.86639526  0.30517018  1
  O  O12  1  0.41421728  0.80517018  0.36639526  1
  O  O13  1  0.58578272  0.19482982  0.63360474  1
  Ag  Ag14  1  0.00000000  0.50000000  0.50000000  1
  Ag  Ag15  1  0.50000000  0.00000000  0.00000000  1
  Ag  Ag16  1  0.50000000  0.00000000  0.50000000  1
  Ag  Ag17  1  0.00000000  0.00000000  0.50000000  1
  Te  Te18  1  0.00000000  0.00000000  0.00000000  1
  Te  Te19  1  0.50000000  0.50000000  0.50000000  1
  Te  Te20  1  0.50000000  0.50000000  0.00000000  1
  Te  Te21  1  0.00000000  0.50000000  0.00000000  1
