# generated using pymatgen
data_Ag6Hg(P10I)2
_symmetry_space_group_name_H-M   'P 1'
_cell_length_a   6.79542756
_cell_length_b   7.45426980
_cell_length_c   28.08791895
_cell_angle_alpha   90.00000000
_cell_angle_beta   90.00000000
_cell_angle_gamma   114.07616224
_symmetry_Int_Tables_number   1
_chemical_formula_structural   Ag6Hg(P10I)2
_chemical_formula_sum   'Ag12 Hg2 P40 I4'
_cell_volume   1299.01489392
_cell_formula_units_Z   2
loop_
 _symmetry_equiv_pos_site_id
 _symmetry_equiv_pos_as_xyz
  1  'x, y, z'
loop_
 _atom_site_type_symbol
 _atom_site_label
 _atom_site_symmetry_multiplicity
 _atom_site_fract_x
 _atom_site_fract_y
 _atom_site_fract_z
 _atom_site_occupancy
  Ag  Ag0  1  0.09674598  0.02061074  0.65442938  1
  Ag  Ag1  1  0.90325402  0.97938926  0.15442938  1
  Ag  Ag2  1  0.90335333  0.98097899  0.34572859  1
  Ag  Ag3  1  0.09664667  0.01902101  0.84572859  1
  Ag  Ag4  1  0.16020846  0.56747691  0.57072259  1
  Ag  Ag5  1  0.83979154  0.43252309  0.07072259  1
  Ag  Ag6  1  0.84224800  0.42923615  0.42988742  1
  Ag  Ag7  1  0.15775200  0.57076385  0.92988742  1
  Ag  Ag8  1  0.84703119  0.42178330  0.74997842  1
  Ag  Ag9  1  0.15296881  0.57821670  0.24997842  1
  Ag  Ag10  1  0.14517304  0.02267253  0.50921105  1
  Ag  Ag11  1  0.85482696  0.97732747  0.00921105  1
  Hg  Hg12  1  0.47620198  0.83185540  0.75008184  1
  Hg  Hg13  1  0.52379802  0.16814460  0.25008184  1
  P  P14  1  0.71970406  0.28037736  0.66838271  1
  P  P15  1  0.28029594  0.71962264  0.16838271  1
  P  P16  1  0.27786777  0.71873743  0.33150173  1
  P  P17  1  0.72213223  0.28126257  0.83150173  1
  P  P18  1  0.29226503  0.90717425  0.43556044  1
  P  P19  1  0.70773497  0.09282575  0.93556044  1
  P  P20  1  0.71152341  0.08803424  0.56248463  1
  P  P21  1  0.28847659  0.91196576  0.06248463  1
  P  P22  1  0.44576796  0.98144683  0.66991111  1
  P  P23  1  0.55423204  0.01855317  0.16991111  1
  P  P24  1  0.55286995  0.01864884  0.33028763  1
  P  P25  1  0.44713005  0.98135116  0.83028763  1
  P  P26  1  0.35171320  0.53446977  0.49304064  1
  P  P27  1  0.64828680  0.46553023  0.99304064  1
  P  P28  1  0.64994960  0.47412230  0.50609599  1
  P  P29  1  0.35005040  0.52587770  0.00609599  1
  P  P30  1  0.95031437  0.25151116  0.61715811  1
  P  P31  1  0.04968563  0.74848884  0.11715811  1
  P  P32  1  0.04527004  0.74498111  0.38238678  1
  P  P33  1  0.95472996  0.25501889  0.88238678  1
  P  P34  1  0.49850208  0.83296787  0.60582994  1
  P  P35  1  0.50149792  0.16703213  0.10582994  1
  P  P36  1  0.50080221  0.16878159  0.39407310  1
  P  P37  1  0.49919779  0.83121841  0.89407310  1
  P  P38  1  0.51900810  0.40366592  0.62908630  1
  P  P39  1  0.48099190  0.59633408  0.12908630  1
  P  P40  1  0.47564145  0.59481744  0.37146458  1
  P  P41  1  0.52435855  0.40518256  0.87146458  1
  P  P42  1  0.89159635  0.70941577  0.54699560  1
  P  P43  1  0.10840365  0.29058423  0.04699560  1
  P  P44  1  0.10990621  0.28599070  0.45579975  1
  P  P45  1  0.89009379  0.71400930  0.95579975  1
  P  P46  1  0.48775058  0.23886294  0.55930609  1
  P  P47  1  0.51224942  0.76113706  0.05930609  1
  P  P48  1  0.52317961  0.76604537  0.43993711  1
  P  P49  1  0.47682039  0.23395463  0.93993711  1
  P  P50  1  0.75765123  0.71547765  0.61713437  1
  P  P51  1  0.24234877  0.28452235  0.11713437  1
  P  P52  1  0.23912832  0.28363774  0.38412092  1
  P  P53  1  0.76087168  0.71636226  0.88412092  1
  I  I54  1  0.26898045  0.40894644  0.74997641  1
  I  I55  1  0.73101955  0.59105356  0.24997641  1
  I  I56  1  0.92658798  0.83566280  0.75007677  1
  I  I57  1  0.07341202  0.16433720  0.25007677  1
