# generated using pymatgen
data_LaCoCu12
_symmetry_space_group_name_H-M   'P 1'
_cell_length_a   8.15275510
_cell_length_b   8.15275510
_cell_length_c   8.15275510
_cell_angle_alpha   59.99999999
_cell_angle_beta   60.00000001
_cell_angle_gamma   59.99999996
_symmetry_Int_Tables_number   1
_chemical_formula_structural   LaCoCu12
_chemical_formula_sum   'La2 Co2 Cu24'
_cell_volume   383.17590551
_cell_formula_units_Z   2
loop_
 _symmetry_equiv_pos_site_id
 _symmetry_equiv_pos_as_xyz
  1  'x, y, z'
loop_
 _atom_site_type_symbol
 _atom_site_label
 _atom_site_symmetry_multiplicity
 _atom_site_fract_x
 _atom_site_fract_y
 _atom_site_fract_z
 _atom_site_occupancy
  Co  Co0  1  0.00000000  0.00000000  0.00000000  1
  Co  Co1  1  0.50000000  0.50000000  0.50000000  1
  Cu  Cu2  1  0.93784298  0.29604774  0.70395226  1
  Cu  Cu3  1  0.70395226  0.06215702  0.93784298  1
  Cu  Cu4  1  0.29604774  0.93784298  0.06215702  1
  Cu  Cu5  1  0.56215702  0.43784298  0.79604774  1
  Cu  Cu6  1  0.79604774  0.20395226  0.56215702  1
  Cu  Cu7  1  0.56215702  0.79604774  0.20395226  1
  Cu  Cu8  1  0.43784298  0.20395226  0.79604774  1
  Cu  Cu9  1  0.43784298  0.79604774  0.56215702  1
  Cu  Cu10  1  0.79604774  0.43784298  0.20395226  1
  Cu  Cu11  1  0.06215702  0.29604774  0.93784298  1
  Cu  Cu12  1  0.93784298  0.06215702  0.29604774  1
  Cu  Cu13  1  0.70395226  0.29604774  0.06215702  1
  Cu  Cu14  1  0.93784298  0.70395226  0.06215702  1
  Cu  Cu15  1  0.70395226  0.93784298  0.29604774  1
  Cu  Cu16  1  0.06215702  0.93784298  0.70395226  1
  Cu  Cu17  1  0.29604774  0.06215702  0.70395226  1
  Cu  Cu18  1  0.29604774  0.70395226  0.93784298  1
  Cu  Cu19  1  0.79604774  0.56215702  0.43784298  1
  Cu  Cu20  1  0.20395226  0.79604774  0.43784298  1
  Cu  Cu21  1  0.20395226  0.56215702  0.79604774  1
  Cu  Cu22  1  0.56215702  0.20395226  0.43784298  1
  Cu  Cu23  1  0.43784298  0.56215702  0.20395226  1
  Cu  Cu24  1  0.20395226  0.43784298  0.56215702  1
  Cu  Cu25  1  0.06215702  0.70395226  0.29604774  1
  La  La26  1  0.75000000  0.75000000  0.75000000  1
  La  La27  1  0.25000000  0.25000000  0.25000000  1
