# generated using pymatgen
data_Ce3Co11B4
_symmetry_space_group_name_H-M   'P 1'
_cell_length_a   5.02051039
_cell_length_b   5.02051038
_cell_length_c   9.86552005
_cell_angle_alpha   90.00000000
_cell_angle_beta   90.00000000
_cell_angle_gamma   119.99999999
_symmetry_Int_Tables_number   1
_chemical_formula_structural   Ce3Co11B4
_chemical_formula_sum   'Ce3 Co11 B4'
_cell_volume   215.35073326
_cell_formula_units_Z   1
loop_
 _symmetry_equiv_pos_site_id
 _symmetry_equiv_pos_as_xyz
  1  'x, y, z'
loop_
 _atom_site_type_symbol
 _atom_site_label
 _atom_site_symmetry_multiplicity
 _atom_site_fract_x
 _atom_site_fract_y
 _atom_site_fract_z
 _atom_site_occupancy
  B  B0  1  0.33333333  0.66666667  0.64951673  1
  B  B1  1  0.66666667  0.33333333  0.64951673  1
  B  B2  1  0.66666667  0.33333333  0.35048327  1
  B  B3  1  0.33333333  0.66666667  0.35048327  1
  Co  Co4  1  0.66666667  0.33333333  0.00000000  1
  Co  Co5  1  0.50000000  0.00000000  0.50000000  1
  Co  Co6  1  0.50000000  0.50000000  0.50000000  1
  Co  Co7  1  0.00000000  0.50000000  0.50000000  1
  Co  Co8  1  0.50000000  0.00000000  0.20492158  1
  Co  Co9  1  0.50000000  0.50000000  0.20492158  1
  Co  Co10  1  0.00000000  0.50000000  0.20492158  1
  Co  Co11  1  0.50000000  0.00000000  0.79507842  1
  Co  Co12  1  0.50000000  0.50000000  0.79507842  1
  Co  Co13  1  0.00000000  0.50000000  0.79507842  1
  Co  Co14  1  0.33333333  0.66666667  0.00000000  1
  Ce  Ce15  1  0.00000000  0.00000000  0.66093438  1
  Ce  Ce16  1  0.00000000  0.00000000  0.33906562  1
  Ce  Ce17  1  0.00000000  0.00000000  0.00000000  1
