# generated using pymatgen
data_Cs4Na2YHoCl12
_symmetry_space_group_name_H-M   'P 1'
_cell_length_a   7.72258524
_cell_length_b   7.72258524
_cell_length_c   13.36358110
_cell_angle_alpha   73.20540668
_cell_angle_beta   90.00000000
_cell_angle_gamma   120.00000000
_symmetry_Int_Tables_number   1
_chemical_formula_structural   Cs4Na2YHoCl12
_chemical_formula_sum   'Cs4 Na2 Y1 Ho1 Cl12'
_cell_volume   650.65763872
_cell_formula_units_Z   1
loop_
 _symmetry_equiv_pos_site_id
 _symmetry_equiv_pos_as_xyz
  1  'x, y, z'
loop_
 _atom_site_type_symbol
 _atom_site_label
 _atom_site_symmetry_multiplicity
 _atom_site_fract_x
 _atom_site_fract_y
 _atom_site_fract_z
 _atom_site_occupancy
  Cs  Cs0  1  0.62498692  0.24997383  0.12503925  1
  Cs  Cs1  1  0.12501486  0.25002972  0.62495542  1
  Cs  Cs2  1  0.87498514  0.74997028  0.37504458  1
  Cs  Cs3  1  0.37501308  0.75002617  0.87496075  1
  Na  Na4  1  0.24999122  0.49998243  0.25002635  1
  Na  Na5  1  0.75000878  0.50001757  0.74997365  1
  Y  Y6  1  0.00000000  -0.00000000  0.00000000  1
  Ho  Ho7  1  0.50000000  -0.00000000  0.50000000  1
  Cl  Cl8  1  0.12130282  0.24260564  0.12124028  1
  Cl  Cl9  1  0.62043781  0.24087562  0.62052906  1
  Cl  Cl10  1  0.37956219  0.24096687  0.37947094  1
  Cl  Cl11  1  0.87869718  0.24254310  0.87875972  1
  Cl  Cl12  1  0.63615408  0.75745690  0.12124028  1
  Cl  Cl13  1  0.13859532  0.75903313  0.62052906  1
  Cl  Cl14  1  0.37956219  0.75912438  0.37947094  1
  Cl  Cl15  1  0.87869718  0.75739436  0.87875972  1
  Cl  Cl16  1  0.12130282  0.75745690  0.12124028  1
  Cl  Cl17  1  0.62043781  0.75903313  0.62052906  1
  Cl  Cl18  1  0.86140468  0.24096687  0.37947094  1
  Cl  Cl19  1  0.36384592  0.24254310  0.87875972  1
