# generated using pymatgen
data_NdPO4
_symmetry_space_group_name_H-M   'P 1'
_cell_length_a   7.16741674
_cell_length_b   7.16741674
_cell_length_c   6.40189908
_cell_angle_alpha   90.00000000
_cell_angle_beta   90.00000000
_cell_angle_gamma   119.99999999
_symmetry_Int_Tables_number   1
_chemical_formula_structural   NdPO4
_chemical_formula_sum   'Nd3 P3 O12'
_cell_volume   284.81625320
_cell_formula_units_Z   3
loop_
 _symmetry_equiv_pos_site_id
 _symmetry_equiv_pos_as_xyz
  1  'x, y, z'
loop_
 _atom_site_type_symbol
 _atom_site_label
 _atom_site_symmetry_multiplicity
 _atom_site_fract_x
 _atom_site_fract_y
 _atom_site_fract_z
 _atom_site_occupancy
  O  O0  1  0.44598831  0.30890171  0.98239689  1
  O  O1  1  0.69109829  0.13708660  0.64906356  1
  O  O2  1  0.86291340  0.55401169  0.31573022  1
  O  O3  1  0.13708660  0.44598831  0.31573022  1
  O  O4  1  0.55401169  0.86291340  0.35093644  1
  O  O5  1  0.55401169  0.69109829  0.98239689  1
  O  O6  1  0.44598831  0.13708660  0.35093644  1
  O  O7  1  0.30890171  0.44598831  0.68426978  1
  O  O8  1  0.13708660  0.69109829  0.01760311  1
  O  O9  1  0.86291340  0.30890171  0.01760311  1
  O  O10  1  0.69109829  0.55401169  0.68426978  1
  O  O11  1  0.30890171  0.86291340  0.64906356  1
  P  P12  1  0.00000000  0.50000000  0.16666667  1
  P  P13  1  0.50000000  0.50000000  0.83333333  1
  P  P14  1  0.50000000  0.00000000  0.50000000  1
  Nd  Nd15  1  0.00000000  0.50000000  0.66666667  1
  Nd  Nd16  1  0.50000000  0.50000000  0.33333333  1
  Nd  Nd17  1  0.50000000  0.00000000  0.00000000  1
