# generated using pymatgen
data_Ca4Ti3O10
_symmetry_space_group_name_H-M   'P 1'
_cell_length_a   5.44465149
_cell_length_b   5.52786149
_cell_length_c   27.17890803
_cell_angle_alpha   90.00000000
_cell_angle_beta   90.00000000
_cell_angle_gamma   90.00000000
_symmetry_Int_Tables_number   1
_chemical_formula_structural   Ca4Ti3O10
_chemical_formula_sum   'Ca16 Ti12 O40'
_cell_volume   818.01118599
_cell_formula_units_Z   4
loop_
 _symmetry_equiv_pos_site_id
 _symmetry_equiv_pos_as_xyz
  1  'x, y, z'
loop_
 _atom_site_type_symbol
 _atom_site_label
 _atom_site_symmetry_multiplicity
 _atom_site_fract_x
 _atom_site_fract_y
 _atom_site_fract_z
 _atom_site_occupancy
  O  O0  1  0.70971539  0.20989412  0.51110433  1
  O  O1  1  0.20971539  0.29010588  0.48889567  1
  O  O2  1  0.29028461  0.70989412  0.98889567  1
  O  O3  1  0.79028461  0.79010588  0.01110433  1
  O  O4  1  0.29028461  0.79010588  0.48889567  1
  O  O5  1  0.79028461  0.70989412  0.51110433  1
  O  O6  1  0.70971539  0.29010588  0.01110433  1
  O  O7  1  0.20971539  0.20989412  0.98889567  1
  O  O8  1  0.79102700  0.71350810  0.34783977  1
  O  O9  1  0.29102700  0.78649190  0.65216023  1
  O  O10  1  0.20897300  0.21350810  0.15216023  1
  O  O11  1  0.70897300  0.28649190  0.84783977  1
  O  O12  1  0.20897300  0.28649190  0.65216023  1
  O  O13  1  0.70897300  0.21350810  0.34783977  1
  O  O14  1  0.79102700  0.78649190  0.84783977  1
  O  O15  1  0.29102700  0.71350810  0.15216023  1
  O  O16  1  0.93132325  0.97685339  0.71249422  1
  O  O17  1  0.20990283  0.29562399  0.36940554  1
  O  O18  1  0.79009717  0.79562399  0.13059446  1
  O  O19  1  0.29009717  0.70437601  0.86940554  1
  O  O20  1  0.79009717  0.70437601  0.63059446  1
  O  O21  1  0.29009717  0.79562399  0.36940554  1
  O  O22  1  0.20990283  0.20437601  0.86940554  1
  O  O23  1  0.70990283  0.29562399  0.13059446  1
  O  O24  1  0.06867675  0.02314661  0.28750578  1
  O  O25  1  0.56867675  0.47685339  0.71249422  1
  O  O26  1  0.93132325  0.52314661  0.21249422  1
  O  O27  1  0.43132325  0.97685339  0.78750578  1
  O  O28  1  0.42448661  0.98201399  0.07056829  1
  O  O29  1  0.92448661  0.51798601  0.92943171  1
  O  O30  1  0.57551339  0.48201399  0.42943171  1
  O  O31  1  0.07551339  0.01798601  0.57056829  1
  O  O32  1  0.57551339  0.01798601  0.92943171  1
  O  O33  1  0.07551339  0.48201399  0.07056829  1
  O  O34  1  0.42448661  0.51798601  0.57056829  1
  O  O35  1  0.92448661  0.98201399  0.42943171  1
  O  O36  1  0.56867675  0.02314661  0.21249422  1
  O  O37  1  0.06867675  0.47685339  0.78750578  1
  O  O38  1  0.43132325  0.52314661  0.28750578  1
  O  O39  1  0.70990283  0.20437601  0.63059446  1
  Ca  Ca40  1  0.50553811  0.54023088  0.06939498  1
  Ca  Ca41  1  0.00553811  0.95976912  0.93060502  1
  Ca  Ca42  1  0.49446189  0.04023088  0.43060502  1
  Ca  Ca43  1  0.99446189  0.45976912  0.56939498  1
  Ca  Ca44  1  0.49446189  0.45976912  0.93060502  1
  Ca  Ca45  1  0.99446189  0.04023088  0.06939498  1
  Ca  Ca46  1  0.50553811  0.95976912  0.56939498  1
  Ca  Ca47  1  0.00553811  0.54023088  0.43060502  1
  Ca  Ca48  1  0.99292048  0.95407409  0.20518422  1
  Ca  Ca49  1  0.49292048  0.54592591  0.79481578  1
  Ca  Ca50  1  0.00707952  0.45407409  0.29481578  1
  Ca  Ca51  1  0.50707952  0.04592591  0.70518422  1
  Ca  Ca52  1  0.49292048  0.95407409  0.29481578  1
  Ca  Ca53  1  0.99292048  0.54592591  0.70518422  1
  Ca  Ca54  1  0.50707952  0.45407409  0.20518422  1
  Ca  Ca55  1  0.00707952  0.04592591  0.79481578  1
  Ti  Ti56  1  0.00000000  0.50000000  0.00000000  1
  Ti  Ti57  1  0.50000000  0.00000000  0.00000000  1
  Ti  Ti58  1  0.00000000  0.00000000  0.50000000  1
  Ti  Ti59  1  0.50000000  0.50000000  0.50000000  1
  Ti  Ti60  1  0.50171493  0.98671520  0.14256780  1
  Ti  Ti61  1  0.00171493  0.51328480  0.85743220  1
  Ti  Ti62  1  0.49828507  0.48671520  0.35743220  1
  Ti  Ti63  1  0.99828507  0.01328480  0.64256780  1
  Ti  Ti64  1  0.49828507  0.01328480  0.85743220  1
  Ti  Ti65  1  0.99828507  0.48671520  0.14256780  1
  Ti  Ti66  1  0.50171493  0.51328480  0.64256780  1
  Ti  Ti67  1  0.00171493  0.98671520  0.35743220  1
