# generated using pymatgen
data_Tm11(Ni10C)6
_symmetry_space_group_name_H-M   'P 1'
_cell_length_a   10.73214166
_cell_length_b   10.73214165
_cell_length_c   10.73214166
_cell_angle_alpha   109.47122063
_cell_angle_beta   109.47122062
_cell_angle_gamma   109.47122062
_symmetry_Int_Tables_number   1
_chemical_formula_structural   Tm11(Ni10C)6
_chemical_formula_sum   'Tm11 Ni60 C6'
_cell_volume   951.56245634
_cell_formula_units_Z   1
loop_
 _symmetry_equiv_pos_site_id
 _symmetry_equiv_pos_as_xyz
  1  'x, y, z'
loop_
 _atom_site_type_symbol
 _atom_site_label
 _atom_site_symmetry_multiplicity
 _atom_site_fract_x
 _atom_site_fract_y
 _atom_site_fract_z
 _atom_site_occupancy
  C  C0  1  0.00000000  0.70793210  0.70793210  1
  C  C1  1  0.29206790  0.29206790  0.00000000  1
  C  C2  1  0.70793210  0.70793210  0.00000000  1
  C  C3  1  0.70793210  0.00000000  0.70793210  1
  C  C4  1  0.29206790  0.00000000  0.29206790  1
  C  C5  1  0.00000000  0.29206790  0.29206790  1
  Ni  Ni6  1  0.46698235  0.31883904  0.14814330  1
  Ni  Ni7  1  0.68116096  0.14814330  0.82930426  1
  Ni  Ni8  1  0.85185670  0.17069574  0.31883904  1
  Ni  Ni9  1  0.53301765  0.68116096  0.85185670  1
  Ni  Ni10  1  0.53301765  0.85185670  0.68116096  1
  Ni  Ni11  1  0.68116096  0.85185670  0.53301765  1
  Ni  Ni12  1  0.17069574  0.85185670  0.31883904  1
  Ni  Ni13  1  0.85185670  0.53301765  0.68116096  1
  Ni  Ni14  1  0.82930426  0.14814330  0.68116096  1
  Ni  Ni15  1  0.14814330  0.31883904  0.46698235  1
  Ni  Ni16  1  0.31883904  0.46698235  0.14814330  1
  Ni  Ni17  1  0.68116096  0.53301765  0.85185670  1
  Ni  Ni18  1  0.85185670  0.31883904  0.17069574  1
  Ni  Ni19  1  0.68116096  0.82930426  0.14814330  1
  Ni  Ni20  1  0.85185670  0.68116096  0.53301765  1
  Ni  Ni21  1  0.31883904  0.17069574  0.85185670  1
  Ni  Ni22  1  0.14814330  0.68116096  0.82930426  1
  Ni  Ni23  1  0.82930426  0.68116096  0.14814330  1
  Ni  Ni24  1  0.17069574  0.31883904  0.85185670  1
  Ni  Ni25  1  0.31883904  0.85185670  0.17069574  1
  Ni  Ni26  1  0.31883904  0.14814330  0.46698235  1
  Ni  Ni27  1  0.14814330  0.46698235  0.31883904  1
  Ni  Ni28  1  0.14814330  0.82930426  0.68116096  1
  Ni  Ni29  1  0.46698235  0.14814330  0.31883904  1
  Ni  Ni30  1  0.76711045  0.00000000  0.41896190  1
  Ni  Ni31  1  0.00000000  0.76711045  0.41896190  1
  Ni  Ni32  1  0.58103810  0.58103810  0.34814855  1
  Ni  Ni33  1  0.23288955  0.65185145  0.23288955  1
  Ni  Ni34  1  0.23288955  0.58103810  0.00000000  1
  Ni  Ni35  1  0.65185145  0.23288955  0.23288955  1
  Ni  Ni36  1  0.58103810  0.23288955  0.00000000  1
  Ni  Ni37  1  0.23288955  0.23288955  0.65185145  1
  Ni  Ni38  1  0.41896190  0.41896190  0.65185145  1
  Ni  Ni39  1  0.76711045  0.34814855  0.76711045  1
  Ni  Ni40  1  0.34814855  0.76711045  0.76711045  1
  Ni  Ni41  1  0.00000000  0.23288955  0.58103810  1
  Ni  Ni42  1  0.23288955  0.00000000  0.58103810  1
  Ni  Ni43  1  0.65185145  0.41896190  0.41896190  1
  Ni  Ni44  1  0.58103810  0.00000000  0.23288955  1
  Ni  Ni45  1  0.00000000  0.58103810  0.23288955  1
  Ni  Ni46  1  0.41896190  0.65185145  0.41896190  1
  Ni  Ni47  1  0.41896190  0.00000000  0.76711045  1
  Ni  Ni48  1  0.58103810  0.34814855  0.58103810  1
  Ni  Ni49  1  0.34814855  0.58103810  0.58103810  1
  Ni  Ni50  1  0.00000000  0.41896190  0.76711045  1
  Ni  Ni51  1  0.41896190  0.76711045  0.00000000  1
  Ni  Ni52  1  0.76711045  0.41896190  0.00000000  1
  Ni  Ni53  1  0.76711045  0.76711045  0.34814855  1
  Ni  Ni54  1  0.50000000  0.25000000  0.75000000  1
  Ni  Ni55  1  0.25000000  0.75000000  0.50000000  1
  Ni  Ni56  1  0.75000000  0.25000000  0.50000000  1
  Ni  Ni57  1  0.25000000  0.50000000  0.75000000  1
  Ni  Ni58  1  0.75000000  0.50000000  0.25000000  1
  Ni  Ni59  1  0.50000000  0.75000000  0.25000000  1
  Ni  Ni60  1  0.00000000  0.85652357  0.85652357  1
  Ni  Ni61  1  0.14347643  0.14347643  0.00000000  1
  Ni  Ni62  1  0.85652357  0.85652357  0.00000000  1
  Ni  Ni63  1  0.85652357  0.00000000  0.85652357  1
  Ni  Ni64  1  0.14347643  0.00000000  0.14347643  1
  Ni  Ni65  1  0.00000000  0.14347643  0.14347643  1
  Tm  Tm66  1  0.66233665  0.66233665  0.66233665  1
  Tm  Tm67  1  0.66233665  0.00000000  0.00000000  1
  Tm  Tm68  1  0.00000000  0.00000000  0.66233665  1
  Tm  Tm69  1  0.00000000  0.66233665  0.00000000  1
  Tm  Tm70  1  0.00000000  0.00000000  0.33766335  1
  Tm  Tm71  1  0.00000000  0.33766335  0.00000000  1
  Tm  Tm72  1  0.33766335  0.00000000  0.00000000  1
  Tm  Tm73  1  0.33766335  0.33766335  0.33766335  1
  Tm  Tm74  1  0.50000000  0.50000000  0.00000000  1
  Tm  Tm75  1  0.50000000  0.00000000  0.50000000  1
  Tm  Tm76  1  0.00000000  0.50000000  0.50000000  1
