# generated using pymatgen
data_K4GeO4
_symmetry_space_group_name_H-M   'P 1'
_cell_length_a   6.49395173
_cell_length_b   6.53932528
_cell_length_c   9.42961953
_cell_angle_alpha   72.43934763
_cell_angle_beta   80.57724744
_cell_angle_gamma   65.66888182
_symmetry_Int_Tables_number   1
_chemical_formula_structural   K4GeO4
_chemical_formula_sum   'K8 Ge2 O8'
_cell_volume   347.50986167
_cell_formula_units_Z   2
loop_
 _symmetry_equiv_pos_site_id
 _symmetry_equiv_pos_as_xyz
  1  'x, y, z'
loop_
 _atom_site_type_symbol
 _atom_site_label
 _atom_site_symmetry_multiplicity
 _atom_site_fract_x
 _atom_site_fract_y
 _atom_site_fract_z
 _atom_site_occupancy
  O  O0  1  0.39397724  0.33642779  0.39615357  1
  O  O1  1  0.60602276  0.66357221  0.60384643  1
  O  O2  1  0.93044094  0.82468424  0.68335912  1
  O  O3  1  0.06955906  0.17531576  0.31664088  1
  O  O4  1  0.54476252  0.78763805  0.87871868  1
  O  O5  1  0.45523748  0.21236195  0.12128132  1
  O  O6  1  0.93725607  0.35868159  0.83987185  1
  O  O7  1  0.06274393  0.64131841  0.16012815  1
  K  K8  1  0.73925467  0.90638588  0.34795647  1
  K  K9  1  0.26074533  0.09361412  0.65204353  1
  K  K10  1  0.27461430  0.54503987  0.87640057  1
  K  K11  1  0.72538570  0.45496013  0.12359943  1
  K  K12  1  0.77385794  0.00676542  0.93892470  1
  K  K13  1  0.22614206  0.99323458  0.06107530  1
  K  K14  1  0.24636896  0.73089505  0.46886245  1
  K  K15  1  0.75363104  0.26910495  0.53113755  1
  Ge  Ge16  1  0.24019920  0.34682596  0.25033767  1
  Ge  Ge17  1  0.75980080  0.65317404  0.74966233  1
