# generated using pymatgen
data_Dy2Si5Rh3
_symmetry_space_group_name_H-M   'P 1'
_cell_length_a   5.74546559
_cell_length_b   8.16437517
_cell_length_c   8.16437517
_cell_angle_alpha   74.59458056
_cell_angle_beta   69.39875868
_cell_angle_gamma   69.39875864
_symmetry_Int_Tables_number   1
_chemical_formula_structural   Dy2Si5Rh3
_chemical_formula_sum   'Dy4 Si10 Rh6'
_cell_volume   331.13459224
_cell_formula_units_Z   2
loop_
 _symmetry_equiv_pos_site_id
 _symmetry_equiv_pos_as_xyz
  1  'x, y, z'
loop_
 _atom_site_type_symbol
 _atom_site_label
 _atom_site_symmetry_multiplicity
 _atom_site_fract_x
 _atom_site_fract_y
 _atom_site_fract_z
 _atom_site_occupancy
  Si  Si0  1  0.10526176  0.73675078  0.05272571  1
  Si  Si1  1  0.89473824  0.26324922  0.94727429  1
  Si  Si2  1  0.39473824  0.94727429  0.26324922  1
  Si  Si3  1  0.60526176  0.05272571  0.73675078  1
  Si  Si4  1  0.02889477  0.22110523  0.22110523  1
  Si  Si5  1  0.47110523  0.77889477  0.77889477  1
  Si  Si6  1  0.97110523  0.77889477  0.77889477  1
  Si  Si7  1  0.75000000  0.50000000  0.50000000  1
  Si  Si8  1  0.25000000  0.50000000  0.50000000  1
  Si  Si9  1  0.52889477  0.22110523  0.22110523  1
  Rh  Rh10  1  0.75000000  0.00000000  0.00000000  1
  Rh  Rh11  1  0.85966895  0.53148624  0.74917587  1
  Rh  Rh12  1  0.35966895  0.74917587  0.53148624  1
  Rh  Rh13  1  0.64033105  0.25082413  0.46851376  1
  Rh  Rh14  1  0.25000000  0.00000000  0.00000000  1
  Rh  Rh15  1  0.14033105  0.46851376  0.25082413  1
  Dy  Dy16  1  0.36837899  0.40032806  0.86291396  1
  Dy  Dy17  1  0.63162101  0.59967194  0.13708604  1
  Dy  Dy18  1  0.13162101  0.13708604  0.59967194  1
  Dy  Dy19  1  0.86837899  0.86291396  0.40032806  1
