# generated using pymatgen
data_Yb3Cu6Sn5
_symmetry_space_group_name_H-M   'P 1'
_cell_length_a   4.38937419
_cell_length_b   8.36354986
_cell_length_c   8.36354986
_cell_angle_alpha   72.53539632
_cell_angle_beta   74.78683209
_cell_angle_gamma   74.78683215
_symmetry_Int_Tables_number   1
_chemical_formula_structural   Yb3Cu6Sn5
_chemical_formula_sum   'Yb3 Cu6 Sn5'
_cell_volume   276.93261527
_cell_formula_units_Z   1
loop_
 _symmetry_equiv_pos_site_id
 _symmetry_equiv_pos_as_xyz
  1  'x, y, z'
loop_
 _atom_site_type_symbol
 _atom_site_label
 _atom_site_symmetry_multiplicity
 _atom_site_fract_x
 _atom_site_fract_y
 _atom_site_fract_z
 _atom_site_occupancy
  Cu  Cu0  1  0.50000000  0.30575761  0.69424239  1
  Cu  Cu1  1  0.50000000  0.69424239  0.30575761  1
  Cu  Cu2  1  0.88318264  0.39704681  0.83658792  1
  Cu  Cu3  1  0.88318264  0.83658792  0.39704681  1
  Cu  Cu4  1  0.11681736  0.16341208  0.60295319  1
  Cu  Cu5  1  0.11681736  0.60295319  0.16341208  1
  Sn  Sn6  1  0.32683419  0.32656552  0.01976611  1
  Sn  Sn7  1  0.00000000  0.50000000  0.50000000  1
  Sn  Sn8  1  0.67316581  0.67343448  0.98023389  1
  Sn  Sn9  1  0.67316581  0.98023389  0.67343448  1
  Sn  Sn10  1  0.32683419  0.01976611  0.32656552  1
  Yb  Yb11  1  0.00000000  0.00000000  0.00000000  1
  Yb  Yb12  1  0.31293011  0.68706989  0.68706989  1
  Yb  Yb13  1  0.68706989  0.31293011  0.31293011  1
