# generated using pymatgen
data_Ge3N4
_symmetry_space_group_name_H-M   'P 1'
_cell_length_a   8.12041170
_cell_length_b   8.12041170
_cell_length_c   3.11005570
_cell_angle_alpha   90.00000000
_cell_angle_beta   90.00000000
_cell_angle_gamma   120.00000005
_symmetry_Int_Tables_number   1
_chemical_formula_structural   Ge3N4
_chemical_formula_sum   'Ge6 N8'
_cell_volume   177.60488016
_cell_formula_units_Z   2
loop_
 _symmetry_equiv_pos_site_id
 _symmetry_equiv_pos_as_xyz
  1  'x, y, z'
loop_
 _atom_site_type_symbol
 _atom_site_label
 _atom_site_symmetry_multiplicity
 _atom_site_fract_x
 _atom_site_fract_y
 _atom_site_fract_z
 _atom_site_occupancy
  N  N0  1  0.66666667  0.33333333  0.75000000  1
  N  N1  1  0.33333333  0.66666667  0.25000000  1
  N  N2  1  0.66957645  0.97232634  0.75000000  1
  N  N3  1  0.69725011  0.66957645  0.25000000  1
  N  N4  1  0.97232634  0.30274989  0.25000000  1
  N  N5  1  0.02767366  0.69725011  0.75000000  1
  N  N6  1  0.33042355  0.02767366  0.25000000  1
  N  N7  1  0.30274989  0.33042355  0.75000000  1
  Ge  Ge8  1  0.82890315  0.23516239  0.75000000  1
  Ge  Ge9  1  0.59374076  0.82890315  0.25000000  1
  Ge  Ge10  1  0.23516239  0.40625924  0.25000000  1
  Ge  Ge11  1  0.76483761  0.59374076  0.75000000  1
  Ge  Ge12  1  0.40625924  0.17109685  0.75000000  1
  Ge  Ge13  1  0.17109685  0.76483761  0.25000000  1
