# generated using pymatgen
data_Fe2P2O7
_symmetry_space_group_name_H-M   'P 1'
_cell_length_a   4.57663597
_cell_length_b   5.29908778
_cell_length_c   5.62399510
_cell_angle_alpha   103.49982982
_cell_angle_beta   98.60712843
_cell_angle_gamma   99.22003664
_symmetry_Int_Tables_number   1
_chemical_formula_structural   Fe2P2O7
_chemical_formula_sum   'Fe2 P2 O7'
_cell_volume   128.40083132
_cell_formula_units_Z   1
loop_
 _symmetry_equiv_pos_site_id
 _symmetry_equiv_pos_as_xyz
  1  'x, y, z'
loop_
 _atom_site_type_symbol
 _atom_site_label
 _atom_site_symmetry_multiplicity
 _atom_site_fract_x
 _atom_site_fract_y
 _atom_site_fract_z
 _atom_site_occupancy
  O  O0  1  0.81744002  0.55127854  0.63081137  1
  O  O1  1  0.30280266  0.87089306  0.64077190  1
  O  O2  1  0.30660070  0.55561018  0.92046772  1
  O  O3  1  0.02977337  0.93203888  0.99943162  1
  O  O4  1  0.24079737  0.31098918  0.36955219  1
  O  O5  1  0.75589710  0.99063135  0.35835955  1
  O  O6  1  0.75166110  0.30699822  0.07980441  1
  P  P7  1  0.12046018  0.71839230  0.78841161  1
  P  P8  1  0.93804386  0.14397245  0.21133443  1
  Fe  Fe9  1  0.54821316  0.60707618  0.29811486  1
  Fe  Fe10  1  0.50971049  0.25521966  0.70234034  1
