# generated using pymatgen
data_La3ZnNi3
_symmetry_space_group_name_H-M   'P 1'
_cell_length_a   4.27231780
_cell_length_b   5.54082469
_cell_length_c   13.62949263
_cell_angle_alpha   90.00000000
_cell_angle_beta   90.00000000
_cell_angle_gamma   112.67670056
_symmetry_Int_Tables_number   1
_chemical_formula_structural   La3ZnNi3
_chemical_formula_sum   'La6 Zn2 Ni6'
_cell_volume   297.69791256
_cell_formula_units_Z   2
loop_
 _symmetry_equiv_pos_site_id
 _symmetry_equiv_pos_as_xyz
  1  'x, y, z'
loop_
 _atom_site_type_symbol
 _atom_site_label
 _atom_site_symmetry_multiplicity
 _atom_site_fract_x
 _atom_site_fract_y
 _atom_site_fract_z
 _atom_site_occupancy
  Ni  Ni0  1  0.29235964  0.58471928  0.25000000  1
  Ni  Ni1  1  0.70764036  0.41528072  0.75000000  1
  Ni  Ni2  1  0.57403430  0.14806860  0.91407172  1
  Ni  Ni3  1  0.42596570  0.85193140  0.08592828  1
  Ni  Ni4  1  0.42596570  0.85193140  0.41407172  1
  Ni  Ni5  1  0.57403430  0.14806860  0.58592828  1
  Zn  Zn6  1  0.00000000  0.00000000  0.50000000  1
  Zn  Zn7  1  0.00000000  0.00000000  0.00000000  1
  La  La8  1  0.71099908  0.42199816  0.39601974  1
  La  La9  1  0.28900092  0.57800184  0.60398026  1
  La  La10  1  0.00730724  0.01461448  0.75000000  1
  La  La11  1  0.99269276  0.98538552  0.25000000  1
  La  La12  1  0.28900092  0.57800184  0.89601974  1
  La  La13  1  0.71099908  0.42199816  0.10398026  1
