# generated using pymatgen
data_Na3CrO4
_symmetry_space_group_name_H-M   'P 1'
_cell_length_a   7.91457523
_cell_length_b   7.91457523
_cell_length_c   7.91457523
_cell_angle_alpha   90.00000000
_cell_angle_beta   90.00000000
_cell_angle_gamma   90.00000000
_symmetry_Int_Tables_number   1
_chemical_formula_structural   Na3CrO4
_chemical_formula_sum   'Na12 Cr4 O16'
_cell_volume   495.77295817
_cell_formula_units_Z   4
loop_
 _symmetry_equiv_pos_site_id
 _symmetry_equiv_pos_as_xyz
  1  'x, y, z'
loop_
 _atom_site_type_symbol
 _atom_site_label
 _atom_site_symmetry_multiplicity
 _atom_site_fract_x
 _atom_site_fract_y
 _atom_site_fract_z
 _atom_site_occupancy
  Na  Na0  1  0.00664872  0.00664872  0.00664872  1
  Na  Na1  1  0.49335128  0.99335128  0.50664872  1
  Na  Na2  1  0.99335128  0.50664872  0.49335128  1
  Na  Na3  1  0.50664872  0.49335128  0.99335128  1
  Na  Na4  1  0.21446841  0.21446841  0.21446841  1
  Na  Na5  1  0.28553159  0.78553159  0.71446841  1
  Na  Na6  1  0.78553159  0.71446841  0.28553159  1
  Na  Na7  1  0.71446841  0.28553159  0.78553159  1
  Na  Na8  1  0.74146796  0.74146796  0.74146796  1
  Na  Na9  1  0.75853204  0.25853204  0.24146796  1
  Na  Na10  1  0.25853204  0.24146796  0.75853204  1
  Na  Na11  1  0.24146796  0.75853204  0.25853204  1
  Cr  Cr12  1  0.49671019  0.49671019  0.49671019  1
  Cr  Cr13  1  0.00328981  0.50328981  0.99671019  1
  Cr  Cr14  1  0.50328981  0.99671019  0.00328981  1
  Cr  Cr15  1  0.99671019  0.00328981  0.50328981  1
  O  O16  1  0.37303152  0.37303152  0.37303152  1
  O  O17  1  0.12696848  0.62696848  0.87303152  1
  O  O18  1  0.62696848  0.87303152  0.12696848  1
  O  O19  1  0.87303152  0.12696848  0.62696848  1
  O  O20  1  0.97082738  0.06034567  0.29203449  1
  O  O21  1  0.52917262  0.93965433  0.79203449  1
  O  O22  1  0.02917262  0.56034567  0.20796551  1
  O  O23  1  0.29203449  0.97082738  0.06034567  1
  O  O24  1  0.47082738  0.43965433  0.70796551  1
  O  O25  1  0.79203449  0.52917262  0.93965433  1
  O  O26  1  0.20796551  0.02917262  0.56034567  1
  O  O27  1  0.70796551  0.47082738  0.43965433  1
  O  O28  1  0.06034567  0.29203449  0.97082738  1
  O  O29  1  0.56034567  0.20796551  0.02917262  1
  O  O30  1  0.43965433  0.70796551  0.47082738  1
  O  O31  1  0.93965433  0.79203449  0.52917262  1
