# generated using pymatgen
data_Y5(MoO6)2
_symmetry_space_group_name_H-M   'P 1'
_cell_length_a   5.78372041
_cell_length_b   6.84380384
_cell_length_c   7.59473660
_cell_angle_alpha   106.29298176
_cell_angle_beta   90.00000000
_cell_angle_gamma   114.99578522
_symmetry_Int_Tables_number   1
_chemical_formula_structural   Y5(MoO6)2
_chemical_formula_sum   'Y5 Mo2 O12'
_cell_volume   259.08164665
_cell_formula_units_Z   1
loop_
 _symmetry_equiv_pos_site_id
 _symmetry_equiv_pos_as_xyz
  1  'x, y, z'
loop_
 _atom_site_type_symbol
 _atom_site_label
 _atom_site_symmetry_multiplicity
 _atom_site_fract_x
 _atom_site_fract_y
 _atom_site_fract_z
 _atom_site_occupancy
  O  O0  1  0.99944325  0.99888649  0.81784158  1
  O  O1  1  0.00055675  0.00111351  0.18215842  1
  O  O2  1  0.49895700  0.99791400  0.20541128  1
  O  O3  1  0.50104300  0.00208600  0.79458872  1
  O  O4  1  0.59745151  0.69051173  0.42544756  1
  O  O5  1  0.90693978  0.30948827  0.57455244  1
  O  O6  1  0.40254849  0.30948827  0.57455244  1
  O  O7  1  0.40937491  0.32897009  0.08383917  1
  O  O8  1  0.08040482  0.67102991  0.91616083  1
  O  O9  1  0.59062509  0.67102991  0.91616083  1
  O  O10  1  0.91959518  0.32897009  0.08383917  1
  O  O11  1  0.09306022  0.69051173  0.42544756  1
  Y  Y12  1  0.50000000  0.00000000  0.50000000  1
  Y  Y13  1  0.18534773  0.37069546  0.82121659  1
  Y  Y14  1  0.81465227  0.62930454  0.17878341  1
  Y  Y15  1  0.80485495  0.60970991  0.63930271  1
  Y  Y16  1  0.19514505  0.39029009  0.36069729  1
  Mo  Mo17  1  0.71843347  0.00000000  0.00000000  1
  Mo  Mo18  1  0.28156653  0.00000000  0.00000000  1
