# generated using pymatgen
data_TmNiO3
_symmetry_space_group_name_H-M   'P 1'
_cell_length_a   5.14549831
_cell_length_b   5.64218469
_cell_length_c   7.34581187
_cell_angle_alpha   90.00000000
_cell_angle_beta   89.89357175
_cell_angle_gamma   90.00000000
_symmetry_Int_Tables_number   1
_chemical_formula_structural   TmNiO3
_chemical_formula_sum   'Tm4 Ni4 O12'
_cell_volume   213.26215338
_cell_formula_units_Z   4
loop_
 _symmetry_equiv_pos_site_id
 _symmetry_equiv_pos_as_xyz
  1  'x, y, z'
loop_
 _atom_site_type_symbol
 _atom_site_label
 _atom_site_symmetry_multiplicity
 _atom_site_fract_x
 _atom_site_fract_y
 _atom_site_fract_z
 _atom_site_occupancy
  O  O0  1  0.69470778  0.31418553  0.44466342  1
  O  O1  1  0.80529338  0.81418515  0.05533643  1
  O  O2  1  0.30529181  0.68581551  0.55533642  1
  O  O3  1  0.19470816  0.18581409  0.94466341  1
  O  O4  1  0.19538378  0.18503439  0.55564707  1
  O  O5  1  0.30461620  0.68503401  0.94435276  1
  O  O6  1  0.80461581  0.81496665  0.44435277  1
  O  O7  1  0.69538339  0.31496523  0.05564708  1
  O  O8  1  0.11541511  0.46314868  0.25061942  1
  O  O9  1  0.38458566  0.96314830  0.24938118  1
  O  O10  1  0.61541588  0.03685094  0.75061866  1
  O  O11  1  0.88458448  0.53685236  0.74938178  1
  Ni  Ni12  1  0.00000000  0.49999962  0.00000000  1
  Ni  Ni13  1  0.50000077  0.00000000  0.50000060  1
  Ni  Ni14  1  0.00000058  0.49999962  0.49999961  1
  Ni  Ni15  1  0.50000019  0.00000000  0.99999963  1
  Tm  Tm16  1  0.47572119  0.41518089  0.74974391  1
  Tm  Tm17  1  0.02427878  0.91518051  0.75025592  1
  Tm  Tm18  1  0.52427840  0.58482015  0.25025593  1
  Tm  Tm19  1  0.97572081  0.08481873  0.24974392  1
