# generated using pymatgen
data_BaNd2Mn2O7
_symmetry_space_group_name_H-M   'P 1'
_cell_length_a   3.97005735
_cell_length_b   3.97005735
_cell_length_c   10.66546954
_cell_angle_alpha   100.72628184
_cell_angle_beta   100.72628187
_cell_angle_gamma   89.99999996
_symmetry_Int_Tables_number   1
_chemical_formula_structural   BaNd2Mn2O7
_chemical_formula_sum   'Ba1 Nd2 Mn2 O7'
_cell_volume   162.17474477
_cell_formula_units_Z   1
loop_
 _symmetry_equiv_pos_site_id
 _symmetry_equiv_pos_as_xyz
  1  'x, y, z'
loop_
 _atom_site_type_symbol
 _atom_site_label
 _atom_site_symmetry_multiplicity
 _atom_site_fract_x
 _atom_site_fract_y
 _atom_site_fract_z
 _atom_site_occupancy
  O  O0  1  0.89117879  0.39117751  0.78235642  1
  O  O1  1  0.39117743  0.89117686  0.78235628  1
  O  O2  1  0.10882267  0.60882256  0.21764345  1
  O  O3  1  0.60882136  0.10882064  0.21764323  1
  O  O4  1  0.79336219  0.79336417  0.58672593  1
  O  O5  1  0.00000000  0.00000000  0.00000000  1
  O  O6  1  0.20663669  0.20663591  0.41327376  1
  Mn  Mn7  1  0.89962072  0.89961993  0.79923928  1
  Mn  Mn8  1  0.10038074  0.10038015  0.20076059  1
  Ba  Ba9  1  0.49999981  0.49999934  0.99999988  1
  Nd  Nd10  1  0.31794259  0.31794245  0.63588702  1
  Nd  Nd11  1  0.68205629  0.68205762  0.36411267  1
