# generated using pymatgen
data_K3BeF5
_symmetry_space_group_name_H-M   'P 1'
_cell_length_a   7.26336507
_cell_length_b   7.26336507
_cell_length_c   10.93871057
_cell_angle_alpha   90.00000000
_cell_angle_beta   90.00000000
_cell_angle_gamma   90.00000000
_symmetry_Int_Tables_number   1
_chemical_formula_structural   K3BeF5
_chemical_formula_sum   'K12 Be4 F20'
_cell_volume   577.08777943
_cell_formula_units_Z   4
loop_
 _symmetry_equiv_pos_site_id
 _symmetry_equiv_pos_as_xyz
  1  'x, y, z'
loop_
 _atom_site_type_symbol
 _atom_site_label
 _atom_site_symmetry_multiplicity
 _atom_site_fract_x
 _atom_site_fract_y
 _atom_site_fract_z
 _atom_site_occupancy
  Be  Be0  1  0.25000000  0.75000000  0.00000000  1
  Be  Be1  1  0.75000000  0.25000000  0.00000000  1
  Be  Be2  1  0.75000000  0.25000000  0.50000000  1
  Be  Be3  1  0.25000000  0.75000000  0.50000000  1
  F  F4  1  0.87256243  0.12660137  0.58510554  1
  F  F5  1  0.87339863  0.12743757  0.91489446  1
  F  F6  1  0.37339863  0.87256243  0.58510554  1
  F  F7  1  0.12660137  0.62743757  0.58510554  1
  F  F8  1  0.25000000  0.25000000  0.24956571  1
  F  F9  1  0.75000000  0.75000000  0.25043429  1
  F  F10  1  0.75000000  0.75000000  0.75043429  1
  F  F11  1  0.25000000  0.25000000  0.74956571  1
  F  F12  1  0.37256243  0.87339863  0.91489446  1
  F  F13  1  0.12743757  0.62660137  0.91489446  1
  F  F14  1  0.62660137  0.37256243  0.91489446  1
  F  F15  1  0.37256243  0.62660137  0.41489446  1
  F  F16  1  0.12743757  0.87339863  0.41489446  1
  F  F17  1  0.12660137  0.87256243  0.08510554  1
  F  F18  1  0.62743757  0.37339863  0.58510554  1
  F  F19  1  0.62660137  0.12743757  0.41489446  1
  F  F20  1  0.37339863  0.62743757  0.08510554  1
  F  F21  1  0.87256243  0.37339863  0.08510554  1
  F  F22  1  0.62743757  0.12660137  0.08510554  1
  F  F23  1  0.87339863  0.37256243  0.41489446  1
  K  K24  1  0.93167834  0.43167834  0.75000000  1
  K  K25  1  0.43167834  0.56832166  0.75000000  1
  K  K26  1  0.56832166  0.06832166  0.75000000  1
  K  K27  1  0.06832166  0.56832166  0.25000000  1
  K  K28  1  0.93167834  0.06832166  0.25000000  1
  K  K29  1  0.56832166  0.43167834  0.25000000  1
  K  K30  1  0.43167834  0.93167834  0.25000000  1
  K  K31  1  0.25000000  0.25000000  0.49978276  1
  K  K32  1  0.75000000  0.75000000  0.00021724  1
  K  K33  1  0.75000000  0.75000000  0.50021724  1
  K  K34  1  0.25000000  0.25000000  0.99978276  1
  K  K35  1  0.06832166  0.93167834  0.75000000  1
