# generated using pymatgen
data_LiH4(NO2)3
_symmetry_space_group_name_H-M   'P 1'
_cell_length_a   6.92149101
_cell_length_b   7.42425931
_cell_length_c   7.42425931
_cell_angle_alpha   63.01408930
_cell_angle_beta   71.39759770
_cell_angle_gamma   71.39759770
_symmetry_Int_Tables_number   1
_chemical_formula_structural   LiH4(NO2)3
_chemical_formula_sum   'Li2 H8 N6 O12'
_cell_volume   315.27656024
_cell_formula_units_Z   2
loop_
 _symmetry_equiv_pos_site_id
 _symmetry_equiv_pos_as_xyz
  1  'x, y, z'
loop_
 _atom_site_type_symbol
 _atom_site_label
 _atom_site_symmetry_multiplicity
 _atom_site_fract_x
 _atom_site_fract_y
 _atom_site_fract_z
 _atom_site_occupancy
  Li  Li0  1  0.25000000  0.07403063  0.92596937  1
  Li  Li1  1  0.75000000  0.92596937  0.07403063  1
  H  H2  1  0.27364467  0.90302721  0.31577979  1
  H  H3  1  0.72635533  0.09697279  0.68422021  1
  H  H4  1  0.22635533  0.68422021  0.09697279  1
  H  H5  1  0.77364467  0.31577979  0.90302721  1
  H  H6  1  0.29710942  0.13124119  0.22964703  1
  H  H7  1  0.70289058  0.86875881  0.77035297  1
  H  H8  1  0.20289058  0.77035297  0.86875881  1
  H  H9  1  0.79710942  0.22964703  0.13124119  1
  N  N10  1  0.25000000  0.52809809  0.47190191  1
  N  N11  1  0.75000000  0.47190191  0.52809809  1
  N  N12  1  0.26182209  0.34119694  0.46773857  1
  N  N13  1  0.73817791  0.65880306  0.53226143  1
  N  N14  1  0.23817791  0.53226143  0.65880306  1
  N  N15  1  0.76182209  0.46773857  0.34119694  1
  O  O16  1  0.25949617  0.17185156  0.61652441  1
  O  O17  1  0.74050383  0.82814844  0.38347559  1
  O  O18  1  0.24050383  0.38347559  0.82814844  1
  O  O19  1  0.75949617  0.61652441  0.17185156  1
  O  O20  1  0.31535204  0.01759516  0.18793889  1
  O  O21  1  0.68464796  0.98240484  0.81206111  1
  O  O22  1  0.18464796  0.81206111  0.98240484  1
  O  O23  1  0.81535204  0.18793889  0.01759516  1
  O  O24  1  0.22634505  0.71369074  0.63724449  1
  O  O25  1  0.77365495  0.28630926  0.36275551  1
  O  O26  1  0.27365495  0.36275551  0.28630926  1
  O  O27  1  0.72634505  0.63724449  0.71369074  1
