# generated using pymatgen
data_GdCdCu
_symmetry_space_group_name_H-M   'P 1'
_cell_length_a   7.48819057
_cell_length_b   7.48819057
_cell_length_c   3.97190155
_cell_angle_alpha   90.00000000
_cell_angle_beta   90.00000000
_cell_angle_gamma   119.99999997
_symmetry_Int_Tables_number   1
_chemical_formula_structural   GdCdCu
_chemical_formula_sum   'Gd3 Cd3 Cu3'
_cell_volume   192.87808419
_cell_formula_units_Z   3
loop_
 _symmetry_equiv_pos_site_id
 _symmetry_equiv_pos_as_xyz
  1  'x, y, z'
loop_
 _atom_site_type_symbol
 _atom_site_label
 _atom_site_symmetry_multiplicity
 _atom_site_fract_x
 _atom_site_fract_y
 _atom_site_fract_z
 _atom_site_occupancy
  Cu  Cu0  1  0.00000000  0.00000000  0.50000000  1
  Cu  Cu1  1  0.33333333  0.66666667  0.00000000  1
  Cu  Cu2  1  0.66666667  0.33333333  0.00000000  1
  Cd  Cd3  1  0.24989224  0.00000000  0.00000000  1
  Cd  Cd4  1  0.75010776  0.75010776  0.00000000  1
  Cd  Cd5  1  0.00000000  0.24989224  0.00000000  1
  Gd  Gd6  1  0.58814235  0.00000000  0.50000000  1
  Gd  Gd7  1  0.41185765  0.41185765  0.50000000  1
  Gd  Gd8  1  0.00000000  0.58814235  0.50000000  1
