# generated using pymatgen
data_ErAg(WO4)2
_symmetry_space_group_name_H-M   'P 1'
_cell_length_a   7.27900450
_cell_length_b   7.37800975
_cell_length_c   7.37800976
_cell_angle_alpha   94.60728584
_cell_angle_beta   114.10447597
_cell_angle_gamma   114.10447588
_symmetry_Int_Tables_number   1
_chemical_formula_structural   ErAg(WO4)2
_chemical_formula_sum   'Er2 Ag2 W4 O16'
_cell_volume   315.28989978
_cell_formula_units_Z   2
loop_
 _symmetry_equiv_pos_site_id
 _symmetry_equiv_pos_as_xyz
  1  'x, y, z'
loop_
 _atom_site_type_symbol
 _atom_site_label
 _atom_site_symmetry_multiplicity
 _atom_site_fract_x
 _atom_site_fract_y
 _atom_site_fract_z
 _atom_site_occupancy
  O  O0  1  0.34094361  0.02186725  0.02186725  1
  O  O1  1  0.65905639  0.97813275  0.97813275  1
  O  O2  1  0.91063099  0.95971803  0.69952627  1
  O  O3  1  0.08936901  0.30047373  0.04028197  1
  O  O4  1  0.08936901  0.04028197  0.30047373  1
  O  O5  1  0.91063099  0.69952627  0.95971803  1
  O  O6  1  0.13961008  0.44688894  0.44688894  1
  O  O7  1  0.86038992  0.55311106  0.55311106  1
  O  O8  1  0.76029380  0.35546640  0.10366914  1
  O  O9  1  0.23970620  0.89633086  0.64453360  1
  O  O10  1  0.23970620  0.64453360  0.89633086  1
  O  O11  1  0.76029380  0.10366914  0.35546640  1
  O  O12  1  0.65211822  0.68802050  0.21702794  1
  O  O13  1  0.34788178  0.78297206  0.31197950  1
  O  O14  1  0.34788178  0.31197950  0.78297206  1
  O  O15  1  0.65211822  0.21702794  0.68802050  1
  Ag  Ag16  1  0.52188521  0.68137618  0.68137618  1
  Ag  Ag17  1  0.47811479  0.31862382  0.31862382  1
  Er  Er18  1  0.00000000  0.30096792  0.69903208  1
  Er  Er19  1  0.00000000  0.69903208  0.30096792  1
  W  W20  1  0.02810466  0.78743861  0.78743861  1
  W  W21  1  0.97189534  0.21256139  0.21256139  1
  W  W22  1  0.50000000  0.83647717  0.16352283  1
  W  W23  1  0.50000000  0.16352283  0.83647717  1
