# generated using pymatgen
data_Mn6Ni16As7
_symmetry_space_group_name_H-M   'P 1'
_cell_length_a   8.01102996
_cell_length_b   8.01102996
_cell_length_c   8.01102996
_cell_angle_alpha   59.99999999
_cell_angle_beta   60.00000001
_cell_angle_gamma   60.00000001
_symmetry_Int_Tables_number   1
_chemical_formula_structural   Mn6Ni16As7
_chemical_formula_sum   'Mn6 Ni16 As7'
_cell_volume   363.53821469
_cell_formula_units_Z   1
loop_
 _symmetry_equiv_pos_site_id
 _symmetry_equiv_pos_as_xyz
  1  'x, y, z'
loop_
 _atom_site_type_symbol
 _atom_site_label
 _atom_site_symmetry_multiplicity
 _atom_site_fract_x
 _atom_site_fract_y
 _atom_site_fract_z
 _atom_site_occupancy
  Mn  Mn0  1  0.81200469  0.18799531  0.81200469  1
  Mn  Mn1  1  0.18799531  0.81200469  0.81200469  1
  Mn  Mn2  1  0.18799531  0.81200469  0.18799531  1
  Mn  Mn3  1  0.18799531  0.18799531  0.81200469  1
  Mn  Mn4  1  0.81200469  0.81200469  0.18799531  1
  Mn  Mn5  1  0.81200469  0.18799531  0.18799531  1
  Ni  Ni6  1  0.61781590  0.61781590  0.14655229  1
  Ni  Ni7  1  0.14655229  0.61781590  0.61781590  1
  Ni  Ni8  1  0.61781590  0.14655229  0.61781590  1
  Ni  Ni9  1  0.85344771  0.38218410  0.38218410  1
  Ni  Ni10  1  0.61781590  0.61781590  0.61781590  1
  Ni  Ni11  1  0.38218410  0.85344771  0.38218410  1
  Ni  Ni12  1  0.38218410  0.38218410  0.85344771  1
  Ni  Ni13  1  0.16393883  0.16393883  0.16393883  1
  Ni  Ni14  1  0.83606117  0.83606117  0.49181650  1
  Ni  Ni15  1  0.49181650  0.83606117  0.83606117  1
  Ni  Ni16  1  0.83606117  0.49181650  0.83606117  1
  Ni  Ni17  1  0.50818350  0.16393883  0.16393883  1
  Ni  Ni18  1  0.16393883  0.50818350  0.16393883  1
  Ni  Ni19  1  0.16393883  0.16393883  0.50818350  1
  Ni  Ni20  1  0.83606117  0.83606117  0.83606117  1
  Ni  Ni21  1  0.38218410  0.38218410  0.38218410  1
  As  As22  1  0.50000000  0.00000000  0.50000000  1
  As  As23  1  0.00000000  0.50000000  0.00000000  1
  As  As24  1  0.00000000  0.50000000  0.50000000  1
  As  As25  1  0.50000000  0.50000000  0.00000000  1
  As  As26  1  0.00000000  0.00000000  0.50000000  1
  As  As27  1  0.50000000  0.00000000  0.00000000  1
  As  As28  1  0.50000000  0.50000000  0.50000000  1
