# generated using pymatgen
data_ScCoGe2
_symmetry_space_group_name_H-M   'P 1'
_cell_length_a   7.97048942
_cell_length_b   9.19316911
_cell_length_c   10.12956575
_cell_angle_alpha   90.00000000
_cell_angle_beta   90.00000000
_cell_angle_gamma   90.00000000
_symmetry_Int_Tables_number   1
_chemical_formula_structural   ScCoGe2
_chemical_formula_sum   'Sc12 Co12 Ge24'
_cell_volume   742.23437944
_cell_formula_units_Z   12
loop_
 _symmetry_equiv_pos_site_id
 _symmetry_equiv_pos_as_xyz
  1  'x, y, z'
loop_
 _atom_site_type_symbol
 _atom_site_label
 _atom_site_symmetry_multiplicity
 _atom_site_fract_x
 _atom_site_fract_y
 _atom_site_fract_z
 _atom_site_occupancy
  Sc  Sc0  1  0.00000000  0.33569349  0.32208839  1
  Sc  Sc1  1  0.00000000  0.66430651  0.67791161  1
  Sc  Sc2  1  0.00000000  0.83569349  0.17791161  1
  Sc  Sc3  1  0.00000000  0.16430651  0.82208839  1
  Sc  Sc4  1  0.23811417  0.67414214  0.95198255  1
  Sc  Sc5  1  0.23811417  0.32585786  0.04801745  1
  Sc  Sc6  1  0.76188583  0.17414214  0.54801745  1
  Sc  Sc7  1  0.76188583  0.82585786  0.45198255  1
  Sc  Sc8  1  0.76188583  0.32585786  0.04801745  1
  Sc  Sc9  1  0.76188583  0.67414214  0.95198255  1
  Sc  Sc10  1  0.23811417  0.82585786  0.45198255  1
  Sc  Sc11  1  0.23811417  0.17414214  0.54801745  1
  Co  Co12  1  0.75257295  0.00000000  0.00000000  1
  Co  Co13  1  0.24742705  0.50000000  0.50000000  1
  Co  Co14  1  0.24742705  0.00000000  0.00000000  1
  Co  Co15  1  0.75257295  0.50000000  0.50000000  1
  Co  Co16  1  0.25324152  0.08967308  0.25404315  1
  Co  Co17  1  0.25324152  0.91032692  0.74595685  1
  Co  Co18  1  0.74675848  0.58967308  0.24595685  1
  Co  Co19  1  0.74675848  0.41032692  0.75404315  1
  Co  Co20  1  0.74675848  0.91032692  0.74595685  1
  Co  Co21  1  0.74675848  0.08967308  0.25404315  1
  Co  Co22  1  0.25324152  0.41032692  0.75404315  1
  Co  Co23  1  0.25324152  0.58967308  0.24595685  1
  Ge  Ge24  1  0.50000000  0.54198678  0.12311234  1
  Ge  Ge25  1  0.50000000  0.45801322  0.87688766  1
  Ge  Ge26  1  0.50000000  0.04198678  0.37688766  1
  Ge  Ge27  1  0.50000000  0.95801322  0.62311234  1
  Ge  Ge28  1  0.00000000  0.04067887  0.37627302  1
  Ge  Ge29  1  0.00000000  0.95932113  0.62372698  1
  Ge  Ge30  1  0.00000000  0.54067887  0.12372698  1
  Ge  Ge31  1  0.00000000  0.45932113  0.87627302  1
  Ge  Ge32  1  0.50000000  0.12714766  0.09581210  1
  Ge  Ge33  1  0.50000000  0.87285234  0.90418790  1
  Ge  Ge34  1  0.50000000  0.62714766  0.40418790  1
  Ge  Ge35  1  0.50000000  0.37285234  0.59581210  1
  Ge  Ge36  1  0.65678287  0.34174513  0.31934005  1
  Ge  Ge37  1  0.65678287  0.65825487  0.68065995  1
  Ge  Ge38  1  0.34321713  0.84174513  0.18065995  1
  Ge  Ge39  1  0.34321713  0.15825487  0.81934005  1
  Ge  Ge40  1  0.34321713  0.65825487  0.68065995  1
  Ge  Ge41  1  0.34321713  0.34174513  0.31934005  1
  Ge  Ge42  1  0.65678287  0.15825487  0.81934005  1
  Ge  Ge43  1  0.65678287  0.84174513  0.18065995  1
  Ge  Ge44  1  0.00000000  0.37363536  0.60365966  1
  Ge  Ge45  1  0.00000000  0.62636464  0.39634034  1
  Ge  Ge46  1  0.00000000  0.87363536  0.89634034  1
  Ge  Ge47  1  0.00000000  0.12636464  0.10365966  1
