# generated using pymatgen
data_Sr2V2O7
_symmetry_space_group_name_H-M   'P 1'
_cell_length_a   7.17932958
_cell_length_b   7.23792479
_cell_length_c   13.16761493
_cell_angle_alpha   98.87558611
_cell_angle_beta   93.57819775
_cell_angle_gamma   90.89196099
_symmetry_Int_Tables_number   1
_chemical_formula_structural   Sr2V2O7
_chemical_formula_sum   'Sr8 V8 O28'
_cell_volume   674.50323305
_cell_formula_units_Z   4
loop_
 _symmetry_equiv_pos_site_id
 _symmetry_equiv_pos_as_xyz
  1  'x, y, z'
loop_
 _atom_site_type_symbol
 _atom_site_label
 _atom_site_symmetry_multiplicity
 _atom_site_fract_x
 _atom_site_fract_y
 _atom_site_fract_z
 _atom_site_occupancy
  O  O0  1  0.69214890  0.39782622  0.54437413  1
  O  O1  1  0.30785249  0.60217299  0.45562554  1
  O  O2  1  0.93258550  0.57113478  0.71270855  1
  O  O3  1  0.06741513  0.42886559  0.28729178  1
  O  O4  1  0.69660854  0.06595446  0.96823176  1
  O  O5  1  0.30339109  0.93404595  0.03176838  1
  O  O6  1  0.46545913  0.03681983  0.78738399  1
  O  O7  1  0.53454128  0.96317939  0.21261646  1
  O  O8  1  0.99102837  0.67229201  0.95230139  1
  O  O9  1  0.00897186  0.32770891  0.04769875  1
  O  O10  1  0.60952186  0.74616518  0.66208566  1
  O  O11  1  0.39047765  0.25383387  0.33791444  1
  O  O12  1  0.30256041  0.36352415  0.66306302  1
  O  O13  1  0.69743964  0.63647625  0.33693701  1
  O  O14  1  0.05346753  0.97840311  0.85279319  1
  O  O15  1  0.94653231  0.02159603  0.14720646  1
  O  O16  1  0.00906900  0.86675539  0.33915413  1
  O  O17  1  0.99093099  0.13324553  0.66084582  1
  O  O18  1  0.30112966  0.65240229  0.17095965  1
  O  O19  1  0.69886937  0.34759873  0.82904036  1
  O  O20  1  0.92647290  0.72298069  0.52921931  1
  O  O21  1  0.07352726  0.27701836  0.47078033  1
  O  O22  1  0.30998078  0.00679429  0.55497011  1
  O  O23  1  0.61815020  0.68305108  0.05111584  1
  O  O24  1  0.69610803  0.32029908  0.16063343  1
  O  O25  1  0.30389268  0.67970093  0.83936654  1
  O  O26  1  0.69001852  0.99320525  0.44502997  1
  O  O27  1  0.38184982  0.31694986  0.94888409  1
  V  V28  1  0.83470146  0.80555212  0.41085432  1
  V  V29  1  0.16529856  0.19444830  0.58914572  1
  V  V30  1  0.84052264  0.17962819  0.08301624  1
  V  V31  1  0.15947745  0.82037186  0.91698387  1
  V  V32  1  0.55637045  0.20084750  0.88530085  1
  V  V33  1  0.44362923  0.79915308  0.11469912  1
  V  V34  1  0.78272161  0.60387054  0.61099492  1
  V  V35  1  0.21727831  0.39612902  0.38900537  1
  Sr  Sr36  1  0.74663125  0.27299740  0.34859488  1
  Sr  Sr37  1  0.25337003  0.72700280  0.65140524  1
  Sr  Sr38  1  0.07328698  0.34414102  0.84524361  1
  Sr  Sr39  1  0.92671332  0.65585939  0.15475630  1
  Sr  Sr40  1  0.67076824  0.71550774  0.86354519  1
  Sr  Sr41  1  0.32923185  0.28449233  0.13645479  1
  Sr  Sr42  1  0.63559019  0.12717681  0.63636828  1
  Sr  Sr43  1  0.36440982  0.87282325  0.36363165  1
