# generated using pymatgen
data_Rb3Mn2Cl7
_symmetry_space_group_name_H-M   'P 1'
_cell_length_a   5.09981029
_cell_length_b   5.09981029
_cell_length_c   13.70841623
_cell_angle_alpha   100.72003448
_cell_angle_beta   100.72003449
_cell_angle_gamma   90.00000001
_symmetry_Int_Tables_number   1
_chemical_formula_structural   Rb3Mn2Cl7
_chemical_formula_sum   'Rb3 Mn2 Cl7'
_cell_volume   343.97240942
_cell_formula_units_Z   1
loop_
 _symmetry_equiv_pos_site_id
 _symmetry_equiv_pos_as_xyz
  1  'x, y, z'
loop_
 _atom_site_type_symbol
 _atom_site_label
 _atom_site_symmetry_multiplicity
 _atom_site_fract_x
 _atom_site_fract_y
 _atom_site_fract_z
 _atom_site_occupancy
  Cl  Cl0  1  0.90403745  0.40403745  0.80807491  1
  Cl  Cl1  1  0.40403745  0.90403745  0.80807491  1
  Cl  Cl2  1  0.09596255  0.59596255  0.19192509  1
  Cl  Cl3  1  0.59596255  0.09596255  0.19192509  1
  Cl  Cl4  1  0.69278654  0.69278654  0.38557307  1
  Cl  Cl5  1  0.50000000  0.50000000  0.00000000  1
  Cl  Cl6  1  0.30721346  0.30721346  0.61442693  1
  Mn  Mn7  1  0.40161582  0.40161582  0.80323164  1
  Mn  Mn8  1  0.59838418  0.59838418  0.19676836  1
  Rb  Rb9  1  0.18308454  0.18308454  0.36616909  1
  Rb  Rb10  1  0.81691546  0.81691546  0.63383091  1
  Rb  Rb11  1  0.00000000  0.00000000  0.00000000  1
