# generated using pymatgen
data_NaHO
_symmetry_space_group_name_H-M   'P 1'
_cell_length_a   3.42220610
_cell_length_b   3.43911698
_cell_length_c   5.93310378
_cell_angle_alpha   90.00000000
_cell_angle_beta   103.30802837
_cell_angle_gamma   90.00000000
_symmetry_Int_Tables_number   1
_chemical_formula_structural   NaHO
_chemical_formula_sum   'Na2 H2 O2'
_cell_volume   67.95373561
_cell_formula_units_Z   2
loop_
 _symmetry_equiv_pos_site_id
 _symmetry_equiv_pos_as_xyz
  1  'x, y, z'
loop_
 _atom_site_type_symbol
 _atom_site_label
 _atom_site_symmetry_multiplicity
 _atom_site_fract_x
 _atom_site_fract_y
 _atom_site_fract_z
 _atom_site_occupancy
  H  H0  1  0.93282105  0.25000000  0.39766457  1
  H  H1  1  0.06717895  0.75000000  0.60233543  1
  O  O2  1  0.16755475  0.75000000  0.76965051  1
  O  O3  1  0.83244525  0.25000000  0.23034949  1
  Na  Na4  1  0.68138281  0.25000000  0.82481052  1
  Na  Na5  1  0.31861719  0.75000000  0.17518948  1
