# generated using pymatgen
data_RuCl3
_symmetry_space_group_name_H-M   'P 1'
_cell_length_a   6.56077977
_cell_length_b   6.56077977
_cell_length_c   5.70864325
_cell_angle_alpha   90.00000000
_cell_angle_beta   90.00000000
_cell_angle_gamma   119.99999996
_symmetry_Int_Tables_number   1
_chemical_formula_structural   RuCl3
_chemical_formula_sum   'Ru2 Cl6'
_cell_volume   212.80138723
_cell_formula_units_Z   2
loop_
 _symmetry_equiv_pos_site_id
 _symmetry_equiv_pos_as_xyz
  1  'x, y, z'
loop_
 _atom_site_type_symbol
 _atom_site_label
 _atom_site_symmetry_multiplicity
 _atom_site_fract_x
 _atom_site_fract_y
 _atom_site_fract_z
 _atom_site_occupancy
  Cl  Cl0  1  0.71116787  0.00000000  0.75000000  1
  Cl  Cl1  1  0.71116787  0.71116787  0.25000000  1
  Cl  Cl2  1  0.28883213  0.00000000  0.25000000  1
  Cl  Cl3  1  0.28883213  0.28883213  0.75000000  1
  Cl  Cl4  1  0.00000000  0.71116787  0.75000000  1
  Cl  Cl5  1  0.00000000  0.28883213  0.25000000  1
  Ru  Ru6  1  0.00000000  0.00000000  0.50000000  1
  Ru  Ru7  1  0.00000000  0.00000000  0.00000000  1
