# generated using pymatgen
data_MgH20S2(NO7)2
_symmetry_space_group_name_H-M   'P 1'
_cell_length_a   6.27176731
_cell_length_b   9.38378661
_cell_length_c   12.66619772
_cell_angle_alpha   90.00000000
_cell_angle_beta   90.00000000
_cell_angle_gamma   107.40065734
_symmetry_Int_Tables_number   1
_chemical_formula_structural   MgH20S2(NO7)2
_chemical_formula_sum   'Mg2 H40 S4 N4 O28'
_cell_volume   711.32902263
_cell_formula_units_Z   2
loop_
 _symmetry_equiv_pos_site_id
 _symmetry_equiv_pos_as_xyz
  1  'x, y, z'
loop_
 _atom_site_type_symbol
 _atom_site_label
 _atom_site_symmetry_multiplicity
 _atom_site_fract_x
 _atom_site_fract_y
 _atom_site_fract_z
 _atom_site_occupancy
  H  H0  1  0.32934423  0.52889466  0.64422001  1
  H  H1  1  0.67065577  0.97110534  0.14422001  1
  H  H2  1  0.67065577  0.47110534  0.35577999  1
  H  H3  1  0.32934423  0.02889466  0.85577999  1
  H  H4  1  0.33931169  0.40392597  0.56220513  1
  H  H5  1  0.66068831  0.09607403  0.06220513  1
  H  H6  1  0.66068831  0.59607403  0.43779487  1
  H  H7  1  0.33931169  0.90392597  0.93779487  1
  H  H8  1  0.00462364  0.35829915  0.31436825  1
  H  H9  1  0.99537636  0.14170085  0.81436825  1
  H  H10  1  0.99537636  0.64170085  0.68563175  1
  H  H11  1  0.00462364  0.85829915  0.18563175  1
  H  H12  1  0.94477862  0.23232029  0.40130432  1
  H  H13  1  0.05522138  0.26767971  0.90130432  1
  H  H14  1  0.05522138  0.76767971  0.59869568  1
  H  H15  1  0.94477862  0.73232029  0.09869568  1
  H  H16  1  0.09838408  0.74724461  0.37474385  1
  H  H17  1  0.90161592  0.75275539  0.87474385  1
  H  H18  1  0.90161592  0.25275539  0.62525615  1
  H  H19  1  0.09838408  0.24724461  0.12525615  1
  H  H20  1  0.32877861  0.71932504  0.40889408  1
  H  H21  1  0.67122139  0.78067496  0.90889408  1
  H  H22  1  0.67122139  0.28067496  0.59110592  1
  H  H23  1  0.32877861  0.21932504  0.09110592  1
  H  H24  1  0.36247284  0.66828665  0.07081349  1
  H  H25  1  0.63752716  0.83171335  0.57081349  1
  H  H26  1  0.63752716  0.33171335  0.92918651  1
  H  H27  1  0.36247284  0.16828665  0.42918651  1
  H  H28  1  0.47843690  0.57504635  0.15675224  1
  H  H29  1  0.52156310  0.92495365  0.65675224  1
  H  H30  1  0.52156310  0.42495365  0.84324776  1
  H  H31  1  0.47843690  0.07504635  0.34324776  1
  H  H32  1  0.40303631  0.72212305  0.19981953  1
  H  H33  1  0.59696369  0.77787695  0.69981953  1
  H  H34  1  0.59696369  0.27787695  0.80018047  1
  H  H35  1  0.40303631  0.22212305  0.30018047  1
  H  H36  1  0.20513586  0.55753827  0.16595971  1
  H  H37  1  0.79486414  0.94246173  0.66595971  1
  H  H38  1  0.20513586  0.05753827  0.33404029  1
  H  H39  1  0.79486414  0.44246173  0.83404029  1
  N  N40  1  0.36110012  0.63157662  0.14884755  1
  N  N41  1  0.63889988  0.86842338  0.64884755  1
  N  N42  1  0.63889988  0.36842338  0.85115245  1
  N  N43  1  0.36110012  0.13157662  0.35115245  1
  O  O44  1  0.16843794  0.16982624  0.10559176  1
  O  O45  1  0.70271686  0.00311586  0.06970940  1
  O  O46  1  0.70271686  0.50311586  0.43029060  1
  O  O47  1  0.29728314  0.99688414  0.93029060  1
  O  O48  1  0.02980594  0.33869239  0.38948505  1
  O  O49  1  0.97019406  0.16130761  0.88948505  1
  O  O50  1  0.97019406  0.66130761  0.61051495  1
  O  O51  1  0.02980594  0.83869239  0.11051495  1
  O  O52  1  0.16843794  0.66982624  0.39440824  1
  O  O53  1  0.83156206  0.83017376  0.89440824  1
  O  O54  1  0.83156206  0.33017376  0.60559176  1
  O  O55  1  0.29728314  0.49688414  0.56970940  1
  O  O56  1  0.95709262  0.88255280  0.32182193  1
  O  O57  1  0.04290738  0.61744720  0.82182193  1
  O  O58  1  0.04290738  0.11744720  0.67817807  1
  O  O59  1  0.58990938  0.40239345  0.23101672  1
  O  O60  1  0.62614903  0.77918502  0.43351046  1
  O  O61  1  0.37385097  0.72081498  0.93351046  1
  O  O62  1  0.37385097  0.22081498  0.56648954  1
  O  O63  1  0.62614903  0.27918502  0.06648954  1
  O  O64  1  0.78721257  0.04809413  0.41766767  1
  O  O65  1  0.21278743  0.45190587  0.91766767  1
  O  O66  1  0.21278743  0.95190587  0.58233233  1
  O  O67  1  0.78721257  0.54809413  0.08233233  1
  O  O68  1  0.58990938  0.90239345  0.26898328  1
  O  O69  1  0.41009062  0.59760655  0.76898328  1
  O  O70  1  0.41009062  0.09760655  0.73101672  1
  O  O71  1  0.95709262  0.38255280  0.17817807  1
  Mg  Mg72  1  0.00000000  0.00000000  0.00000000  1
  Mg  Mg73  1  0.00000000  0.50000000  0.50000000  1
  S  S74  1  0.74268043  0.40484938  0.13952539  1
  S  S75  1  0.25731957  0.09515062  0.63952539  1
  S  S76  1  0.25731957  0.59515062  0.86047461  1
  S  S77  1  0.74268043  0.90484938  0.36047461  1
