# generated using pymatgen
data_Li2H12C8N2O13
_symmetry_space_group_name_H-M   'P 1'
_cell_length_a   7.28979054
_cell_length_b   9.10327492
_cell_length_c   11.85780043
_cell_angle_alpha   90.00000000
_cell_angle_beta   90.00000000
_cell_angle_gamma   107.20138355
_symmetry_Int_Tables_number   1
_chemical_formula_structural   Li2H12C8N2O13
_chemical_formula_sum   'Li4 H24 C16 N4 O26'
_cell_volume   751.69825049
_cell_formula_units_Z   2
loop_
 _symmetry_equiv_pos_site_id
 _symmetry_equiv_pos_as_xyz
  1  'x, y, z'
loop_
 _atom_site_type_symbol
 _atom_site_label
 _atom_site_symmetry_multiplicity
 _atom_site_fract_x
 _atom_site_fract_y
 _atom_site_fract_z
 _atom_site_occupancy
  Li  Li0  1  0.60949444  0.93727988  0.75000000  1
  Li  Li1  1  0.39050556  0.06272012  0.25000000  1
  Li  Li2  1  0.15126140  0.95186971  0.75000000  1
  Li  Li3  1  0.84873860  0.04813029  0.25000000  1
  H  H4  1  0.74047957  0.99724662  0.96547430  1
  H  H5  1  0.25952043  0.00275338  0.03452570  1
  H  H6  1  0.25952043  0.00275338  0.46547430  1
  H  H7  1  0.74047957  0.99724662  0.53452570  1
  H  H8  1  0.98647813  0.15554491  0.81630641  1
  H  H9  1  0.01352187  0.84445509  0.18369359  1
  H  H10  1  0.01352187  0.84445509  0.31630641  1
  H  H11  1  0.98647813  0.15554491  0.68369359  1
  H  H12  1  0.37362389  0.65839161  0.81651732  1
  H  H13  1  0.62637611  0.34160839  0.18348268  1
  H  H14  1  0.62637611  0.34160839  0.31651732  1
  H  H15  1  0.37362389  0.65839161  0.68348268  1
  H  H16  1  0.52423866  0.84515740  0.31491208  1
  H  H17  1  0.47576134  0.15484260  0.68508792  1
  H  H18  1  0.47576134  0.15484260  0.81491208  1
  H  H19  1  0.52423866  0.84515740  0.18508792  1
  H  H20  1  0.83156494  0.59316665  0.44890828  1
  H  H21  1  0.16843506  0.40683335  0.55109172  1
  H  H22  1  0.16843506  0.40683335  0.94890828  1
  H  H23  1  0.83156494  0.59316665  0.05109172  1
  H  H24  1  0.56778281  0.84795571  0.96161538  1
  H  H25  1  0.43221719  0.15204429  0.03838462  1
  H  H26  1  0.43221719  0.15204429  0.46161538  1
  H  H27  1  0.56778281  0.84795571  0.53838462  1
  C  C28  1  0.76110415  0.50871852  0.84845149  1
  C  C29  1  0.23889585  0.49128148  0.15154851  1
  C  C30  1  0.23889585  0.49128148  0.34845149  1
  C  C31  1  0.76110415  0.50871852  0.65154851  1
  C  C32  1  0.89548836  0.65812166  0.84865689  1
  C  C33  1  0.10451164  0.34187834  0.15134311  1
  C  C34  1  0.10451164  0.34187834  0.34865689  1
  C  C35  1  0.89548836  0.65812166  0.65134311  1
  C  C36  1  0.67305047  0.40852294  0.94995920  1
  C  C37  1  0.32694953  0.59147706  0.05004080  1
  C  C38  1  0.32694953  0.59147706  0.44995920  1
  C  C39  1  0.67305047  0.40852294  0.55004080  1
  C  C40  1  0.99477222  0.76131893  0.94683330  1
  C  C41  1  0.00522778  0.23868107  0.05316670  1
  C  C42  1  0.00522778  0.23868107  0.44683330  1
  C  C43  1  0.99477222  0.76131893  0.55316670  1
  N  N44  1  0.70021833  0.44082957  0.75000000  1
  N  N45  1  0.29978167  0.55917043  0.25000000  1
  N  N46  1  0.95590947  0.72482512  0.75000000  1
  N  N47  1  0.04409053  0.27517488  0.25000000  1
  O  O48  1  0.42375031  0.72147504  0.75000000  1
  O  O49  1  0.57624969  0.27852496  0.25000000  1
  O  O50  1  0.43591716  0.08425107  0.75000000  1
  O  O51  1  0.56408284  0.91574893  0.25000000  1
  O  O52  1  0.94793003  0.71534403  0.45052441  1
  O  O53  1  0.05206997  0.28465597  0.54947559  1
  O  O54  1  0.05206997  0.28465597  0.95052441  1
  O  O55  1  0.94793003  0.71534403  0.04947559  1
  O  O56  1  0.71996015  0.46338359  0.44950631  1
  O  O57  1  0.28003985  0.53661641  0.55049369  1
  O  O58  1  0.28003985  0.53661641  0.94950631  1
  O  O59  1  0.71996015  0.46338359  0.05049369  1
  O  O60  1  0.11902103  0.88340890  0.92276100  1
  O  O61  1  0.88097897  0.11659110  0.07723900  1
  O  O62  1  0.88097897  0.11659110  0.42276100  1
  O  O63  1  0.11902103  0.88340890  0.57723900  1
  O  O64  1  0.66093893  0.92106193  0.91270055  1
  O  O65  1  0.33906107  0.07893807  0.08729945  1
  O  O66  1  0.33906107  0.07893807  0.41270055  1
  O  O67  1  0.66093893  0.92106193  0.58729945  1
  O  O68  1  0.96821383  0.08800162  0.75000000  1
  O  O69  1  0.03178617  0.91199838  0.25000000  1
  O  O70  1  0.55992422  0.27842711  0.93273339  1
  O  O71  1  0.44007578  0.72157289  0.06726661  1
  O  O72  1  0.44007578  0.72157289  0.43273339  1
  O  O73  1  0.55992422  0.27842711  0.56726661  1
