# generated using pymatgen
data_Na3H5(CO4)2
_symmetry_space_group_name_H-M   'P 1'
_cell_length_a   3.57124513
_cell_length_b   10.43678282
_cell_length_c   10.35080941
_cell_angle_alpha   106.55697931
_cell_angle_beta   99.93381287
_cell_angle_gamma   89.99999998
_symmetry_Int_Tables_number   1
_chemical_formula_structural   Na3H5(CO4)2
_chemical_formula_sum   'Na6 H10 C4 O16'
_cell_volume   363.76386364
_cell_formula_units_Z   2
loop_
 _symmetry_equiv_pos_site_id
 _symmetry_equiv_pos_as_xyz
  1  'x, y, z'
loop_
 _atom_site_type_symbol
 _atom_site_label
 _atom_site_symmetry_multiplicity
 _atom_site_fract_x
 _atom_site_fract_y
 _atom_site_fract_z
 _atom_site_occupancy
  H  H0  1  0.53510605  0.36287364  0.51991047  1
  H  H1  1  0.01519558  0.13712636  0.48008953  1
  H  H2  1  0.46489395  0.63712636  0.48008953  1
  H  H3  1  0.98480442  0.86287364  0.51991047  1
  H  H4  1  0.22746506  0.24260387  0.61747802  1
  H  H5  1  0.60998704  0.25739613  0.38252198  1
  H  H6  1  0.00000000  0.50000000  0.00000000  1
  H  H7  1  0.39001296  0.74260387  0.61747802  1
  H  H8  1  0.77253494  0.75739613  0.38252198  1
  H  H9  1  0.00000000  0.00000000  0.00000000  1
  C  C10  1  0.64664453  0.39452210  0.81318276  1
  C  C11  1  0.16653823  0.89452210  0.81318276  1
  C  C12  1  0.35335547  0.60547790  0.18681724  1
  C  C13  1  0.83346177  0.10547790  0.18681724  1
  O  O14  1  0.32554307  0.70996321  0.14544264  1
  O  O15  1  0.17489334  0.49026226  0.10861440  1
  O  O16  1  0.93372106  0.99026226  0.10861440  1
  O  O17  1  0.82510666  0.50973774  0.89138560  1
  O  O18  1  0.18010043  0.79003679  0.85455736  1
  O  O19  1  0.24333593  0.89599307  0.69572200  1
  O  O20  1  0.81989957  0.20996321  0.14544264  1
  O  O21  1  0.67445693  0.29003679  0.85455736  1
  O  O22  1  0.44722082  0.64685601  0.57636104  1
  O  O23  1  0.87085978  0.85314399  0.42363896  1
  O  O24  1  0.55277918  0.35314399  0.42363896  1
  O  O25  1  0.12914022  0.14685601  0.57636104  1
  O  O26  1  0.75666407  0.10400693  0.30427800  1
  O  O27  1  0.54761394  0.60400693  0.30427800  1
  O  O28  1  0.06627894  0.00973774  0.89138560  1
  O  O29  1  0.45238606  0.39599307  0.69572200  1
  Na  Na30  1  0.68619547  0.07240165  0.69501509  1
  Na  Na31  1  0.99118038  0.42759835  0.30498491  1
  Na  Na32  1  0.31380453  0.92759835  0.30498491  1
  Na  Na33  1  0.00881962  0.57240165  0.69501509  1
  Na  Na34  1  0.25326842  0.25000000  0.00000000  1
  Na  Na35  1  0.74673158  0.75000000  0.00000000  1
