# generated using pymatgen
data_Cs3B12H12Cl
_symmetry_space_group_name_H-M   'P 1'
_cell_length_a   7.27033293
_cell_length_b   7.27033292
_cell_length_c   7.27033292
_cell_angle_alpha   92.65221933
_cell_angle_beta   92.65221940
_cell_angle_gamma   92.65221941
_symmetry_Int_Tables_number   1
_chemical_formula_structural   Cs3B12H12Cl
_chemical_formula_sum   'Cs3 B12 H12 Cl1'
_cell_volume   383.01889268
_cell_formula_units_Z   1
loop_
 _symmetry_equiv_pos_site_id
 _symmetry_equiv_pos_as_xyz
  1  'x, y, z'
loop_
 _atom_site_type_symbol
 _atom_site_label
 _atom_site_symmetry_multiplicity
 _atom_site_fract_x
 _atom_site_fract_y
 _atom_site_fract_z
 _atom_site_occupancy
  H  H0  1  0.79749802  0.79749802  0.26587012  1
  H  H1  1  0.79749802  0.26587012  0.79749802  1
  H  H2  1  0.26587012  0.79749802  0.79749802  1
  H  H3  1  0.73412988  0.20250198  0.20250198  1
  H  H4  1  0.90530670  0.90530670  0.61509259  1
  H  H5  1  0.90530670  0.61509259  0.90530670  1
  H  H6  1  0.61509259  0.90530670  0.90530670  1
  H  H7  1  0.38490741  0.09469330  0.09469330  1
  H  H8  1  0.09469330  0.09469330  0.38490741  1
  H  H9  1  0.09469330  0.38490741  0.09469330  1
  H  H10  1  0.20250198  0.20250198  0.73412988  1
  H  H11  1  0.20250198  0.73412988  0.20250198  1
  B  B12  1  0.84410740  0.11783154  0.11783154  1
  B  B13  1  0.15589260  0.88216846  0.88216846  1
  B  B14  1  0.88216846  0.15589260  0.88216846  1
  B  B15  1  0.88216846  0.88216846  0.15589260  1
  B  B16  1  0.05581588  0.05581588  0.22485697  1
  B  B17  1  0.05581588  0.22485697  0.05581588  1
  B  B18  1  0.22485697  0.05581588  0.05581588  1
  B  B19  1  0.77514303  0.94418412  0.94418412  1
  B  B20  1  0.94418412  0.94418412  0.77514303  1
  B  B21  1  0.94418412  0.77514303  0.94418412  1
  B  B22  1  0.11783154  0.11783154  0.84410740  1
  B  B23  1  0.11783154  0.84410740  0.11783154  1
  Cl  Cl24  1  0.50000000  0.50000000  0.50000000  1
  Cs  Cs25  1  0.50000000  0.00000000  0.50000000  1
  Cs  Cs26  1  0.00000000  0.50000000  0.50000000  1
  Cs  Cs27  1  0.50000000  0.50000000  0.00000000  1
