# generated using pymatgen
data_BaH4(IO)2
_symmetry_space_group_name_H-M   'P 1'
_cell_length_a   6.74771711
_cell_length_b   6.74771712
_cell_length_c   8.80088258
_cell_angle_alpha   72.87090052
_cell_angle_beta   72.87090048
_cell_angle_gamma   69.16496595
_symmetry_Int_Tables_number   1
_chemical_formula_structural   BaH4(IO)2
_chemical_formula_sum   'Ba2 H8 I4 O4'
_cell_volume   349.73129111
_cell_formula_units_Z   2
loop_
 _symmetry_equiv_pos_site_id
 _symmetry_equiv_pos_as_xyz
  1  'x, y, z'
loop_
 _atom_site_type_symbol
 _atom_site_label
 _atom_site_symmetry_multiplicity
 _atom_site_fract_x
 _atom_site_fract_y
 _atom_site_fract_z
 _atom_site_occupancy
  H  H0  1  0.28660807  0.86053574  0.38666495  1
  H  H1  1  0.13946426  0.71339193  0.11333505  1
  H  H2  1  0.71339193  0.13946426  0.61333505  1
  H  H3  1  0.86053574  0.28660807  0.88666495  1
  H  H4  1  0.12748501  0.71978644  0.44809608  1
  H  H5  1  0.28021356  0.87251499  0.05190392  1
  H  H6  1  0.71978644  0.12748501  0.94809608  1
  H  H7  1  0.87251499  0.28021356  0.55190392  1
  O  O8  1  0.28652424  0.72227580  0.05523806  1
  O  O9  1  0.27772420  0.71347576  0.44476194  1
  O  O10  1  0.71347576  0.27772420  0.94476194  1
  O  O11  1  0.72227580  0.28652424  0.55523806  1
  I  I12  1  0.80982666  0.77386431  0.85078443  1
  I  I13  1  0.22613569  0.19017334  0.64921557  1
  I  I14  1  0.77386431  0.80982666  0.35078443  1
  I  I15  1  0.19017334  0.22613569  0.14921557  1
  Ba  Ba16  1  0.40433707  0.59566293  0.75000000  1
  Ba  Ba17  1  0.59566293  0.40433707  0.25000000  1
