# generated using pymatgen
data_MgH10(SeO5)2
_symmetry_space_group_name_H-M   'P 1'
_cell_length_a   7.64735680
_cell_length_b   8.33060243
_cell_length_c   9.65770378
_cell_angle_alpha   76.61161940
_cell_angle_beta   66.67663346
_cell_angle_gamma   62.67792922
_symmetry_Int_Tables_number   1
_chemical_formula_structural   MgH10(SeO5)2
_chemical_formula_sum   'Mg2 H20 Se4 O20'
_cell_volume   501.02107826
_cell_formula_units_Z   2
loop_
 _symmetry_equiv_pos_site_id
 _symmetry_equiv_pos_as_xyz
  1  'x, y, z'
loop_
 _atom_site_type_symbol
 _atom_site_label
 _atom_site_symmetry_multiplicity
 _atom_site_fract_x
 _atom_site_fract_y
 _atom_site_fract_z
 _atom_site_occupancy
  H  H0  1  0.39752088  0.29013669  0.05620545  1
  H  H1  1  0.74386302  0.20986331  0.44379455  1
  H  H2  1  0.60247912  0.70986331  0.94379455  1
  H  H3  1  0.25613698  0.79013669  0.55620545  1
  H  H4  1  0.28631954  0.47993469  0.97589632  1
  H  H5  1  0.74215055  0.02006531  0.52410368  1
  H  H6  1  0.32007325  0.28511851  0.83331472  1
  H  H7  1  0.43850648  0.21488149  0.66668528  1
  H  H8  1  0.67992675  0.71488149  0.16668528  1
  H  H9  1  0.56149352  0.78511851  0.33331472  1
  H  H10  1  0.62664832  0.29376826  0.83080406  1
  H  H11  1  0.75122064  0.20623174  0.66919594  1
  H  H12  1  0.37335168  0.70623174  0.16919594  1
  H  H13  1  0.24877936  0.79376826  0.33080406  1
  H  H14  1  0.94766769  0.36201288  0.27841157  1
  H  H15  1  0.58809214  0.13798712  0.22158843  1
  H  H16  1  0.05233231  0.63798712  0.72158843  1
  H  H17  1  0.41190786  0.86201288  0.77841157  1
  H  H18  1  0.71368046  0.52006531  0.02410368  1
  H  H19  1  0.25784945  0.97993469  0.47589632  1
  O  O20  1  0.69817973  0.75000000  0.25000000  1
  O  O21  1  0.30182027  0.25000000  0.75000000  1
  O  O22  1  0.31077104  0.84970600  0.45743474  1
  O  O23  1  0.61791178  0.65029400  0.04256526  1
  O  O24  1  0.68922896  0.15029400  0.54256526  1
  O  O25  1  0.38208822  0.34970600  0.95743474  1
  O  O26  1  0.85591838  0.30880631  0.26997980  1
  O  O27  1  0.43470449  0.19119369  0.23002020  1
  O  O28  1  0.14408162  0.69119369  0.73002020  1
  O  O29  1  0.56529551  0.80880631  0.76997980  1
  O  O30  1  0.89145808  0.30534426  0.98217839  1
  O  O31  1  0.17898073  0.19465574  0.51782161  1
  O  O32  1  0.10854192  0.69465574  0.01782161  1
  O  O33  1  0.82101927  0.80534426  0.48217839  1
  O  O34  1  0.93277968  0.53706859  0.68754353  1
  O  O35  1  0.15739180  0.96293141  0.81245647  1
  O  O36  1  0.06722032  0.46293141  0.31245647  1
  O  O37  1  0.84260820  0.03706859  0.18754353  1
  O  O38  1  0.76667738  0.25000000  0.75000000  1
  O  O39  1  0.23332262  0.75000000  0.25000000  1
  Mg  Mg40  1  0.96462681  0.75000000  0.25000000  1
  Mg  Mg41  1  0.03537319  0.25000000  0.75000000  1
  Se  Se42  1  0.00942735  0.84015856  0.88520189  1
  Se  Se43  1  0.73478780  0.65984144  0.61479811  1
  Se  Se44  1  0.26521220  0.34015856  0.38520189  1
  Se  Se45  1  0.99057265  0.15984144  0.11479811  1
