# generated using pymatgen
data_VP2O7
_symmetry_space_group_name_H-M   'P 1'
_cell_length_a   4.87817075
_cell_length_b   8.05602642
_cell_length_c   6.95486742
_cell_angle_alpha   90.00000000
_cell_angle_beta   105.83901804
_cell_angle_gamma   90.00000000
_symmetry_Int_Tables_number   1
_chemical_formula_structural   VP2O7
_chemical_formula_sum   'V2 P4 O14'
_cell_volume   262.93985019
_cell_formula_units_Z   2
loop_
 _symmetry_equiv_pos_site_id
 _symmetry_equiv_pos_as_xyz
  1  'x, y, z'
loop_
 _atom_site_type_symbol
 _atom_site_label
 _atom_site_symmetry_multiplicity
 _atom_site_fract_x
 _atom_site_fract_y
 _atom_site_fract_z
 _atom_site_occupancy
  O  O0  1  0.01994237  0.33306985  0.83080278  1
  O  O1  1  0.14024480  0.67357967  0.91069887  1
  O  O2  1  0.15409822  0.05681339  0.46771208  1
  O  O3  1  0.27962529  0.36245825  0.51527985  1
  O  O4  1  0.41690266  0.67376925  0.63076049  1
  O  O5  1  0.56645067  0.42066404  0.91180948  1
  O  O6  1  0.58762740  0.14381754  0.73280035  1
  O  O7  1  0.41237285  0.64381743  0.26720027  1
  O  O8  1  0.43354959  0.92066517  0.08819114  1
  O  O9  1  0.58309763  0.17376937  0.36923869  1
  O  O10  1  0.98005792  0.83306974  0.16919640  1
  O  O11  1  0.84590206  0.55681327  0.53228711  1
  O  O12  1  0.85975546  0.17357978  0.08930175  1
  O  O13  1  0.72037500  0.86245938  0.48471933  1
  P  P14  1  0.39072584  0.18546611  0.51133800  1
  P  P15  1  0.23906643  0.77404273  0.10126081  1
  P  P16  1  0.76093383  0.27404284  0.89873981  1
  P  P17  1  0.60927441  0.68546599  0.48866262  1
  V  V18  1  0.21131008  0.50390908  0.72597283  1
  V  V19  1  0.78869017  0.00390920  0.27402779  1
