# generated using pymatgen
data_Cr2FeO4
_symmetry_space_group_name_H-M   'P 1'
_cell_length_a   6.03157090
_cell_length_b   6.03157090
_cell_length_c   6.03157090
_cell_angle_alpha   91.30130439
_cell_angle_beta   119.25155713
_cell_angle_gamma   119.25155713
_symmetry_Int_Tables_number   1
_chemical_formula_structural   Cr2FeO4
_chemical_formula_sum   'Cr4 Fe2 O8'
_cell_volume   156.87024089
_cell_formula_units_Z   2
loop_
 _symmetry_equiv_pos_site_id
 _symmetry_equiv_pos_as_xyz
  1  'x, y, z'
loop_
 _atom_site_type_symbol
 _atom_site_label
 _atom_site_symmetry_multiplicity
 _atom_site_fract_x
 _atom_site_fract_y
 _atom_site_fract_z
 _atom_site_occupancy
  Cr  Cr0  1  0.00000000  0.00000000  0.50000000  1
  Cr  Cr1  1  0.50000000  0.50000000  -0.00000000  1
  Cr  Cr2  1  0.00000000  0.50000000  0.50000000  1
  Cr  Cr3  1  0.50000000  0.50000000  0.50000000  1
  Fe  Fe4  1  0.25000000  0.87500000  0.12500000  1
  Fe  Fe5  1  0.75000000  0.12500000  0.87500000  1
  O  O6  1  0.52855007  0.28833442  0.25978436  1
  O  O7  1  0.02855007  0.25978436  0.28833442  1
  O  O8  1  0.47144993  0.25978436  0.73123429  1
  O  O9  1  0.97144993  0.73123429  0.25978436  1
  O  O10  1  0.47144993  0.71166558  0.74021564  1
  O  O11  1  0.97144993  0.74021564  0.71166558  1
  O  O12  1  0.52855007  0.74021564  0.26876571  1
  O  O13  1  0.02855007  0.26876571  0.74021564  1
