# generated using pymatgen
data_LiAlPO5
_symmetry_space_group_name_H-M   'P 1'
_cell_length_a   5.13690502
_cell_length_b   5.21737122
_cell_length_c   7.02636327
_cell_angle_alpha   105.68817989
_cell_angle_beta   106.79049045
_cell_angle_gamma   99.94840915
_symmetry_Int_Tables_number   1
_chemical_formula_structural   LiAlPO5
_chemical_formula_sum   'Li2 Al2 P2 O10'
_cell_volume   167.01700213
_cell_formula_units_Z   2
loop_
 _symmetry_equiv_pos_site_id
 _symmetry_equiv_pos_as_xyz
  1  'x, y, z'
loop_
 _atom_site_type_symbol
 _atom_site_label
 _atom_site_symmetry_multiplicity
 _atom_site_fract_x
 _atom_site_fract_y
 _atom_site_fract_z
 _atom_site_occupancy
  Li  Li0  1  0.26860612  0.13110550  0.71169132  1
  Li  Li1  1  0.73139388  0.86889450  0.28830868  1
  Al  Al2  1  -0.00000000  0.50000000  0.50000000  1
  Al  Al3  1  -0.00000000  0.50000000  0.00000000  1
  P  P4  1  0.32107523  0.14604301  0.25566899  1
  P  P5  1  0.67892477  0.85395699  0.74433101  1
  O  O6  1  0.13023218  0.17626623  0.39203447  1
  O  O7  1  0.86976782  0.82373377  0.60796553  1
  O  O8  1  0.08394582  0.43472291  0.75451067  1
  O  O9  1  0.91605418  0.56527709  0.24548933  1
  O  O10  1  0.63756310  0.26084130  0.40081927  1
  O  O11  1  0.36243690  0.73915870  0.59918073  1
  O  O12  1  0.25357877  0.28543794  0.08905078  1
  O  O13  1  0.74642123  0.71456206  0.91094922  1
  O  O14  1  0.29715507  0.83185667  0.15395039  1
  O  O15  1  0.70284493  0.16814333  0.84604961  1
