# generated using pymatgen
data_Ca5As4(HO2)10
_symmetry_space_group_name_H-M   'P 1'
_cell_length_a   9.87615091
_cell_length_b   10.33726420
_cell_length_c   10.69190756
_cell_angle_alpha   95.76505595
_cell_angle_beta   117.50665760
_cell_angle_gamma   90.00000000
_symmetry_Int_Tables_number   1
_chemical_formula_structural   Ca5As4(HO2)10
_chemical_formula_sum   'Ca10 As8 H20 O40'
_cell_volume   961.94012143
_cell_formula_units_Z   2
loop_
 _symmetry_equiv_pos_site_id
 _symmetry_equiv_pos_as_xyz
  1  'x, y, z'
loop_
 _atom_site_type_symbol
 _atom_site_label
 _atom_site_symmetry_multiplicity
 _atom_site_fract_x
 _atom_site_fract_y
 _atom_site_fract_z
 _atom_site_occupancy
  H  H0  1  0.49356795  0.64904070  0.94014490  1
  H  H1  1  0.55342305  0.85095930  0.05985510  1
  H  H2  1  0.50643205  0.35095930  0.05985510  1
  H  H3  1  0.44657695  0.14904070  0.94014490  1
  H  H4  1  0.34005486  0.73294049  0.87384213  1
  H  H5  1  0.46621274  0.76705951  0.12615787  1
  H  H6  1  0.65994514  0.26705951  0.12615787  1
  H  H7  1  0.53378726  0.23294049  0.87384213  1
  H  H8  1  0.43331550  0.97708897  0.58801585  1
  H  H9  1  0.84529965  0.52291103  0.41198415  1
  H  H10  1  0.56668450  0.02291103  0.41198415  1
  H  H11  1  0.15470035  0.47708897  0.58801585  1
  H  H12  1  0.38985490  0.07615052  0.46933681  1
  H  H13  1  0.92051809  0.42384948  0.53066319  1
  H  H14  1  0.61014510  0.92384948  0.53066319  1
  H  H15  1  0.07948191  0.57615052  0.46933681  1
  H  H16  1  0.27142891  0.98745571  0.96466518  1
  H  H17  1  0.30676373  0.51254429  0.03533482  1
  H  H18  1  0.72857109  0.01254429  0.03533482  1
  H  H19  1  0.69323627  0.48745571  0.96466518  1
  O  O20  1  0.40584657  0.66991008  0.85330542  1
  O  O21  1  0.55254114  0.83008992  0.14669458  1
  O  O22  1  0.59415343  0.33008992  0.14669458  1
  O  O23  1  0.44745886  0.16991008  0.85330542  1
  O  O24  1  0.34780779  0.02680264  0.51983094  1
  O  O25  1  0.82797685  0.47319736  0.48016906  1
  O  O26  1  0.65219221  0.97319736  0.48016906  1
  O  O27  1  0.17202315  0.52680264  0.51983094  1
  O  O28  1  0.20282674  0.84708152  0.85978443  1
  O  O29  1  0.34304232  0.65291848  0.14021557  1
  O  O30  1  0.79717326  0.15291848  0.14021557  1
  O  O31  1  0.65695768  0.34708152  0.85978443  1
  O  O32  1  0.92571671  0.79835647  0.60145559  1
  O  O33  1  0.32426112  0.70164353  0.39854441  1
  O  O34  1  0.07428329  0.20164353  0.39854441  1
  O  O35  1  0.67573888  0.29835647  0.60145559  1
  O  O36  1  0.20189725  0.82531842  0.59156006  1
  O  O37  1  0.61033719  0.67468158  0.40843994  1
  O  O38  1  0.79810275  0.17468158  0.40843994  1
  O  O39  1  0.38966281  0.32531842  0.59156006  1
  O  O40  1  0.08095333  0.04158307  0.67628469  1
  O  O41  1  0.40466864  0.45841693  0.32371531  1
  O  O42  1  0.91904667  0.95841693  0.32371531  1
  O  O43  1  0.59533136  0.54158307  0.67628469  1
  O  O44  1  0.19126660  0.93601153  0.17089747  1
  O  O45  1  0.02036913  0.56398847  0.82910253  1
  O  O46  1  0.80873340  0.06398847  0.82910253  1
  O  O47  1  0.97963087  0.43601153  0.17089747  1
  O  O48  1  0.43227358  0.12984824  0.32604958  1
  O  O49  1  0.10622400  0.37015176  0.67395042  1
  O  O50  1  0.56772642  0.87015176  0.67395042  1
  O  O51  1  0.89377600  0.62984824  0.32604958  1
  O  O52  1  0.14695208  0.20505171  0.15125547  1
  O  O53  1  0.99569661  0.29494829  0.84874453  1
  O  O54  1  0.85304792  0.79494829  0.84874453  1
  O  O55  1  0.00430339  0.70505171  0.15125547  1
  O  O56  1  0.31806136  0.07156456  0.03012023  1
  O  O57  1  0.28794113  0.42843544  0.96987977  1
  O  O58  1  0.68193864  0.92843544  0.96987977  1
  O  O59  1  0.71205887  0.57156456  0.03012023  1
  Ca  Ca60  1  0.20694089  0.36095206  0.35052054  1
  Ca  Ca61  1  0.85642034  0.13904794  0.64947946  1
  Ca  Ca62  1  0.79305911  0.63904794  0.64947946  1
  Ca  Ca63  1  0.14357966  0.86095206  0.35052054  1
  Ca  Ca64  1  0.59983000  0.31494793  0.36377277  1
  Ca  Ca65  1  0.23605724  0.18505207  0.63622723  1
  Ca  Ca66  1  0.40017000  0.68505207  0.63622723  1
  Ca  Ca67  1  0.76394276  0.81494793  0.36377277  1
  Ca  Ca68  1  0.10252492  0.75000000  0.00000000  1
  Ca  Ca69  1  0.89747508  0.25000000  0.00000000  1
  As  As70  1  0.10391594  0.87660388  0.68324070  1
  As  As71  1  0.42067524  0.62339612  0.31675930  1
  As  As72  1  0.89608406  0.12339612  0.31675930  1
  As  As73  1  0.57932476  0.37660388  0.68324070  1
  As  As74  1  0.26868620  0.08367739  0.17003905  1
  As  As75  1  0.09864715  0.41632261  0.82996095  1
  As  As76  1  0.73131380  0.91632261  0.82996095  1
  As  As77  1  0.90135285  0.58367739  0.17003905  1
