# generated using pymatgen
data_Na2H10SO5
_symmetry_space_group_name_H-M   'P 1'
_cell_length_a   6.48395516
_cell_length_b   7.10100769
_cell_length_c   8.70982690
_cell_angle_alpha   90.00000000
_cell_angle_beta   90.00000000
_cell_angle_gamma   117.16482194
_symmetry_Int_Tables_number   1
_chemical_formula_structural   Na2H10SO5
_chemical_formula_sum   'Na4 H20 S2 O10'
_cell_volume   356.78908762
_cell_formula_units_Z   2
loop_
 _symmetry_equiv_pos_site_id
 _symmetry_equiv_pos_as_xyz
  1  'x, y, z'
loop_
 _atom_site_type_symbol
 _atom_site_label
 _atom_site_symmetry_multiplicity
 _atom_site_fract_x
 _atom_site_fract_y
 _atom_site_fract_z
 _atom_site_occupancy
  H  H0  1  0.99467570  0.36795366  0.37915597  1
  H  H1  1  0.52105689  0.70205416  0.02096508  1
  H  H2  1  0.81900273  0.29794584  0.97903492  1
  H  H3  1  0.47894311  0.29794584  0.52096508  1
  H  H4  1  0.47894311  0.29794584  0.97903492  1
  H  H5  1  0.18099727  0.70205416  0.02096508  1
  H  H6  1  0.52105689  0.70205416  0.47903492  1
  H  H7  1  0.81900273  0.29794584  0.52096508  1
  H  H8  1  0.62672205  0.63204634  0.87915597  1
  H  H9  1  0.99467570  0.36795366  0.12084403  1
  H  H10  1  0.37327795  0.36795366  0.37915597  1
  H  H11  1  0.00532430  0.63204634  0.62084403  1
  H  H12  1  0.37327795  0.36795366  0.12084403  1
  H  H13  1  0.00532430  0.63204634  0.87915597  1
  H  H14  1  0.01512764  0.27616547  0.75000000  1
  H  H15  1  0.62672205  0.63204634  0.62084403  1
  H  H16  1  0.98487236  0.72383453  0.25000000  1
  H  H17  1  0.26103783  0.27616547  0.75000000  1
  H  H18  1  0.73896217  0.72383453  0.25000000  1
  H  H19  1  0.18099727  0.70205416  0.47903492  1
  O  O20  1  0.61611337  0.75507794  0.92644103  1
  O  O21  1  0.86103543  0.24492206  0.07355897  1
  O  O22  1  0.38388663  0.24492206  0.42644103  1
  O  O23  1  0.13896457  0.75507794  0.57355897  1
  O  O24  1  0.38388663  0.24492206  0.07355897  1
  O  O25  1  0.13896457  0.75507794  0.92644103  1
  O  O26  1  0.61611337  0.75507794  0.57355897  1
  O  O27  1  0.86103543  0.24492206  0.42644103  1
  O  O28  1  0.09195337  0.18390674  0.75000000  1
  O  O29  1  0.90804663  0.81609326  0.25000000  1
  Na  Na30  1  0.00000000  0.00000000  0.00000000  1
  Na  Na31  1  0.45674482  0.91348964  0.75000000  1
  Na  Na32  1  0.54325518  0.08651036  0.25000000  1
  Na  Na33  1  0.00000000  0.00000000  0.50000000  1
  S  S34  1  0.31010026  0.62020052  0.25000000  1
  S  S35  1  0.68989974  0.37979948  0.75000000  1
