# generated using pymatgen
data_SrCoAs2O7
_symmetry_space_group_name_H-M   'P 1'
_cell_length_a   5.61013779
_cell_length_b   8.50276371
_cell_length_c   13.33905189
_cell_angle_alpha   90.00000000
_cell_angle_beta   91.15109555
_cell_angle_gamma   90.00000000
_symmetry_Int_Tables_number   1
_chemical_formula_structural   SrCoAs2O7
_chemical_formula_sum   'Sr4 Co4 As8 O28'
_cell_volume   636.16672331
_cell_formula_units_Z   4
loop_
 _symmetry_equiv_pos_site_id
 _symmetry_equiv_pos_as_xyz
  1  'x, y, z'
loop_
 _atom_site_type_symbol
 _atom_site_label
 _atom_site_symmetry_multiplicity
 _atom_site_fract_x
 _atom_site_fract_y
 _atom_site_fract_z
 _atom_site_occupancy
  O  O0  1  0.69375509  0.32288235  0.59892596  1
  O  O1  1  0.80624459  0.82288217  0.90107458  1
  O  O2  1  0.30624410  0.67711730  0.40107415  1
  O  O3  1  0.19375460  0.17711748  0.09892552  1
  O  O4  1  0.62224355  0.15641209  0.97467295  1
  O  O5  1  0.87775612  0.65641191  0.52532684  1
  O  O6  1  0.37775741  0.84358756  0.02532642  1
  O  O7  1  0.12224307  0.34358773  0.47467327  1
  O  O8  1  0.96955824  0.45434558  0.79386583  1
  O  O9  1  0.53044143  0.95434659  0.70613396  1
  O  O10  1  0.03044094  0.54565406  0.20613428  1
  O  O11  1  0.46955776  0.04565424  0.29386614  1
  O  O12  1  0.27631181  0.40110018  0.96002148  1
  O  O13  1  0.22368791  0.90110001  0.53997871  1
  O  O14  1  0.72368737  0.59889946  0.03997863  1
  O  O15  1  0.77631306  0.09889964  0.46002141  1
  O  O16  1  0.65338200  0.33199842  0.15479627  1
  O  O17  1  0.84661843  0.83199824  0.34520376  1
  O  O18  1  0.34661897  0.66800123  0.84520385  1
  O  O19  1  0.15338075  0.16800140  0.65479634  1
  O  O20  1  0.66514495  0.40255006  0.39267104  1
  O  O21  1  0.83485549  0.90254988  0.10732900  1
  O  O22  1  0.46063060  0.38448301  0.76317363  1
  O  O23  1  0.16514370  0.09744976  0.89267111  1
  O  O24  1  0.96063007  0.11551681  0.26317355  1
  O  O25  1  0.53937037  0.61551663  0.23682649  1
  O  O26  1  0.03937090  0.88448284  0.73682582  1
  O  O27  1  0.33485602  0.59744959  0.60732833  1
  Co  Co28  1  0.33180806  0.35800879  0.60716993  1
  Co  Co29  1  0.16819166  0.85800861  0.89282951  1
  Co  Co30  1  0.66819291  0.64199204  0.39283018  1
  Co  Co31  1  0.83180753  0.14199104  0.10716985  1
  As  As32  1  0.67606878  0.80388978  0.01501541  1
  As  As33  1  0.82393166  0.30388996  0.48498463  1
  As  As34  1  0.17606931  0.69610969  0.51501474  1
  As  As35  1  0.32393041  0.19610986  0.98498470  1
  As  As36  1  0.74573090  0.52257941  0.16494813  1
  As  As37  1  0.25427007  0.47742023  0.83505124  1
  As  As38  1  0.75426954  0.02257959  0.33505191  1
  As  As39  1  0.24573143  0.97742005  0.66494821  1
  Sr  Sr40  1  0.79126403  0.17366902  0.77975883  1
  Sr  Sr41  1  0.70873564  0.67366884  0.72024096  1
  Sr  Sr42  1  0.20873516  0.82633062  0.22024128  1
  Sr  Sr43  1  0.29126533  0.32633080  0.27975916  1
