# generated using pymatgen
data_TlHg5Cl11
_symmetry_space_group_name_H-M   'P 1'
_cell_length_a   6.68874630
_cell_length_b   9.64043555
_cell_length_c   9.64043555
_cell_angle_alpha   100.83237249
_cell_angle_beta   107.72962436
_cell_angle_gamma   107.72962433
_symmetry_Int_Tables_number   1
_chemical_formula_structural   TlHg5Cl11
_chemical_formula_sum   'Tl1 Hg5 Cl11'
_cell_volume   536.32377363
_cell_formula_units_Z   1
loop_
 _symmetry_equiv_pos_site_id
 _symmetry_equiv_pos_as_xyz
  1  'x, y, z'
loop_
 _atom_site_type_symbol
 _atom_site_label
 _atom_site_symmetry_multiplicity
 _atom_site_fract_x
 _atom_site_fract_y
 _atom_site_fract_z
 _atom_site_occupancy
  Cl  Cl0  1  0.50000000  0.50000000  0.50000000  1
  Cl  Cl1  1  0.93361091  0.08580025  0.33399419  1
  Cl  Cl2  1  0.06638909  0.66600581  0.91419975  1
  Cl  Cl3  1  0.06638909  0.91419975  0.66600581  1
  Cl  Cl4  1  0.93361091  0.33399419  0.08580025  1
  Cl  Cl5  1  0.30435180  0.79526110  0.36464749  1
  Cl  Cl6  1  0.61592851  0.85360542  0.85360542  1
  Cl  Cl7  1  0.38407149  0.14639458  0.14639458  1
  Cl  Cl8  1  0.30435180  0.36464749  0.79526110  1
  Cl  Cl9  1  0.69564820  0.20473890  0.63535251  1
  Cl  Cl10  1  0.69564820  0.63535251  0.20473890  1
  Hg  Hg11  1  0.00000000  0.00000000  0.00000000  1
  Hg  Hg12  1  0.31674904  0.15203889  0.48329769  1
  Hg  Hg13  1  0.68325096  0.51670231  0.84796111  1
  Hg  Hg14  1  0.68325096  0.84796111  0.51670231  1
  Hg  Hg15  1  0.31674904  0.48329769  0.15203889  1
  Tl  Tl16  1  0.00000000  0.50000000  0.50000000  1
