# generated using pymatgen
data_Cd2AsCl2
_symmetry_space_group_name_H-M   'P 1'
_cell_length_a   8.00226522
_cell_length_b   8.22368024
_cell_length_c   9.37282541
_cell_angle_alpha   90.00000000
_cell_angle_beta   90.00000000
_cell_angle_gamma   116.94587749
_symmetry_Int_Tables_number   1
_chemical_formula_structural   Cd2AsCl2
_chemical_formula_sum   'Cd8 As4 Cl8'
_cell_volume   549.84382548
_cell_formula_units_Z   4
loop_
 _symmetry_equiv_pos_site_id
 _symmetry_equiv_pos_as_xyz
  1  'x, y, z'
loop_
 _atom_site_type_symbol
 _atom_site_label
 _atom_site_symmetry_multiplicity
 _atom_site_fract_x
 _atom_site_fract_y
 _atom_site_fract_z
 _atom_site_occupancy
  Cl  Cl0  1  0.95048377  0.19632489  0.97943363  1
  Cl  Cl1  1  0.54951623  0.30367511  0.47943363  1
  Cl  Cl2  1  0.04951623  0.80367511  0.02056637  1
  Cl  Cl3  1  0.45048377  0.69632489  0.52056637  1
  Cl  Cl4  1  -0.00334710  0.41766696  0.31015898  1
  Cl  Cl5  1  0.50334710  0.08233304  0.81015898  1
  Cl  Cl6  1  1.00334710  0.58233304  0.68984102  1
  Cl  Cl7  1  0.49665290  0.91766696  0.18984102  1
  As  As8  1  0.49037256  0.55890681  0.88117633  1
  As  As9  1  0.99037256  0.05890681  0.61882367  1
  As  As10  1  0.00962744  0.94109319  0.38117633  1
  As  As11  1  0.50962744  0.44109319  0.11882367  1
  Cd  Cd12  1  0.69018355  0.25151140  0.08000134  1
  Cd  Cd13  1  0.80981645  0.24848860  0.58000134  1
  Cd  Cd14  1  0.30981645  0.74848860  0.91999866  1
  Cd  Cd15  1  0.19018355  0.75151140  0.41999866  1
  Cd  Cd16  1  0.66988420  0.71532467  0.29771463  1
  Cd  Cd17  1  0.33011580  0.28467533  0.70228537  1
  Cd  Cd18  1  0.16988420  0.21532467  0.20228537  1
  Cd  Cd19  1  0.83011580  0.78467533  0.79771463  1
