# generated using pymatgen
data_KLiMoO4
_symmetry_space_group_name_H-M   'P 1'
_cell_length_a   6.01270999
_cell_length_b   6.01270999
_cell_length_c   9.91640803
_cell_angle_alpha   90.00000000
_cell_angle_beta   90.00000000
_cell_angle_gamma   120.00000361
_symmetry_Int_Tables_number   1
_chemical_formula_structural   KLiMoO4
_chemical_formula_sum   'K2 Li2 Mo2 O8'
_cell_volume   310.47420105
_cell_formula_units_Z   2
loop_
 _symmetry_equiv_pos_site_id
 _symmetry_equiv_pos_as_xyz
  1  'x, y, z'
loop_
 _atom_site_type_symbol
 _atom_site_label
 _atom_site_symmetry_multiplicity
 _atom_site_fract_x
 _atom_site_fract_y
 _atom_site_fract_z
 _atom_site_occupancy
  K  K0  1  -0.00000000  -0.00000000  0.00554592  1
  K  K1  1  -0.00000000  -0.00000000  0.50554592  1
  Li  Li2  1  0.66666700  0.33333300  0.18803322  1
  Li  Li3  1  0.33333300  0.66666700  0.68803322  1
  Mo  Mo4  1  0.66666700  0.33333300  0.81041185  1
  Mo  Mo5  1  0.33333300  0.66666700  0.31041185  1
  O  O6  1  0.66666700  0.33333300  0.99238920  1
  O  O7  1  0.33333300  0.66666700  0.49238920  1
  O  O8  1  0.50459943  0.00919887  0.75120660  1
  O  O9  1  0.50459943  0.49540057  0.75120660  1
  O  O10  1  0.49540057  0.99080113  0.25120660  1
  O  O11  1  0.99080113  0.49540057  0.75120660  1
  O  O12  1  0.49540057  0.50459943  0.25120660  1
  O  O13  1  0.00919887  0.50459943  0.25120660  1
