# generated using pymatgen
data_Te4O9
_symmetry_space_group_name_H-M   'P 1'
_cell_length_a   7.48849602
_cell_length_b   7.48849603
_cell_length_c   7.48849602
_cell_angle_alpha   78.59894620
_cell_angle_beta   78.59894623
_cell_angle_gamma   78.59894629
_symmetry_Int_Tables_number   1
_chemical_formula_structural   Te4O9
_chemical_formula_sum   'Te8 O18'
_cell_volume   397.99317880
_cell_formula_units_Z   2
loop_
 _symmetry_equiv_pos_site_id
 _symmetry_equiv_pos_as_xyz
  1  'x, y, z'
loop_
 _atom_site_type_symbol
 _atom_site_label
 _atom_site_symmetry_multiplicity
 _atom_site_fract_x
 _atom_site_fract_y
 _atom_site_fract_z
 _atom_site_occupancy
  O  O0  1  0.77150949  0.57611214  0.28842120  1
  O  O1  1  0.57611214  0.28842120  0.77150949  1
  O  O2  1  0.28842120  0.77150949  0.57611214  1
  O  O3  1  0.22849051  0.42388786  0.71157880  1
  O  O4  1  0.42388786  0.71157880  0.22849051  1
  O  O5  1  0.71157880  0.22849051  0.42388786  1
  O  O6  1  0.91704857  0.72248967  0.58756220  1
  O  O7  1  0.72248967  0.58756220  0.91704857  1
  O  O8  1  0.92844207  0.04293667  0.71762693  1
  O  O9  1  0.71762693  0.92844207  0.04293667  1
  O  O10  1  0.04293667  0.71762693  0.92844207  1
  O  O11  1  0.07155793  0.95706333  0.28237307  1
  O  O12  1  0.28237307  0.07155793  0.95706333  1
  O  O13  1  0.95706333  0.28237307  0.07155793  1
  O  O14  1  0.41243780  0.08295143  0.27751033  1
  O  O15  1  0.27751033  0.41243780  0.08295143  1
  O  O16  1  0.08295143  0.27751033  0.41243780  1
  O  O17  1  0.58756220  0.91704857  0.72248967  1
  Te  Te18  1  0.28992236  0.59644155  0.84024319  1
  Te  Te19  1  0.59644155  0.84024319  0.28992236  1
  Te  Te20  1  0.84024319  0.28992236  0.59644155  1
  Te  Te21  1  0.71007764  0.40355845  0.15975681  1
  Te  Te22  1  0.40355845  0.15975681  0.71007764  1
  Te  Te23  1  0.15975681  0.71007764  0.40355845  1
  Te  Te24  1  0.18354062  0.18354062  0.18354062  1
  Te  Te25  1  0.81645938  0.81645938  0.81645938  1
