# generated using pymatgen
data_P2H8O9
_symmetry_space_group_name_H-M   'P 1'
_cell_length_a   7.53541276
_cell_length_b   7.98883601
_cell_length_c   13.05573139
_cell_angle_alpha   90.00000000
_cell_angle_beta   90.00000000
_cell_angle_gamma   109.66923924
_symmetry_Int_Tables_number   1
_chemical_formula_structural   P2H8O9
_chemical_formula_sum   'P8 H32 O36'
_cell_volume   740.08552395
_cell_formula_units_Z   4
loop_
 _symmetry_equiv_pos_site_id
 _symmetry_equiv_pos_as_xyz
  1  'x, y, z'
loop_
 _atom_site_type_symbol
 _atom_site_label
 _atom_site_symmetry_multiplicity
 _atom_site_fract_x
 _atom_site_fract_y
 _atom_site_fract_z
 _atom_site_occupancy
  H  H0  1  0.12897812  0.91015121  0.40792704  1
  H  H1  1  0.87102188  0.58984879  0.90792704  1
  H  H2  1  0.87102188  0.08984879  0.59207296  1
  H  H3  1  0.12897812  0.41015121  0.09207296  1
  H  H4  1  0.60083313  0.58335857  0.30033834  1
  H  H5  1  0.39916687  0.91664143  0.80033834  1
  H  H6  1  0.39916687  0.41664143  0.69966166  1
  H  H7  1  0.60083313  0.08335857  0.19966166  1
  H  H8  1  0.44788384  0.79269270  0.37119126  1
  H  H9  1  0.55211616  0.70730730  0.87119126  1
  H  H10  1  0.55211616  0.20730730  0.62880874  1
  H  H11  1  0.44788384  0.29269270  0.12880874  1
  H  H12  1  0.87841915  0.97688489  0.39805593  1
  H  H13  1  0.12158085  0.52311511  0.89805593  1
  H  H14  1  0.12158085  0.02311511  0.60194407  1
  H  H15  1  0.87841915  0.47688489  0.10194407  1
  H  H16  1  0.95551536  0.24150686  0.11937245  1
  H  H17  1  0.04448464  0.25849314  0.61937245  1
  H  H18  1  0.04448464  0.75849314  0.88062755  1
  H  H19  1  0.95551536  0.74150686  0.38062755  1
  H  H20  1  0.06657127  0.41440340  0.26100133  1
  H  H21  1  0.93342873  0.08559660  0.76100133  1
  H  H22  1  0.93342873  0.58559660  0.73899867  1
  H  H23  1  0.06657127  0.91440340  0.23899867  1
  H  H24  1  0.40646219  0.25369050  0.39108851  1
  H  H25  1  0.59353781  0.24630950  0.89108851  1
  H  H26  1  0.59353781  0.74630950  0.60891149  1
  H  H27  1  0.40646219  0.75369050  0.10891149  1
  H  H28  1  0.73365143  0.41980636  0.45239437  1
  H  H29  1  0.26634857  0.08019364  0.95239437  1
  H  H30  1  0.26634857  0.58019364  0.54760563  1
  H  H31  1  0.73365143  0.91980636  0.04760563  1
  O  O32  1  0.29316916  0.91249319  0.75033679  1
  O  O33  1  0.80139247  0.53857365  0.48805262  1
  O  O34  1  0.80139247  0.03857365  0.01194738  1
  O  O35  1  0.19860753  0.46142635  0.51194738  1
  O  O36  1  0.60526011  0.74503003  0.09892430  1
  O  O37  1  0.39473989  0.75496997  0.59892430  1
  O  O38  1  0.01663891  0.36809627  0.13597714  1
  O  O39  1  0.60526011  0.24503003  0.40107570  1
  O  O40  1  0.80108187  0.54714750  0.07116404  1
  O  O41  1  0.19891813  0.95285250  0.57116404  1
  O  O42  1  0.19891813  0.45285250  0.92883596  1
  O  O43  1  0.80108187  0.04714750  0.42883596  1
  O  O44  1  0.44877862  0.42185371  0.12413911  1
  O  O45  1  0.55122138  0.07814629  0.62413911  1
  O  O46  1  0.55122138  0.57814629  0.87586089  1
  O  O47  1  0.44877862  0.92185371  0.37586089  1
  O  O48  1  0.70683084  0.58750681  0.25033679  1
  O  O49  1  0.19860753  0.96142635  0.98805262  1
  O  O50  1  0.29316916  0.41249319  0.74966321  1
  O  O51  1  0.70683084  0.08750681  0.24966321  1
  O  O52  1  0.27310096  0.76023067  0.11944736  1
  O  O53  1  0.72689904  0.73976933  0.61944736  1
  O  O54  1  0.72689904  0.23976933  0.88055264  1
  O  O55  1  0.27310096  0.26023067  0.38055264  1
  O  O56  1  0.07555260  0.94705634  0.16419307  1
  O  O57  1  0.92444740  0.55294366  0.66419307  1
  O  O58  1  0.92444740  0.05294366  0.83580693  1
  O  O59  1  0.07555260  0.44705634  0.33580693  1
  O  O60  1  0.43360698  0.09748399  0.13198601  1
  O  O61  1  0.56639302  0.40251601  0.63198601  1
  O  O62  1  0.56639302  0.90251601  0.86801399  1
  O  O63  1  0.43360698  0.59748399  0.36801399  1
  O  O64  1  0.01663891  0.86809627  0.36402286  1
  O  O65  1  0.98336109  0.63190373  0.86402286  1
  O  O66  1  0.98336109  0.13190373  0.63597714  1
  O  O67  1  0.39473989  0.25496997  0.90107570  1
  P  P68  1  0.63992737  0.07921739  0.36423237  1
  P  P69  1  0.36007263  0.42078261  0.86423237  1
  P  P70  1  0.36007263  0.92078261  0.63576763  1
  P  P71  1  0.63992737  0.57921739  0.13576763  1
  P  P72  1  0.25434934  0.94719599  0.10280490  1
  P  P73  1  0.74565066  0.55280401  0.60280490  1
  P  P74  1  0.74565066  0.05280401  0.89719510  1
  P  P75  1  0.25434934  0.44719599  0.39719510  1
