# generated using pymatgen
data_CrCl3
_symmetry_space_group_name_H-M   'P 1'
_cell_length_a   6.06010567
_cell_length_b   6.06010566
_cell_length_c   6.58075279
_cell_angle_alpha   98.59141300
_cell_angle_beta   98.59141303
_cell_angle_gamma   119.99125799
_symmetry_Int_Tables_number   1
_chemical_formula_structural   CrCl3
_chemical_formula_sum   'Cr2 Cl6'
_cell_volume   199.75894192
_cell_formula_units_Z   2
loop_
 _symmetry_equiv_pos_site_id
 _symmetry_equiv_pos_as_xyz
  1  'x, y, z'
loop_
 _atom_site_type_symbol
 _atom_site_label
 _atom_site_symmetry_multiplicity
 _atom_site_fract_x
 _atom_site_fract_y
 _atom_site_fract_z
 _atom_site_occupancy
  Cl  Cl0  1  0.07168071  0.43115031  0.78755771  1
  Cl  Cl1  1  0.56884969  0.92831929  0.21244229  1
  Cl  Cl2  1  0.79087807  0.79087807  0.78687391  1
  Cl  Cl3  1  0.20912193  0.20912193  0.21312609  1
  Cl  Cl4  1  0.43115031  0.07168071  0.78755771  1
  Cl  Cl5  1  0.92831929  0.56884969  0.21244229  1
  Cr  Cr6  1  0.16668098  0.83331902  0.00000000  1
  Cr  Cr7  1  0.83331902  0.16668098  0.00000000  1
