# generated using pymatgen
data_Ca2Hf7O16
_symmetry_space_group_name_H-M   'P 1'
_cell_length_a   9.56535117
_cell_length_b   9.56535117
_cell_length_c   9.56535117
_cell_angle_alpha   38.81819416
_cell_angle_beta   38.81819417
_cell_angle_gamma   38.81819419
_symmetry_Int_Tables_number   1
_chemical_formula_structural   Ca2Hf7O16
_chemical_formula_sum   'Ca2 Hf7 O16'
_cell_volume   309.16886430
_cell_formula_units_Z   1
loop_
 _symmetry_equiv_pos_site_id
 _symmetry_equiv_pos_as_xyz
  1  'x, y, z'
loop_
 _atom_site_type_symbol
 _atom_site_label
 _atom_site_symmetry_multiplicity
 _atom_site_fract_x
 _atom_site_fract_y
 _atom_site_fract_z
 _atom_site_occupancy
  O  O0  1  0.41098352  0.15048497  0.84727764  1
  O  O1  1  0.15048497  0.84727764  0.41098352  1
  O  O2  1  0.84727764  0.41098352  0.15048497  1
  O  O3  1  0.58901648  0.84951503  0.15272236  1
  O  O4  1  0.84951503  0.15272236  0.58901648  1
  O  O5  1  0.15272236  0.58901648  0.84951503  1
  O  O6  1  0.67145070  0.23755309  0.96879420  1
  O  O7  1  0.23755309  0.96879420  0.67145070  1
  O  O8  1  0.96879420  0.67145070  0.23755309  1
  O  O9  1  0.23740994  0.23740994  0.23740994  1
  O  O10  1  0.76259006  0.76259006  0.76259006  1
  O  O11  1  0.42599460  0.42599460  0.42599460  1
  O  O12  1  0.57400540  0.57400540  0.57400540  1
  O  O13  1  0.03120580  0.32854930  0.76244691  1
  O  O14  1  0.76244691  0.03120580  0.32854930  1
  O  O15  1  0.32854930  0.76244691  0.03120580  1
  Ca  Ca16  1  0.66699922  0.66699922  0.66699922  1
  Ca  Ca17  1  0.33300078  0.33300078  0.33300078  1
  Hf  Hf18  1  0.51322829  0.25723079  0.88689506  1
  Hf  Hf19  1  0.25723079  0.88689506  0.51322829  1
  Hf  Hf20  1  0.88689506  0.51322829  0.25723079  1
  Hf  Hf21  1  0.48677171  0.74276921  0.11310494  1
  Hf  Hf22  1  0.74276921  0.11310494  0.48677171  1
  Hf  Hf23  1  0.11310494  0.48677171  0.74276921  1
  Hf  Hf24  1  0.00000000  0.00000000  0.00000000  1
