# generated using pymatgen
data_K2MoBr4
_symmetry_space_group_name_H-M   'P 1'
_cell_length_a   8.41068062
_cell_length_b   8.76118839
_cell_length_c   8.76118839
_cell_angle_alpha   76.67957176
_cell_angle_beta   61.31482250
_cell_angle_gamma   61.31482250
_symmetry_Int_Tables_number   1
_chemical_formula_structural   K2MoBr4
_chemical_formula_sum   'K4 Mo2 Br8'
_cell_volume   496.84863519
_cell_formula_units_Z   2
loop_
 _symmetry_equiv_pos_site_id
 _symmetry_equiv_pos_as_xyz
  1  'x, y, z'
loop_
 _atom_site_type_symbol
 _atom_site_label
 _atom_site_symmetry_multiplicity
 _atom_site_fract_x
 _atom_site_fract_y
 _atom_site_fract_z
 _atom_site_occupancy
  K  K0  1  0.26761952  0.00000000  0.46476095  1
  K  K1  1  0.73238048  0.00000000  0.53523905  1
  K  K2  1  0.73238048  0.53523905  0.00000000  1
  K  K3  1  0.26761952  0.46476095  -0.00000000  1
  Mo  Mo4  1  0.13388466  0.00000000  -0.00000000  1
  Mo  Mo5  1  0.86611534  0.00000000  0.00000000  1
  Br  Br6  1  0.21786687  0.23171692  0.76828308  1
  Br  Br7  1  0.78213313  0.76828308  0.23171692  1
  Br  Br8  1  0.21786687  0.76828308  0.23171692  1
  Br  Br9  1  0.98614995  0.23171692  0.23171692  1
  Br  Br10  1  0.78213313  0.23171692  0.76828308  1
  Br  Br11  1  0.01385005  0.76828308  0.76828308  1
  Br  Br12  1  0.44958379  0.76828308  0.76828308  1
  Br  Br13  1  0.55041621  0.23171692  0.23171692  1
