# generated using pymatgen
data_SnF2
_symmetry_space_group_name_H-M   'P 1'
_cell_length_a   5.13521125
_cell_length_b   7.17185870
_cell_length_c   13.92311715
_cell_angle_alpha   77.37919937
_cell_angle_beta   79.37308140
_cell_angle_gamma   69.02189385
_symmetry_Int_Tables_number   1
_chemical_formula_structural   SnF2
_chemical_formula_sum   'Sn8 F16'
_cell_volume   464.03408023
_cell_formula_units_Z   8
loop_
 _symmetry_equiv_pos_site_id
 _symmetry_equiv_pos_as_xyz
  1  'x, y, z'
loop_
 _atom_site_type_symbol
 _atom_site_label
 _atom_site_symmetry_multiplicity
 _atom_site_fract_x
 _atom_site_fract_y
 _atom_site_fract_z
 _atom_site_occupancy
  F  F0  1  0.87846146  0.01388294  0.91429543  1
  F  F1  1  0.80663983  0.48611706  0.58570457  1
  F  F2  1  0.12153854  0.98611706  0.08570457  1
  F  F3  1  0.19336017  0.51388294  0.41429543  1
  F  F4  1  0.17884265  0.80845800  0.53830053  1
  F  F5  1  0.52560118  0.69154200  0.96169947  1
  F  F6  1  0.82115735  0.19154200  0.46169947  1
  F  F7  1  0.47439882  0.30845800  0.03830053  1
  F  F8  1  0.51621099  0.19550408  0.30384432  1
  F  F9  1  0.01555938  0.30449592  0.19615568  1
  F  F10  1  0.48378901  0.80449592  0.69615568  1
  F  F11  1  0.98444062  0.69550408  0.80384432  1
  F  F12  1  0.40012679  0.59314914  0.17859149  1
  F  F13  1  0.17186742  0.90685086  0.32140851  1
  F  F14  1  0.59987321  0.40685086  0.82140851  1
  F  F15  1  0.82813258  0.09314914  0.67859149  1
  Sn  Sn16  1  0.37516298  0.55460421  0.68588832  1
  Sn  Sn17  1  0.61565551  0.94539579  0.81411168  1
  Sn  Sn18  1  0.62483702  0.44539579  0.31411168  1
  Sn  Sn19  1  0.38434449  0.05460421  0.18588832  1
  Sn  Sn20  1  0.10451189  0.18817714  0.55679816  1
  Sn  Sn21  1  0.84948718  0.31182286  0.94320184  1
  Sn  Sn22  1  0.89548811  0.81182286  0.44320184  1
  Sn  Sn23  1  0.15051282  0.68817714  0.05679816  1
