# generated using pymatgen
data_Te6Cl2O11
_symmetry_space_group_name_H-M   'P 1'
_cell_length_a   6.89685943
_cell_length_b   6.91182233
_cell_length_c   15.68020934
_cell_angle_alpha   90.00000000
_cell_angle_beta   90.00000000
_cell_angle_gamma   119.46017149
_symmetry_Int_Tables_number   1
_chemical_formula_structural   Te6Cl2O11
_chemical_formula_sum   'Te12 Cl4 O22'
_cell_volume   650.82351795
_cell_formula_units_Z   2
loop_
 _symmetry_equiv_pos_site_id
 _symmetry_equiv_pos_as_xyz
  1  'x, y, z'
loop_
 _atom_site_type_symbol
 _atom_site_label
 _atom_site_symmetry_multiplicity
 _atom_site_fract_x
 _atom_site_fract_y
 _atom_site_fract_z
 _atom_site_occupancy
  O  O0  1  0.07714513  0.57612490  0.88523033  1
  O  O1  1  0.92285487  0.42387510  0.38523033  1
  O  O2  1  0.92285487  0.42387510  0.11476967  1
  O  O3  1  0.07714513  0.57612490  0.61476967  1
  O  O4  1  0.98574785  0.18381030  0.96379661  1
  O  O5  1  0.01425215  0.81618970  0.46379661  1
  O  O6  1  0.01425215  0.81618970  0.03620339  1
  O  O7  1  0.98574785  0.18381030  0.53620339  1
  O  O8  1  0.68282336  0.48459294  0.96385751  1
  O  O9  1  0.31717664  0.51540706  0.46385751  1
  O  O10  1  0.31717664  0.51540706  0.03614249  1
  O  O11  1  0.68282336  0.48459294  0.53614249  1
  O  O12  1  0.30151942  0.04135878  0.90496166  1
  O  O13  1  0.69848058  0.95864122  0.40496166  1
  O  O14  1  0.69848058  0.95864122  0.09503834  1
  O  O15  1  0.30151942  0.04135878  0.59503834  1
  O  O16  1  0.57148888  0.06985482  0.25000000  1
  O  O17  1  0.42851112  0.93014518  0.75000000  1
  O  O18  1  0.54393802  0.79970701  0.59663118  1
  O  O19  1  0.45606198  0.20029299  0.09663118  1
  O  O20  1  0.45606198  0.20029299  0.40336882  1
  O  O21  1  0.54393802  0.79970701  0.90336882  1
  Cl  Cl22  1  0.95163294  0.13020553  0.75000000  1
  Cl  Cl23  1  0.04836706  0.86979447  0.25000000  1
  Cl  Cl24  1  0.63297371  0.45172126  0.75000000  1
  Cl  Cl25  1  0.36702629  0.54827874  0.25000000  1
  Te  Te26  1  0.28969056  0.47648643  0.91397879  1
  Te  Te27  1  0.71030944  0.52351357  0.41397879  1
  Te  Te28  1  0.71030944  0.52351357  0.08602121  1
  Te  Te29  1  0.28969056  0.47648643  0.58602121  1
  Te  Te30  1  0.97725153  0.78803249  0.91401013  1
  Te  Te31  1  0.02274847  0.21196751  0.41401013  1
  Te  Te32  1  0.02274847  0.21196751  0.08598987  1
  Te  Te33  1  0.97725153  0.78803249  0.58598987  1
  Te  Te34  1  0.57589132  0.07443923  0.85801554  1
  Te  Te35  1  0.42410868  0.92556077  0.35801554  1
  Te  Te36  1  0.42410868  0.92556077  0.14198446  1
  Te  Te37  1  0.57589132  0.07443923  0.64198446  1
