# generated using pymatgen
data_KNb3O8
_symmetry_space_group_name_H-M   'P 1'
_cell_length_a   3.84640008
_cell_length_b   9.10488233
_cell_length_c   11.04556641
_cell_angle_alpha   90.00000000
_cell_angle_beta   100.02716729
_cell_angle_gamma   90.00000000
_symmetry_Int_Tables_number   1
_chemical_formula_structural   KNb3O8
_chemical_formula_sum   'K2 Nb6 O16'
_cell_volume   380.91833944
_cell_formula_units_Z   2
loop_
 _symmetry_equiv_pos_site_id
 _symmetry_equiv_pos_as_xyz
  1  'x, y, z'
loop_
 _atom_site_type_symbol
 _atom_site_label
 _atom_site_symmetry_multiplicity
 _atom_site_fract_x
 _atom_site_fract_y
 _atom_site_fract_z
 _atom_site_occupancy
  O  O0  1  0.58676550  0.75000000  0.17353100  1
  O  O1  1  0.41323450  0.25000000  0.82646900  1
  O  O2  1  0.71532198  0.75000000  0.43064396  1
  O  O3  1  0.28467802  0.25000000  0.56935604  1
  O  O4  1  0.70352649  0.40556384  0.40705299  1
  O  O5  1  0.29647351  0.59443616  0.59294701  1
  O  O6  1  0.29647351  0.90556384  0.59294701  1
  O  O7  1  0.70352649  0.09443616  0.40705299  1
  O  O8  1  0.84271919  0.40774607  0.68543838  1
  O  O9  1  0.15728081  0.59225393  0.31456162  1
  O  O10  1  0.15728081  0.90774607  0.31456162  1
  O  O11  1  0.84271919  0.09225393  0.68543838  1
  O  O12  1  0.56899292  0.06449623  0.13798583  1
  O  O13  1  0.43100708  0.93550377  0.86201417  1
  O  O14  1  0.43100708  0.56449623  0.86201417  1
  O  O15  1  0.56899292  0.43550377  0.13798583  1
  K  K16  1  0.98335808  0.75000000  0.96671616  1
  K  K17  1  0.01664192  0.25000000  0.03328384  1
  Nb  Nb18  1  0.24270939  0.75000000  0.48541879  1
  Nb  Nb19  1  0.75729061  0.25000000  0.51458121  1
  Nb  Nb20  1  0.63206674  0.55949579  0.26413347  1
  Nb  Nb21  1  0.36793326  0.44050421  0.73586653  1
  Nb  Nb22  1  0.36793326  0.05949579  0.73586653  1
  Nb  Nb23  1  0.63206674  0.94050421  0.26413347  1
