# generated using pymatgen
data_Nb3GeTe6
_symmetry_space_group_name_H-M   'P 1'
_cell_length_a   6.53146294
_cell_length_b   11.70524869
_cell_length_c   14.91385474
_cell_angle_alpha   90.00000000
_cell_angle_beta   90.00000000
_cell_angle_gamma   90.00000000
_symmetry_Int_Tables_number   1
_chemical_formula_structural   Nb3GeTe6
_chemical_formula_sum   'Nb12 Ge4 Te24'
_cell_volume   1140.19995863
_cell_formula_units_Z   4
loop_
 _symmetry_equiv_pos_site_id
 _symmetry_equiv_pos_as_xyz
  1  'x, y, z'
loop_
 _atom_site_type_symbol
 _atom_site_label
 _atom_site_symmetry_multiplicity
 _atom_site_fract_x
 _atom_site_fract_y
 _atom_site_fract_z
 _atom_site_occupancy
  Ge  Ge0  1  0.92561324  0.92496389  0.75000000  1
  Ge  Ge1  1  0.42561324  0.57503611  0.75000000  1
  Ge  Ge2  1  0.57438676  0.42496389  0.25000000  1
  Ge  Ge3  1  0.07438676  0.07503611  0.25000000  1
  Nb  Nb4  1  0.69795712  0.96765793  0.25000000  1
  Nb  Nb5  1  0.19795712  0.53234207  0.25000000  1
  Nb  Nb6  1  0.80204288  0.46765793  0.75000000  1
  Nb  Nb7  1  0.30204288  0.03234207  0.75000000  1
  Nb  Nb8  1  0.96270211  0.31443576  0.25000000  1
  Nb  Nb9  1  0.46270211  0.18556424  0.25000000  1
  Nb  Nb10  1  0.53729789  0.81443576  0.75000000  1
  Nb  Nb11  1  0.03729789  0.68556424  0.75000000  1
  Nb  Nb12  1  0.82620489  0.16639858  0.75000000  1
  Nb  Nb13  1  0.32620489  0.33360142  0.75000000  1
  Nb  Nb14  1  0.67379511  0.66639858  0.25000000  1
  Nb  Nb15  1  0.17379511  0.83360142  0.25000000  1
  Te  Te16  1  0.85504693  0.81774561  0.37680946  1
  Te  Te17  1  0.35504693  0.68225439  0.12319054  1
  Te  Te18  1  0.64495307  0.31774561  0.62319054  1
  Te  Te19  1  0.14495307  0.18225439  0.87680946  1
  Te  Te20  1  0.14495307  0.18225439  0.62319054  1
  Te  Te21  1  0.64495307  0.31774561  0.87680946  1
  Te  Te22  1  0.35504693  0.68225439  0.37680946  1
  Te  Te23  1  0.85504693  0.81774561  0.12319054  1
  Te  Te24  1  0.78318056  0.15958283  0.37615701  1
  Te  Te25  1  0.28318056  0.34041717  0.12384299  1
  Te  Te26  1  0.71681944  0.65958283  0.62384299  1
  Te  Te27  1  0.21681944  0.84041717  0.87615701  1
  Te  Te28  1  0.21681944  0.84041717  0.62384299  1
  Te  Te29  1  0.71681944  0.65958283  0.87615701  1
  Te  Te30  1  0.28318056  0.34041717  0.37615701  1
  Te  Te31  1  0.78318056  0.15958283  0.12384299  1
  Te  Te32  1  0.36567913  0.99301827  0.37294542  1
  Te  Te33  1  0.86567913  0.50698173  0.12705458  1
  Te  Te34  1  0.13432087  0.49301827  0.62705458  1
  Te  Te35  1  0.63432087  0.00698173  0.87294542  1
  Te  Te36  1  0.63432087  0.00698173  0.62705458  1
  Te  Te37  1  0.13432087  0.49301827  0.87294542  1
  Te  Te38  1  0.86567913  0.50698173  0.37294542  1
  Te  Te39  1  0.36567913  0.99301827  0.12705458  1
