# generated using pymatgen
data_Ca2Cu6P5
_symmetry_space_group_name_H-M   'P 1'
_cell_length_a   4.00764307
_cell_length_b   4.00764306
_cell_length_c   12.64465937
_cell_angle_alpha   99.11820340
_cell_angle_beta   99.11820337
_cell_angle_gamma   90.00000002
_symmetry_Int_Tables_number   1
_chemical_formula_structural   Ca2Cu6P5
_chemical_formula_sum   'Ca2 Cu6 P5'
_cell_volume   197.92251689
_cell_formula_units_Z   1
loop_
 _symmetry_equiv_pos_site_id
 _symmetry_equiv_pos_as_xyz
  1  'x, y, z'
loop_
 _atom_site_type_symbol
 _atom_site_label
 _atom_site_symmetry_multiplicity
 _atom_site_fract_x
 _atom_site_fract_y
 _atom_site_fract_z
 _atom_site_occupancy
  P  P0  1  0.80240052  0.80240052  0.60480104  1
  P  P1  1  0.50000000  0.50000000  0.00000000  1
  P  P2  1  0.19759948  0.19759948  0.39519896  1
  P  P3  1  0.89425321  0.89425321  0.78850641  1
  P  P4  1  0.10574679  0.10574679  0.21149359  1
  Ca  Ca5  1  0.64906050  0.64906050  0.29812100  1
  Ca  Ca6  1  0.35093950  0.35093950  0.70187900  1
  Cu  Cu7  1  0.25000000  0.75000000  0.50000000  1
  Cu  Cu8  1  0.44622818  0.94622818  0.89245636  1
  Cu  Cu9  1  0.94622818  0.44622818  0.89245636  1
  Cu  Cu10  1  0.55377182  0.05377182  0.10754364  1
  Cu  Cu11  1  0.05377182  0.55377182  0.10754364  1
  Cu  Cu12  1  0.75000000  0.25000000  0.50000000  1
