# generated using pymatgen
data_Li4HN
_symmetry_space_group_name_H-M   'P 1'
_cell_length_a   4.85563959
_cell_length_b   4.85563958
_cell_length_c   6.04013036
_cell_angle_alpha   113.70002919
_cell_angle_beta   113.70002926
_cell_angle_gamma   89.99999998
_symmetry_Int_Tables_number   1
_chemical_formula_structural   Li4HN
_chemical_formula_sum   'Li8 H2 N2'
_cell_volume   117.16381528
_cell_formula_units_Z   2
loop_
 _symmetry_equiv_pos_site_id
 _symmetry_equiv_pos_as_xyz
  1  'x, y, z'
loop_
 _atom_site_type_symbol
 _atom_site_label
 _atom_site_symmetry_multiplicity
 _atom_site_fract_x
 _atom_site_fract_y
 _atom_site_fract_z
 _atom_site_occupancy
  H  H0  1  0.87500000  0.62500000  0.75000000  1
  H  H1  1  0.12500000  0.37500000  0.25000000  1
  Li  Li2  1  0.97366927  0.82489523  0.56615761  1
  Li  Li3  1  0.74126238  0.47366927  0.06615761  1
  Li  Li4  1  0.32489523  0.09248835  0.06615761  1
  Li  Li5  1  0.59248835  0.24126238  0.56615761  1
  Li  Li6  1  0.02633073  0.17510477  0.43384239  1
  Li  Li7  1  0.25873762  0.52633073  0.93384239  1
  Li  Li8  1  0.67510477  0.90751165  0.93384239  1
  Li  Li9  1  0.40751165  0.75873762  0.43384239  1
  N  N10  1  0.37500000  0.12500000  0.75000000  1
  N  N11  1  0.62500000  0.87500000  0.25000000  1
