# generated using pymatgen
data_BiPd2Pb
_symmetry_space_group_name_H-M   'P 1'
_cell_length_a   5.66882060
_cell_length_b   5.74745020
_cell_length_c   5.74745020
_cell_angle_alpha   100.73718242
_cell_angle_beta   101.69892682
_cell_angle_gamma   101.69892681
_symmetry_Int_Tables_number   1
_chemical_formula_structural   BiPd2Pb
_chemical_formula_sum   'Bi2 Pd4 Pb2'
_cell_volume   174.43677167
_cell_formula_units_Z   2
loop_
 _symmetry_equiv_pos_site_id
 _symmetry_equiv_pos_as_xyz
  1  'x, y, z'
loop_
 _atom_site_type_symbol
 _atom_site_label
 _atom_site_symmetry_multiplicity
 _atom_site_fract_x
 _atom_site_fract_y
 _atom_site_fract_z
 _atom_site_occupancy
  Pd  Pd0  1  0.12964039  0.65862800  0.17128156  1
  Pd  Pd1  1  0.12964039  0.17128156  0.65862800  1
  Pd  Pd2  1  0.46426096  0.96030916  0.96030916  1
  Pd  Pd3  1  0.47663577  0.55219106  0.55219106  1
  Pb  Pb4  1  0.01110915  0.12701248  0.12701248  1
  Pb  Pb5  1  0.00733720  0.64001006  0.64001006  1
  Bi  Bi6  1  0.57268807  0.05397463  0.50559305  1
  Bi  Bi7  1  0.57268807  0.50559305  0.05397463  1
