# generated using pymatgen
data_Ta3As
_symmetry_space_group_name_H-M   'P 1'
_cell_length_a   5.13859348
_cell_length_b   7.83808881
_cell_length_c   14.65893413
_cell_angle_alpha   90.60504692
_cell_angle_beta   90.00000000
_cell_angle_gamma   109.13507611
_symmetry_Int_Tables_number   1
_chemical_formula_structural   Ta3As
_chemical_formula_sum   'Ta24 As8'
_cell_volume   557.75808647
_cell_formula_units_Z   8
loop_
 _symmetry_equiv_pos_site_id
 _symmetry_equiv_pos_as_xyz
  1  'x, y, z'
loop_
 _atom_site_type_symbol
 _atom_site_label
 _atom_site_symmetry_multiplicity
 _atom_site_fract_x
 _atom_site_fract_y
 _atom_site_fract_z
 _atom_site_occupancy
  As  As0  1  0.90079733  0.79895053  0.64103516  1
  As  As1  1  0.10184681  0.20104947  0.85896484  1
  As  As2  1  0.09920267  0.20104947  0.35896484  1
  As  As3  1  0.89815319  0.79895053  0.14103516  1
  As  As4  1  0.62782954  0.22725069  0.65586505  1
  As  As5  1  0.40057884  0.77274931  0.84413495  1
  As  As6  1  0.37217046  0.77274931  0.34413495  1
  As  As7  1  0.59942116  0.22725069  0.15586505  1
  Ta  Ta8  1  0.43393397  0.86638652  0.17072587  1
  Ta  Ta9  1  0.56754745  0.13361348  0.32927413  1
  Ta  Ta10  1  0.56606603  0.13361348  0.82927413  1
  Ta  Ta11  1  0.43245255  0.86638652  0.67072587  1
  Ta  Ta12  1  0.91455883  0.85143965  0.32285029  1
  Ta  Ta13  1  0.06311918  0.14856035  0.17714971  1
  Ta  Ta14  1  0.08544117  0.14856035  0.67714971  1
  Ta  Ta15  1  0.93688082  0.85143965  0.82285029  1
  Ta  Ta16  1  0.01570628  0.51536302  0.20208177  1
  Ta  Ta17  1  0.50034325  0.48463698  0.29791823  1
  Ta  Ta18  1  0.98429372  0.48463698  0.79791823  1
  Ta  Ta19  1  0.49965675  0.51536302  0.70208177  1
  Ta  Ta20  1  0.70197245  0.90302549  0.99418923  1
  Ta  Ta21  1  0.79894695  0.09697451  0.50581077  1
  Ta  Ta22  1  0.29802755  0.09697451  0.00581077  1
  Ta  Ta23  1  0.20105305  0.90302549  0.49418923  1
  Ta  Ta24  1  0.58780388  0.68268415  0.49569663  1
  Ta  Ta25  1  0.90511974  0.31731585  0.00430337  1
  Ta  Ta26  1  0.41219612  0.31731585  0.50430337  1
  Ta  Ta27  1  0.09488026  0.68268415  0.99569663  1
  Ta  Ta28  1  0.51818275  0.49433600  0.90913380  1
  Ta  Ta29  1  0.02384675  0.50566400  0.59086620  1
  Ta  Ta30  1  0.48181725  0.50566400  0.09086620  1
  Ta  Ta31  1  0.97615325  0.49433600  0.40913380  1
