# generated using pymatgen
data_La4(MoO4)9
_symmetry_space_group_name_H-M   'P 1'
_cell_length_a   12.89530243
_cell_length_b   12.89530243
_cell_length_c   12.89530243
_cell_angle_alpha   109.47122063
_cell_angle_beta   109.47122063
_cell_angle_gamma   109.47122063
_symmetry_Int_Tables_number   1
_chemical_formula_structural   La4(MoO4)9
_chemical_formula_sum   'La8 Mo18 O72'
_cell_volume   1650.71730945
_cell_formula_units_Z   2
loop_
 _symmetry_equiv_pos_site_id
 _symmetry_equiv_pos_as_xyz
  1  'x, y, z'
loop_
 _atom_site_type_symbol
 _atom_site_label
 _atom_site_symmetry_multiplicity
 _atom_site_fract_x
 _atom_site_fract_y
 _atom_site_fract_z
 _atom_site_occupancy
  La  La0  1  0.53847167  0.53847167  0.53847167  1
  La  La1  1  0.96152833  -0.00000000  0.50000000  1
  La  La2  1  0.50000000  0.96152833  -0.00000000  1
  La  La3  1  0.03847167  0.03847167  0.03847167  1
  La  La4  1  -0.00000000  0.50000000  0.96152833  1
  La  La5  1  0.46152833  0.00000000  0.50000000  1
  La  La6  1  0.00000000  0.50000000  0.46152833  1
  La  La7  1  0.50000000  0.46152833  0.00000000  1
  Mo  Mo8  1  0.94657849  0.69657849  0.75000000  1
  Mo  Mo9  1  0.55342151  0.80342151  0.25000000  1
  Mo  Mo10  1  0.69657849  0.75000000  0.94657849  1
  Mo  Mo11  1  0.44657849  0.25000000  0.19657849  1
  Mo  Mo12  1  0.80342151  0.25000000  0.55342151  1
  Mo  Mo13  1  0.05342151  0.75000000  0.30342151  1
  Mo  Mo14  1  0.75000000  0.94657849  0.69657849  1
  Mo  Mo15  1  0.19657849  0.44657849  0.25000000  1
  Mo  Mo16  1  0.25000000  0.55342151  0.80342151  1
  Mo  Mo17  1  0.30342151  0.05342151  0.75000000  1
  Mo  Mo18  1  0.25000000  0.19657849  0.44657849  1
  Mo  Mo19  1  0.75000000  0.30342151  0.05342151  1
  Mo  Mo20  1  0.62500000  0.37500000  0.75000000  1
  Mo  Mo21  1  0.87500000  0.12500000  0.25000000  1
  Mo  Mo22  1  0.37500000  0.75000000  0.62500000  1
  Mo  Mo23  1  0.12500000  0.25000000  0.87500000  1
  Mo  Mo24  1  0.75000000  0.62500000  0.37500000  1
  Mo  Mo25  1  0.25000000  0.87500000  0.12500000  1
  O  O26  1  0.49083745  0.83669366  0.35388524  1
  O  O27  1  0.00916255  0.86304779  0.84585621  1
  O  O28  1  0.01719158  0.66330634  0.65414379  1
  O  O29  1  0.83669366  0.35388524  0.49083745  1
  O  O30  1  0.99083745  0.85388524  0.33669366  1
  O  O31  1  0.48280842  0.63695221  0.14611476  1
  O  O32  1  0.86304779  0.84585621  0.00916255  1
  O  O33  1  0.50916255  0.34585621  0.36304779  1
  O  O34  1  0.66330634  0.65414379  0.01719158  1
  O  O35  1  0.51719158  0.15414379  0.16330634  1
  O  O36  1  0.63695221  0.14611476  0.48280842  1
  O  O37  1  0.98280842  0.64611476  0.13695221  1
  O  O38  1  0.35388524  0.49083745  0.83669366  1
  O  O39  1  0.33669366  0.99083745  0.85388524  1
  O  O40  1  0.65414379  0.01719158  0.66330634  1
  O  O41  1  0.16330634  0.51719158  0.15414379  1
  O  O42  1  0.14611476  0.48280842  0.63695221  1
  O  O43  1  0.13695221  0.98280842  0.64611476  1
  O  O44  1  0.84585621  0.00916255  0.86304779  1
  O  O45  1  0.36304779  0.50916255  0.34585621  1
  O  O46  1  0.85388524  0.33669366  0.99083745  1
  O  O47  1  0.34585621  0.36304779  0.50916255  1
  O  O48  1  0.64611476  0.13695221  0.98280842  1
  O  O49  1  0.15414379  0.16330634  0.51719158  1
  O  O50  1  0.62245665  0.60935628  0.40786119  1
  O  O51  1  0.87754335  0.78540453  0.48689963  1
  O  O52  1  0.29850491  0.89064372  0.01310037  1
  O  O53  1  0.60935628  0.40786119  0.62245665  1
  O  O54  1  0.12245665  0.90786119  0.10935628  1
  O  O55  1  0.20149509  0.71459547  0.09213881  1
  O  O56  1  0.78540453  0.48689963  0.87754335  1
  O  O57  1  0.37754335  0.98689963  0.28540453  1
  O  O58  1  0.89064372  0.01310037  0.29850491  1
  O  O59  1  0.79850491  0.51310037  0.39064372  1
  O  O60  1  0.71459547  0.09213881  0.20149509  1
  O  O61  1  0.70149509  0.59213881  0.21459547  1
  O  O62  1  0.40786119  0.62245665  0.60935628  1
  O  O63  1  0.10935628  0.12245665  0.90786119  1
  O  O64  1  0.01310037  0.29850491  0.89064372  1
  O  O65  1  0.39064372  0.79850491  0.51310037  1
  O  O66  1  0.09213881  0.20149509  0.71459547  1
  O  O67  1  0.21459547  0.70149509  0.59213881  1
  O  O68  1  0.48689963  0.87754335  0.78540453  1
  O  O69  1  0.28540453  0.37754335  0.98689963  1
  O  O70  1  0.90786119  0.10935628  0.12245665  1
  O  O71  1  0.98689963  0.28540453  0.37754335  1
  O  O72  1  0.59213881  0.21459547  0.70149509  1
  O  O73  1  0.51310037  0.39064372  0.79850491  1
  O  O74  1  0.64667345  0.77725235  0.62200662  1
  O  O75  1  0.85332655  0.97533317  0.63057889  1
  O  O76  1  0.34475427  0.72274765  0.86942111  1
  O  O77  1  0.77725235  0.62200662  0.64667345  1
  O  O78  1  0.14667345  0.12200662  0.27725235  1
  O  O79  1  0.15524573  0.52466683  0.87799338  1
  O  O80  1  0.97533317  0.63057889  0.85332655  1
  O  O81  1  0.35332655  0.13057889  0.47533317  1
  O  O82  1  0.72274765  0.86942111  0.34475427  1
  O  O83  1  0.84475427  0.36942111  0.22274765  1
  O  O84  1  0.52466683  0.87799338  0.15524573  1
  O  O85  1  0.65524573  0.37799338  0.02466683  1
  O  O86  1  0.62200662  0.64667345  0.77725235  1
  O  O87  1  0.27725235  0.14667345  0.12200662  1
  O  O88  1  0.86942111  0.34475427  0.72274765  1
  O  O89  1  0.22274765  0.84475427  0.36942111  1
  O  O90  1  0.87799338  0.15524573  0.52466683  1
  O  O91  1  0.02466683  0.65524573  0.37799338  1
  O  O92  1  0.63057889  0.85332655  0.97533317  1
  O  O93  1  0.47533317  0.35332655  0.13057889  1
  O  O94  1  0.12200662  0.27725235  0.14667345  1
  O  O95  1  0.13057889  0.47533317  0.35332655  1
  O  O96  1  0.37799338  0.02466683  0.65524573  1
  O  O97  1  0.36942111  0.22274765  0.84475427  1
