# generated using pymatgen
data_Er2Ge5
_symmetry_space_group_name_H-M   'P 1'
_cell_length_a   3.92467331
_cell_length_b   4.04404185
_cell_length_c   18.31952193
_cell_angle_alpha   90.00000000
_cell_angle_beta   90.00000000
_cell_angle_gamma   90.00000000
_symmetry_Int_Tables_number   1
_chemical_formula_structural   Er2Ge5
_chemical_formula_sum   'Er4 Ge10'
_cell_volume   290.75908213
_cell_formula_units_Z   2
loop_
 _symmetry_equiv_pos_site_id
 _symmetry_equiv_pos_as_xyz
  1  'x, y, z'
loop_
 _atom_site_type_symbol
 _atom_site_label
 _atom_site_symmetry_multiplicity
 _atom_site_fract_x
 _atom_site_fract_y
 _atom_site_fract_z
 _atom_site_occupancy
  Ge  Ge0  1  0.75000000  0.25000000  0.50344661  1
  Ge  Ge1  1  0.25000000  0.75000000  0.49655339  1
  Ge  Ge2  1  0.75000000  0.75000000  0.33024115  1
  Ge  Ge3  1  0.25000000  0.25000000  0.66975885  1
  Ge  Ge4  1  0.25000000  0.25000000  0.06785846  1
  Ge  Ge5  1  0.75000000  0.75000000  0.93214154  1
  Ge  Ge6  1  0.25000000  0.25000000  0.93096455  1
  Ge  Ge7  1  0.75000000  0.75000000  0.06903545  1
  Ge  Ge8  1  0.25000000  0.75000000  0.23805287  1
  Ge  Ge9  1  0.75000000  0.25000000  0.76194713  1
  Er  Er10  1  0.75000000  0.75000000  0.62734346  1
  Er  Er11  1  0.25000000  0.25000000  0.37265654  1
  Er  Er12  1  0.75000000  0.25000000  0.19074386  1
  Er  Er13  1  0.25000000  0.75000000  0.80925614  1
