# generated using pymatgen
data_CdGeO3
_symmetry_space_group_name_H-M   'P 1'
_cell_length_a   5.48468842
_cell_length_b   7.16397147
_cell_length_c   7.16397147
_cell_angle_alpha   87.16736151
_cell_angle_beta   80.62062644
_cell_angle_gamma   80.62062634
_symmetry_Int_Tables_number   1
_chemical_formula_structural   CdGeO3
_chemical_formula_sum   'Cd4 Ge4 O12'
_cell_volume   273.93611906
_cell_formula_units_Z   4
loop_
 _symmetry_equiv_pos_site_id
 _symmetry_equiv_pos_as_xyz
  1  'x, y, z'
loop_
 _atom_site_type_symbol
 _atom_site_label
 _atom_site_symmetry_multiplicity
 _atom_site_fract_x
 _atom_site_fract_y
 _atom_site_fract_z
 _atom_site_occupancy
  O  O0  1  0.12981828  0.60688804  0.14391693  1
  O  O1  1  0.37018172  0.85608307  0.39311196  1
  O  O2  1  0.87018172  0.39311196  0.85608307  1
  O  O3  1  0.62981828  0.14391693  0.60688804  1
  O  O4  1  0.05816329  0.29976717  0.40448392  1
  O  O5  1  0.44183671  0.59551608  0.70023283  1
  O  O6  1  0.94183671  0.70023283  0.59551608  1
  O  O7  1  0.55816329  0.40448392  0.29976717  1
  O  O8  1  0.65323698  0.78638220  0.97153203  1
  O  O9  1  0.84676302  0.02846797  0.21361780  1
  O  O10  1  0.34676302  0.21361780  0.02846797  1
  O  O11  1  0.15323698  0.97153203  0.78638220  1
  Ge  Ge12  1  0.22696505  0.79329768  0.61671392  1
  Ge  Ge13  1  0.27303495  0.38328608  0.20670232  1
  Ge  Ge14  1  0.77303495  0.20670232  0.38328608  1
  Ge  Ge15  1  0.72696505  0.61671392  0.79329768  1
  Cd  Cd16  1  0.25000000  0.28761546  0.71238454  1
  Cd  Cd17  1  0.75000000  0.71238454  0.28761546  1
  Cd  Cd18  1  0.25000000  0.90237240  0.09762760  1
  Cd  Cd19  1  0.75000000  0.09762760  0.90237240  1
