# generated using pymatgen
data_As8S9
_symmetry_space_group_name_H-M   'P 1'
_cell_length_a   9.64053326
_cell_length_b   10.24247391
_cell_length_c   10.64344383
_cell_angle_alpha   90.00000000
_cell_angle_beta   101.22869051
_cell_angle_gamma   90.00000000
_symmetry_Int_Tables_number   1
_chemical_formula_structural   As8S9
_chemical_formula_sum   'As16 S18'
_cell_volume   1030.84681446
_cell_formula_units_Z   2
loop_
 _symmetry_equiv_pos_site_id
 _symmetry_equiv_pos_as_xyz
  1  'x, y, z'
loop_
 _atom_site_type_symbol
 _atom_site_label
 _atom_site_symmetry_multiplicity
 _atom_site_fract_x
 _atom_site_fract_y
 _atom_site_fract_z
 _atom_site_occupancy
  S  S0  1  0.50305296  0.16952852  0.59926793  1
  S  S1  1  0.99694704  0.16952852  0.40073207  1
  S  S2  1  0.49694704  0.83047148  0.40073207  1
  S  S3  1  0.00305296  0.83047148  0.59926793  1
  S  S4  1  0.25000000  0.43284669  0.50000000  1
  S  S5  1  0.75000000  0.56715331  0.50000000  1
  S  S6  1  0.17746771  0.16906347  0.70854027  1
  S  S7  1  0.32253229  0.16906347  0.29145973  1
  S  S8  1  0.82253229  0.83093653  0.29145973  1
  S  S9  1  0.67746771  0.83093653  0.70854027  1
  S  S10  1  0.86121012  0.32125427  0.82332011  1
  S  S11  1  0.63878988  0.32125427  0.17667989  1
  S  S12  1  0.13878988  0.67874573  0.17667989  1
  S  S13  1  0.36121012  0.67874573  0.82332011  1
  S  S14  1  0.75000000  0.55110834  0.00000000  1
  S  S15  1  0.25000000  0.44889166  0.00000000  1
  S  S16  1  0.25000000  0.90877395  0.00000000  1
  S  S17  1  0.75000000  0.09122605  0.00000000  1
  As  As18  1  0.31827615  0.03743880  0.61762143  1
  As  As19  1  0.18172385  0.03743880  0.38237857  1
  As  As20  1  0.68172385  0.96256120  0.38237857  1
  As  As21  1  0.81827615  0.96256120  0.61762143  1
  As  As22  1  0.07192346  0.31643593  0.56072703  1
  As  As23  1  0.42807654  0.31643593  0.43927297  1
  As  As24  1  0.92807654  0.68356407  0.43927297  1
  As  As25  1  0.57192346  0.68356407  0.56072703  1
  As  As26  1  0.65282370  0.41239065  0.84196267  1
  As  As27  1  0.84717630  0.41239065  0.15803733  1
  As  As28  1  0.34717630  0.58760935  0.15803733  1
  As  As29  1  0.15282370  0.58760935  0.84196267  1
  As  As30  1  0.56460125  0.22936323  0.98250905  1
  As  As31  1  0.93539875  0.22936323  0.01749095  1
  As  As32  1  0.43539875  0.77063677  0.01749095  1
  As  As33  1  0.06460125  0.77063677  0.98250905  1
