# generated using pymatgen
data_Tb2Zn17
_symmetry_space_group_name_H-M   'P 1'
_cell_length_a   8.98808629
_cell_length_b   8.98808629
_cell_length_c   8.79212456
_cell_angle_alpha   90.00000000
_cell_angle_beta   90.00000000
_cell_angle_gamma   119.99999997
_symmetry_Int_Tables_number   1
_chemical_formula_structural   Tb2Zn17
_chemical_formula_sum   'Tb4 Zn34'
_cell_volume   615.11870048
_cell_formula_units_Z   2
loop_
 _symmetry_equiv_pos_site_id
 _symmetry_equiv_pos_as_xyz
  1  'x, y, z'
loop_
 _atom_site_type_symbol
 _atom_site_label
 _atom_site_symmetry_multiplicity
 _atom_site_fract_x
 _atom_site_fract_y
 _atom_site_fract_z
 _atom_site_occupancy
  Zn  Zn0  1  0.16164390  0.83835610  0.52089256  1
  Zn  Zn1  1  0.16164390  0.32328781  0.52089256  1
  Zn  Zn2  1  0.67671219  0.83835610  0.52089256  1
  Zn  Zn3  1  0.32328781  0.16164390  0.02089256  1
  Zn  Zn4  1  0.33333333  0.66666667  0.10142211  1
  Zn  Zn5  1  0.66666667  0.33333333  0.60142211  1
  Zn  Zn6  1  0.66666667  0.33333333  0.89857789  1
  Zn  Zn7  1  0.33333333  0.66666667  0.39857789  1
  Zn  Zn8  1  0.50000000  0.00000000  0.00000000  1
  Zn  Zn9  1  0.50000000  0.50000000  0.50000000  1
  Zn  Zn10  1  0.00000000  0.50000000  0.50000000  1
  Zn  Zn11  1  0.00000000  0.50000000  0.00000000  1
  Zn  Zn12  1  0.50000000  0.50000000  0.00000000  1
  Zn  Zn13  1  0.50000000  0.00000000  0.50000000  1
  Zn  Zn14  1  0.32888232  0.96147165  0.25000000  1
  Zn  Zn15  1  0.36741067  0.32888232  0.75000000  1
  Zn  Zn16  1  0.96147165  0.63258933  0.75000000  1
  Zn  Zn17  1  0.03852835  0.36741067  0.25000000  1
  Zn  Zn18  1  0.63258933  0.67111768  0.25000000  1
  Zn  Zn19  1  0.36741067  0.03852835  0.75000000  1
  Zn  Zn20  1  0.67111768  0.63258933  0.75000000  1
  Zn  Zn21  1  0.67111768  0.03852835  0.75000000  1
  Zn  Zn22  1  0.96147165  0.32888232  0.75000000  1
  Zn  Zn23  1  0.03852835  0.67111768  0.25000000  1
  Zn  Zn24  1  0.63258933  0.96147165  0.25000000  1
  Zn  Zn25  1  0.32888232  0.36741067  0.25000000  1
  Zn  Zn26  1  0.16164390  0.32328781  0.97910744  1
  Zn  Zn27  1  0.83835610  0.16164390  0.47910744  1
  Zn  Zn28  1  0.32328781  0.16164390  0.47910744  1
  Zn  Zn29  1  0.67671219  0.83835610  0.97910744  1
  Zn  Zn30  1  0.16164390  0.83835610  0.97910744  1
  Zn  Zn31  1  0.83835610  0.67671219  0.02089256  1
  Zn  Zn32  1  0.83835610  0.16164390  0.02089256  1
  Zn  Zn33  1  0.83835610  0.67671219  0.47910744  1
  Tb  Tb34  1  0.66666667  0.33333333  0.25000000  1
  Tb  Tb35  1  0.33333333  0.66666667  0.75000000  1
  Tb  Tb36  1  0.00000000  0.00000000  0.75000000  1
  Tb  Tb37  1  0.00000000  0.00000000  0.25000000  1
