# generated using pymatgen
data_BaCeO3
_symmetry_space_group_name_H-M   'P 1'
_cell_length_a   6.27355573
_cell_length_b   6.27870146
_cell_length_c   6.27870146
_cell_angle_alpha   60.46601525
_cell_angle_beta   60.02710699
_cell_angle_gamma   60.02710694
_symmetry_Int_Tables_number   1
_chemical_formula_structural   BaCeO3
_chemical_formula_sum   'Ba2 Ce2 O6'
_cell_volume   175.55926269
_cell_formula_units_Z   2
loop_
 _symmetry_equiv_pos_site_id
 _symmetry_equiv_pos_as_xyz
  1  'x, y, z'
loop_
 _atom_site_type_symbol
 _atom_site_label
 _atom_site_symmetry_multiplicity
 _atom_site_fract_x
 _atom_site_fract_y
 _atom_site_fract_z
 _atom_site_occupancy
  O  O0  1  0.20424370  0.29575630  0.29575630  1
  O  O1  1  0.29575630  0.70424370  0.70424370  1
  O  O2  1  0.79575630  0.70424370  0.70424370  1
  O  O3  1  0.70424370  0.29575630  0.29575630  1
  O  O4  1  0.25000000  0.16894769  0.83105231  1
  O  O5  1  0.75000000  0.83105231  0.16894769  1
  Ba  Ba6  1  0.75000000  0.26024135  0.73975865  1
  Ba  Ba7  1  0.25000000  0.73975865  0.26024135  1
  Ce  Ce8  1  0.00000000  0.50000000  0.00000000  1
  Ce  Ce9  1  0.50000000  0.00000000  0.50000000  1
