# generated using pymatgen
data_Tb4H9
_symmetry_space_group_name_H-M   'P 1'
_cell_length_a   7.37548744
_cell_length_b   9.76999456
_cell_length_c   6.41138811
_cell_angle_alpha   29.17433259
_cell_angle_beta   54.89469449
_cell_angle_gamma   41.01905119
_symmetry_Int_Tables_number   1
_chemical_formula_structural   Tb4H9
_chemical_formula_sum   'Tb4 H9'
_cell_volume   142.65879425
_cell_formula_units_Z   1
loop_
 _symmetry_equiv_pos_site_id
 _symmetry_equiv_pos_as_xyz
  1  'x, y, z'
loop_
 _atom_site_type_symbol
 _atom_site_label
 _atom_site_symmetry_multiplicity
 _atom_site_fract_x
 _atom_site_fract_y
 _atom_site_fract_z
 _atom_site_occupancy
  H  H0  1  0.11538181  0.01382091  0.24142038  1
  H  H1  1  0.62936954  0.98622013  0.26906013  1
  H  H2  1  0.37063046  0.01377987  0.73093987  1
  H  H3  1  0.37063252  0.50023981  0.24447362  1
  H  H4  1  0.11537854  0.50017425  0.75507263  1
  H  H5  1  0.50000000  0.50000000  0.50000000  1
  H  H6  1  0.88461819  0.98617909  0.75857962  1
  H  H7  1  0.88462146  0.49982575  0.24492737  1
  H  H8  1  0.62936748  0.49976019  0.75552638  1
  Tb  Tb9  1  0.00000000  0.00000000  0.00000000  1
  Tb  Tb10  1  0.50000000  0.00000000  0.00000000  1
  Tb  Tb11  1  0.25228633  0.50000360  0.99541738  1
  Tb  Tb12  1  0.74771367  0.49999640  0.00458262  1
