# generated using pymatgen
data_Mo2(PO4)3
_symmetry_space_group_name_H-M   'P 1'
_cell_length_a   8.81115782
_cell_length_b   8.97103145
_cell_length_c   8.81115781
_cell_angle_alpha   90.03091912
_cell_angle_beta   59.62139809
_cell_angle_gamma   119.07927381
_symmetry_Int_Tables_number   1
_chemical_formula_structural   Mo2(PO4)3
_chemical_formula_sum   'Mo4 P6 O24'
_cell_volume   496.55912230
_cell_formula_units_Z   2
loop_
 _symmetry_equiv_pos_site_id
 _symmetry_equiv_pos_as_xyz
  1  'x, y, z'
loop_
 _atom_site_type_symbol
 _atom_site_label
 _atom_site_symmetry_multiplicity
 _atom_site_fract_x
 _atom_site_fract_y
 _atom_site_fract_z
 _atom_site_occupancy
  O  O0  1  0.64831813  0.91755663  0.47996313  1
  O  O1  1  0.01823048  0.73221344  0.06127884  1
  O  O2  1  0.21196814  0.58084191  0.00658267  1
  O  O3  1  0.20650705  0.76778659  0.21398202  1
  O  O4  1  0.96636751  0.25804141  0.95358877  1
  O  O5  1  0.78340690  0.41944909  1.00640733  1
  O  O6  1  0.78837075  0.24195858  0.79167350  1
  O  O7  1  0.80506710  0.73093519  0.91408614  1
  O  O8  1  0.99621573  0.78662907  0.57448141  1
  O  O9  1  0.64965266  0.23298905  0.56378223  1
  O  O10  1  0.78453494  0.92056454  0.72985409  1
  O  O11  1  0.60248099  0.58244366  0.76923818  1
  O  O12  1  0.57414462  0.08055145  0.13604185  1
  O  O13  1  0.64200476  0.42076710  0.36652541  1
  O  O14  1  0.20322833  0.26701068  0.08333638  1
  O  O15  1  0.34081242  0.26543469  0.70907094  1
  O  O16  1  0.63888838  0.71336986  0.29041388  1
  O  O17  1  0.02549387  0.23456504  0.42462183  1
  O  O18  1  0.41257456  0.91915757  0.86887411  1
  O  O19  1  0.34958157  0.57943574  0.63602920  1
  O  O20  1  0.21270724  0.07923264  0.27876347  1
  O  O21  1  0.41893055  0.42063672  0.21107214  1
  O  O22  1  0.35497895  0.76906509  0.42586692  1
  O  O23  1  0.36829178  0.07936301  0.50170582  1
  P  P24  1  0.78510151  0.75157571  0.75205903  1
  P  P25  1  0.49991240  0.24945932  0.53485825  1
  P  P26  1  0.49636487  0.74842322  0.46647503  1
  P  P27  1  0.21568093  0.25054041  0.24954818  1
  P  P28  1  0.78623904  0.25000067  0.96376069  1
  P  P29  1  0.21381443  0.74999934  0.03618519  1
  Mo  Mo30  1  0.28468741  0.92700978  0.35642295  1
  Mo  Mo31  1  0.28462055  0.42505881  0.85855463  1
  Mo  Mo32  1  0.71656722  0.57299105  0.14232210  1
  Mo  Mo33  1  0.71638634  0.07494173  0.64043792  1
