# generated using pymatgen
data_HoMoO5
_symmetry_space_group_name_H-M   'P 1'
_cell_length_a   5.33913717
_cell_length_b   6.89531464
_cell_length_c   12.45555167
_cell_angle_alpha   90.00000000
_cell_angle_beta   90.00000000
_cell_angle_gamma   115.62965755
_symmetry_Int_Tables_number   1
_chemical_formula_structural   HoMoO5
_chemical_formula_sum   'Ho4 Mo4 O20'
_cell_volume   413.43405911
_cell_formula_units_Z   4
loop_
 _symmetry_equiv_pos_site_id
 _symmetry_equiv_pos_as_xyz
  1  'x, y, z'
loop_
 _atom_site_type_symbol
 _atom_site_label
 _atom_site_symmetry_multiplicity
 _atom_site_fract_x
 _atom_site_fract_y
 _atom_site_fract_z
 _atom_site_occupancy
  Ho  Ho0  1  0.64384438  0.78853592  0.55339314  1
  Ho  Ho1  1  0.35615562  0.21146408  0.44660686  1
  Ho  Ho2  1  0.35615562  0.71146408  0.05339314  1
  Ho  Ho3  1  0.64384438  0.28853592  0.94660686  1
  Mo  Mo4  1  0.91185090  0.85684449  0.86040516  1
  Mo  Mo5  1  0.08814910  0.14315551  0.13959484  1
  Mo  Mo6  1  0.08814910  0.64315551  0.36040516  1
  Mo  Mo7  1  0.91185090  0.35684449  0.63959484  1
  O  O8  1  0.49367370  0.54631879  0.91855561  1
  O  O9  1  0.50632630  0.45368121  0.08144439  1
  O  O10  1  0.50632630  0.95368121  0.41855561  1
  O  O11  1  0.49367370  0.04631879  0.58144439  1
  O  O12  1  0.98900966  0.84240696  0.42743495  1
  O  O13  1  0.01099034  0.15759304  0.57256505  1
  O  O14  1  0.01099034  0.65759304  0.92743495  1
  O  O15  1  0.98900966  0.34240696  0.07256505  1
  O  O16  1  0.70456496  0.96678910  0.93694261  1
  O  O17  1  0.29543504  0.03321090  0.06305739  1
  O  O18  1  0.29543504  0.53321090  0.43694261  1
  O  O19  1  0.70456496  0.46678910  0.56305739  1
  O  O20  1  0.79468526  0.78936514  0.72638987  1
  O  O21  1  0.20531474  0.21063486  0.27361013  1
  O  O22  1  0.20531474  0.71063486  0.22638987  1
  O  O23  1  0.79468526  0.28936514  0.77361013  1
  O  O24  1  0.76234846  0.91778715  0.15329480  1
  O  O25  1  0.23765154  0.08221285  0.84670520  1
  O  O26  1  0.23765154  0.58221285  0.65329480  1
  O  O27  1  0.76234846  0.41778715  0.34670520  1
