# generated using pymatgen
data_Li3Mn2(PO4)3
_symmetry_space_group_name_H-M   'P 1'
_cell_length_a   8.55100999
_cell_length_b   12.51955443
_cell_length_c   8.69871381
_cell_angle_alpha   90.00000000
_cell_angle_beta   90.00000000
_cell_angle_gamma   92.47341128
_symmetry_Int_Tables_number   1
_chemical_formula_structural   Li3Mn2(PO4)3
_chemical_formula_sum   'Li12 Mn8 P12 O48'
_cell_volume   930.37178746
_cell_formula_units_Z   4
loop_
 _symmetry_equiv_pos_site_id
 _symmetry_equiv_pos_as_xyz
  1  'x, y, z'
loop_
 _atom_site_type_symbol
 _atom_site_label
 _atom_site_symmetry_multiplicity
 _atom_site_fract_x
 _atom_site_fract_y
 _atom_site_fract_z
 _atom_site_occupancy
  Li  Li0  1  0.08343910  0.69747770  0.08998815  1
  Li  Li1  1  0.08154355  0.76023527  0.69512871  1
  Li  Li2  1  0.21193908  0.17025774  0.78213573  1
  Li  Li3  1  0.28806061  0.32974185  0.28213592  1
  Li  Li4  1  0.41845589  0.73976504  0.19512889  1
  Li  Li5  1  0.41656034  0.80252260  0.58998911  1
  Li  Li6  1  0.58343909  0.19747737  0.41001167  1
  Li  Li7  1  0.58154354  0.26023494  0.80487074  1
  Li  Li8  1  0.71193882  0.67025813  0.71786486  1
  Li  Li9  1  0.78806152  0.82974224  0.21786505  1
  Li  Li10  1  0.91845588  0.23976470  0.30487092  1
  Li  Li11  1  0.91656033  0.30252227  0.91001148  1
  O  O12  1  0.17132678  0.44044367  0.17629604  1
  O  O13  1  0.91523582  0.15024230  0.10249288  1
  O  O14  1  0.92624414  0.40653606  0.31963188  1
  O  O15  1  0.92372171  0.83729539  0.40848880  1
  O  O16  1  0.89944033  0.42200745  0.62415434  1
  O  O17  1  0.86937330  0.01266641  0.61249045  1
  O  O18  1  0.86109459  0.17397855  0.78261536  1
  O  O19  1  0.85268270  0.80104647  0.74386974  1
  O  O20  1  0.05003281  0.43194006  0.86215699  1
  O  O21  1  0.08476361  0.84975767  0.89750675  1
  O  O22  1  0.07375646  0.59346392  0.68036775  1
  O  O23  1  0.07627889  0.16270459  0.59151083  1
  O  O24  1  0.10056027  0.57799253  0.37584644  1
  O  O25  1  0.13062730  0.98733357  0.38750918  1
  O  O26  1  0.13890484  0.82602142  0.21738427  1
  O  O27  1  0.13689374  0.24929853  0.97188324  1
  O  O28  1  0.14731678  0.19895431  0.25612989  1
  O  O29  1  0.94996779  0.56805992  0.13784264  1
  O  O30  1  0.17423982  0.05897524  0.03765457  1
  O  O31  1  0.19721856  0.80757413  0.50859504  1
  O  O32  1  0.30278206  0.69242618  0.00859408  1
  O  O33  1  0.32575987  0.44102434  0.53765438  1
  O  O34  1  0.32867290  0.05955591  0.67629586  1
  O  O35  1  0.36109461  0.67397888  0.71738408  1
  O  O36  1  0.35268296  0.30104608  0.75613086  1
  O  O37  1  0.36937331  0.51266674  0.88750899  1
  O  O38  1  0.36310595  0.25070106  0.47188342  1
  O  O39  1  0.39944029  0.92200698  0.87584625  1
  O  O40  1  0.42624411  0.90653559  0.18036794  1
  O  O41  1  0.41523578  0.65024183  0.39750694  1
  O  O42  1  0.42372085  0.33729580  0.09151101  1
  O  O43  1  0.44996688  0.06805953  0.36215717  1
  O  O44  1  0.55003255  0.93194045  0.63784246  1
  O  O45  1  0.57627858  0.66270418  0.90848861  1
  O  O46  1  0.58476365  0.34975814  0.60249384  1
  O  O47  1  0.57375650  0.09346439  0.81963169  1
  O  O48  1  0.60056031  0.07799300  0.12415453  1
  O  O49  1  0.63689348  0.74929892  0.52811620  1
  O  O50  1  0.63062729  0.48733324  0.11249064  1
  O  O51  1  0.64731764  0.69895390  0.24386992  1
  O  O52  1  0.63890482  0.32602109  0.28261554  1
  O  O53  1  0.67132652  0.94044406  0.32370492  1
  O  O54  1  0.67423956  0.55897563  0.46234524  1
  O  O55  1  0.69721855  0.30757380  0.99140555  1
  O  O56  1  0.80278204  0.19242585  0.49140574  1
  O  O57  1  0.82575961  0.94102473  0.96234621  1
  O  O58  1  0.82867264  0.55955630  0.82370474  1
  O  O59  1  0.86310569  0.75070144  0.02811639  1
  P  P60  1  0.96190625  0.50233487  0.74639735  1
  P  P61  1  0.89795255  0.13524672  0.61400185  1
  P  P62  1  0.90075720  0.84108816  0.90535152  1
  P  P63  1  0.60204692  0.36475372  0.11400203  1
  P  P64  1  0.59924192  0.65891140  0.40535055  1
  P  P65  1  0.53809404  0.99766469  0.24639638  1
  P  P66  1  0.46190656  0.00233529  0.75360324  1
  P  P67  1  0.40075751  0.34108857  0.59464908  1
  P  P68  1  0.03809318  0.49766510  0.25360343  1
  P  P69  1  0.10204688  0.86475325  0.38599778  1
  P  P70  1  0.39795251  0.63524625  0.88599760  1
  P  P71  1  0.09924223  0.15891182  0.09464926  1
  Mn  Mn72  1  0.24867945  0.90404431  0.04081593  1
  Mn  Mn73  1  0.25131999  0.59595600  0.54081575  1
  Mn  Mn74  1  0.25185341  0.39041947  0.95538981  1
  Mn  Mn75  1  0.24814628  0.10958012  0.45539000  1
  Mn  Mn76  1  0.75185315  0.89041986  0.54460963  1
  Mn  Mn77  1  0.74814602  0.60958050  0.04460982  1
  Mn  Mn78  1  0.74867944  0.40404398  0.45918388  1
  Mn  Mn79  1  0.75132002  0.09595647  0.95918370  1
