# generated using pymatgen
data_KAuSe5
_symmetry_space_group_name_H-M   'P 1'
_cell_length_a   9.33944035
_cell_length_b   11.15144445
_cell_length_c   11.15144445
_cell_angle_alpha   61.59504840
_cell_angle_beta   65.24400628
_cell_angle_gamma   65.24400625
_symmetry_Int_Tables_number   1
_chemical_formula_structural   KAuSe5
_chemical_formula_sum   'K4 Au4 Se20'
_cell_volume   891.96355282
_cell_formula_units_Z   4
loop_
 _symmetry_equiv_pos_site_id
 _symmetry_equiv_pos_as_xyz
  1  'x, y, z'
loop_
 _atom_site_type_symbol
 _atom_site_label
 _atom_site_symmetry_multiplicity
 _atom_site_fract_x
 _atom_site_fract_y
 _atom_site_fract_z
 _atom_site_occupancy
  K  K0  1  0.50000000  0.50000000  0.50000000  1
  K  K1  1  0.00000000  0.00000000  0.00000000  1
  K  K2  1  0.75000000  0.75000000  0.75000000  1
  K  K3  1  0.25000000  0.25000000  0.25000000  1
  Se  Se4  1  0.45452227  0.21928056  0.47080809  1
  Se  Se5  1  0.64461092  0.28071944  0.02919191  1
  Se  Se6  1  0.04547773  0.02919191  0.28071944  1
  Se  Se7  1  0.85538908  0.47080809  0.21928056  1
  Se  Se8  1  0.54547773  0.78071944  0.52919191  1
  Se  Se9  1  0.35538908  0.71928056  0.97080809  1
  Se  Se10  1  0.95452227  0.97080809  0.71928056  1
  Se  Se11  1  0.14461092  0.52919191  0.78071944  1
  Se  Se12  1  0.61264136  0.94127188  0.28910950  1
  Se  Se13  1  0.34302273  0.55872812  0.21089050  1
  Se  Se14  1  0.88735864  0.21089050  0.55872812  1
  Se  Se15  1  0.15697727  0.28910950  0.94127188  1
  Se  Se16  1  0.38735864  0.05872812  0.71089050  1
  Se  Se17  1  0.65697727  0.44127188  0.78910950  1
  Se  Se18  1  0.11264136  0.78910950  0.44127188  1
  Se  Se19  1  0.84302273  0.71089050  0.05872812  1
  Se  Se20  1  0.08187091  0.64500718  0.35499282  1
  Se  Se21  1  0.58187091  0.85499282  0.14500718  1
  Se  Se22  1  0.41812909  0.14500718  0.85499282  1
  Se  Se23  1  0.91812909  0.35499282  0.64500718  1
  Au  Au24  1  0.25000000  0.61889152  0.88110848  1
  Au  Au25  1  0.25000000  0.88110848  0.61889152  1
  Au  Au26  1  0.75000000  0.38110848  0.11889152  1
  Au  Au27  1  0.75000000  0.11889152  0.38110848  1
