# generated using pymatgen
data_BaUO3
_symmetry_space_group_name_H-M   'P 1'
_cell_length_a   6.26744952
_cell_length_b   6.29211041
_cell_length_c   8.81888131
_cell_angle_alpha   90.00000000
_cell_angle_beta   90.00000000
_cell_angle_gamma   90.00000000
_symmetry_Int_Tables_number   1
_chemical_formula_structural   BaUO3
_chemical_formula_sum   'Ba4 U4 O12'
_cell_volume   347.77685605
_cell_formula_units_Z   4
loop_
 _symmetry_equiv_pos_site_id
 _symmetry_equiv_pos_as_xyz
  1  'x, y, z'
loop_
 _atom_site_type_symbol
 _atom_site_label
 _atom_site_symmetry_multiplicity
 _atom_site_fract_x
 _atom_site_fract_y
 _atom_site_fract_z
 _atom_site_occupancy
  Ba  Ba0  1  0.01598950  0.99190415  0.25000000  1
  Ba  Ba1  1  0.48401050  0.49190415  0.75000000  1
  Ba  Ba2  1  0.51598950  0.50809585  0.25000000  1
  Ba  Ba3  1  0.98401050  0.00809585  0.75000000  1
  O  O4  1  0.23267466  0.23363710  0.95852369  1
  O  O5  1  0.51217141  0.92498269  0.75000000  1
  O  O6  1  0.73267466  0.26636290  0.54147631  1
  O  O7  1  0.73267466  0.26636290  0.95852369  1
  O  O8  1  0.76732534  0.76636290  0.45852369  1
  O  O9  1  0.01217141  0.57501731  0.75000000  1
  O  O10  1  0.23267466  0.23363710  0.54147631  1
  O  O11  1  0.26732534  0.73363710  0.04147631  1
  O  O12  1  0.26732534  0.73363710  0.45852369  1
  O  O13  1  0.48782859  0.07501731  0.25000000  1
  O  O14  1  0.76732534  0.76636290  0.04147631  1
  O  O15  1  0.98782859  0.42498269  0.25000000  1
  U  U16  1  0.00000000  0.50000000  0.00000000  1
  U  U17  1  0.00000000  0.50000000  0.50000000  1
  U  U18  1  0.50000000  0.00000000  0.50000000  1
  U  U19  1  0.50000000  0.00000000  0.00000000  1
