# generated using pymatgen
data_Sr2Nb2O7
_symmetry_space_group_name_H-M   'P 1'
_cell_length_a   4.00163518
_cell_length_b   5.82777990
_cell_length_c   13.81770121
_cell_angle_alpha   90.00000000
_cell_angle_beta   98.32575842
_cell_angle_gamma   90.00000000
_symmetry_Int_Tables_number   1
_chemical_formula_structural   Sr2Nb2O7
_chemical_formula_sum   'Sr4 Nb4 O14'
_cell_volume   318.84162963
_cell_formula_units_Z   2
loop_
 _symmetry_equiv_pos_site_id
 _symmetry_equiv_pos_as_xyz
  1  'x, y, z'
loop_
 _atom_site_type_symbol
 _atom_site_label
 _atom_site_symmetry_multiplicity
 _atom_site_fract_x
 _atom_site_fract_y
 _atom_site_fract_z
 _atom_site_occupancy
  O  O0  1  0.45160114  0.93872469  0.90320228  1
  O  O1  1  0.54839886  0.43872469  0.09679772  1
  O  O2  1  0.90776505  0.66357259  0.81553010  1
  O  O3  1  0.09223495  0.16357259  0.18446990  1
  O  O4  1  0.80072930  0.76699131  0.60145860  1
  O  O5  1  0.19927070  0.26699131  0.39854140  1
  O  O6  1  0.21447825  0.79260641  0.42895650  1
  O  O7  1  0.78552175  0.29260641  0.57104350  1
  O  O8  1  0.99148322  0.21743140  0.98296644  1
  O  O9  1  0.00851678  0.71743140  0.01703356  1
  O  O10  1  0.88880884  0.17146463  0.77761767  1
  O  O11  1  0.11119116  0.67146463  0.22238233  1
  O  O12  1  0.34952490  0.46657096  0.69904981  1
  O  O13  1  0.65047510  0.96657096  0.30095019  1
  Sr  Sr14  1  0.29087148  0.03979193  0.58174295  1
  Sr  Sr15  1  0.70912852  0.53979193  0.41825705  1
  Sr  Sr16  1  0.44906487  0.47581633  0.89812974  1
  Sr  Sr17  1  0.55093513  0.97581633  0.10187026  1
  Nb  Nb18  1  0.83882352  0.50435676  0.67764704  1
  Nb  Nb19  1  0.16117648  0.00435676  0.32235296  1
  Nb  Nb20  1  0.05847475  0.47279300  0.11694949  1
  Nb  Nb21  1  0.94152525  0.97279300  0.88305051  1
