# generated using pymatgen
data_NaCoP2HO7
_symmetry_space_group_name_H-M   'P 1'
_cell_length_a   6.53100517
_cell_length_b   6.62197000
_cell_length_c   6.67983738
_cell_angle_alpha   83.99401681
_cell_angle_beta   67.58774930
_cell_angle_gamma   88.47152822
_symmetry_Int_Tables_number   1
_chemical_formula_structural   NaCoP2HO7
_chemical_formula_sum   'Na2 Co2 P4 H2 O14'
_cell_volume   265.57553458
_cell_formula_units_Z   2
loop_
 _symmetry_equiv_pos_site_id
 _symmetry_equiv_pos_as_xyz
  1  'x, y, z'
loop_
 _atom_site_type_symbol
 _atom_site_label
 _atom_site_symmetry_multiplicity
 _atom_site_fract_x
 _atom_site_fract_y
 _atom_site_fract_z
 _atom_site_occupancy
  Na  Na0  1  0.22819678  0.11708821  0.75515198  1
  Na  Na1  1  0.77180322  0.88291179  0.24484802  1
  Co  Co2  1  0.28597926  0.64173544  0.11299448  1
  Co  Co3  1  0.71402074  0.35826456  0.88700552  1
  P  P4  1  0.25354951  0.14446929  0.21738118  1
  P  P5  1  0.16945044  0.62075252  0.63606861  1
  P  P6  1  0.83054956  0.37924748  0.36393139  1
  P  P7  1  0.74645049  0.85553071  0.78261882  1
  H  H8  1  0.54651255  0.19416652  0.30856203  1
  H  H9  1  0.45348745  0.80583348  0.69143797  1
  O  O10  1  0.01442747  0.21213475  0.37966383  1
  O  O11  1  0.21629794  0.96517433  0.10942793  1
  O  O12  1  0.04784987  0.42378487  0.75439962  1
  O  O13  1  0.36333699  0.32861459  0.05125859  1
  O  O14  1  0.33093324  0.61373412  0.40381519  1
  O  O15  1  0.38305144  0.09133829  0.36810145  1
  O  O16  1  0.27697159  0.71449463  0.77906055  1
  O  O17  1  0.72302841  0.28550537  0.22093945  1
  O  O18  1  0.61694856  0.90866171  0.63189855  1
  O  O19  1  0.66906676  0.38626588  0.59618481  1
  O  O20  1  0.63666301  0.67138541  0.94874141  1
  O  O21  1  0.95215013  0.57621513  0.24560038  1
  O  O22  1  0.78370206  0.03482567  0.89057207  1
  O  O23  1  0.98557253  0.78786525  0.62033617  1
