# generated using pymatgen
data_RbPO3
_symmetry_space_group_name_H-M   'P 1'
_cell_length_a   4.31826920
_cell_length_b   6.62542762
_cell_length_c   12.32631446
_cell_angle_alpha   95.70331359
_cell_angle_beta   90.00000000
_cell_angle_gamma   90.00000000
_symmetry_Int_Tables_number   1
_chemical_formula_structural   RbPO3
_chemical_formula_sum   'Rb4 P4 O12'
_cell_volume   350.91480958
_cell_formula_units_Z   4
loop_
 _symmetry_equiv_pos_site_id
 _symmetry_equiv_pos_as_xyz
  1  'x, y, z'
loop_
 _atom_site_type_symbol
 _atom_site_label
 _atom_site_symmetry_multiplicity
 _atom_site_fract_x
 _atom_site_fract_y
 _atom_site_fract_z
 _atom_site_occupancy
  O  O0  1  0.86884986  0.02455245  0.67709334  1
  O  O1  1  0.36884986  0.47544755  0.82290666  1
  O  O2  1  0.13115014  0.97544755  0.32290666  1
  O  O3  1  0.63115014  0.52455245  0.17709334  1
  O  O4  1  0.15497413  0.71230304  0.57847041  1
  O  O5  1  0.65497413  0.78769696  0.92152959  1
  O  O6  1  0.84502587  0.28769696  0.42152959  1
  O  O7  1  0.34502587  0.21230304  0.07847041  1
  O  O8  1  0.74235606  0.15772430  0.21982935  1
  O  O9  1  0.24235606  0.34227570  0.28017065  1
  O  O10  1  0.25764394  0.84227570  0.78017065  1
  O  O11  1  0.75764394  0.65772430  0.71982935  1
  P  P12  1  0.01013884  0.81787787  0.67915673  1
  P  P13  1  0.51013884  0.68212213  0.82084327  1
  P  P14  1  0.98986116  0.18212213  0.32084327  1
  P  P15  1  0.48986116  0.31787787  0.17915673  1
  Rb  Rb16  1  0.36584540  0.27873835  0.59252143  1
  Rb  Rb17  1  0.86584540  0.22126165  0.90747857  1
  Rb  Rb18  1  0.63415460  0.72126165  0.40747857  1
  Rb  Rb19  1  0.13415460  0.77873835  0.09252143  1
