# generated using pymatgen
data_Ho4MnSi7
_symmetry_space_group_name_H-M   'P 1'
_cell_length_a   4.10978154
_cell_length_b   3.91860281
_cell_length_c   14.57232546
_cell_angle_alpha   97.72702455
_cell_angle_beta   90.00000000
_cell_angle_gamma   90.00000000
_symmetry_Int_Tables_number   1
_chemical_formula_structural   Ho4MnSi7
_chemical_formula_sum   'Ho4 Mn1 Si7'
_cell_volume   232.55056116
_cell_formula_units_Z   1
loop_
 _symmetry_equiv_pos_site_id
 _symmetry_equiv_pos_as_xyz
  1  'x, y, z'
loop_
 _atom_site_type_symbol
 _atom_site_label
 _atom_site_symmetry_multiplicity
 _atom_site_fract_x
 _atom_site_fract_y
 _atom_site_fract_z
 _atom_site_occupancy
  Ho  Ho0  1  0.50000000  0.91410967  0.82821935  1
  Ho  Ho1  1  -0.00000000  0.79325554  0.58651108  1
  Ho  Ho2  1  0.50000000  0.52574505  0.05149010  1
  Ho  Ho3  1  0.00000000  0.18570661  0.37141321  1
  Mn  Mn4  1  0.00000000  0.07663504  0.15327008  1
  Si  Si5  1  0.50000000  0.26461829  0.52923658  1
  Si  Si6  1  -0.00000000  0.61170836  0.22341671  1
  Si  Si7  1  0.50000000  0.71299490  0.42598979  1
  Si  Si8  1  -0.00000000  0.44972212  0.89944424  1
  Si  Si9  1  -0.00000000  0.99557768  0.99115537  1
  Si  Si10  1  0.50000000  0.10728291  0.21456582  1
  Si  Si11  1  -0.00000000  0.37004383  0.74008766  1
