# generated using pymatgen
data_KBiF6
_symmetry_space_group_name_H-M   'P 1'
_cell_length_a   9.19206236
_cell_length_b   9.19206173
_cell_length_c   9.19206231
_cell_angle_alpha   109.47122190
_cell_angle_beta   109.47122052
_cell_angle_gamma   109.47121880
_symmetry_Int_Tables_number   1
_chemical_formula_structural   KBiF6
_chemical_formula_sum   'K4 Bi4 F24'
_cell_volume   597.88404891
_cell_formula_units_Z   4
loop_
 _symmetry_equiv_pos_site_id
 _symmetry_equiv_pos_as_xyz
  1  'x, y, z'
loop_
 _atom_site_type_symbol
 _atom_site_label
 _atom_site_symmetry_multiplicity
 _atom_site_fract_x
 _atom_site_fract_y
 _atom_site_fract_z
 _atom_site_occupancy
  K  K0  1  0.50000000  0.50000000  0.50000000  1
  K  K1  1  0.00000000  0.00000000  0.50000000  1
  K  K2  1  0.50000000  0.00000000  0.00000000  1
  K  K3  1  0.00000000  0.50000000  0.00000000  1
  Bi  Bi4  1  0.00000000  0.00000000  0.00000000  1
  Bi  Bi5  1  0.00000000  0.50000000  0.50000000  1
  Bi  Bi6  1  0.50000000  0.00000000  0.50000000  1
  Bi  Bi7  1  0.50000000  0.50000000  0.00000000  1
  F  F8  1  0.08786516  0.05006682  0.25696801  1
  F  F9  1  0.83089715  0.24303199  0.29309881  1
  F  F10  1  0.53779834  0.20690119  0.44993318  1
  F  F11  1  0.66910285  0.96220166  0.41213484  1
  F  F12  1  0.24303199  0.29309881  0.83089715  1
  F  F13  1  0.44993318  0.53779834  0.20690119  1
  F  F14  1  0.96220166  0.41213484  0.66910285  1
  F  F15  1  0.25696801  0.08786516  0.05006682  1
  F  F16  1  0.05006682  0.25696801  0.08786516  1
  F  F17  1  0.29309881  0.83089715  0.24303199  1
  F  F18  1  0.20690119  0.44993318  0.53779834  1
  F  F19  1  0.41213484  0.66910285  0.96220166  1
  F  F20  1  0.91213484  0.94993318  0.74303199  1
  F  F21  1  0.16910285  0.75696801  0.70690119  1
  F  F22  1  0.46220166  0.79309881  0.55006682  1
  F  F23  1  0.33089715  0.03779834  0.58786516  1
  F  F24  1  0.75696801  0.70690119  0.16910285  1
  F  F25  1  0.55006682  0.46220166  0.79309881  1
  F  F26  1  0.03779834  0.58786516  0.33089715  1
  F  F27  1  0.74303199  0.91213484  0.94993318  1
  F  F28  1  0.94993318  0.74303199  0.91213484  1
  F  F29  1  0.70690119  0.16910285  0.75696801  1
  F  F30  1  0.79309881  0.55006682  0.46220166  1
  F  F31  1  0.58786516  0.33089715  0.03779834  1
