# generated using pymatgen
data_FePO4
_symmetry_space_group_name_H-M   'P 1'
_cell_length_a   9.21354012
_cell_length_b   8.70172590
_cell_length_c   15.99515317
_cell_angle_alpha   90.00000000
_cell_angle_beta   89.91246558
_cell_angle_gamma   90.00000000
_symmetry_Int_Tables_number   1
_chemical_formula_structural   FePO4
_chemical_formula_sum   'Fe12 P12 O48'
_cell_volume   1282.38912550
_cell_formula_units_Z   12
loop_
 _symmetry_equiv_pos_site_id
 _symmetry_equiv_pos_as_xyz
  1  'x, y, z'
loop_
 _atom_site_type_symbol
 _atom_site_label
 _atom_site_symmetry_multiplicity
 _atom_site_fract_x
 _atom_site_fract_y
 _atom_site_fract_z
 _atom_site_occupancy
  O  O0  1  0.95076370  0.81596224  0.16744926  1
  O  O1  1  0.98477264  0.32551339  0.34919378  1
  O  O2  1  0.98225041  0.25304933  0.01818434  1
  O  O3  1  0.97626379  0.26930503  0.68813894  1
  O  O4  1  0.95585376  0.74847295  0.50159742  1
  O  O5  1  0.97666465  0.51114076  0.89156915  1
  O  O6  1  0.94332372  0.77668574  0.83174593  1
  O  O7  1  0.92304716  0.99671501  0.29081742  1
  O  O8  1  0.84990940  0.50576507  0.56473578  1
  O  O9  1  0.76333277  0.67441203  0.93691024  1
  O  O10  1  0.76419784  0.76626573  0.61306282  1
  O  O11  1  0.75925045  0.76719591  0.27785669  1
  O  O12  1  0.02332994  0.48885013  0.10843987  1
  O  O13  1  0.01523581  0.67449557  0.65082004  1
  O  O14  1  0.01773832  0.74694070  0.98182891  1
  O  O15  1  0.02370913  0.73070033  0.31187610  1
  O  O16  1  0.04415591  0.25152716  0.49841285  1
  O  O17  1  0.04922876  0.18404239  0.83256949  1
  O  O18  1  0.05669097  0.22331308  0.16826152  1
  O  O19  1  0.07694168  0.00329137  0.70919182  1
  O  O20  1  0.15010533  0.49423891  0.43527978  1
  O  O21  1  0.23665323  0.32559164  0.06308835  1
  O  O22  1  0.23581705  0.23373327  0.38694947  1
  O  O23  1  0.24073945  0.23281079  0.72214507  1
  O  O24  1  0.26418295  0.73373327  0.11305053  1
  O  O25  1  0.25925955  0.73281079  0.77785593  1
  O  O26  1  0.26334777  0.82559164  0.43691065  1
  O  O27  1  0.34989567  0.99423891  0.06472022  1
  O  O28  1  0.42305832  0.50329137  0.79080818  1
  O  O29  1  0.73580216  0.26626473  0.88693718  1
  O  O30  1  0.45584309  0.75152716  0.00158815  1
  O  O31  1  0.45077224  0.68404239  0.66743051  1
  O  O32  1  0.47628987  0.23070033  0.18812390  1
  O  O33  1  0.48226068  0.24694070  0.51817209  1
  O  O34  1  0.48476419  0.17449557  0.84918096  1
  O  O35  1  0.47667006  0.98885013  0.39156013  1
  O  O36  1  0.52333535  0.01114076  0.60843085  1
  O  O37  1  0.51522636  0.82551339  0.15080722  1
  O  O38  1  0.51774959  0.75304933  0.48181666  1
  O  O39  1  0.52373621  0.76930503  0.81186106  1
  O  O40  1  0.54923630  0.31596224  0.33255074  1
  O  O41  1  0.54414724  0.24847295  0.99840258  1
  O  O42  1  0.55667628  0.27668574  0.66825307  1
  O  O43  1  0.57695284  0.49671501  0.20918258  1
  O  O44  1  0.65009060  0.00576507  0.93526422  1
  O  O45  1  0.73666723  0.17441203  0.56309076  1
  O  O46  1  0.74074955  0.26719591  0.22214431  1
  O  O47  1  0.44330903  0.72331308  0.33173848  1
  P  P48  1  0.07500610  0.32332553  0.08916414  1
  P  P49  1  0.08606110  0.17205004  0.73841758  1
  P  P50  1  0.10331716  0.32667814  0.41755823  1
  P  P51  1  0.39668384  0.82667814  0.08244177  1
  P  P52  1  0.41393990  0.67205004  0.76158242  1
  P  P53  1  0.42499290  0.82332553  0.41083586  1
  P  P54  1  0.57501369  0.17667003  0.58915797  1
  P  P55  1  0.58607360  0.32795498  0.23840375  1
  P  P56  1  0.60330599  0.17332595  0.91754727  1
  P  P57  1  0.89669401  0.67332595  0.58245273  1
  P  P58  1  0.91392640  0.82795498  0.26159625  1
  P  P59  1  0.92498731  0.67667003  0.91084203  1
  Fe  Fe60  1  0.93437147  0.30120568  0.90677993  1
  Fe  Fe61  1  0.92447757  0.20392477  0.25801162  1
  Fe  Fe62  1  0.90242801  0.29832164  0.57968834  1
  Fe  Fe63  1  0.59757099  0.79832164  0.92031166  1
  Fe  Fe64  1  0.57552243  0.70392477  0.24198838  1
  Fe  Fe65  1  0.56562853  0.80120568  0.59322007  1
  Fe  Fe66  1  0.43439515  0.19877813  0.40676040  1
  Fe  Fe67  1  0.42448343  0.29607786  0.75801310  1
  Fe  Fe68  1  0.40242433  0.20166770  0.07968789  1
  Fe  Fe69  1  0.09757567  0.70166770  0.42031111  1
  Fe  Fe70  1  0.07551557  0.79607786  0.74198690  1
  Fe  Fe71  1  0.06560485  0.69877813  0.09323960  1
