# generated using pymatgen
data_NaTaO3
_symmetry_space_group_name_H-M   'P 1'
_cell_length_a   5.55708214
_cell_length_b   5.55708214
_cell_length_c   7.90282562
_cell_angle_alpha   90.00000000
_cell_angle_beta   90.00000000
_cell_angle_gamma   90.51470522
_symmetry_Int_Tables_number   1
_chemical_formula_structural   NaTaO3
_chemical_formula_sum   'Na4 Ta4 O12'
_cell_volume   244.03858996
_cell_formula_units_Z   4
loop_
 _symmetry_equiv_pos_site_id
 _symmetry_equiv_pos_as_xyz
  1  'x, y, z'
loop_
 _atom_site_type_symbol
 _atom_site_label
 _atom_site_symmetry_multiplicity
 _atom_site_fract_x
 _atom_site_fract_y
 _atom_site_fract_z
 _atom_site_occupancy
  O  O0  1  0.96865939  0.45736092  0.75000000  1
  O  O1  1  0.03134061  0.54263908  0.25000000  1
  O  O2  1  0.45736092  0.96865939  0.25000000  1
  O  O3  1  0.54263908  0.03134061  0.75000000  1
  O  O4  1  0.21201388  0.78798612  0.53619580  1
  O  O5  1  0.78798612  0.21201388  0.03619580  1
  O  O6  1  0.78798612  0.21201388  0.46380420  1
  O  O7  1  0.21201388  0.78798612  0.96380420  1
  O  O8  1  0.28944040  0.28944040  0.00000000  1
  O  O9  1  0.71055960  0.71055960  0.50000000  1
  O  O10  1  0.71055960  0.71055960  0.00000000  1
  O  O11  1  0.28944040  0.28944040  0.50000000  1
  Na  Na12  1  0.99030230  0.00969770  0.75000000  1
  Na  Na13  1  0.00969770  0.99030230  0.25000000  1
  Na  Na14  1  0.49724638  0.50275362  0.75000000  1
  Na  Na15  1  0.50275362  0.49724638  0.25000000  1
  Ta  Ta16  1  0.50000000  0.00000000  0.00000000  1
  Ta  Ta17  1  0.50000000  0.00000000  0.50000000  1
  Ta  Ta18  1  0.00000000  0.50000000  0.00000000  1
  Ta  Ta19  1  0.00000000  0.50000000  0.50000000  1
