# generated using pymatgen
data_GdMoO5
_symmetry_space_group_name_H-M   'P 1'
_cell_length_a   5.40164500
_cell_length_b   6.97764919
_cell_length_c   12.65083204
_cell_angle_alpha   90.00000000
_cell_angle_beta   90.00000000
_cell_angle_gamma   115.39734834
_symmetry_Int_Tables_number   1
_chemical_formula_structural   GdMoO5
_chemical_formula_sum   'Gd4 Mo4 O20'
_cell_volume   430.73759756
_cell_formula_units_Z   4
loop_
 _symmetry_equiv_pos_site_id
 _symmetry_equiv_pos_as_xyz
  1  'x, y, z'
loop_
 _atom_site_type_symbol
 _atom_site_label
 _atom_site_symmetry_multiplicity
 _atom_site_fract_x
 _atom_site_fract_y
 _atom_site_fract_z
 _atom_site_occupancy
  Gd  Gd0  1  0.64458867  0.78857336  0.55537676  1
  Gd  Gd1  1  0.35541133  0.21142664  0.44462324  1
  Gd  Gd2  1  0.35541133  0.71142664  0.05537676  1
  Gd  Gd3  1  0.64458867  0.28857336  0.94462324  1
  Mo  Mo4  1  0.91297444  0.85634346  0.86125872  1
  Mo  Mo5  1  0.08702556  0.14365654  0.13874128  1
  Mo  Mo6  1  0.08702556  0.64365654  0.36125872  1
  Mo  Mo7  1  0.91297444  0.35634346  0.63874128  1
  O  O8  1  0.49741805  0.54808125  0.92067847  1
  O  O9  1  0.50258195  0.45191875  0.07932153  1
  O  O10  1  0.50258195  0.95191875  0.42067847  1
  O  O11  1  0.49741805  0.04808125  0.57932153  1
  O  O12  1  0.98768788  0.83919816  0.42661917  1
  O  O13  1  0.01231212  0.16080184  0.57338083  1
  O  O14  1  0.01231212  0.66080184  0.92661917  1
  O  O15  1  0.98768788  0.33919816  0.07338083  1
  O  O16  1  0.70668348  0.96473906  0.93573162  1
  O  O17  1  0.29331652  0.03526094  0.06426838  1
  O  O18  1  0.29331652  0.53526094  0.43573162  1
  O  O19  1  0.70668348  0.46473906  0.56426838  1
  O  O20  1  0.79386183  0.78697347  0.72974375  1
  O  O21  1  0.20613817  0.21302653  0.27025625  1
  O  O22  1  0.20613817  0.71302653  0.22974375  1
  O  O23  1  0.79386183  0.28697347  0.77025625  1
  O  O24  1  0.76711385  0.92201889  0.15241719  1
  O  O25  1  0.23288615  0.07798111  0.84758281  1
  O  O26  1  0.23288615  0.57798111  0.65241719  1
  O  O27  1  0.76711385  0.42201889  0.34758281  1
