# generated using pymatgen
data_KZrP2HO8
_symmetry_space_group_name_H-M   'P 1'
_cell_length_a   5.41966742
_cell_length_b   9.35397341
_cell_length_c   15.54284046
_cell_angle_alpha   98.94387512
_cell_angle_beta   90.00000000
_cell_angle_gamma   90.00000000
_symmetry_Int_Tables_number   1
_chemical_formula_structural   KZrP2HO8
_chemical_formula_sum   'K4 Zr4 P8 H4 O32'
_cell_volume   778.37028908
_cell_formula_units_Z   4
loop_
 _symmetry_equiv_pos_site_id
 _symmetry_equiv_pos_as_xyz
  1  'x, y, z'
loop_
 _atom_site_type_symbol
 _atom_site_label
 _atom_site_symmetry_multiplicity
 _atom_site_fract_x
 _atom_site_fract_y
 _atom_site_fract_z
 _atom_site_occupancy
  K  K0  1  0.05657390  0.75000000  0.25000000  1
  K  K1  1  0.94342610  0.25000000  0.75000000  1
  K  K2  1  0.96141388  0.25000000  0.25000000  1
  K  K3  1  0.03858612  0.75000000  0.75000000  1
  Zr  Zr4  1  0.77773488  0.25343062  0.00105856  1
  Zr  Zr5  1  0.77773488  0.24656938  0.49894144  1
  Zr  Zr6  1  0.22226512  0.74656938  0.99894144  1
  Zr  Zr7  1  0.22226512  0.75343062  0.50105856  1
  P  P8  1  0.72448973  0.94706177  0.11136912  1
  P  P9  1  0.72448973  0.55293823  0.38863088  1
  P  P10  1  0.27551027  0.05293823  0.88863088  1
  P  P11  1  0.27551027  0.44706177  0.61136912  1
  P  P12  1  0.27871681  0.44800486  0.11472709  1
  P  P13  1  0.27871681  0.05199514  0.38527291  1
  P  P14  1  0.72128319  0.55199514  0.88527291  1
  P  P15  1  0.72128319  0.94800486  0.61472709  1
  H  H16  1  0.52272534  0.99191493  0.24284256  1
  H  H17  1  0.52272534  0.50808507  0.25715744  1
  H  H18  1  0.47727466  0.00808507  0.75715744  1
  H  H19  1  0.47727466  0.49191493  0.74284256  1
  O  O20  1  0.76286753  0.09997903  0.08852520  1
  O  O21  1  0.76286753  0.40002097  0.41147480  1
  O  O22  1  0.23713247  0.90002097  0.91147480  1
  O  O23  1  0.23713247  0.59997903  0.58852520  1
  O  O24  1  0.49243754  0.87427967  0.06908254  1
  O  O25  1  0.49243754  0.62572033  0.43091746  1
  O  O26  1  0.50756246  0.12572033  0.93091746  1
  O  O27  1  0.50756246  0.37427967  0.56908254  1
  O  O28  1  0.95636573  0.85506879  0.08721571  1
  O  O29  1  0.95636573  0.64493121  0.41278429  1
  O  O30  1  0.04363427  0.14493121  0.91278429  1
  O  O31  1  0.04363427  0.35506879  0.58721571  1
  O  O32  1  0.52045143  0.38228294  0.07330465  1
  O  O33  1  0.52045143  0.11771706  0.42669535  1
  O  O34  1  0.47954857  0.61771706  0.92669535  1
  O  O35  1  0.47954857  0.88228294  0.57330465  1
  O  O36  1  0.77199896  0.40307000  0.91442585  1
  O  O37  1  0.77199896  0.09693000  0.58557415  1
  O  O38  1  0.22800104  0.59693000  0.08557415  1
  O  O39  1  0.22800104  0.90307000  0.41442585  1
  O  O40  1  0.06073017  0.34578446  0.08267663  1
  O  O41  1  0.06073017  0.15421554  0.41732337  1
  O  O42  1  0.93926983  0.65421554  0.91732337  1
  O  O43  1  0.93926983  0.84578446  0.58267663  1
  O  O44  1  0.69879689  0.96101973  0.21354147  1
  O  O45  1  0.69879689  0.53898027  0.28645853  1
  O  O46  1  0.30120311  0.03898027  0.78645853  1
  O  O47  1  0.30120311  0.46101973  0.71354147  1
  O  O48  1  0.29488914  0.03266126  0.28562374  1
  O  O49  1  0.29488914  0.46733874  0.21437626  1
  O  O50  1  0.70511086  0.96733874  0.71437626  1
  O  O51  1  0.70511086  0.53266126  0.78562374  1
