# generated using pymatgen
data_LiGe2(PO4)3
_symmetry_space_group_name_H-M   'P 1'
_cell_length_a   8.43970337
_cell_length_b   8.43970297
_cell_length_c   8.43970320
_cell_angle_alpha   59.60514794
_cell_angle_beta   59.60514957
_cell_angle_gamma   59.60514497
_symmetry_Int_Tables_number   1
_chemical_formula_structural   LiGe2(PO4)3
_chemical_formula_sum   'Li2 Ge4 P6 O24'
_cell_volume   421.26119708
_cell_formula_units_Z   2
loop_
 _symmetry_equiv_pos_site_id
 _symmetry_equiv_pos_as_xyz
  1  'x, y, z'
loop_
 _atom_site_type_symbol
 _atom_site_label
 _atom_site_symmetry_multiplicity
 _atom_site_fract_x
 _atom_site_fract_y
 _atom_site_fract_z
 _atom_site_occupancy
  Li  Li0  1  0.00000000  0.00000000  0.00000000  1
  Li  Li1  1  0.50000000  0.50000000  0.50000000  1
  Ge  Ge2  1  0.14107098  0.14107098  0.14107098  1
  Ge  Ge3  1  0.35892902  0.35892902  0.35892902  1
  Ge  Ge4  1  0.85892902  0.85892902  0.85892902  1
  Ge  Ge5  1  0.64107098  0.64107098  0.64107098  1
  P  P6  1  0.53815530  0.96184470  0.25000000  1
  P  P7  1  0.25000000  0.53815530  0.96184470  1
  P  P8  1  0.96184470  0.25000000  0.53815530  1
  P  P9  1  0.46184470  0.03815530  0.75000000  1
  P  P10  1  0.75000000  0.46184470  0.03815530  1
  P  P11  1  0.03815530  0.75000000  0.46184470  1
  O  O12  1  0.36957481  0.99175093  0.20319003  1
  O  O13  1  0.20319003  0.36957481  0.99175093  1
  O  O14  1  0.99175093  0.20319003  0.36957481  1
  O  O15  1  0.50824907  0.13042519  0.29680997  1
  O  O16  1  0.29680997  0.50824907  0.13042519  1
  O  O17  1  0.13042519  0.29680997  0.50824907  1
  O  O18  1  0.63042519  0.00824907  0.79680997  1
  O  O19  1  0.79680997  0.63042519  0.00824907  1
  O  O20  1  0.00824907  0.79680997  0.63042519  1
  O  O21  1  0.49175093  0.86957481  0.70319003  1
  O  O22  1  0.70319003  0.49175093  0.86957481  1
  O  O23  1  0.86957481  0.70319003  0.49175093  1
  O  O24  1  0.26629311  0.05628202  0.92248395  1
  O  O25  1  0.92248395  0.26629311  0.05628202  1
  O  O26  1  0.05628202  0.92248395  0.26629311  1
  O  O27  1  0.44371798  0.23370689  0.57751605  1
  O  O28  1  0.57751605  0.44371798  0.23370689  1
  O  O29  1  0.23370689  0.57751605  0.44371798  1
  O  O30  1  0.73370689  0.94371798  0.07751605  1
  O  O31  1  0.07751605  0.73370689  0.94371798  1
  O  O32  1  0.94371798  0.07751605  0.73370689  1
  O  O33  1  0.55628202  0.76629311  0.42248395  1
  O  O34  1  0.42248395  0.55628202  0.76629311  1
  O  O35  1  0.76629311  0.42248395  0.55628202  1
