# generated using pymatgen
data_P2W7O25
_symmetry_space_group_name_H-M   'P 1'
_cell_length_a   5.41614819
_cell_length_b   6.71513596
_cell_length_c   27.28221567
_cell_angle_alpha   90.00000000
_cell_angle_beta   90.00068820
_cell_angle_gamma   90.00000000
_symmetry_Int_Tables_number   1
_chemical_formula_structural   P2W7O25
_chemical_formula_sum   'P4 W14 O50'
_cell_volume   992.25886231
_cell_formula_units_Z   2
loop_
 _symmetry_equiv_pos_site_id
 _symmetry_equiv_pos_as_xyz
  1  'x, y, z'
loop_
 _atom_site_type_symbol
 _atom_site_label
 _atom_site_symmetry_multiplicity
 _atom_site_fract_x
 _atom_site_fract_y
 _atom_site_fract_z
 _atom_site_occupancy
  O  O0  1  0.21428876  0.33311946  0.80186905  1
  O  O1  1  0.28571124  0.83311946  0.69813095  1
  O  O2  1  0.78571124  0.66688054  0.19813095  1
  O  O3  1  0.71428876  0.16688054  0.30186905  1
  O  O4  1  0.74539212  0.31005400  0.79767176  1
  O  O5  1  0.75460788  0.81005400  0.70232824  1
  O  O6  1  0.25460788  0.68994600  0.20232824  1
  O  O7  1  0.24539212  0.18994600  0.29767176  1
  O  O8  1  0.23634411  0.18216391  0.64713992  1
  O  O9  1  0.26365589  0.68216391  0.85286008  1
  O  O10  1  0.76365589  0.81783609  0.35286008  1
  O  O11  1  0.73634411  0.31783609  0.14713992  1
  O  O12  1  0.73921385  0.16066849  0.65099543  1
  O  O13  1  0.76078615  0.66066849  0.84900457  1
  O  O14  1  0.26078615  0.83933151  0.34900457  1
  O  O15  1  0.23921385  0.33933151  0.15099543  1
  O  O16  1  0.73059412  0.48551158  0.41304125  1
  O  O17  1  0.26940588  0.51448842  0.58695875  1
  O  O18  1  0.50000000  0.00000000  0.00000000  1
  O  O19  1  0.00000000  0.50000000  0.50000000  1
  O  O20  1  0.50102807  0.16890574  0.56132867  1
  O  O21  1  0.99897193  0.66890574  0.93867133  1
  O  O22  1  0.49897193  0.83109426  0.43867133  1
  O  O23  1  0.00102807  0.33109426  0.06132867  1
  O  O24  1  0.99607023  0.15773379  0.38383571  1
  O  O25  1  0.50392977  0.65773379  0.11616429  1
  O  O26  1  0.00392977  0.84226621  0.61616429  1
  O  O27  1  0.49607023  0.34226621  0.88383571  1
  O  O28  1  0.00251839  0.98942902  0.17663822  1
  O  O29  1  0.49748161  0.48942902  0.32336178  1
  O  O30  1  0.99748161  0.01057098  0.82336178  1
  O  O31  1  0.50251839  0.51057098  0.67663822  1
  O  O32  1  0.50857427  0.36606143  0.23692864  1
  O  O33  1  0.99142573  0.86606143  0.26307136  1
  O  O34  1  0.49142573  0.63393857  0.76307136  1
  O  O35  1  0.00857427  0.13393857  0.73692864  1
  O  O36  1  0.26502160  0.18407938  0.46771944  1
  O  O37  1  0.23497840  0.68407938  0.03228056  1
  O  O38  1  0.73497840  0.81592062  0.53228056  1
  O  O39  1  0.76502160  0.31592062  0.96771944  1
  O  O40  1  0.76640423  0.15590193  0.47343656  1
  O  O41  1  0.73359577  0.65590193  0.02656344  1
  O  O42  1  0.23359577  0.84409807  0.52656344  1
  O  O43  1  0.26640423  0.34409807  0.97343656  1
  O  O44  1  0.27252023  0.01180061  0.09113289  1
  O  O45  1  0.22747977  0.51180061  0.40886711  1
  O  O46  1  0.72747977  0.98819939  0.90886711  1
  O  O47  1  0.77252023  0.48819939  0.59113289  1
  O  O48  1  0.76940588  0.98551158  0.08695875  1
  O  O49  1  0.23059412  0.01448842  0.91304125  1
  P  P50  1  0.99160158  0.19777722  0.79112223  1
  P  P51  1  0.50839842  0.69777722  0.70887777  1
  P  P52  1  0.00839842  0.80222278  0.20887777  1
  P  P53  1  0.49160158  0.30222278  0.29112223  1
  W  W54  1  0.50145695  0.16919647  0.94353235  1
  W  W55  1  0.99854305  0.66919647  0.55646765  1
  W  W56  1  0.49854305  0.83080353  0.05646765  1
  W  W57  1  0.00145695  0.33080353  0.44353235  1
  W  W58  1  0.49779261  0.50282759  0.82864914  1
  W  W59  1  0.00220739  0.00282759  0.67135086  1
  W  W60  1  0.50220739  0.49717241  0.17135086  1
  W  W61  1  0.99779261  0.99717241  0.32864914  1
  W  W62  1  0.50270472  0.33877054  0.61444810  1
  W  W63  1  0.99729528  0.83877054  0.88555190  1
  W  W64  1  0.49729528  0.66122946  0.38555190  1
  W  W65  1  0.00270472  0.16122946  0.11444810  1
  W  W66  1  0.50000000  0.00000000  0.50000000  1
  W  W67  1  0.00000000  0.50000000  0.00000000  1
