# generated using pymatgen
data_Ta4Te16Pd3
_symmetry_space_group_name_H-M   'P 1'
_cell_length_a   3.78856386
_cell_length_b   11.11121136
_cell_length_c   16.07646922
_cell_angle_alpha   81.30295252
_cell_angle_beta   83.23314982
_cell_angle_gamma   80.18404435
_symmetry_Int_Tables_number   1
_chemical_formula_structural   Ta4Te16Pd3
_chemical_formula_sum   'Ta4 Te16 Pd3'
_cell_volume   656.22254650
_cell_formula_units_Z   1
loop_
 _symmetry_equiv_pos_site_id
 _symmetry_equiv_pos_as_xyz
  1  'x, y, z'
loop_
 _atom_site_type_symbol
 _atom_site_label
 _atom_site_symmetry_multiplicity
 _atom_site_fract_x
 _atom_site_fract_y
 _atom_site_fract_z
 _atom_site_occupancy
  Pd  Pd0  1  0.50000000  0.00000000  0.00000000  1
  Pd  Pd1  1  0.67096906  0.35048674  0.30757514  1
  Pd  Pd2  1  0.32903094  0.64951326  0.69242486  1
  Ta  Ta3  1  0.08278063  0.68336005  0.15107870  1
  Ta  Ta4  1  0.91721937  0.31663995  0.84892130  1
  Ta  Ta5  1  0.20816306  0.16661067  0.41706322  1
  Ta  Ta6  1  0.79183694  0.83338933  0.58293678  1
  Te  Te7  1  0.62102754  0.73965724  0.01828768  1
  Te  Te8  1  0.37897246  0.26034276  0.98171232  1
  Te  Te9  1  0.96153736  0.95574315  0.12118214  1
  Te  Te10  1  0.03846264  0.04425685  0.87881786  1
  Te  Te11  1  0.48245051  0.76987689  0.26522208  1
  Te  Te12  1  0.51754949  0.23012311  0.73477792  1
  Te  Te13  1  0.07715155  0.53022141  0.31547548  1
  Te  Te14  1  0.92284845  0.46977859  0.68452452  1
  Te  Te15  1  0.68624828  0.49250504  0.13499839  1
  Te  Te16  1  0.31375172  0.50749496  0.86500161  1
  Te  Te17  1  0.27466536  0.20255449  0.24811480  1
  Te  Te18  1  0.72533464  0.79744551  0.75188520  1
  Te  Te19  1  0.60148383  0.31490738  0.48212495  1
  Te  Te20  1  0.39851617  0.68509262  0.51787505  1
  Te  Te21  1  0.19243366  0.02675239  0.58838029  1
  Te  Te22  1  0.80756634  0.97324761  0.41161971  1
