# generated using pymatgen
data_Ca2Al2FeSi4BHO16
_symmetry_space_group_name_H-M   'P 1'
_cell_length_a   7.20422492
_cell_length_b   9.08822542
_cell_length_c   9.33432839
_cell_angle_alpha   88.46777075
_cell_angle_beta   77.36316302
_cell_angle_gamma   81.75520375
_symmetry_Int_Tables_number   1
_chemical_formula_structural   Ca2Al2FeSi4BHO16
_chemical_formula_sum   'Ca4 Al4 Fe2 Si8 B2 H2 O32'
_cell_volume   590.17751062
_cell_formula_units_Z   2
loop_
 _symmetry_equiv_pos_site_id
 _symmetry_equiv_pos_as_xyz
  1  'x, y, z'
loop_
 _atom_site_type_symbol
 _atom_site_label
 _atom_site_symmetry_multiplicity
 _atom_site_fract_x
 _atom_site_fract_y
 _atom_site_fract_z
 _atom_site_occupancy
  H  H0  1  0.98968674  0.62512652  0.04151659  1
  H  H1  1  0.01031326  0.37487348  0.95848341  1
  B  B2  1  0.53806831  0.28804742  0.36523436  1
  B  B3  1  0.46193169  0.71195258  0.63476564  1
  O  O4  1  0.67530533  0.35321054  0.25384991  1
  O  O5  1  0.32469467  0.64678946  0.74615009  1
  O  O6  1  0.20427927  0.17803793  0.12143632  1
  O  O7  1  0.79572073  0.82196207  0.87856368  1
  O  O8  1  0.27785782  0.38458051  0.89832515  1
  O  O9  1  0.72214218  0.61541949  0.10167485  1
  O  O10  1  0.56439033  0.24532821  0.01619404  1
  O  O11  1  0.43560967  0.75467179  0.98380596  1
  O  O12  1  0.40031671  0.08675703  0.86454009  1
  O  O13  1  0.59968329  0.91324297  0.13545991  1
  O  O14  1  0.23831933  0.13799356  0.63371879  1
  O  O15  1  0.76168067  0.86200644  0.36628121  1
  O  O16  1  0.12496660  0.93382822  0.84316153  1
  O  O17  1  0.87503340  0.06617178  0.15683847  1
  O  O18  1  0.09676690  0.67806575  0.99309175  1
  O  O19  1  0.90323310  0.32193425  0.00690825  1
  O  O20  1  0.04943985  0.81054894  0.60361954  1
  O  O21  1  0.95056015  0.18945106  0.39638046  1
  O  O22  1  0.22566209  0.90286040  0.33878782  1
  O  O23  1  0.77433791  0.09713960  0.66121218  1
  O  O24  1  0.41661613  0.69066777  0.48856244  1
  O  O25  1  0.58338387  0.30933223  0.51143756  1
  O  O26  1  0.13406781  0.63050826  0.37156898  1
  O  O27  1  0.86593219  0.36949174  0.62843102  1
  O  O28  1  0.02125205  0.43424496  0.24530619  1
  O  O29  1  0.97874795  0.56575504  0.75469381  1
  O  O30  1  0.32973725  0.35978559  0.38189764  1
  O  O31  1  0.67026275  0.64021441  0.61810236  1
  O  O32  1  0.38013465  0.50308509  0.12682068  1
  O  O33  1  0.61986535  0.49691491  0.87317932  1
  O  O34  1  0.53068480  0.12532642  0.34130532  1
  O  O35  1  0.46931520  0.87467358  0.65869468  1
  Al  Al36  1  0.35147749  0.57917249  0.93577926  1
  Al  Al37  1  0.05253328  0.74585949  0.80001997  1
  Al  Al38  1  0.94746672  0.25414051  0.19998003  1
  Al  Al39  1  0.64852251  0.42082751  0.06422074  1
  Si  Si40  1  0.21990490  0.47645709  0.27520840  1
  Si  Si41  1  0.35818979  0.23146113  0.97898280  1
  Si  Si42  1  0.79232176  0.23440473  0.54924019  1
  Si  Si43  1  0.20767824  0.76559527  0.45075981  1
  Si  Si44  1  0.69577139  0.98978660  0.25574499  1
  Si  Si45  1  0.64181021  0.76853887  0.02101720  1
  Si  Si46  1  0.30422861  0.01021340  0.74425501  1
  Si  Si47  1  0.78009510  0.52354291  0.72479160  1
  Ca  Ca48  1  0.81409208  0.08087003  0.90061629  1
  Ca  Ca49  1  0.18590792  0.91912997  0.09938371  1
  Ca  Ca50  1  0.25167709  0.39299768  0.65280763  1
  Ca  Ca51  1  0.74832291  0.60700232  0.34719237  1
  Fe  Fe52  1  0.23255967  0.10823346  0.41386346  1
  Fe  Fe53  1  0.76744033  0.89176654  0.58613654  1
