# generated using pymatgen
data_Na13Ca7S12(O16F)3
_symmetry_space_group_name_H-M   'P 1'
_cell_length_a   9.53247681
_cell_length_b   19.09664772
_cell_length_c   6.96955338
_cell_angle_alpha   90.00000000
_cell_angle_beta   90.00000000
_cell_angle_gamma   119.84413198
_symmetry_Int_Tables_number   1
_chemical_formula_structural   Na13Ca7S12(O16F)3
_chemical_formula_sum   'Na13 Ca7 S12 O48 F3'
_cell_volume   1100.47061343
_cell_formula_units_Z   1
loop_
 _symmetry_equiv_pos_site_id
 _symmetry_equiv_pos_as_xyz
  1  'x, y, z'
loop_
 _atom_site_type_symbol
 _atom_site_label
 _atom_site_symmetry_multiplicity
 _atom_site_fract_x
 _atom_site_fract_y
 _atom_site_fract_z
 _atom_site_occupancy
  Na  Na0  1  0.28343726  0.99506978  0.25000000  1
  Na  Na1  1  0.33656553  0.83233650  0.00759618  1
  Na  Na2  1  0.33656553  0.83233650  0.49240382  1
  Na  Na3  1  0.24847631  0.62194775  0.75000000  1
  Na  Na4  1  0.72110961  0.86577871  0.25000000  1
  Na  Na5  1  0.01298681  0.14171461  0.25000000  1
  Na  Na6  1  0.66138776  0.66862625  0.50292154  1
  Na  Na7  1  0.33579388  0.33087141  0.00984288  1
  Na  Na8  1  0.66138776  0.66862625  0.99707846  1
  Na  Na9  1  0.33579388  0.33087141  0.49015712  1
  Na  Na10  1  0.74536955  0.37652687  0.25000000  1
  Na  Na11  1  0.66786784  0.16825867  0.49534184  1
  Na  Na12  1  0.66786784  0.16825867  0.00465816  1
  Ca  Ca13  1  0.00532761  0.62534693  0.25000000  1
  Ca  Ca14  1  0.23523040  0.49738471  0.25000000  1
  Ca  Ca15  1  0.99544090  0.87572694  0.75000000  1
  Ca  Ca16  1  0.24658081  0.12117592  0.75000000  1
  Ca  Ca17  1  0.75572240  0.50081915  0.75000000  1
  Ca  Ca18  1  0.99373874  0.37803898  0.75000000  1
  Ca  Ca19  1  0.75837498  0.00179209  0.75000000  1
  S  S20  1  0.01994270  0.69439483  0.75000000  1
  S  S21  1  0.36500014  0.98742352  0.75000000  1
  S  S22  1  0.38792211  0.67832049  0.25000000  1
  S  S23  1  0.60999608  0.81896793  0.75000000  1
  S  S24  1  0.02492759  0.19564036  0.75000000  1
  S  S25  1  0.36762392  0.48740112  0.75000000  1
  S  S26  1  0.63117314  0.51240329  0.25000000  1
  S  S27  1  0.97864569  0.80708006  0.25000000  1
  S  S28  1  0.38124760  0.17841713  0.25000000  1
  S  S29  1  0.60692201  0.31746094  0.75000000  1
  S  S30  1  0.64809220  0.01204317  0.25000000  1
  S  S31  1  0.97786461  0.30953705  0.25000000  1
  O  O32  1  0.25654172  0.95800314  0.57886060  1
  O  O33  1  0.25654172  0.95800314  0.92113940  1
  O  O34  1  0.15610991  0.83910605  0.25000000  1
  O  O35  1  0.09859239  0.78427223  0.75000000  1
  O  O36  1  0.07341730  0.66801090  0.57708596  1
  O  O37  1  0.07341730  0.66801090  0.92291404  1
  O  O38  1  0.47306461  0.95181563  0.75000000  1
  O  O39  1  0.30820404  0.72880907  0.25000000  1
  O  O40  1  0.52906974  0.92406130  0.25000000  1
  O  O41  1  0.43166772  0.76794410  0.75000000  1
  O  O42  1  0.33559879  0.62450260  0.07783330  1
  O  O43  1  0.33559879  0.62450260  0.42216670  1
  O  O44  1  0.66414761  0.87362119  0.57873038  1
  O  O45  1  0.66414761  0.87362119  0.92126962  1
  O  O46  1  0.25738200  0.45993996  0.92109598  1
  O  O47  1  0.25738200  0.45993996  0.57890402  1
  O  O48  1  0.15744681  0.34499106  0.25000000  1
  O  O49  1  0.09600881  0.28498660  0.75000000  1
  O  O50  1  0.56654375  0.72933640  0.25000000  1
  O  O51  1  0.47468496  0.57572055  0.75000000  1
  O  O52  1  0.08393262  0.17075948  0.57893947  1
  O  O53  1  0.08393262  0.17075948  0.92106053  1
  O  O54  1  0.69141952  0.76931192  0.75000000  1
  O  O55  1  0.53192097  0.55284447  0.25000000  1
  O  O56  1  0.46373810  0.44505355  0.75000000  1
  O  O57  1  0.31684123  0.23514493  0.25000000  1
  O  O58  1  0.92840148  0.83578549  0.07797417  1
  O  O59  1  0.92840148  0.83578549  0.42202583  1
  O  O60  1  0.52788862  0.42390147  0.25000000  1
  O  O61  1  0.42806766  0.26275000  0.75000000  1
  O  O62  1  0.89104680  0.71653686  0.25000000  1
  O  O63  1  0.83990308  0.65595417  0.75000000  1
  O  O64  1  0.74157694  0.54073347  0.07857969  1
  O  O65  1  0.74157694  0.54073347  0.42142031  1
  O  O66  1  0.32098656  0.12435647  0.07780555  1
  O  O67  1  0.32098656  0.12435647  0.42219445  1
  O  O68  1  0.65403486  0.37108308  0.57823098  1
  O  O69  1  0.65403486  0.37108308  0.92176902  1
  O  O70  1  0.56140532  0.22350864  0.25000000  1
  O  O71  1  0.46205161  0.07740468  0.75000000  1
  O  O72  1  0.69201560  0.26965268  0.75000000  1
  O  O73  1  0.56285126  0.05976127  0.25000000  1
  O  O74  1  0.92931579  0.33878113  0.07737822  1
  O  O75  1  0.92931579  0.33878113  0.42262178  1
  O  O76  1  0.89231481  0.22003006  0.25000000  1
  O  O77  1  0.84451276  0.15417607  0.75000000  1
  O  O78  1  0.75582673  0.03457330  0.07809519  1
  O  O79  1  0.75582673  0.03457330  0.42190481  1
  F  F80  1  0.00171730  0.99990308  0.75000000  1
  F  F81  1  0.01245721  0.50972313  0.25000000  1
  F  F82  1  0.98175036  0.49239766  0.75000000  1
