# generated using pymatgen
data_Mn15(Br3O10)2
_symmetry_space_group_name_H-M   'P 1'
_cell_length_a   9.43493227
_cell_length_b   9.43493227
_cell_length_c   9.43493227
_cell_angle_alpha   90.00903569
_cell_angle_beta   119.99478336
_cell_angle_gamma   119.99478342
_symmetry_Int_Tables_number   1
_chemical_formula_structural   Mn15(Br3O10)2
_chemical_formula_sum   'Mn15 Br6 O20'
_cell_volume   593.93046101
_cell_formula_units_Z   1
loop_
 _symmetry_equiv_pos_site_id
 _symmetry_equiv_pos_as_xyz
  1  'x, y, z'
loop_
 _atom_site_type_symbol
 _atom_site_label
 _atom_site_symmetry_multiplicity
 _atom_site_fract_x
 _atom_site_fract_y
 _atom_site_fract_z
 _atom_site_occupancy
  O  O0  1  0.19925107  0.09959994  0.90034887  1
  O  O1  1  0.19925107  0.09965113  0.29890220  1
  O  O2  1  0.50000000  0.40219221  0.90219221  1
  O  O3  1  0.50000000  0.90219221  0.40219221  1
  O  O4  1  0.50000000  0.59780779  0.09780779  1
  O  O5  1  0.50000000  0.09780779  0.59780779  1
  O  O6  1  0.80438683  0.40219342  0.90219342  1
  O  O7  1  0.50000000  0.90219342  0.09780658  1
  O  O8  1  0.50000000  0.59780658  0.40219342  1
  O  O9  1  0.19561317  0.09780658  0.59780658  1
  O  O10  1  0.19561317  0.59780658  0.09780658  1
  O  O11  1  0.50000000  0.09780658  0.90219342  1
  O  O12  1  0.50000000  0.40219342  0.59780658  1
  O  O13  1  0.80438683  0.90219342  0.40219342  1
  O  O14  1  0.19925107  0.29890220  0.09965113  1
  O  O15  1  0.80074893  0.70109780  0.90034887  1
  O  O16  1  0.80074893  0.09965113  0.90040006  1
  O  O17  1  0.19925107  0.90034887  0.09959994  1
  O  O18  1  0.80074893  0.90034887  0.70109780  1
  O  O19  1  0.80074893  0.90040006  0.09965113  1
  Mn  Mn20  1  0.35009775  0.35016605  0.35016605  1
  Mn  Mn21  1  0.50000000  0.75000000  0.25000000  1
  Mn  Mn22  1  0.50000000  0.25000000  0.75000000  1
  Mn  Mn23  1  0.64985267  0.00000000  0.64985267  1
  Mn  Mn24  1  0.64985267  0.64985267  0.00000000  1
  Mn  Mn25  1  0.35014733  0.35014733  0.00000000  1
  Mn  Mn26  1  0.35014733  0.00000000  0.35014733  1
  Mn  Mn27  1  0.35009775  0.99993170  0.99993170  1
  Mn  Mn28  1  0.64990225  0.64983395  0.64983395  1
  Mn  Mn29  1  0.64990225  0.00006830  0.00006830  1
  Mn  Mn30  1  0.00000000  0.64983395  0.99993170  1
  Mn  Mn31  1  0.00000000  0.99993170  0.64983395  1
  Mn  Mn32  1  0.00000000  0.00006830  0.35016605  1
  Mn  Mn33  1  0.00000000  0.35016605  0.00006830  1
  Mn  Mn34  1  0.00000000  0.00000000  0.00000000  1
  Br  Br35  1  0.00000000  0.29968252  0.29968252  1
  Br  Br36  1  0.40088600  0.70044300  0.70044300  1
  Br  Br37  1  0.00000000  0.70044300  0.29955700  1
  Br  Br38  1  0.00000000  0.29955700  0.70044300  1
  Br  Br39  1  0.59911400  0.29955700  0.29955700  1
  Br  Br40  1  0.00000000  0.70031748  0.70031748  1
