# generated using pymatgen
data_Zr9(NiP2)2
_symmetry_space_group_name_H-M   'P 1'
_cell_length_a   3.70537906
_cell_length_b   12.06831791
_cell_length_c   12.06831791
_cell_angle_alpha   90.00000000
_cell_angle_beta   90.00000000
_cell_angle_gamma   90.00000000
_symmetry_Int_Tables_number   1
_chemical_formula_structural   Zr9(NiP2)2
_chemical_formula_sum   'Zr18 Ni4 P8'
_cell_volume   539.66732897
_cell_formula_units_Z   2
loop_
 _symmetry_equiv_pos_site_id
 _symmetry_equiv_pos_as_xyz
  1  'x, y, z'
loop_
 _atom_site_type_symbol
 _atom_site_label
 _atom_site_symmetry_multiplicity
 _atom_site_fract_x
 _atom_site_fract_y
 _atom_site_fract_z
 _atom_site_occupancy
  Zr  Zr0  1  0.00000000  0.00000000  0.00000000  1
  Zr  Zr1  1  0.00000000  0.50000000  0.50000000  1
  Zr  Zr2  1  0.50000000  0.18117018  0.10247346  1
  Zr  Zr3  1  0.50000000  0.89752654  0.18117018  1
  Zr  Zr4  1  0.50000000  0.10247346  0.81882982  1
  Zr  Zr5  1  0.50000000  0.81882982  0.89752654  1
  Zr  Zr6  1  0.50000000  0.68117018  0.39752654  1
  Zr  Zr7  1  0.50000000  0.31882982  0.60247346  1
  Zr  Zr8  1  0.50000000  0.60247346  0.68117018  1
  Zr  Zr9  1  0.50000000  0.39752654  0.31882982  1
  Zr  Zr10  1  0.00000000  0.40427356  0.09572644  1
  Zr  Zr11  1  0.00000000  0.90427356  0.40427356  1
  Zr  Zr12  1  0.00000000  0.09572644  0.59572644  1
  Zr  Zr13  1  0.00000000  0.59572644  0.90427356  1
  Zr  Zr14  1  0.50000000  0.11958348  0.38041652  1
  Zr  Zr15  1  0.50000000  0.61958348  0.11958348  1
  Zr  Zr16  1  0.50000000  0.38041652  0.88041652  1
  Zr  Zr17  1  0.50000000  0.88041652  0.61958348  1
  Ni  Ni18  1  0.00000000  0.24615134  0.25384866  1
  Ni  Ni19  1  0.00000000  0.74615134  0.24615134  1
  Ni  Ni20  1  0.00000000  0.25384866  0.75384866  1
  Ni  Ni21  1  0.00000000  0.75384866  0.74615134  1
  P  P22  1  0.00000000  0.05668005  0.22438148  1
  P  P23  1  0.00000000  0.77561852  0.05668005  1
  P  P24  1  0.00000000  0.22438148  0.94331995  1
  P  P25  1  0.00000000  0.94331995  0.77561852  1
  P  P26  1  0.00000000  0.55668005  0.27561852  1
  P  P27  1  0.00000000  0.44331995  0.72438148  1
  P  P28  1  0.00000000  0.72438148  0.55668005  1
  P  P29  1  0.00000000  0.27561852  0.44331995  1
