# generated using pymatgen
data_Cs2Te13
_symmetry_space_group_name_H-M   'P 1'
_cell_length_a   7.39533511
_cell_length_b   14.11112003
_cell_length_c   23.45118069
_cell_angle_alpha   90.00000000
_cell_angle_beta   90.00000000
_cell_angle_gamma   90.00000000
_symmetry_Int_Tables_number   1
_chemical_formula_structural   Cs2Te13
_chemical_formula_sum   'Cs8 Te52'
_cell_volume   2447.28223244
_cell_formula_units_Z   4
loop_
 _symmetry_equiv_pos_site_id
 _symmetry_equiv_pos_as_xyz
  1  'x, y, z'
loop_
 _atom_site_type_symbol
 _atom_site_label
 _atom_site_symmetry_multiplicity
 _atom_site_fract_x
 _atom_site_fract_y
 _atom_site_fract_z
 _atom_site_occupancy
  Cs  Cs0  1  0.88551099  0.25000000  0.50000000  1
  Cs  Cs1  1  0.11448901  0.75000000  0.00000000  1
  Cs  Cs2  1  0.11448901  0.75000000  0.50000000  1
  Cs  Cs3  1  0.88551099  0.25000000  0.00000000  1
  Cs  Cs4  1  0.64298068  0.52579639  0.25000000  1
  Cs  Cs5  1  0.64298068  0.97420361  0.75000000  1
  Cs  Cs6  1  0.35701932  0.02579639  0.25000000  1
  Cs  Cs7  1  0.35701932  0.47420361  0.75000000  1
  Te  Te8  1  0.29602801  0.09596558  0.45206017  1
  Te  Te9  1  0.29602801  0.40403442  0.54793983  1
  Te  Te10  1  0.70397199  0.59596558  0.04793983  1
  Te  Te11  1  0.70397199  0.90403442  0.95206017  1
  Te  Te12  1  0.70397199  0.90403442  0.54793983  1
  Te  Te13  1  0.70397199  0.59596558  0.45206017  1
  Te  Te14  1  0.29602801  0.40403442  0.95206017  1
  Te  Te15  1  0.29602801  0.09596558  0.04793983  1
  Te  Te16  1  0.06523555  0.96571940  0.39781319  1
  Te  Te17  1  0.06523555  0.53428060  0.60218681  1
  Te  Te18  1  0.93476445  0.46571940  0.10218681  1
  Te  Te19  1  0.93476445  0.03428060  0.89781319  1
  Te  Te20  1  0.93476445  0.03428060  0.60218681  1
  Te  Te21  1  0.93476445  0.46571940  0.39781319  1
  Te  Te22  1  0.06523555  0.53428060  0.89781319  1
  Te  Te23  1  0.06523555  0.96571940  0.10218681  1
  Te  Te24  1  0.69286566  0.02810826  0.42890277  1
  Te  Te25  1  0.69286566  0.47189174  0.57109723  1
  Te  Te26  1  0.30713434  0.52810826  0.07109723  1
  Te  Te27  1  0.30713434  0.97189174  0.92890277  1
  Te  Te28  1  0.30713434  0.97189174  0.57109723  1
  Te  Te29  1  0.30713434  0.52810826  0.42890277  1
  Te  Te30  1  0.69286566  0.47189174  0.92890277  1
  Te  Te31  1  0.69286566  0.02810826  0.07109723  1
  Te  Te32  1  0.74153462  0.16716654  0.33540146  1
  Te  Te33  1  0.74153462  0.33283346  0.66459854  1
  Te  Te34  1  0.25846538  0.66716654  0.16459854  1
  Te  Te35  1  0.25846538  0.83283346  0.83540146  1
  Te  Te36  1  0.25846538  0.83283346  0.66459854  1
  Te  Te37  1  0.25846538  0.66716654  0.33540146  1
  Te  Te38  1  0.74153462  0.33283346  0.83540146  1
  Te  Te39  1  0.74153462  0.16716654  0.16459854  1
  Te  Te40  1  0.54538319  0.32492336  0.37249280  1
  Te  Te41  1  0.54538319  0.17507664  0.62750720  1
  Te  Te42  1  0.45461681  0.82492336  0.12750720  1
  Te  Te43  1  0.45461681  0.67507664  0.87249280  1
  Te  Te44  1  0.45461681  0.67507664  0.62750720  1
  Te  Te45  1  0.45461681  0.82492336  0.37249280  1
  Te  Te46  1  0.54538319  0.17507664  0.87249280  1
  Te  Te47  1  0.54538319  0.32492336  0.12750720  1
  Te  Te48  1  0.18906614  0.26122770  0.34522845  1
  Te  Te49  1  0.18906614  0.23877230  0.65477155  1
  Te  Te50  1  0.81093386  0.76122770  0.15477155  1
  Te  Te51  1  0.81093386  0.73877230  0.84522845  1
  Te  Te52  1  0.81093386  0.73877230  0.65477155  1
  Te  Te53  1  0.81093386  0.76122770  0.34522845  1
  Te  Te54  1  0.18906614  0.23877230  0.84522845  1
  Te  Te55  1  0.18906614  0.26122770  0.15477155  1
  Te  Te56  1  0.11049570  0.37745149  0.25000000  1
  Te  Te57  1  0.11049570  0.12254851  0.75000000  1
  Te  Te58  1  0.88950430  0.87745149  0.25000000  1
  Te  Te59  1  0.88950430  0.62254851  0.75000000  1
