# generated using pymatgen
data_CsHSO4
_symmetry_space_group_name_H-M   'P 1'
_cell_length_a   7.86233931
_cell_length_b   7.89860111
_cell_length_c   8.31466440
_cell_angle_alpha   90.00000000
_cell_angle_beta   90.00000000
_cell_angle_gamma   109.89332018
_symmetry_Int_Tables_number   1
_chemical_formula_structural   CsHSO4
_chemical_formula_sum   'Cs4 H4 S4 O16'
_cell_volume   485.54106535
_cell_formula_units_Z   4
loop_
 _symmetry_equiv_pos_site_id
 _symmetry_equiv_pos_as_xyz
  1  'x, y, z'
loop_
 _atom_site_type_symbol
 _atom_site_label
 _atom_site_symmetry_multiplicity
 _atom_site_fract_x
 _atom_site_fract_y
 _atom_site_fract_z
 _atom_site_occupancy
  Cs  Cs0  1  0.79468950  0.78706066  0.12766176  1
  Cs  Cs1  1  0.70531050  0.21293934  0.62766176  1
  Cs  Cs2  1  0.20531050  0.21293934  0.87233824  1
  Cs  Cs3  1  0.29468950  0.78706066  0.37233824  1
  H  H4  1  0.95209160  0.36744217  0.28786729  1
  H  H5  1  0.54790840  0.63255783  0.78786729  1
  H  H6  1  0.04790840  0.63255783  0.71213271  1
  H  H7  1  0.45209160  0.36744217  0.21213271  1
  S  S8  1  0.71946690  0.24916761  0.12963779  1
  S  S9  1  0.78053310  0.75083239  0.62963779  1
  S  S10  1  0.28053310  0.75083239  0.87036221  1
  S  S11  1  0.21946690  0.24916761  0.37036221  1
  O  O12  1  0.86692725  0.41231910  0.22209032  1
  O  O13  1  0.63307275  0.58768090  0.72209032  1
  O  O14  1  0.13307275  0.58768090  0.77790968  1
  O  O15  1  0.36692725  0.41231910  0.27790968  1
  O  O16  1  0.58808255  0.33413025  0.07524244  1
  O  O17  1  0.91191745  0.66586975  0.57524244  1
  O  O18  1  0.41191745  0.66586975  0.92475756  1
  O  O19  1  0.08808255  0.33413025  0.42475756  1
  O  O20  1  0.81167664  0.19651299  0.99564989  1
  O  O21  1  0.68832336  0.80348701  0.49564989  1
  O  O22  1  0.18832336  0.80348701  0.00435011  1
  O  O23  1  0.31167664  0.19651299  0.50435011  1
  O  O24  1  0.64431344  0.10582914  0.24804229  1
  O  O25  1  0.85568656  0.89417086  0.74804229  1
  O  O26  1  0.35568656  0.89417086  0.75195771  1
  O  O27  1  0.14431344  0.10582914  0.25195771  1
