# generated using pymatgen
data_KPr(PO3)4
_symmetry_space_group_name_H-M   'P 1'
_cell_length_a   7.51669516
_cell_length_b   7.51669437
_cell_length_c   10.79411469
_cell_angle_alpha   100.66853614
_cell_angle_beta   100.66853502
_cell_angle_gamma   115.41153512
_symmetry_Int_Tables_number   1
_chemical_formula_structural   KPr(PO3)4
_chemical_formula_sum   'K2 Pr2 P8 O24'
_cell_volume   516.74133650
_cell_formula_units_Z   2
loop_
 _symmetry_equiv_pos_site_id
 _symmetry_equiv_pos_as_xyz
  1  'x, y, z'
loop_
 _atom_site_type_symbol
 _atom_site_label
 _atom_site_symmetry_multiplicity
 _atom_site_fract_x
 _atom_site_fract_y
 _atom_site_fract_z
 _atom_site_occupancy
  Pr  Pr0  1  0.62112682  0.37887318  0.75000000  1
  Pr  Pr1  1  0.37887318  0.62112682  0.25000000  1
  K  K2  1  0.68385468  0.31614532  0.25000000  1
  K  K3  1  0.31614532  0.68385468  0.75000000  1
  P  P4  1  0.21193996  0.87343089  0.50026558  1
  P  P5  1  0.12656911  0.78806004  0.99973442  1
  P  P6  1  0.78806004  0.12656911  0.49973442  1
  P  P7  1  0.87343089  0.21193996  0.00026558  1
  P  P8  1  0.19499391  0.24043833  0.44449169  1
  P  P9  1  0.75956167  0.80500609  0.05550831  1
  P  P10  1  0.80500609  0.75956167  0.55550831  1
  P  P11  1  0.24043833  0.19499391  0.94449169  1
  O  O12  1  0.19475772  0.69046487  0.40390013  1
  O  O13  1  0.30953513  0.80524228  0.09609987  1
  O  O14  1  0.80524228  0.30953513  0.59609987  1
  O  O15  1  0.69046487  0.19475772  0.90390013  1
  O  O16  1  0.14639918  1.00163386  0.41545519  1
  O  O17  1  -0.00163386  0.85360082  0.08454481  1
  O  O18  1  0.85360082  -0.00163386  0.58454481  1
  O  O19  1  1.00163386  0.14639918  0.91545519  1
  O  O20  1  0.40689400  0.00677817  0.61285359  1
  O  O21  1  0.99322183  0.59310600  0.88714641  1
  O  O22  1  0.59310600  0.99322183  0.38714641  1
  O  O23  1  0.00677817  0.40689400  0.11285359  1
  O  O24  1  0.03270511  0.78415819  0.57095432  1
  O  O25  1  0.21584181  0.96729489  0.92904568  1
  O  O26  1  0.96729489  0.21584181  0.42904568  1
  O  O27  1  0.78415819  0.03270511  0.07095432  1
  O  O28  1  0.32884296  0.35862100  0.58468774  1
  O  O29  1  0.64137900  0.67115704  0.91531226  1
  O  O30  1  0.67115704  0.64137900  0.41531226  1
  O  O31  1  0.35862100  0.32884296  0.08468774  1
  O  O32  1  0.25940458  0.31246024  0.33251500  1
  O  O33  1  0.68753976  0.74059542  0.16748500  1
  O  O34  1  0.74059542  0.68753976  0.66748500  1
  O  O35  1  0.31246024  0.25940458  0.83251500  1
