# generated using pymatgen
data_RbZn4(BO3)3
_symmetry_space_group_name_H-M   'P 1'
_cell_length_a   5.06228893
_cell_length_b   6.97993492
_cell_length_c   12.91963352
_cell_angle_alpha   93.08277799
_cell_angle_beta   90.00000000
_cell_angle_gamma   90.00000000
_symmetry_Int_Tables_number   1
_chemical_formula_structural   RbZn4(BO3)3
_chemical_formula_sum   'Rb2 Zn8 B6 O18'
_cell_volume   455.84748768
_cell_formula_units_Z   2
loop_
 _symmetry_equiv_pos_site_id
 _symmetry_equiv_pos_as_xyz
  1  'x, y, z'
loop_
 _atom_site_type_symbol
 _atom_site_label
 _atom_site_symmetry_multiplicity
 _atom_site_fract_x
 _atom_site_fract_y
 _atom_site_fract_z
 _atom_site_occupancy
  Rb  Rb0  1  0.27633088  0.00000000  0.75000000  1
  Rb  Rb1  1  0.72366912  0.00000000  0.25000000  1
  Zn  Zn2  1  0.35006889  0.51154361  0.87536961  1
  Zn  Zn3  1  0.35006889  0.48845639  0.62463039  1
  Zn  Zn4  1  0.64993111  0.48845639  0.12463039  1
  Zn  Zn5  1  0.64993111  0.51154361  0.37536961  1
  Zn  Zn6  1  0.83287545  0.79149598  0.93919836  1
  Zn  Zn7  1  0.83287545  0.20850402  0.56080164  1
  Zn  Zn8  1  0.16712455  0.20850402  0.06080164  1
  Zn  Zn9  1  0.16712455  0.79149598  0.43919836  1
  B  B10  1  0.84510631  0.50000000  0.75000000  1
  B  B11  1  0.15489369  0.50000000  0.25000000  1
  B  B12  1  0.65482341  0.80993174  0.54600340  1
  B  B13  1  0.65482341  0.19006826  0.95399660  1
  B  B14  1  0.34517659  0.19006826  0.45399660  1
  B  B15  1  0.34517659  0.80993174  0.04600340  1
  O  O16  1  0.12057674  0.50000000  0.75000000  1
  O  O17  1  0.87942326  0.50000000  0.25000000  1
  O  O18  1  0.20253509  0.72498982  0.96279805  1
  O  O19  1  0.20253509  0.27501018  0.53720195  1
  O  O20  1  0.79746491  0.27501018  0.03720195  1
  O  O21  1  0.79746491  0.72498982  0.46279805  1
  O  O22  1  0.70782307  0.59366464  0.83036143  1
  O  O23  1  0.70782307  0.40633536  0.66963857  1
  O  O24  1  0.29217693  0.40633536  0.16963857  1
  O  O25  1  0.29217693  0.59366464  0.33036143  1
  O  O26  1  0.39740567  0.73672264  0.56179284  1
  O  O27  1  0.39740567  0.26327736  0.93820716  1
  O  O28  1  0.60259433  0.26327736  0.43820716  1
  O  O29  1  0.60259433  0.73672264  0.06179284  1
  O  O30  1  0.75206591  0.95673038  0.60739736  1
  O  O31  1  0.75206591  0.04326962  0.89260264  1
  O  O32  1  0.24793409  0.04326962  0.39260264  1
  O  O33  1  0.24793409  0.95673038  0.10739736  1
