# generated using pymatgen
data_Al3Pb5F19
_symmetry_space_group_name_H-M   'P 1'
_cell_length_a   7.57938148
_cell_length_b   10.84498546
_cell_length_c   10.84498577
_cell_angle_alpha   82.98645704
_cell_angle_beta   69.54165463
_cell_angle_gamma   69.54164938
_symmetry_Int_Tables_number   1
_chemical_formula_structural   Al3Pb5F19
_chemical_formula_sum   'Al6 Pb10 F38'
_cell_volume   782.53324827
_cell_formula_units_Z   2
loop_
 _symmetry_equiv_pos_site_id
 _symmetry_equiv_pos_as_xyz
  1  'x, y, z'
loop_
 _atom_site_type_symbol
 _atom_site_label
 _atom_site_symmetry_multiplicity
 _atom_site_fract_x
 _atom_site_fract_y
 _atom_site_fract_z
 _atom_site_occupancy
  Pb  Pb0  1  0.44689405  0.84846433  0.29860029  1
  Pb  Pb1  1  0.74548899  0.70138452  0.84846618  1
  Pb  Pb2  1  0.29521692  0.29862422  0.15154734  1
  Pb  Pb3  1  0.59391496  0.15154600  0.70144276  1
  Pb  Pb4  1  0.79521692  0.15154734  0.29862422  1
  Pb  Pb5  1  0.24548899  0.84846618  0.70138452  1
  Pb  Pb6  1  0.94689405  0.29860029  0.84846433  1
  Pb  Pb7  1  0.09391496  0.70144276  0.15154600  1
  Pb  Pb8  1  0.13845678  0.49996938  0.49997853  1
  Pb  Pb9  1  0.63845678  0.49997853  0.49996938  1
  Al  Al10  1  0.14050653  0.17794044  0.49996756  1
  Al  Al11  1  0.64050653  0.49996756  0.17794044  1
  Al  Al12  1  0.31849050  0.49998397  0.82201911  1
  Al  Al13  1  0.81849050  0.82201911  0.49998397  1
  Al  Al14  1  0.18320769  1.00000208  0.00005650  1
  Al  Al15  1  0.68320769  0.00005650  1.00000208  1
  F  F16  1  0.93904131  0.13949893  0.63714905  1
  F  F17  1  0.57626556  0.36282434  0.13941214  1
  F  F18  1  0.07852404  0.63711825  0.86058368  1
  F  F19  1  0.71567535  0.86051488  0.36284464  1
  F  F20  1  0.57852404  0.86058368  0.63711825  1
  F  F21  1  0.07626556  0.13941214  0.36282434  1
  F  F22  1  0.43904131  0.63714905  0.13949893  1
  F  F23  1  0.21567535  0.36284464  0.86051488  1
  F  F24  1  0.33377513  0.23595033  0.37464763  1
  F  F25  1  0.70831801  0.62536665  0.23593045  1
  F  F26  1  0.56973930  0.37461158  0.76397189  1
  F  F27  1  0.94434517  0.76401153  0.62535461  1
  F  F28  1  0.06973930  0.76397189  0.37461158  1
  F  F29  1  0.20831801  0.23593045  0.62536665  1
  F  F30  1  0.83377513  0.37464763  0.23595033  1
  F  F31  1  0.44434517  0.62535461  0.76401153  1
  F  F32  1  0.96788559  0.34583119  0.49990220  1
  F  F33  1  0.46788559  0.49990220  0.34583119  1
  F  F34  1  0.31363251  0.50001099  0.65414577  1
  F  F35  1  0.81363251  0.65414577  0.50001099  1
  F  F36  1  0.29898288  0.00974152  0.50000340  1
  F  F37  1  0.79898288  0.50000340  0.00974152  1
  F  F38  1  0.30888973  0.49996063  0.99019649  1
  F  F39  1  0.80888973  0.99019649  0.49996063  1
  F  F40  1  0.42837422  0.00003237  0.00001485  1
  F  F41  1  0.92837422  0.00001485  0.00003237  1
  F  F42  1  0.62180842  0.16707809  0.93915155  1
  F  F43  1  0.56091334  0.06094552  0.16700296  1
  F  F44  1  0.78901275  0.93919115  0.83298595  1
  F  F45  1  0.72804583  0.83305478  0.06085635  1
  F  F46  1  0.28901275  0.83298595  0.93919115  1
  F  F47  1  0.06091334  0.16700296  0.06094552  1
  F  F48  1  0.12180842  0.93915155  0.16707809  1
  F  F49  1  0.22804583  0.06085635  0.83305478  1
  F  F50  1  0.39649239  0.73046434  0.50002613  1
  F  F51  1  0.89649239  0.50002613  0.73046434  1
  F  F52  1  0.12710204  0.50006051  0.26955947  1
  F  F53  1  0.62710204  0.26955947  0.50006051  1
