# generated using pymatgen
data_Tl3B3Se10
_symmetry_space_group_name_H-M   'P 1'
_cell_length_a   7.31122316
_cell_length_b   8.31932247
_cell_length_c   14.86230338
_cell_angle_alpha   103.96418796
_cell_angle_beta   94.70290142
_cell_angle_gamma   93.47517211
_symmetry_Int_Tables_number   1
_chemical_formula_structural   Tl3B3Se10
_chemical_formula_sum   'Tl6 B6 Se20'
_cell_volume   871.29532826
_cell_formula_units_Z   2
loop_
 _symmetry_equiv_pos_site_id
 _symmetry_equiv_pos_as_xyz
  1  'x, y, z'
loop_
 _atom_site_type_symbol
 _atom_site_label
 _atom_site_symmetry_multiplicity
 _atom_site_fract_x
 _atom_site_fract_y
 _atom_site_fract_z
 _atom_site_occupancy
  Tl  Tl0  1  0.32458028  0.18253680  0.47900403  1
  Tl  Tl1  1  0.67541972  0.81746320  0.52099597  1
  Tl  Tl2  1  0.73358964  0.55149885  0.15414735  1
  Tl  Tl3  1  0.26641036  0.44850115  0.84585265  1
  Tl  Tl4  1  0.98590556  0.12115556  0.20464071  1
  Tl  Tl5  1  0.01409444  0.87884444  0.79535929  1
  Se  Se6  1  0.22386027  0.05908963  0.01641652  1
  Se  Se7  1  0.77613973  0.94091037  0.98358348  1
  Se  Se8  1  0.53149395  0.75735620  0.01391915  1
  Se  Se9  1  0.46850605  0.24264380  0.98608085  1
  Se  Se10  1  0.47754094  0.06322193  0.21500403  1
  Se  Se11  1  0.52245906  0.93677807  0.78499597  1
  Se  Se12  1  0.16432190  0.74000390  0.10959555  1
  Se  Se13  1  0.83567810  0.25999610  0.89040445  1
  Se  Se14  1  0.51986993  0.83691808  0.28452689  1
  Se  Se15  1  0.48013007  0.16308192  0.71547311  1
  Se  Se16  1  0.29914427  0.46455372  0.22483503  1
  Se  Se17  1  0.70085573  0.53544628  0.77516497  1
  Se  Se18  1  0.07005120  0.79040544  0.33471919  1
  Se  Se19  1  0.92994880  0.20959456  0.66528081  1
  Se  Se20  1  0.34127641  0.50126832  0.39033013  1
  Se  Se21  1  0.65872359  0.49873168  0.60966987  1
  Se  Se22  1  0.14057287  0.74856687  0.55265253  1
  Se  Se23  1  0.85942713  0.25143313  0.44734747  1
  Se  Se24  1  0.85959132  0.48117905  0.37193832  1
  Se  Se25  1  0.14040868  0.51882095  0.62806168  1
  B  B26  1  0.36291384  0.91405232  0.08960786  1
  B  B27  1  0.63708616  0.08594768  0.91039214  1
  B  B28  1  0.26121003  0.71309621  0.23948350  1
  B  B29  1  0.73878997  0.28690379  0.76051650  1
  B  B30  1  0.10603970  0.62089947  0.41525796  1
  B  B31  1  0.89396030  0.37910053  0.58474204  1
