# generated using pymatgen
data_Pr2Co3Ge5
_symmetry_space_group_name_H-M   'P 1'
_cell_length_a   5.93920075
_cell_length_b   8.27710087
_cell_length_c   8.27710095
_cell_angle_alpha   73.08062107
_cell_angle_beta   68.97513877
_cell_angle_gamma   68.97513830
_symmetry_Int_Tables_number   1
_chemical_formula_structural   Pr2Co3Ge5
_chemical_formula_sum   'Pr4 Co6 Ge10'
_cell_volume   348.31629960
_cell_formula_units_Z   2
loop_
 _symmetry_equiv_pos_site_id
 _symmetry_equiv_pos_as_xyz
  1  'x, y, z'
loop_
 _atom_site_type_symbol
 _atom_site_label
 _atom_site_symmetry_multiplicity
 _atom_site_fract_x
 _atom_site_fract_y
 _atom_site_fract_z
 _atom_site_occupancy
  Pr  Pr0  1  0.86665814  0.87150881  0.39517491  1
  Pr  Pr1  1  0.13334186  0.12849119  0.60482509  1
  Pr  Pr2  1  0.63334186  0.60482509  0.12849119  1
  Pr  Pr3  1  0.36665814  0.39517491  0.87150881  1
  Co  Co4  1  0.63564461  0.25533969  0.47337110  1
  Co  Co5  1  0.36435539  0.74466031  0.52662890  1
  Co  Co6  1  0.86435539  0.52662890  0.74466031  1
  Co  Co7  1  0.13564461  0.47337110  0.25533969  1
  Co  Co8  1  0.75000000  0.00000000  0.00000000  1
  Co  Co9  1  0.25000000  0.00000000  0.00000000  1
  Ge  Ge10  1  0.51409998  0.23590002  0.23590002  1
  Ge  Ge11  1  0.98590002  0.76409998  0.76409998  1
  Ge  Ge12  1  0.48590002  0.76409998  0.76409998  1
  Ge  Ge13  1  0.01409998  0.23590002  0.23590002  1
  Ge  Ge14  1  0.59861403  0.05725697  0.74551497  1
  Ge  Ge15  1  0.40138597  0.94274303  0.25448503  1
  Ge  Ge16  1  0.90138597  0.25448503  0.94274303  1
  Ge  Ge17  1  0.09861403  0.74551497  0.05725697  1
  Ge  Ge18  1  0.75000000  0.50000000  0.50000000  1
  Ge  Ge19  1  0.25000000  0.50000000  0.50000000  1
