# generated using pymatgen
data_CdAg4Ge2S7
_symmetry_space_group_name_H-M   'P 1'
_cell_length_a   6.93321690
_cell_length_b   9.55580959
_cell_length_c   10.65016154
_cell_angle_alpha   93.00086753
_cell_angle_beta   90.00000000
_cell_angle_gamma   111.27071398
_symmetry_Int_Tables_number   1
_chemical_formula_structural   CdAg4Ge2S7
_chemical_formula_sum   'Cd2 Ag8 Ge4 S14'
_cell_volume   656.49369945
_cell_formula_units_Z   2
loop_
 _symmetry_equiv_pos_site_id
 _symmetry_equiv_pos_as_xyz
  1  'x, y, z'
loop_
 _atom_site_type_symbol
 _atom_site_label
 _atom_site_symmetry_multiplicity
 _atom_site_fract_x
 _atom_site_fract_y
 _atom_site_fract_z
 _atom_site_occupancy
  Ag  Ag0  1  0.81543432  0.99061619  0.99970497  1
  Ag  Ag1  1  0.17518186  0.99061619  0.49970497  1
  Ag  Ag2  1  0.74035141  0.12697637  0.38616987  1
  Ag  Ag3  1  0.38662496  0.12697637  0.88616987  1
  Ag  Ag4  1  0.89179344  0.42206380  0.09760111  1
  Ag  Ag5  1  0.53027036  0.42206380  0.59760111  1
  Ag  Ag6  1  0.15520236  0.55250180  0.44509593  1
  Ag  Ag7  1  0.39729944  0.55250180  0.94509593  1
  Cd  Cd8  1  0.67011688  0.70072853  0.28951602  1
  Cd  Cd9  1  0.03061165  0.70072853  0.78951602  1
  Ge  Ge10  1  0.25288548  0.85522200  0.16865514  1
  Ge  Ge11  1  0.60233652  0.85522200  0.66865514  1
  Ge  Ge12  1  0.31045679  0.27555120  0.24382572  1
  Ge  Ge13  1  0.96509440  0.27555120  0.74382572  1
  S  S14  1  0.86548116  0.06204110  0.59587531  1
  S  S15  1  0.19655993  0.06204110  0.09587531  1
  S  S16  1  0.03269499  0.33257248  0.28373468  1
  S  S17  1  0.29987749  0.33257248  0.78373468  1
  S  S18  1  0.54645888  0.46250919  0.14147962  1
  S  S19  1  0.91605031  0.46250919  0.64147962  1
  S  S20  1  0.13594299  0.67003468  0.01672304  1
  S  S21  1  0.53409169  0.67003468  0.51672304  1
  S  S22  1  0.06312320  0.76992065  0.33898491  1
  S  S23  1  0.70679745  0.76992065  0.83898491  1
  S  S24  1  0.32620284  0.92146854  0.70335663  1
  S  S25  1  0.59526570  0.92146854  0.20335663  1
  S  S26  1  0.44196485  0.22279348  0.41607705  1
  S  S27  1  0.78082863  0.22279348  0.91607705  1
