# generated using pymatgen
data_Fe2P2H4O9
_symmetry_space_group_name_H-M   'P 1'
_cell_length_a   6.53391188
_cell_length_b   7.47060122
_cell_length_c   14.36251560
_cell_angle_alpha   90.00000000
_cell_angle_beta   90.00000000
_cell_angle_gamma   96.00862972
_symmetry_Int_Tables_number   1
_chemical_formula_structural   Fe2P2H4O9
_chemical_formula_sum   'Fe8 P8 H16 O36'
_cell_volume   697.21514019
_cell_formula_units_Z   4
loop_
 _symmetry_equiv_pos_site_id
 _symmetry_equiv_pos_as_xyz
  1  'x, y, z'
loop_
 _atom_site_type_symbol
 _atom_site_label
 _atom_site_symmetry_multiplicity
 _atom_site_fract_x
 _atom_site_fract_y
 _atom_site_fract_z
 _atom_site_occupancy
  Fe  Fe0  1  0.26325315  0.08163972  0.38986019  1
  Fe  Fe1  1  0.23674685  0.41836028  0.88986019  1
  Fe  Fe2  1  0.73674685  0.91836028  0.61013981  1
  Fe  Fe3  1  0.76325315  0.58163972  0.11013981  1
  Fe  Fe4  1  0.95036449  0.65408710  0.75279102  1
  Fe  Fe5  1  0.54963551  0.84591290  0.25279102  1
  Fe  Fe6  1  0.04963551  0.34591290  0.24720898  1
  Fe  Fe7  1  0.45036449  0.15408710  0.74720898  1
  P  P8  1  0.24144938  0.85247407  0.58565866  1
  P  P9  1  0.25855062  0.64752593  0.08565866  1
  P  P10  1  0.75855062  0.14752593  0.41434134  1
  P  P11  1  0.74144938  0.35247407  0.91434134  1
  P  P12  1  0.43139155  0.57803456  0.68704766  1
  P  P13  1  0.06860845  0.92196544  0.18704766  1
  P  P14  1  0.56860845  0.42196544  0.31295234  1
  P  P15  1  0.93139155  0.07803456  0.81295234  1
  O  O16  1  0.20103911  0.87387396  0.48214476  1
  O  O17  1  0.29896089  0.62612604  0.98214476  1
  O  O18  1  0.79896089  0.12612604  0.51785524  1
  O  O19  1  0.70103911  0.37387396  0.01785524  1
  O  O20  1  0.04161160  0.84351705  0.64249380  1
  O  O21  1  0.45838840  0.65648295  0.14249380  1
  O  O22  1  0.95838840  0.15648295  0.35750620  1
  O  O23  1  0.54161160  0.34351705  0.85750620  1
  O  O24  1  0.41444601  0.98502517  0.62671431  1
  O  O25  1  0.08555399  0.51497483  0.12671431  1
  O  O26  1  0.58555399  0.01497483  0.37328569  1
  O  O27  1  0.91444601  0.48502517  0.87328569  1
  O  O28  1  0.32700836  0.65568435  0.59457672  1
  O  O29  1  0.17299164  0.84431565  0.09457672  1
  O  O30  1  0.67299164  0.34431565  0.40542328  1
  O  O31  1  0.82700836  0.15568435  0.90542328  1
  O  O32  1  0.28238534  0.60398245  0.76911406  1
  O  O33  1  0.21761466  0.89601755  0.26911406  1
  O  O34  1  0.71761466  0.39601755  0.23088594  1
  O  O35  1  0.78238534  0.10398245  0.73088594  1
  O  O36  1  0.63830995  0.69418438  0.70095998  1
  O  O37  1  0.86169005  0.80581562  0.20095998  1
  O  O38  1  0.36169005  0.30581562  0.29904002  1
  O  O39  1  0.13830995  0.19418438  0.79904002  1
  O  O40  1  0.45218928  0.38228525  0.66176593  1
  O  O41  1  0.04781072  0.11771475  0.16176593  1
  O  O42  1  0.54781072  0.61771475  0.33823407  1
  O  O43  1  0.95218928  0.88228525  0.83823407  1
  O  O44  1  0.24404366  0.28634859  0.49794089  1
  O  O45  1  0.25595634  0.21365141  0.99794089  1
  O  O46  1  0.75595634  0.71365141  0.50205911  1
  O  O47  1  0.74404366  0.78634859  0.00205911  1
  O  O48  1  0.92573513  0.43896101  0.65082895  1
  O  O49  1  0.57426487  0.06103899  0.15082895  1
  O  O50  1  0.07426487  0.56103899  0.34917105  1
  O  O51  1  0.42573513  0.93896101  0.84917105  1
  H  H52  1  0.33812840  0.31627696  0.55126889  1
  H  H53  1  0.16187160  0.18372304  0.05126889  1
  H  H54  1  0.66187160  0.68372304  0.44873111  1
  H  H55  1  0.83812840  0.81627696  0.94873111  1
  H  H56  1  0.10580474  0.27083918  0.52530325  1
  H  H57  1  0.39419526  0.22916082  0.02530325  1
  H  H58  1  0.89419526  0.72916082  0.47469675  1
  H  H59  1  0.60580474  0.77083918  0.97469675  1
  H  H60  1  0.82621266  0.46439092  0.60288725  1
  H  H61  1  0.67378734  0.03560908  0.10288725  1
  H  H62  1  0.17378734  0.53560908  0.39711275  1
  H  H63  1  0.32621266  0.96439092  0.89711275  1
  H  H64  1  0.87693460  0.31750244  0.67502743  1
  H  H65  1  0.62306540  0.18249756  0.17502743  1
  H  H66  1  0.12306540  0.68249756  0.32497257  1
  H  H67  1  0.37693460  0.81750244  0.82497257  1
