# generated using pymatgen
data_NaFeBP2H3O10
_symmetry_space_group_name_H-M   'P 1'
_cell_length_a   6.70833233
_cell_length_b   6.70833209
_cell_length_c   9.27992572
_cell_angle_alpha   69.79568983
_cell_angle_beta   69.79569062
_cell_angle_gamma   76.69729502
_symmetry_Int_Tables_number   1
_chemical_formula_structural   NaFeBP2H3O10
_chemical_formula_sum   'Na2 Fe2 B2 P4 H6 O20'
_cell_volume   364.87688280
_cell_formula_units_Z   2
loop_
 _symmetry_equiv_pos_site_id
 _symmetry_equiv_pos_as_xyz
  1  'x, y, z'
loop_
 _atom_site_type_symbol
 _atom_site_label
 _atom_site_symmetry_multiplicity
 _atom_site_fract_x
 _atom_site_fract_y
 _atom_site_fract_z
 _atom_site_occupancy
  Na  Na0  1  0.13165343  0.86834657  0.75000000  1
  Na  Na1  1  0.86834657  0.13165343  0.25000000  1
  Fe  Fe2  1  0.50000000  0.00000000  0.00000000  1
  Fe  Fe3  1  0.00000000  0.50000000  0.50000000  1
  B  B4  1  0.52717521  0.47282479  0.75000000  1
  B  B5  1  0.47282479  0.52717521  0.25000000  1
  P  P6  1  0.70819203  0.84555110  0.67627436  1
  P  P7  1  0.15444890  0.29180797  0.82372564  1
  P  P8  1  0.29180797  0.15444890  0.32372564  1
  P  P9  1  0.84555110  0.70819203  0.17627436  1
  O  O10  1  0.53020597  0.69192625  0.74912190  1
  O  O11  1  0.30807375  0.46979403  0.75087810  1
  O  O12  1  0.46979403  0.30807375  0.25087810  1
  O  O13  1  0.69192625  0.53020597  0.24912190  1
  O  O14  1  0.36250632  0.96418874  0.45783727  1
  O  O15  1  0.03581126  0.63749368  0.04216273  1
  O  O16  1  0.63749368  0.03581126  0.54216273  1
  O  O17  1  0.96418874  0.36250632  0.95783727  1
  O  O18  1  0.27429722  0.07147955  0.89056405  1
  O  O19  1  0.92852045  0.72570278  0.60943595  1
  O  O20  1  0.72570278  0.92852045  0.10943595  1
  O  O21  1  0.07147955  0.27429722  0.39056405  1
  O  O22  1  0.72481130  0.92523224  0.80722118  1
  O  O23  1  0.07476776  0.27518870  0.69277882  1
  O  O24  1  0.27518870  0.07476776  0.19277882  1
  O  O25  1  0.92523224  0.72481130  0.30722118  1
  O  O26  1  0.56709690  0.31512443  0.89853201  1
  O  O27  1  0.68487557  0.43290310  0.60146799  1
  O  O28  1  0.43290310  0.68487557  0.10146799  1
  O  O29  1  0.31512443  0.56709690  0.39853201  1
  H  H30  1  0.69011765  0.33959211  0.92250517  1
  H  H31  1  0.66040789  0.30988235  0.57749483  1
  H  H32  1  0.30988235  0.66040789  0.07749483  1
  H  H33  1  0.33959211  0.69011765  0.42250517  1
  H  H34  1  0.50000000  0.00000000  0.50000000  1
  H  H35  1  0.00000000  0.50000000  0.00000000  1
