# generated using pymatgen
data_K2Th(PSe3)3
_symmetry_space_group_name_H-M   'P 1'
_cell_length_a   10.34417986
_cell_length_b   10.70068207
_cell_length_c   16.88009736
_cell_angle_alpha   89.90864131
_cell_angle_beta   107.37840544
_cell_angle_gamma   91.30756167
_symmetry_Int_Tables_number   1
_chemical_formula_structural   K2Th(PSe3)3
_chemical_formula_sum   'K8 Th4 P12 Se36'
_cell_volume   1782.67385227
_cell_formula_units_Z   4
loop_
 _symmetry_equiv_pos_site_id
 _symmetry_equiv_pos_as_xyz
  1  'x, y, z'
loop_
 _atom_site_type_symbol
 _atom_site_label
 _atom_site_symmetry_multiplicity
 _atom_site_fract_x
 _atom_site_fract_y
 _atom_site_fract_z
 _atom_site_occupancy
  Th  Th0  1  0.72636610  0.28133032  0.16927860  1
  Th  Th1  1  0.27363390  0.71866968  0.83072140  1
  Th  Th2  1  0.30558991  0.22330787  0.22104586  1
  Th  Th3  1  0.69441009  0.77669213  0.77895414  1
  Se  Se4  1  0.77412018  0.51288560  0.06583101  1
  Se  Se5  1  0.22587982  0.48711440  0.93416899  1
  Se  Se6  1  0.49778691  0.06299521  0.15005482  1
  Se  Se7  1  0.50221309  0.93700479  0.84994518  1
  Se  Se8  1  0.46688666  0.43307412  0.14786065  1
  Se  Se9  1  0.53311334  0.56692588  0.85213935  1
  Se  Se10  1  0.03067725  0.37840050  0.17142613  1
  Se  Se11  1  0.96932275  0.62159950  0.82857387  1
  Se  Se12  1  0.79549245  0.11965794  0.03660205  1
  Se  Se13  1  0.20450755  0.88034206  0.96339795  1
  Se  Se14  1  0.87501698  0.08098695  0.28284331  1
  Se  Se15  1  0.12498302  0.91901305  0.71715669  1
  Se  Se16  1  0.21275579  0.22373124  0.37485899  1
  Se  Se17  1  0.78724421  0.77626876  0.62514101  1
  Se  Se18  1  0.60934266  0.27151619  0.32584879  1
  Se  Se19  1  0.39065734  0.72848381  0.67415121  1
  Se  Se20  1  0.51250459  0.24585129  0.98667386  1
  Se  Se21  1  0.48749541  0.75414871  0.01332614  1
  Se  Se22  1  0.85272328  0.44550823  0.31744258  1
  Se  Se23  1  0.14727672  0.55449177  0.68255742  1
  Se  Se24  1  0.12383977  0.99001728  0.17439652  1
  Se  Se25  1  0.87616023  0.00998272  0.82560348  1
  Se  Se26  1  0.13631569  0.23082197  0.03277080  1
  Se  Se27  1  0.86368431  0.76917803  0.96722920  1
  Se  Se28  1  0.38842317  0.99665375  0.33243322  1
  Se  Se29  1  0.61157683  0.00334625  0.66756678  1
  Se  Se30  1  0.07285683  0.70057851  0.27432447  1
  Se  Se31  1  0.92714317  0.29942149  0.72567553  1
  Se  Se32  1  0.78514480  0.03453130  0.47802465  1
  Se  Se33  1  0.21485520  0.96546870  0.52197535  1
  Se  Se34  1  0.60847565  0.76874278  0.27854887  1
  Se  Se35  1  0.39152435  0.23125722  0.72145113  1
  Se  Se36  1  0.25253416  0.51345388  0.49648069  1
  Se  Se37  1  0.74746584  0.48654612  0.50351931  1
  Se  Se38  1  0.37379512  0.48062150  0.30847976  1
  Se  Se39  1  0.62620488  0.51937850  0.69152024  1
  P  P40  1  0.03568572  0.50121287  0.28199732  1
  P  P41  1  0.96431428  0.49878713  0.71800268  1
  P  P42  1  0.72043940  0.08720006  0.34966197  1
  P  P43  1  0.27956060  0.91279994  0.65033803  1
  P  P44  1  0.22452666  0.43057862  0.37610932  1
  P  P45  1  0.77547334  0.56942138  0.62389068  1
  P  P46  1  0.57123940  0.57502537  0.99085148  1
  P  P47  1  0.42876060  0.42497463  0.00914852  1
  P  P48  1  0.01075479  0.07173783  0.05350103  1
  P  P49  1  0.98924521  0.92826217  0.94649897  1
  P  P50  1  0.55054799  0.96119103  0.27456948  1
  P  P51  1  0.44945201  0.03880897  0.72543052  1
  K  K52  1  0.79485869  0.83075120  0.14885007  1
  K  K53  1  0.20514131  0.16924880  0.85114993  1
  K  K54  1  0.94966016  0.73712467  0.45355108  1
  K  K55  1  0.05033984  0.26287533  0.54644892  1
  K  K56  1  0.52804152  0.25757568  0.53351090  1
  K  K57  1  0.47195848  0.74242432  0.46648910  1
  K  K58  1  0.73983973  0.30760002  0.86132666  1
  K  K59  1  0.26016027  0.69239998  0.13867334  1
