# generated using pymatgen
data_FeH12C2(N5O3)2
_symmetry_space_group_name_H-M   'P 1'
_cell_length_a   6.36577348
_cell_length_b   7.25044532
_cell_length_c   7.84348570
_cell_angle_alpha   75.33540595
_cell_angle_beta   73.30347513
_cell_angle_gamma   67.99626162
_symmetry_Int_Tables_number   1
_chemical_formula_structural   FeH12C2(N5O3)2
_chemical_formula_sum   'Fe1 H12 C2 N10 O6'
_cell_volume   317.14826133
_cell_formula_units_Z   1
loop_
 _symmetry_equiv_pos_site_id
 _symmetry_equiv_pos_as_xyz
  1  'x, y, z'
loop_
 _atom_site_type_symbol
 _atom_site_label
 _atom_site_symmetry_multiplicity
 _atom_site_fract_x
 _atom_site_fract_y
 _atom_site_fract_z
 _atom_site_occupancy
  Fe  Fe0  1  -0.00000000  -0.00000000  0.00000000  1
  H  H1  1  0.57542825  0.16027039  0.16926401  1
  H  H2  1  0.42457175  0.83972961  0.83073599  1
  H  H3  1  0.66945474  0.34454428  0.10492394  1
  H  H4  1  0.33054526  0.65545572  0.89507606  1
  H  H5  1  0.16188302  0.20214328  0.16967566  1
  H  H6  1  0.83811698  0.79785672  0.83032434  1
  H  H7  1  0.71765697  0.47848374  0.30427942  1
  H  H8  1  0.28234303  0.52151626  0.69572058  1
  H  H9  1  0.22602449  0.28690895  0.95752998  1
  H  H10  1  0.77397551  0.71309105  0.04247002  1
  H  H11  1  0.48084396  0.61764243  0.23918674  1
  H  H12  1  0.51915604  0.38235757  0.76081326  1
  C  C13  1  0.20083854  0.12314059  0.55966473  1
  C  C14  1  0.79916146  0.87685941  0.44033527  1
  N  N15  1  0.10498992  0.68383068  0.53108565  1
  N  N16  1  0.89501008  0.31616932  0.46891435  1
  N  N17  1  0.11998816  0.22556114  0.40921309  1
  N  N18  1  0.88001184  0.77443886  0.59078691  1
  N  N19  1  0.02720593  0.14882789  0.70884203  1
  N  N20  1  0.97279407  0.85117211  0.29115797  1
  N  N21  1  0.16172516  0.72944209  0.35167536  1
  N  N22  1  0.83827484  0.27055791  0.64832464  1
  N  N23  1  0.42529553  0.00508478  0.57464181  1
  N  N24  1  0.57470447  0.99491522  0.42535819  1
  O  O25  1  0.64798835  0.54557761  0.19623496  1
  O  O26  1  0.35201165  0.45442239  0.80376504  1
  O  O27  1  0.67064456  0.22256349  0.06565492  1
  O  O28  1  0.32935544  0.77743651  0.93434508  1
  O  O29  1  0.15845462  0.18864361  0.04811937  1
  O  O30  1  0.84154538  0.81135639  0.95188063  1
