# generated using pymatgen
data_Eu(TmSe2)2
_symmetry_space_group_name_H-M   'P 1'
_cell_length_a   4.08546932
_cell_length_b   12.45913174
_cell_length_c   14.78588002
_cell_angle_alpha   90.00000000
_cell_angle_beta   90.00000000
_cell_angle_gamma   90.00000000
_symmetry_Int_Tables_number   1
_chemical_formula_structural   Eu(TmSe2)2
_chemical_formula_sum   'Eu4 Tm8 Se16'
_cell_volume   752.62200031
_cell_formula_units_Z   4
loop_
 _symmetry_equiv_pos_site_id
 _symmetry_equiv_pos_as_xyz
  1  'x, y, z'
loop_
 _atom_site_type_symbol
 _atom_site_label
 _atom_site_symmetry_multiplicity
 _atom_site_fract_x
 _atom_site_fract_y
 _atom_site_fract_z
 _atom_site_occupancy
  Eu  Eu0  1  0.75000000  0.24032676  0.33430484  1
  Eu  Eu1  1  0.25000000  0.75967324  0.66569516  1
  Eu  Eu2  1  0.75000000  0.74032676  0.16569516  1
  Eu  Eu3  1  0.25000000  0.25967324  0.83430484  1
  Tm  Tm4  1  0.75000000  0.58278486  0.90236230  1
  Tm  Tm5  1  0.25000000  0.41721514  0.09763770  1
  Tm  Tm6  1  0.75000000  0.08278486  0.59763770  1
  Tm  Tm7  1  0.25000000  0.91721514  0.40236230  1
  Tm  Tm8  1  0.75000000  0.56250454  0.38922557  1
  Tm  Tm9  1  0.25000000  0.43749546  0.61077443  1
  Tm  Tm10  1  0.75000000  0.06250454  0.11077443  1
  Tm  Tm11  1  0.25000000  0.93749546  0.88922557  1
  Se  Se12  1  0.75000000  0.79433363  0.82754406  1
  Se  Se13  1  0.25000000  0.20566637  0.17245594  1
  Se  Se14  1  0.75000000  0.29433363  0.67245594  1
  Se  Se15  1  0.25000000  0.70566637  0.32754406  1
  Se  Se16  1  0.75000000  0.86948351  0.53094894  1
  Se  Se17  1  0.25000000  0.13051649  0.46905106  1
  Se  Se18  1  0.75000000  0.36948351  0.96905106  1
  Se  Se19  1  0.25000000  0.63051649  0.03094894  1
  Se  Se20  1  0.75000000  0.47334585  0.21559329  1
  Se  Se21  1  0.25000000  0.52665415  0.78440671  1
  Se  Se22  1  0.75000000  0.97334585  0.28440671  1
  Se  Se23  1  0.25000000  0.02665415  0.71559329  1
  Se  Se24  1  0.75000000  0.59144372  0.57775838  1
  Se  Se25  1  0.25000000  0.40855628  0.42224162  1
  Se  Se26  1  0.75000000  0.09144372  0.92224162  1
  Se  Se27  1  0.25000000  0.90855628  0.07775838  1
