# generated using pymatgen
data_CoSeO5
_symmetry_space_group_name_H-M   'P 1'
_cell_length_a   5.44072771
_cell_length_b   5.44072771
_cell_length_c   7.52069637
_cell_angle_alpha   109.25374218
_cell_angle_beta   109.25374218
_cell_angle_gamma   102.18220880
_symmetry_Int_Tables_number   1
_chemical_formula_structural   CoSeO5
_chemical_formula_sum   'Co2 Se2 O10'
_cell_volume   185.20732189
_cell_formula_units_Z   2
loop_
 _symmetry_equiv_pos_site_id
 _symmetry_equiv_pos_as_xyz
  1  'x, y, z'
loop_
 _atom_site_type_symbol
 _atom_site_label
 _atom_site_symmetry_multiplicity
 _atom_site_fract_x
 _atom_site_fract_y
 _atom_site_fract_z
 _atom_site_occupancy
  Co  Co0  1  0.50000000  0.00000000  0.00000000  1
  Co  Co1  1  0.00000000  0.50000000  0.50000000  1
  Se  Se2  1  0.92189069  0.07810931  0.75000000  1
  Se  Se3  1  0.07810931  0.92189069  0.25000000  1
  O  O4  1  0.78996439  0.17758863  0.92348943  1
  O  O5  1  0.21003561  0.82241137  0.07651057  1
  O  O6  1  0.82241137  0.21003561  0.57651057  1
  O  O7  1  0.17758863  0.78996439  0.42348943  1
  O  O8  1  0.30180124  0.69819876  0.75000000  1
  O  O9  1  0.69819876  0.30180124  0.25000000  1
  O  O10  1  0.27191809  0.21113997  0.88653008  1
  O  O11  1  0.72808191  0.78886003  0.11346992  1
  O  O12  1  0.78886003  0.72808191  0.61346992  1
  O  O13  1  0.21113997  0.27191809  0.38653008  1
