# generated using pymatgen
data_KGdTe4
_symmetry_space_group_name_H-M   'P 1'
_cell_length_a   6.85935370
_cell_length_b   6.85935370
_cell_length_c   8.94798419
_cell_angle_alpha   90.00000000
_cell_angle_beta   90.00000000
_cell_angle_gamma   90.00000000
_symmetry_Int_Tables_number   1
_chemical_formula_structural   KGdTe4
_chemical_formula_sum   'K2 Gd2 Te8'
_cell_volume   421.00921664
_cell_formula_units_Z   2
loop_
 _symmetry_equiv_pos_site_id
 _symmetry_equiv_pos_as_xyz
  1  'x, y, z'
loop_
 _atom_site_type_symbol
 _atom_site_label
 _atom_site_symmetry_multiplicity
 _atom_site_fract_x
 _atom_site_fract_y
 _atom_site_fract_z
 _atom_site_occupancy
  Gd  Gd0  1  0.25000000  0.25000000  0.50000000  1
  Gd  Gd1  1  0.75000000  0.75000000  0.50000000  1
  Te  Te2  1  0.60349480  0.10349480  0.28929865  1
  Te  Te3  1  0.39650520  0.60349480  0.28929865  1
  Te  Te4  1  0.10349480  0.89650520  0.28929865  1
  Te  Te5  1  0.60349480  0.39650520  0.71070135  1
  Te  Te6  1  0.89650520  0.10349480  0.71070135  1
  Te  Te7  1  0.89650520  0.39650520  0.28929865  1
  Te  Te8  1  0.10349480  0.60349480  0.71070135  1
  Te  Te9  1  0.39650520  0.89650520  0.71070135  1
  K  K10  1  0.25000000  0.25000000  0.00000000  1
  K  K11  1  0.75000000  0.75000000  0.00000000  1
