# generated using pymatgen
data_Ni3(BiS)2
_symmetry_space_group_name_H-M   'P 1'
_cell_length_a   6.85578048
_cell_length_b   6.85389086
_cell_length_c   7.05035232
_cell_angle_alpha   111.22714617
_cell_angle_beta   109.14688816
_cell_angle_gamma   106.78880598
_symmetry_Int_Tables_number   1
_chemical_formula_structural   Ni3(BiS)2
_chemical_formula_sum   'Ni6 Bi4 S4'
_cell_volume   258.59423408
_cell_formula_units_Z   2
loop_
 _symmetry_equiv_pos_site_id
 _symmetry_equiv_pos_as_xyz
  1  'x, y, z'
loop_
 _atom_site_type_symbol
 _atom_site_label
 _atom_site_symmetry_multiplicity
 _atom_site_fract_x
 _atom_site_fract_y
 _atom_site_fract_z
 _atom_site_occupancy
  Ni  Ni0  1  0.25520219  1.01485555  0.26964386  1
  Ni  Ni1  1  0.50000000  0.00000000  0.00000000  1
  Ni  Ni2  1  0.25518601  0.25517093  1.00031306  1
  Ni  Ni3  1  0.74481399  0.74482907  -0.00031306  1
  Ni  Ni4  1  0.74479781  -0.01485555  0.73035614  1
  Ni  Ni5  1  0.00000000  0.50000000  0.00000000  1
  Bi  Bi6  1  0.98797698  0.25164075  0.24003508  1
  Bi  Bi7  1  0.01202302  0.74835925  0.75996492  1
  Bi  Bi8  1  0.49846549  0.74912173  0.24791460  1
  Bi  Bi9  1  0.50153451  0.25087827  0.75208540  1
  S  S10  1  0.53371498  0.29097672  0.29247651  1
  S  S11  1  1.00150932  0.75904472  0.29228758  1
  S  S12  1  0.46628502  0.70902328  0.70752349  1
  S  S13  1  -0.00150932  0.24095528  0.70771242  1
