# generated using pymatgen
data_Ba3Lu2Zn5O11
_symmetry_space_group_name_H-M   'P 1'
_cell_length_a   9.62934111
_cell_length_b   9.62934084
_cell_length_c   9.62934131
_cell_angle_alpha   60.00000200
_cell_angle_beta   60.00000290
_cell_angle_gamma   60.00000098
_symmetry_Int_Tables_number   1
_chemical_formula_structural   Ba3Lu2Zn5O11
_chemical_formula_sum   'Ba6 Lu4 Zn10 O22'
_cell_volume   631.35661134
_cell_formula_units_Z   2
loop_
 _symmetry_equiv_pos_site_id
 _symmetry_equiv_pos_as_xyz
  1  'x, y, z'
loop_
 _atom_site_type_symbol
 _atom_site_label
 _atom_site_symmetry_multiplicity
 _atom_site_fract_x
 _atom_site_fract_y
 _atom_site_fract_z
 _atom_site_occupancy
  Ba  Ba0  1  0.29359955  0.70640045  0.29359955  1
  Ba  Ba1  1  0.29359955  0.70640045  0.70640045  1
  Ba  Ba2  1  0.70640045  0.29359955  0.29359955  1
  Ba  Ba3  1  0.70640045  0.29359955  0.70640045  1
  Ba  Ba4  1  0.70640045  0.70640045  0.29359955  1
  Ba  Ba5  1  0.29359955  0.29359955  0.70640045  1
  Lu  Lu6  1  0.83561975  0.83561975  0.49314074  1
  Lu  Lu7  1  0.49314074  0.83561975  0.83561975  1
  Lu  Lu8  1  0.83561975  0.83561975  0.83561975  1
  Lu  Lu9  1  0.83561975  0.49314074  0.83561975  1
  Zn  Zn10  1  0.08245622  0.41754378  0.41754378  1
  Zn  Zn11  1  0.08366266  0.08366266  0.74901201  1
  Zn  Zn12  1  0.41754378  0.08245622  0.41754378  1
  Zn  Zn13  1  0.08366266  0.74901201  0.08366266  1
  Zn  Zn14  1  0.41754378  0.41754378  0.08245622  1
  Zn  Zn15  1  0.08366266  0.08366266  0.08366266  1
  Zn  Zn16  1  0.08245622  0.41754378  0.08245622  1
  Zn  Zn17  1  0.74901201  0.08366266  0.08366266  1
  Zn  Zn18  1  0.41754378  0.08245622  0.08245622  1
  Zn  Zn19  1  0.08245622  0.08245622  0.41754378  1
  O  O20  1  0.99809576  0.99809576  0.33354104  1
  O  O21  1  0.99809576  0.67026745  0.33354104  1
  O  O22  1  0.67085690  0.67085690  0.98742930  1
  O  O23  1  0.34191505  0.34191505  0.97425484  1
  O  O24  1  0.99809576  0.33354104  0.67026745  1
  O  O25  1  0.67026745  0.99809576  0.33354104  1
  O  O26  1  0.34191505  0.97425484  0.34191505  1
  O  O27  1  0.99809576  0.33354104  0.99809576  1
  O  O28  1  0.33354104  0.99809576  0.99809576  1
  O  O29  1  0.67026745  0.99809576  0.99809576  1
  O  O30  1  0.97425484  0.34191505  0.34191505  1
  O  O31  1  0.00000000  0.00000000  0.00000000  1
  O  O32  1  0.67085690  0.67085690  0.67085690  1
  O  O33  1  0.99809576  0.67026745  0.99809576  1
  O  O34  1  0.67085690  0.98742930  0.67085690  1
  O  O35  1  0.98742930  0.67085690  0.67085690  1
  O  O36  1  0.33354104  0.99809576  0.67026745  1
  O  O37  1  0.33354104  0.67026745  0.99809576  1
  O  O38  1  0.34191505  0.34191505  0.34191505  1
  O  O39  1  0.67026745  0.33354104  0.99809576  1
  O  O40  1  0.50000000  0.50000000  0.50000000  1
  O  O41  1  0.99809576  0.99809576  0.67026745  1
