# generated using pymatgen
data_K2Co(PO3)4
_symmetry_space_group_name_H-M   'P 1'
_cell_length_a   7.77578323
_cell_length_b   8.50741268
_cell_length_c   8.50741170
_cell_angle_alpha   97.02200317
_cell_angle_beta   98.43013453
_cell_angle_gamma   98.43013707
_symmetry_Int_Tables_number   1
_chemical_formula_structural   K2Co(PO3)4
_chemical_formula_sum   'K4 Co2 P8 O24'
_cell_volume   544.71077366
_cell_formula_units_Z   2
loop_
 _symmetry_equiv_pos_site_id
 _symmetry_equiv_pos_as_xyz
  1  'x, y, z'
loop_
 _atom_site_type_symbol
 _atom_site_label
 _atom_site_symmetry_multiplicity
 _atom_site_fract_x
 _atom_site_fract_y
 _atom_site_fract_z
 _atom_site_occupancy
  Co  Co0  1  0.25050009  0.84594598  0.15330111  1
  Co  Co1  1  0.75050009  0.15330111  0.84594598  1
  K  K2  1  0.92010820  0.49296666  0.24138582  1
  K  K3  1  0.42010820  0.24138582  0.49296666  1
  K  K4  1  0.08427277  0.52965667  0.79723015  1
  K  K5  1  0.58427277  0.79723015  0.52965667  1
  P  P6  1  0.16508778  0.18239491  0.03009709  1
  P  P7  1  0.66508778  0.03009709  0.18239491  1
  P  P8  1  0.42583932  0.49537151  0.17181797  1
  P  P9  1  0.92583932  0.17181797  0.49537151  1
  P  P10  1  0.58076269  0.49315780  0.86756265  1
  P  P11  1  0.08076269  0.86756265  0.49315780  1
  P  P12  1  0.82027502  0.81070872  0.96462093  1
  P  P13  1  0.32027502  0.96462093  0.81070872  1
  O  O14  1  0.52145352  0.50884363  0.33977151  1
  O  O15  1  0.02145352  0.33977151  0.50884363  1
  O  O16  1  0.29333688  0.60266086  0.12975315  1
  O  O17  1  0.79333688  0.12975315  0.60266086  1
  O  O18  1  0.33409910  0.31030566  0.12007948  1
  O  O19  1  0.83409910  0.12007948  0.31030566  1
  O  O20  1  0.57820128  0.50822007  0.05932501  1
  O  O21  1  0.07820128  0.05932501  0.50822007  1
  O  O22  1  0.71513259  0.38765919  0.83279364  1
  O  O23  1  0.21513259  0.83279364  0.38765919  1
  O  O24  1  0.40230746  0.45756884  0.76738604  1
  O  O25  1  0.90230746  0.76738604  0.45756884  1
  O  O26  1  0.66709368  0.67580683  0.85300248  1
  O  O27  1  0.16709368  0.85300248  0.67580683  1
  O  O28  1  0.97230546  0.73129682  0.02686272  1
  O  O29  1  0.47230546  0.02686272  0.73129682  1
  O  O30  1  0.84495800  0.94055374  0.86143854  1
  O  O31  1  0.34495800  0.86143854  0.94055374  1
  O  O32  1  0.72870379  0.86580695  0.11583492  1
  O  O33  1  0.22870379  0.11583492  0.86580695  1
  O  O34  1  0.01421619  0.26896463  0.98224660  1
  O  O35  1  0.51421619  0.98224660  0.26896463  1
  O  O36  1  0.14694618  0.05623397  0.13836276  1
  O  O37  1  0.64694618  0.13836276  0.05623397  1
