# generated using pymatgen
data_CaSiBHO5
_symmetry_space_group_name_H-M   'P 1'
_cell_length_a   4.90241752
_cell_length_b   7.70310613
_cell_length_c   9.71694450
_cell_angle_alpha   90.00000000
_cell_angle_beta   90.21982053
_cell_angle_gamma   90.00000000
_symmetry_Int_Tables_number   1
_chemical_formula_structural   CaSiBHO5
_chemical_formula_sum   'Ca4 Si4 B4 H4 O20'
_cell_volume   366.94646102
_cell_formula_units_Z   4
loop_
 _symmetry_equiv_pos_site_id
 _symmetry_equiv_pos_as_xyz
  1  'x, y, z'
loop_
 _atom_site_type_symbol
 _atom_site_label
 _atom_site_symmetry_multiplicity
 _atom_site_fract_x
 _atom_site_fract_y
 _atom_site_fract_z
 _atom_site_occupancy
  Ca  Ca0  1  0.99072972  0.10301734  0.33709384  1
  Ca  Ca1  1  0.00927028  0.89698266  0.66290616  1
  Ca  Ca2  1  0.99072972  0.39698266  0.83709384  1
  Ca  Ca3  1  0.00927028  0.60301734  0.16290616  1
  Si  Si4  1  0.53247966  0.73555356  0.91566935  1
  Si  Si5  1  0.53247966  0.76444644  0.41566935  1
  Si  Si6  1  0.46752034  0.23555356  0.58433065  1
  Si  Si7  1  0.46752034  0.26444644  0.08433065  1
  B  B8  1  0.43251030  0.90923698  0.15961458  1
  B  B9  1  0.56748970  0.09076302  0.84038542  1
  B  B10  1  0.56748970  0.40923698  0.34038542  1
  B  B11  1  0.43251030  0.59076302  0.65961458  1
  H  H12  1  0.19317283  0.04288334  0.92364600  1
  H  H13  1  0.80682717  0.54288334  0.57635400  1
  H  H14  1  0.80682717  0.95711666  0.07635400  1
  H  H15  1  0.19317283  0.45711666  0.42364600  1
  O  O16  1  0.73930636  0.91229176  0.16433462  1
  O  O17  1  0.76169412  0.89916189  0.46278321  1
  O  O18  1  0.66882078  0.29998690  0.45662963  1
  O  O19  1  0.68464300  0.91425816  0.85433377  1
  O  O20  1  0.73930636  0.58770824  0.66433462  1
  O  O21  1  0.67308176  0.33429861  0.21025809  1
  O  O22  1  0.76169412  0.60083811  0.96278321  1
  O  O23  1  0.31535700  0.41425816  0.64566623  1
  O  O24  1  0.26069364  0.08770824  0.83566538  1
  O  O25  1  0.23830588  0.39916189  0.03721679  1
  O  O26  1  0.31535700  0.08574184  0.14566623  1
  O  O27  1  0.32691824  0.83429861  0.28974191  1
  O  O28  1  0.23830588  0.10083811  0.53721679  1
  O  O29  1  0.68464300  0.58574184  0.35433377  1
  O  O30  1  0.33117922  0.79998690  0.04337037  1
  O  O31  1  0.26069364  0.41229176  0.33566538  1
  O  O32  1  0.33117922  0.70001310  0.54337037  1
  O  O33  1  0.66882078  0.20001310  0.95662963  1
  O  O34  1  0.67308176  0.16570139  0.71025809  1
  O  O35  1  0.32691824  0.66570139  0.78974191  1
