# generated using pymatgen
data_Tm5Sb3
_symmetry_space_group_name_H-M   'P 1'
_cell_length_a   8.05490800
_cell_length_b   9.19151964
_cell_length_c   11.69273544
_cell_angle_alpha   90.00000000
_cell_angle_beta   90.00000000
_cell_angle_gamma   90.00000000
_symmetry_Int_Tables_number   1
_chemical_formula_structural   Tm5Sb3
_chemical_formula_sum   'Tm20 Sb12'
_cell_volume   865.69324234
_cell_formula_units_Z   4
loop_
 _symmetry_equiv_pos_site_id
 _symmetry_equiv_pos_as_xyz
  1  'x, y, z'
loop_
 _atom_site_type_symbol
 _atom_site_label
 _atom_site_symmetry_multiplicity
 _atom_site_fract_x
 _atom_site_fract_y
 _atom_site_fract_z
 _atom_site_occupancy
  Tm  Tm0  1  0.80886334  0.94082464  0.93371709  1
  Tm  Tm1  1  0.30886334  0.05917536  0.56628291  1
  Tm  Tm2  1  0.19113666  0.44082464  0.06628291  1
  Tm  Tm3  1  0.69113666  0.55917536  0.43371709  1
  Tm  Tm4  1  0.19113666  0.05917536  0.06628291  1
  Tm  Tm5  1  0.69113666  0.94082464  0.43371709  1
  Tm  Tm6  1  0.80886334  0.55917536  0.93371709  1
  Tm  Tm7  1  0.30886334  0.44082464  0.56628291  1
  Tm  Tm8  1  0.52456662  0.25000000  0.00483258  1
  Tm  Tm9  1  0.02456662  0.75000000  0.49516742  1
  Tm  Tm10  1  0.47543338  0.75000000  0.99516742  1
  Tm  Tm11  1  0.97543338  0.25000000  0.50483258  1
  Tm  Tm12  1  0.17486592  0.75000000  0.77134465  1
  Tm  Tm13  1  0.67486592  0.25000000  0.72865535  1
  Tm  Tm14  1  0.82513408  0.25000000  0.22865535  1
  Tm  Tm15  1  0.32513408  0.75000000  0.27134465  1
  Tm  Tm16  1  0.65680486  0.75000000  0.70906153  1
  Tm  Tm17  1  0.15680486  0.25000000  0.79093847  1
  Tm  Tm18  1  0.34319514  0.25000000  0.29093847  1
  Tm  Tm19  1  0.84319514  0.75000000  0.20906153  1
  Sb  Sb20  1  0.93637878  0.99079093  0.67447294  1
  Sb  Sb21  1  0.43637878  0.00920907  0.82552706  1
  Sb  Sb22  1  0.06362122  0.49079093  0.32552706  1
  Sb  Sb23  1  0.56362122  0.50920907  0.17447294  1
  Sb  Sb24  1  0.06362122  0.00920907  0.32552706  1
  Sb  Sb25  1  0.56362122  0.99079093  0.17447294  1
  Sb  Sb26  1  0.93637878  0.50920907  0.67447294  1
  Sb  Sb27  1  0.43637878  0.49079093  0.82552706  1
  Sb  Sb28  1  0.90384875  0.25000000  0.97629550  1
  Sb  Sb29  1  0.40384875  0.75000000  0.52370450  1
  Sb  Sb30  1  0.09615125  0.75000000  0.02370450  1
  Sb  Sb31  1  0.59615125  0.25000000  0.47629550  1
