# generated using pymatgen
data_Mg2BP3(H3O7)2
_symmetry_space_group_name_H-M   'P 1'
_cell_length_a   7.18277317
_cell_length_b   8.75958710
_cell_length_c   16.48038618
_cell_angle_alpha   90.00000000
_cell_angle_beta   90.00000000
_cell_angle_gamma   90.00000000
_symmetry_Int_Tables_number   1
_chemical_formula_structural   Mg2BP3(H3O7)2
_chemical_formula_sum   'Mg8 B4 P12 H24 O56'
_cell_volume   1036.91503401
_cell_formula_units_Z   4
loop_
 _symmetry_equiv_pos_site_id
 _symmetry_equiv_pos_as_xyz
  1  'x, y, z'
loop_
 _atom_site_type_symbol
 _atom_site_label
 _atom_site_symmetry_multiplicity
 _atom_site_fract_x
 _atom_site_fract_y
 _atom_site_fract_z
 _atom_site_occupancy
  Mg  Mg0  1  0.81856323  0.17346108  0.30561029  1
  Mg  Mg1  1  0.17957368  0.30325290  0.20807455  1
  Mg  Mg2  1  0.31856323  0.32653892  0.69438971  1
  Mg  Mg3  1  0.18143677  0.67346108  0.19438971  1
  Mg  Mg4  1  0.67957368  0.19674710  0.79192545  1
  Mg  Mg5  1  0.82042632  0.80325290  0.29192545  1
  Mg  Mg6  1  0.68143677  0.82653892  0.80561029  1
  Mg  Mg7  1  0.32042632  0.69674710  0.70807455  1
  B  B8  1  0.65419823  0.58352219  0.41755980  1
  B  B9  1  0.84580177  0.41647781  0.91755980  1
  B  B10  1  0.34580177  0.08352219  0.08244020  1
  B  B11  1  0.15419823  0.91647781  0.58244020  1
  P  P12  1  0.01289150  0.49603157  0.36164070  1
  P  P13  1  0.51289150  0.00396843  0.63835930  1
  P  P14  1  0.86499793  0.47223213  0.08332724  1
  P  P15  1  0.04885284  1.00102316  0.73478310  1
  P  P16  1  0.63500207  0.52776787  0.58332724  1
  P  P17  1  0.98710850  0.99603157  0.13835930  1
  P  P18  1  0.36499793  0.02776787  0.91667276  1
  P  P19  1  0.45114716  -0.00102316  0.23478310  1
  P  P20  1  0.13500207  0.97223213  0.41667276  1
  P  P21  1  0.54885284  0.49897684  0.26521690  1
  P  P22  1  0.48710850  0.50396843  0.86164070  1
  P  P23  1  0.95114716  0.50102316  0.76521690  1
  H  H24  1  0.68952028  0.10543103  0.46161463  1
  H  H25  1  0.69227193  0.33817908  0.16629069  1
  H  H26  1  0.58746679  0.80633460  0.41804654  1
  H  H27  1  0.26660888  0.77826560  0.04333864  1
  H  H28  1  0.73339112  0.27826560  0.45666136  1
  H  H29  1  0.70334115  0.01291446  0.09163378  1
  H  H30  1  0.31047972  0.60543103  0.03838537  1
  H  H31  1  0.20334115  0.48708554  0.90836622  1
  H  H32  1  0.81047972  0.89456897  0.96161463  1
  H  H33  1  0.29665885  0.51291446  0.40836622  1
  H  H34  1  0.30772807  0.83817908  0.33370931  1
  H  H35  1  0.18952028  0.39456897  0.53838537  1
  H  H36  1  0.79665885  0.98708554  0.59163378  1
  H  H37  1  0.23339112  0.22173440  0.54333864  1
  H  H38  1  0.91253321  0.19366540  0.91804654  1
  H  H39  1  0.80772807  0.66182092  0.66629069  1
  H  H40  1  0.08746679  0.69366540  0.58195346  1
  H  H41  1  0.79121977  0.34330503  0.63236223  1
  H  H42  1  0.41253321  0.30633460  0.08195346  1
  H  H43  1  0.29121977  0.15669497  0.36763777  1
  H  H44  1  0.20878023  0.84330503  0.86763777  1
  H  H45  1  0.76660888  0.72173440  0.95666136  1
  H  H46  1  0.70878023  0.65669497  0.13236223  1
  H  H47  1  0.19227193  0.16182092  0.83370931  1
  O  O48  1  0.76428951  0.63261948  0.07750090  1
  O  O49  1  0.66066193  0.63545934  0.23332589  1
  O  O50  1  0.16771938  0.50169751  0.43065311  1
  O  O51  1  0.83228062  0.00169751  0.06934689  1
  O  O52  1  0.16066193  0.86454066  0.76667411  1
  O  O53  1  0.21503516  0.15186884  0.89670396  1
  O  O54  1  0.33228062  0.49830249  0.93065311  1
  O  O55  1  0.52792234  0.86387005  0.69346977  1
  O  O56  1  0.06266404  0.94070538  0.50323563  1
  O  O57  1  0.02689894  0.34452307  0.31529515  1
  O  O58  1  0.28496484  0.84813116  0.39670396  1
  O  O59  1  0.35306706  0.49058086  0.22633315  1
  O  O60  1  0.52689894  0.15547693  0.68470485  1
  O  O61  1  0.02278092  0.47661319  0.14479145  1
  O  O62  1  0.47310106  0.65547693  0.81529515  1
  O  O63  1  0.26428951  0.86738052  0.92249910  1
  O  O64  1  0.69372316  0.74362749  0.40196238  1
  O  O65  1  0.15364211  0.15355265  0.74698565  1
  O  O66  1  0.79170399  0.81114984  0.92278092  1
  O  O67  1  0.73571049  0.36738052  0.57750090  1
  O  O68  1  0.83933807  0.36454066  0.73332589  1
  O  O69  1  0.43733596  0.05929462  0.00323563  1
  O  O70  1  0.93733596  0.44070538  0.99676437  1
  O  O71  1  0.66976305  0.50435344  0.91300827  1
  O  O72  1  0.47207766  0.36387005  0.80653023  1
  O  O73  1  0.80627684  0.25637251  0.90196238  1
  O  O74  1  0.52278092  0.02338681  0.85520855  1
  O  O75  1  0.66771938  0.99830249  0.56934689  1
  O  O76  1  0.97310106  0.84452307  0.18470485  1
  O  O77  1  0.56266404  0.55929462  0.49676437  1
  O  O78  1  0.29170399  0.68885016  0.07721908  1
  O  O79  1  0.19372316  0.75637251  0.59803762  1
  O  O80  1  0.47721908  0.52338681  0.64479145  1
  O  O81  1  0.02792234  0.63612995  0.30653023  1
  O  O82  1  0.65364211  0.34644735  0.25301435  1
  O  O83  1  0.70829601  0.18885016  0.42278092  1
  O  O84  1  0.34635789  0.84644735  0.24698565  1
  O  O85  1  0.16976305  0.99564656  0.08699173  1
  O  O86  1  0.64693294  0.99058086  0.27366685  1
  O  O87  1  0.51304814  0.52048359  0.35996994  1
  O  O88  1  0.78496484  0.65186884  0.60329604  1
  O  O89  1  0.33933807  0.13545934  0.26667411  1
  O  O90  1  0.71503516  0.34813116  0.10329604  1
  O  O91  1  0.97207766  0.13612995  0.19346977  1
  O  O92  1  0.97721908  0.97661319  0.35520855  1
  O  O93  1  0.48695186  0.02048359  0.14003006  1
  O  O94  1  0.30627684  0.24362749  0.09803762  1
  O  O95  1  0.83023695  0.49564656  0.41300827  1
  O  O96  1  0.14693294  0.50941914  0.72633315  1
  O  O97  1  0.84635789  0.65355265  0.75301435  1
  O  O98  1  0.20829601  0.31114984  0.57721908  1
  O  O99  1  0.98695186  0.47951641  0.85996994  1
  O  O100  1  0.33023695  0.00435344  0.58699173  1
  O  O101  1  0.23571049  0.13261948  0.42249910  1
  O  O102  1  0.01304814  0.97951641  0.64003006  1
  O  O103  1  0.85306706  0.00941914  0.77366685  1
