# generated using pymatgen
data_Rb2CO3
_symmetry_space_group_name_H-M   'P 1'
_cell_length_a   6.03579086
_cell_length_b   7.61849143
_cell_length_c   10.12631738
_cell_angle_alpha   90.00000000
_cell_angle_beta   90.00000000
_cell_angle_gamma   90.00000000
_symmetry_Int_Tables_number   1
_chemical_formula_structural   Rb2CO3
_chemical_formula_sum   'Rb8 C4 O12'
_cell_volume   465.64473992
_cell_formula_units_Z   4
loop_
 _symmetry_equiv_pos_site_id
 _symmetry_equiv_pos_as_xyz
  1  'x, y, z'
loop_
 _atom_site_type_symbol
 _atom_site_label
 _atom_site_symmetry_multiplicity
 _atom_site_fract_x
 _atom_site_fract_y
 _atom_site_fract_z
 _atom_site_occupancy
  Rb  Rb0  1  0.75000000  0.80771478  0.91975687  1
  Rb  Rb1  1  0.25000000  0.69228522  0.41975687  1
  Rb  Rb2  1  0.25000000  0.53548357  0.76982332  1
  Rb  Rb3  1  0.75000000  0.30771478  0.58024313  1
  Rb  Rb4  1  0.75000000  0.96451643  0.26982332  1
  Rb  Rb5  1  0.25000000  0.03548357  0.73017668  1
  Rb  Rb6  1  0.25000000  0.19228522  0.08024313  1
  Rb  Rb7  1  0.75000000  0.46451643  0.23017668  1
  C  C8  1  0.75000000  0.74791167  0.58463565  1
  C  C9  1  0.25000000  0.25208833  0.41536435  1
  C  C10  1  0.25000000  0.75208833  0.08463565  1
  C  C11  1  0.75000000  0.24791167  0.91536435  1
  O  O12  1  0.93756668  0.28170790  0.85639670  1
  O  O13  1  0.06243332  0.21829210  0.35639670  1
  O  O14  1  0.06243332  0.71829210  0.14360330  1
  O  O15  1  0.56243332  0.78170790  0.64360330  1
  O  O16  1  0.75000000  0.17786796  0.03363773  1
  O  O17  1  0.25000000  0.82213204  0.96636227  1
  O  O18  1  0.93756668  0.78170790  0.64360330  1
  O  O19  1  0.75000000  0.67786796  0.46636227  1
  O  O20  1  0.56243332  0.28170790  0.85639670  1
  O  O21  1  0.25000000  0.32213204  0.53363773  1
  O  O22  1  0.43756668  0.71829210  0.14360330  1
  O  O23  1  0.43756668  0.21829210  0.35639670  1
