# generated using pymatgen
data_Ca2Th(Si2O5)4
_symmetry_space_group_name_H-M   'P 1'
_cell_length_a   7.54543455
_cell_length_b   7.54543456
_cell_length_c   9.26560165
_cell_angle_alpha   114.02746634
_cell_angle_beta   114.02746637
_cell_angle_gamma   90.00000185
_symmetry_Int_Tables_number   1
_chemical_formula_structural   Ca2Th(Si2O5)4
_chemical_formula_sum   'Ca2 Th1 Si8 O20'
_cell_volume   431.28677354
_cell_formula_units_Z   1
loop_
 _symmetry_equiv_pos_site_id
 _symmetry_equiv_pos_as_xyz
  1  'x, y, z'
loop_
 _atom_site_type_symbol
 _atom_site_label
 _atom_site_symmetry_multiplicity
 _atom_site_fract_x
 _atom_site_fract_y
 _atom_site_fract_z
 _atom_site_occupancy
  Ca  Ca0  1  0.50000000  0.00000000  0.00000000  1
  Ca  Ca1  1  0.00000000  0.50000000  0.00000000  1
  Th  Th2  1  0.00000000  0.00000000  0.00000000  1
  Si  Si3  1  0.40021045  0.81581764  0.29447641  1
  Si  Si4  1  0.89426596  0.47865878  0.29447641  1
  Si  Si5  1  0.47865878  0.40021045  0.29447641  1
  Si  Si6  1  0.10573404  0.18418236  0.70552359  1
  Si  Si7  1  0.18418236  0.59978955  0.70552359  1
  Si  Si8  1  0.52134122  0.10573404  0.70552359  1
  Si  Si9  1  0.59978955  0.52134122  0.70552359  1
  Si  Si10  1  0.81581764  0.89426596  0.29447641  1
  O  O11  1  0.66385228  0.02595838  0.83892447  1
  O  O12  1  0.45596721  0.95596721  0.50000000  1
  O  O13  1  0.82492781  0.97404162  0.16107553  1
  O  O14  1  0.81296608  0.66385228  0.83892447  1
  O  O15  1  0.37964824  0.57886037  0.25236710  1
  O  O16  1  0.97404162  0.33614772  0.16107553  1
  O  O17  1  0.32649326  0.12728114  0.74763290  1
  O  O18  1  0.62035176  0.32649326  0.74763290  1
  O  O19  1  0.17507219  0.81296608  0.83892447  1
  O  O20  1  0.18703392  0.82492781  0.16107553  1
  O  O21  1  0.12728114  0.42113963  0.74763290  1
  O  O22  1  0.04403279  0.54403279  0.50000000  1
  O  O23  1  0.33614772  0.18703392  0.16107553  1
  O  O24  1  0.54403279  0.45596721  0.50000000  1
  O  O25  1  0.02595838  0.17507219  0.83892447  1
  O  O26  1  0.95596721  0.04403279  0.50000000  1
  O  O27  1  0.87271886  0.67350674  0.25236710  1
  O  O28  1  0.42113963  0.62035176  0.74763290  1
  O  O29  1  0.57886037  0.87271886  0.25236710  1
  O  O30  1  0.67350674  0.37964824  0.25236710  1
