# generated using pymatgen
data_SiO2
_symmetry_space_group_name_H-M   'P 1'
_cell_length_a   5.12824935
_cell_length_b   5.12824942
_cell_length_c   8.37876682
_cell_angle_alpha   90.00000000
_cell_angle_beta   90.00000000
_cell_angle_gamma   120.82162541
_symmetry_Int_Tables_number   1
_chemical_formula_structural   SiO2
_chemical_formula_sum   'Si4 O8'
_cell_volume   189.23153361
_cell_formula_units_Z   4
loop_
 _symmetry_equiv_pos_site_id
 _symmetry_equiv_pos_as_xyz
  1  'x, y, z'
loop_
 _atom_site_type_symbol
 _atom_site_label
 _atom_site_symmetry_multiplicity
 _atom_site_fract_x
 _atom_site_fract_y
 _atom_site_fract_z
 _atom_site_occupancy
  Si  Si0  1  0.33937277  0.66963154  0.06260364  1
  Si  Si1  1  0.66963154  0.33937277  0.56260364  1
  Si  Si2  1  0.33937277  0.66963154  0.43739636  1
  Si  Si3  1  0.66963154  0.33937277  0.93739636  1
  O  O4  1  0.59313275  0.59313275  0.00000000  1
  O  O5  1  0.47134083  0.03074788  0.45935610  1
  O  O6  1  0.58298662  0.26256184  0.75000000  1
  O  O7  1  0.03074788  0.47134083  0.54064390  1
  O  O8  1  0.26256184  0.58298662  0.25000000  1
  O  O9  1  0.03074788  0.47134083  0.95935610  1
  O  O10  1  0.59313275  0.59313275  0.50000000  1
  O  O11  1  0.47134083  0.03074788  0.04064390  1
