# generated using pymatgen
data_SrGeO3
_symmetry_space_group_name_H-M   'P 1'
_cell_length_a   8.77188340
_cell_length_b   10.07480742
_cell_length_c   11.31029466
_cell_angle_alpha   73.90503552
_cell_angle_beta   89.91154151
_cell_angle_gamma   77.90421230
_symmetry_Int_Tables_number   1
_chemical_formula_structural   SrGeO3
_chemical_formula_sum   'Sr12 Ge12 O36'
_cell_volume   937.34478937
_cell_formula_units_Z   12
loop_
 _symmetry_equiv_pos_site_id
 _symmetry_equiv_pos_as_xyz
  1  'x, y, z'
loop_
 _atom_site_type_symbol
 _atom_site_label
 _atom_site_symmetry_multiplicity
 _atom_site_fract_x
 _atom_site_fract_y
 _atom_site_fract_z
 _atom_site_occupancy
  Sr  Sr0  1  0.59842932  0.64980525  0.51431989  1
  Sr  Sr1  1  0.74879374  0.00243115  0.50796102  1
  Sr  Sr2  1  0.91675298  0.35046155  0.33594167  1
  Sr  Sr3  1  0.92230353  0.34202659  0.98703593  1
  Sr  Sr4  1  0.56907073  0.64939763  0.15733403  1
  Sr  Sr5  1  0.40157068  0.35019475  0.48568011  1
  Sr  Sr6  1  0.25189548  0.00222451  0.98998966  1
  Sr  Sr7  1  0.43092927  0.35060237  0.84266597  1
  Sr  Sr8  1  0.25120626  0.99756885  0.49203898  1
  Sr  Sr9  1  0.08324702  0.64953845  0.66405833  1
  Sr  Sr10  1  0.74810452  0.99777549  0.01001034  1
  Sr  Sr11  1  0.07769647  0.65797341  0.01296407  1
  Ge  Ge12  1  0.24443965  0.70523997  0.28908153  1
  Ge  Ge13  1  0.89928835  0.70401927  0.35964643  1
  Ge  Ge14  1  0.74005590  0.70383001  0.86125769  1
  Ge  Ge15  1  0.75556035  0.29476003  0.71091847  1
  Ge  Ge16  1  0.10071165  0.29598073  0.64035357  1
  Ge  Ge17  1  0.60549330  0.29082438  0.21678656  1
  Ge  Ge18  1  0.50315383  0.99522828  0.75061011  1
  Ge  Ge19  1  0.39450670  0.70917562  0.78321344  1
  Ge  Ge20  1  0.25994410  0.29616999  0.13874231  1
  Ge  Ge21  1  0.00284664  0.99357977  0.25151083  1
  Ge  Ge22  1  0.99715336  0.00642023  0.74848917  1
  Ge  Ge23  1  0.49684617  0.00477172  0.24938989  1
  O  O24  1  0.40964811  0.39075538  0.15694743  1
  O  O25  1  0.25674305  0.73943794  0.12920957  1
  O  O26  1  0.73047371  0.39664076  0.14112445  1
  O  O27  1  0.22674558  0.39769105  0.67047426  1
  O  O28  1  0.26952629  0.60335924  0.85887555  1
  O  O29  1  0.81481919  0.12871363  0.67380448  1
  O  O30  1  0.04527138  0.91333769  0.64091567  1
  O  O31  1  0.68500619  0.86849497  0.73938480  1
  O  O32  1  0.09738265  0.60648938  0.35319274  1
  O  O33  1  0.00530008  0.08420283  0.09714799  1
  O  O34  1  0.99469992  0.91579717  0.90285201  1
  O  O35  1  0.45761033  0.08540648  0.59645543  1
  O  O36  1  0.57895405  0.39656069  0.63471833  1
  O  O37  1  0.31499381  0.13150503  0.26061520  1
  O  O38  1  0.74970593  0.73970493  0.00363891  1
  O  O39  1  0.18518081  0.87128637  0.32619552  1
  O  O40  1  0.08043197  0.40296356  0.15435259  1
  O  O41  1  0.37606274  0.87350910  0.82244781  1
  O  O42  1  0.63161419  0.26343488  0.37577652  1
  O  O43  1  0.95472862  0.08666231  0.35908433  1
  O  O44  1  0.91956803  0.59703644  0.84564741  1
  O  O45  1  0.25029407  0.26029507  0.99636109  1
  O  O46  1  0.11766635  0.13200036  0.76148333  1
  O  O47  1  0.86625428  0.73840571  0.50211582  1
  O  O48  1  0.62393726  0.12649090  0.17755219  1
  O  O49  1  0.49611031  0.91397721  0.13991354  1
  O  O50  1  0.90261735  0.39351062  0.64680726  1
  O  O51  1  0.77325442  0.60230895  0.32952574  1
  O  O52  1  0.13374572  0.26159429  0.49788418  1
  O  O53  1  0.36838581  0.73656512  0.62422348  1
  O  O54  1  0.42104595  0.60343931  0.36528167  1
  O  O55  1  0.54238967  0.91459352  0.40354457  1
  O  O56  1  0.59035189  0.60924462  0.84305257  1
  O  O57  1  0.74325695  0.26056206  0.87079043  1
  O  O58  1  0.50388969  0.08602279  0.86008646  1
  O  O59  1  0.88233365  0.86799964  0.23851667  1
