# generated using pymatgen
data_Nb2AgPS10
_symmetry_space_group_name_H-M   'P 1'
_cell_length_a   8.23291393
_cell_length_b   13.31204261
_cell_length_c   13.05949154
_cell_angle_alpha   93.56147548
_cell_angle_beta   90.00000000
_cell_angle_gamma   108.01271533
_symmetry_Int_Tables_number   1
_chemical_formula_structural   Nb2AgPS10
_chemical_formula_sum   'Nb8 Ag4 P4 S40'
_cell_volume   1358.22283514
_cell_formula_units_Z   4
loop_
 _symmetry_equiv_pos_site_id
 _symmetry_equiv_pos_as_xyz
  1  'x, y, z'
loop_
 _atom_site_type_symbol
 _atom_site_label
 _atom_site_symmetry_multiplicity
 _atom_site_fract_x
 _atom_site_fract_y
 _atom_site_fract_z
 _atom_site_occupancy
  Nb  Nb0  1  0.93269158  0.73005754  0.28653502  1
  Nb  Nb1  1  0.18820162  0.27340120  0.50481159  1
  Nb  Nb2  1  0.81179838  0.72659880  0.49518841  1
  Nb  Nb3  1  0.20263404  0.26994246  0.21346498  1
  Nb  Nb4  1  0.06730842  0.26994246  0.71346498  1
  Nb  Nb5  1  0.79736596  0.73005754  0.78653502  1
  Nb  Nb6  1  0.91480042  0.72659880  0.99518841  1
  Nb  Nb7  1  0.08519958  0.27340120  0.00481159  1
  Ag  Ag8  1  0.47141914  0.88543983  0.90438701  1
  Ag  Ag9  1  0.58597931  0.11456017  0.59561299  1
  Ag  Ag10  1  0.52858086  0.11456017  0.09561299  1
  Ag  Ag11  1  0.41402069  0.88543983  0.40438701  1
  P  P12  1  0.72130613  0.18760997  0.86657738  1
  P  P13  1  0.46630384  0.18760997  0.36657738  1
  P  P14  1  0.53369616  0.81239003  0.63342262  1
  P  P15  1  0.27869387  0.81239003  0.13342262  1
  S  S16  1  0.07001342  0.86922212  0.14618131  1
  S  S17  1  0.73999364  0.59027383  0.63226404  1
  S  S18  1  0.21854358  0.70764729  0.00634378  1
  S  S19  1  0.47653687  0.73570330  0.76940962  1
  S  S20  1  0.81867077  0.87203571  0.93036077  1
  S  S21  1  0.14971981  0.40972617  0.86773596  1
  S  S22  1  0.48910371  0.70764729  0.50634378  1
  S  S23  1  0.51420956  0.91663220  0.11457434  1
  S  S24  1  0.34174976  0.40935728  0.09310309  1
  S  S25  1  0.59757736  0.08336780  0.38542566  1
  S  S26  1  0.26000636  0.40972617  0.36773596  1
  S  S27  1  0.93239249  0.59064272  0.40689691  1
  S  S28  1  0.48579044  0.08336780  0.88542566  1
  S  S29  1  0.30524012  0.41676867  0.64144993  1
  S  S30  1  0.18132923  0.12796429  0.06963923  1
  S  S31  1  0.78145642  0.29235271  0.99365622  1
  S  S32  1  0.05336494  0.87203571  0.43036077  1
  S  S33  1  0.29614426  0.31015925  0.85645601  1
  S  S34  1  0.98598501  0.68984075  0.64354399  1
  S  S35  1  0.04779552  0.86852305  0.87044933  1
  S  S36  1  0.17927247  0.13147695  0.62955067  1
  S  S37  1  0.11152855  0.41676867  0.14144993  1
  S  S38  1  0.92998658  0.13077788  0.85381869  1
  S  S39  1  0.95220448  0.13147695  0.12955067  1
  S  S40  1  0.85028019  0.59027383  0.13226404  1
  S  S41  1  0.40242264  0.91663220  0.61457434  1
  S  S42  1  0.88847145  0.58323133  0.85855007  1
  S  S43  1  0.25916644  0.73570330  0.26940962  1
  S  S44  1  0.69475988  0.58323133  0.35855007  1
  S  S45  1  0.74083356  0.26429670  0.73059038  1
  S  S46  1  0.94663506  0.12796429  0.56963923  1
  S  S47  1  0.52346313  0.26429670  0.23059038  1
  S  S48  1  0.01401499  0.31015925  0.35645601  1
  S  S49  1  0.82072753  0.86852305  0.37044933  1
  S  S50  1  0.20079130  0.13077788  0.35381869  1
  S  S51  1  0.79920870  0.86922212  0.64618131  1
  S  S52  1  0.65825024  0.59064272  0.90689691  1
  S  S53  1  0.51089629  0.29235271  0.49365622  1
  S  S54  1  0.06760751  0.40935728  0.59310309  1
  S  S55  1  0.70385574  0.68984075  0.14354399  1
