# generated using pymatgen
data_KGd(PO3)4
_symmetry_space_group_name_H-M   'P 1'
_cell_length_a   7.35857758
_cell_length_b   7.99774755
_cell_length_c   8.52620017
_cell_angle_alpha   90.00000000
_cell_angle_beta   90.00000000
_cell_angle_gamma   91.55080359
_symmetry_Int_Tables_number   1
_chemical_formula_structural   KGd(PO3)4
_chemical_formula_sum   'K2 Gd2 P8 O24'
_cell_volume   501.60053057
_cell_formula_units_Z   2
loop_
 _symmetry_equiv_pos_site_id
 _symmetry_equiv_pos_as_xyz
  1  'x, y, z'
loop_
 _atom_site_type_symbol
 _atom_site_label
 _atom_site_symmetry_multiplicity
 _atom_site_fract_x
 _atom_site_fract_y
 _atom_site_fract_z
 _atom_site_occupancy
  K  K0  1  0.73197709  0.27923486  0.43830385  1
  K  K1  1  0.26802291  0.72076514  0.93830385  1
  Gd  Gd2  1  0.76283331  0.75872658  0.75047298  1
  Gd  Gd3  1  0.23716669  0.24127342  0.25047298  1
  P  P4  1  0.43557853  0.09825559  0.87633787  1
  P  P5  1  0.56442147  0.90174441  0.37633787  1
  P  P6  1  0.38496921  0.59734329  0.50130802  1
  P  P7  1  0.09762244  0.10292348  0.67405435  1
  P  P8  1  0.90237756  0.89707652  0.17405435  1
  P  P9  1  0.99601794  0.38371603  0.90337277  1
  P  P10  1  0.61503079  0.40265671  0.00130802  1
  P  P11  1  0.00398206  0.61628397  0.40337277  1
  O  O12  1  0.97343191  0.07197196  0.20583909  1
  O  O13  1  0.17699891  0.65373223  0.51475411  1
  O  O14  1  0.30790525  0.11983104  0.72450923  1
  O  O15  1  0.69209475  0.88016896  0.22450923  1
  O  O16  1  0.16210293  0.38501433  0.00570535  1
  O  O17  1  0.82300109  0.34626777  0.01475411  1
  O  O18  1  0.46075739  0.72172397  0.36453289  1
  O  O19  1  0.02656809  0.92802804  0.70583909  1
  O  O20  1  0.96727858  0.53711001  0.80557079  1
  O  O21  1  0.08605806  0.17413688  0.51233491  1
  O  O22  1  0.39144430  0.42145229  0.44148372  1
  O  O23  1  0.03272142  0.46288999  0.30557079  1
  O  O24  1  0.56785887  0.96295208  0.84270876  1
  O  O25  1  0.83789707  0.61498567  0.50570535  1
  O  O26  1  0.01322038  0.77978386  0.29406621  1
  O  O27  1  0.52537727  0.35896001  0.15407419  1
  O  O28  1  0.32391684  0.07479401  0.02217091  1
  O  O29  1  0.91394194  0.82586312  0.01233491  1
  O  O30  1  0.43214113  0.03704792  0.34270876  1
  O  O31  1  0.47462273  0.64103999  0.65407419  1
  O  O32  1  0.60855570  0.57854771  0.94148372  1
  O  O33  1  0.53924261  0.27827603  0.86453289  1
  O  O34  1  0.98677962  0.22021614  0.79406621  1
  O  O35  1  0.67608316  0.92520599  0.52217091  1
