# generated using pymatgen
data_Cl(OF)2
_symmetry_space_group_name_H-M   'P 1'
_cell_length_a   5.01062745
_cell_length_b   8.28502867
_cell_length_c   8.28502867
_cell_angle_alpha   105.10600137
_cell_angle_beta   91.53677305
_cell_angle_gamma   91.53677305
_symmetry_Int_Tables_number   1
_chemical_formula_structural   Cl(OF)2
_chemical_formula_sum   'Cl4 O8 F8'
_cell_volume   331.73016957
_cell_formula_units_Z   4
loop_
 _symmetry_equiv_pos_site_id
 _symmetry_equiv_pos_as_xyz
  1  'x, y, z'
loop_
 _atom_site_type_symbol
 _atom_site_label
 _atom_site_symmetry_multiplicity
 _atom_site_fract_x
 _atom_site_fract_y
 _atom_site_fract_z
 _atom_site_occupancy
  Cl  Cl0  1  0.56677492  0.70956521  0.70956521  1
  Cl  Cl1  1  0.43322508  0.29043479  0.29043479  1
  Cl  Cl2  1  -0.00000000  0.79976914  0.20023086  1
  Cl  Cl3  1  -0.00000000  0.20023086  0.79976914  1
  O  O4  1  0.66519982  0.56487430  0.75095446  1
  O  O5  1  0.33480018  0.43512570  0.24904554  1
  O  O6  1  0.33480018  0.24904554  0.43512570  1
  O  O7  1  0.66519982  0.75095446  0.56487430  1
  O  O8  1  0.82117353  0.65763641  0.16926795  1
  O  O9  1  0.17882647  0.34236359  0.83073205  1
  O  O10  1  0.17882647  0.83073205  0.34236359  1
  O  O11  1  0.82117353  0.16926795  0.65763641  1
  F  F12  1  0.77946115  0.35901524  0.35901524  1
  F  F13  1  0.22053885  0.64098476  0.64098476  1
  F  F14  1  0.71978579  0.87963388  0.87963388  1
  F  F15  1  0.28021421  0.12036612  0.12036612  1
  F  F16  1  0.77179868  0.26198565  0.97432447  1
  F  F17  1  0.22820132  0.73801435  0.02567553  1
  F  F18  1  0.22820132  0.02567553  0.73801435  1
  F  F19  1  0.77179868  0.97432447  0.26198565  1
