# generated using pymatgen
data_Rb5H5(OF3)2
_symmetry_space_group_name_H-M   'P 1'
_cell_length_a   7.15076545
_cell_length_b   12.24886036
_cell_length_c   13.67279079
_cell_angle_alpha   90.00000000
_cell_angle_beta   90.00000000
_cell_angle_gamma   90.00000000
_symmetry_Int_Tables_number   1
_chemical_formula_structural   Rb5H5(OF3)2
_chemical_formula_sum   'Rb20 H20 O8 F24'
_cell_volume   1197.58234618
_cell_formula_units_Z   4
loop_
 _symmetry_equiv_pos_site_id
 _symmetry_equiv_pos_as_xyz
  1  'x, y, z'
loop_
 _atom_site_type_symbol
 _atom_site_label
 _atom_site_symmetry_multiplicity
 _atom_site_fract_x
 _atom_site_fract_y
 _atom_site_fract_z
 _atom_site_occupancy
  Rb  Rb0  1  0.61027119  0.65858492  0.01740803  1
  Rb  Rb1  1  0.11027119  0.84141508  0.01740803  1
  Rb  Rb2  1  0.36180095  0.45352887  0.66340878  1
  Rb  Rb3  1  0.13819905  0.54647113  0.16340878  1
  Rb  Rb4  1  0.68482793  0.75000000  0.75000000  1
  Rb  Rb5  1  0.81517207  0.25000000  0.25000000  1
  Rb  Rb6  1  0.88972881  0.34141508  0.51740803  1
  Rb  Rb7  1  0.18482793  0.75000000  0.75000000  1
  Rb  Rb8  1  0.63819905  0.95352887  0.16340878  1
  Rb  Rb9  1  0.88972881  0.15858492  0.98259197  1
  Rb  Rb10  1  0.38972881  0.34141508  0.98259197  1
  Rb  Rb11  1  0.36180095  0.04647113  0.83659122  1
  Rb  Rb12  1  0.63819905  0.54647113  0.33659122  1
  Rb  Rb13  1  0.86180095  0.45352887  0.83659122  1
  Rb  Rb14  1  0.13819905  0.95352887  0.33659122  1
  Rb  Rb15  1  0.61027119  0.84141508  0.48259197  1
  Rb  Rb16  1  0.31517207  0.25000000  0.25000000  1
  Rb  Rb17  1  0.86180095  0.04647113  0.66340878  1
  Rb  Rb18  1  0.38972881  0.15858492  0.51740803  1
  Rb  Rb19  1  0.11027119  0.65858492  0.48259197  1
  H  H20  1  0.82203574  0.56280646  0.59928054  1
  H  H21  1  0.32203574  0.93719354  0.59928054  1
  H  H22  1  0.61362192  0.60854639  0.57032311  1
  H  H23  1  0.82203574  0.93719354  0.90071946  1
  H  H24  1  0.88637808  0.39145361  0.07032311  1
  H  H25  1  0.38637808  0.39145361  0.42967689  1
  H  H26  1  0.67796426  0.06280646  0.40071946  1
  H  H27  1  0.61362192  0.89145361  0.92967689  1
  H  H28  1  0.63489510  0.25000000  0.75000000  1
  H  H29  1  0.17796426  0.06280646  0.09928054  1
  H  H30  1  0.11362192  0.89145361  0.57032311  1
  H  H31  1  0.88637808  0.10854639  0.42967689  1
  H  H32  1  0.36510490  0.75000000  0.25000000  1
  H  H33  1  0.13489510  0.25000000  0.75000000  1
  H  H34  1  0.17796426  0.43719354  0.40071946  1
  H  H35  1  0.32203574  0.56280646  0.90071946  1
  H  H36  1  0.38637808  0.10854639  0.07032311  1
  H  H37  1  0.67796426  0.43719354  0.09928054  1
  H  H38  1  0.86510490  0.75000000  0.25000000  1
  H  H39  1  0.11362192  0.60854639  0.92967689  1
  O  O40  1  0.22344695  0.93586200  0.54643102  1
  O  O41  1  0.72344695  0.56413800  0.54643102  1
  O  O42  1  0.27655305  0.06413800  0.04643102  1
  O  O43  1  0.77655305  0.06413800  0.45356898  1
  O  O44  1  0.27655305  0.43586200  0.45356898  1
  O  O45  1  0.22344695  0.56413800  0.95356898  1
  O  O46  1  0.72344695  0.93586200  0.95356898  1
  O  O47  1  0.77655305  0.43586200  0.04643102  1
  F  F48  1  0.56348809  0.17476066  0.10283356  1
  F  F49  1  0.93651191  0.82523934  0.60283356  1
  F  F50  1  -0.00097788  0.45324613  0.33384297  1
  F  F51  1  0.56348809  0.32523934  0.39716644  1
  F  F52  1  0.86447060  0.76661248  0.33281465  1
  F  F53  1  0.13552940  0.23338752  0.66718535  1
  F  F54  1  0.06348809  0.32523934  0.10283356  1
  F  F55  1  0.86447060  0.73338752  0.16718535  1
  F  F56  1  1.00097788  0.95324613  0.83384297  1
  F  F57  1  0.50097788  0.54675387  0.83384297  1
  F  F58  1  0.36447060  0.76661248  0.16718535  1
  F  F59  1  0.43651191  0.82523934  0.89716644  1
  F  F60  1  0.93651191  0.67476066  0.89716644  1
  F  F61  1  0.06348809  0.17476066  0.39716644  1
  F  F62  1  0.63552940  0.23338752  0.83281465  1
  F  F63  1  0.36447060  0.73338752  0.33281465  1
  F  F64  1  0.49902212  0.45324613  0.16615703  1
  F  F65  1  0.43651191  0.67476066  0.60283356  1
  F  F66  1  0.63552940  0.26661248  0.66718535  1
  F  F67  1  0.49902212  0.04675387  0.33384297  1
  F  F68  1  0.50097788  0.95324613  0.66615703  1
  F  F69  1  1.00097788  0.54675387  0.66615703  1
  F  F70  1  0.13552940  0.26661248  0.83281465  1
  F  F71  1  -0.00097788  0.04675387  0.16615703  1
