# generated using pymatgen
data_ErCuTe2ClO6
_symmetry_space_group_name_H-M   'P 1'
_cell_length_a   5.41876901
_cell_length_b   9.28159448
_cell_length_c   14.95652792
_cell_angle_alpha   90.00000000
_cell_angle_beta   90.00000000
_cell_angle_gamma   99.68281777
_symmetry_Int_Tables_number   1
_chemical_formula_structural   ErCuTe2ClO6
_chemical_formula_sum   'Er4 Cu4 Te8 Cl4 O24'
_cell_volume   741.51944088
_cell_formula_units_Z   4
loop_
 _symmetry_equiv_pos_site_id
 _symmetry_equiv_pos_as_xyz
  1  'x, y, z'
loop_
 _atom_site_type_symbol
 _atom_site_label
 _atom_site_symmetry_multiplicity
 _atom_site_fract_x
 _atom_site_fract_y
 _atom_site_fract_z
 _atom_site_occupancy
  Er  Er0  1  0.25434663  0.02566549  0.41344001  1
  Er  Er1  1  0.74565337  0.47433451  0.91344001  1
  Er  Er2  1  0.74565337  0.97433451  0.58655999  1
  Er  Er3  1  0.25434663  0.52566549  0.08655999  1
  Cu  Cu4  1  0.72767806  0.17405018  0.77554575  1
  Cu  Cu5  1  0.27232194  0.32594982  0.27554575  1
  Cu  Cu6  1  0.72767806  0.67405018  0.72445425  1
  Cu  Cu7  1  0.27232194  0.82594982  0.22445425  1
  Te  Te8  1  0.74525377  0.78117550  0.34800039  1
  Te  Te9  1  0.25474623  0.21882450  0.65199961  1
  Te  Te10  1  0.21994213  0.70557033  0.58723894  1
  Te  Te11  1  0.74525377  0.28117550  0.15199961  1
  Te  Te12  1  0.78005787  0.79442967  0.08723894  1
  Te  Te13  1  0.25474623  0.71882450  0.84800039  1
  Te  Te14  1  0.78005787  0.29442967  0.41276106  1
  Te  Te15  1  0.21994213  0.20557033  0.91276106  1
  Cl  Cl16  1  0.73008802  0.94457034  0.89561135  1
  Cl  Cl17  1  0.26991198  0.05542966  0.10438865  1
  Cl  Cl18  1  0.73008802  0.44457034  0.60438865  1
  Cl  Cl19  1  0.26991198  0.55542966  0.39561135  1
  O  O20  1  0.62700164  0.63358998  0.01754840  1
  O  O21  1  0.96121318  0.79552860  0.63908829  1
  O  O22  1  0.62700164  0.13358998  0.48245160  1
  O  O23  1  0.37299836  0.86641002  0.51754840  1
  O  O24  1  0.46786265  0.77387684  0.67814474  1
  O  O25  1  0.98372331  0.59421378  0.78796894  1
  O  O26  1  0.50194730  0.09858890  0.67463257  1
  O  O27  1  0.50194730  0.59858890  0.82536743  1
  O  O28  1  0.96121318  0.29552860  0.86091171  1
  O  O29  1  0.49805270  0.90141110  0.32536743  1
  O  O30  1  0.98372331  0.09421378  0.71203106  1
  O  O31  1  0.01627669  0.90578622  0.28796894  1
  O  O32  1  0.53213735  0.22612316  0.32185526  1
  O  O33  1  0.53213735  0.72612316  0.17814474  1
  O  O34  1  0.03878682  0.20447140  0.36091171  1
  O  O35  1  0.12195899  0.62619652  0.95619267  1
  O  O36  1  0.03878682  0.70447140  0.13908829  1
  O  O37  1  0.87804101  0.87380348  0.45619267  1
  O  O38  1  0.46786265  0.27387684  0.82185526  1
  O  O39  1  0.12195899  0.12619652  0.54380733  1
  O  O40  1  0.01627669  0.40578622  0.21203106  1
  O  O41  1  0.37299836  0.36641002  0.98245160  1
  O  O42  1  0.87804101  0.37380348  0.04380733  1
  O  O43  1  0.49805270  0.40141110  0.17463257  1
