# generated using pymatgen
data_Na2Sr7Al6F34
_symmetry_space_group_name_H-M   'P 1'
_cell_length_a   7.37441930
_cell_length_b   9.81563613
_cell_length_c   9.81563617
_cell_angle_alpha   68.15814471
_cell_angle_beta   80.62980030
_cell_angle_gamma   80.62980084
_symmetry_Int_Tables_number   1
_chemical_formula_structural   Na2Sr7Al6F34
_chemical_formula_sum   'Na2 Sr7 Al6 F34'
_cell_volume   646.63019091
_cell_formula_units_Z   1
loop_
 _symmetry_equiv_pos_site_id
 _symmetry_equiv_pos_as_xyz
  1  'x, y, z'
loop_
 _atom_site_type_symbol
 _atom_site_label
 _atom_site_symmetry_multiplicity
 _atom_site_fract_x
 _atom_site_fract_y
 _atom_site_fract_z
 _atom_site_occupancy
  Na  Na0  1  0.00000000  0.50000000  0.50000000  1
  Na  Na1  1  0.50000000  0.50000000  0.50000000  1
  Sr  Sr2  1  0.69727631  0.44819502  0.84307301  1
  Sr  Sr3  1  0.88174153  0.26025442  0.26025442  1
  Sr  Sr4  1  0.11825847  0.73974558  0.73974558  1
  Sr  Sr5  1  0.30272369  0.15692699  0.55180498  1
  Sr  Sr6  1  0.69727631  0.84307301  0.44819502  1
  Sr  Sr7  1  0.30272369  0.55180498  0.15692699  1
  Sr  Sr8  1  0.00000000  0.00000000  0.00000000  1
  Al  Al9  1  0.20182092  0.86743282  0.35297906  1
  Al  Al10  1  0.54342577  0.83168686  0.83168686  1
  Al  Al11  1  0.79817908  0.13256718  0.64702094  1
  Al  Al12  1  0.20182092  0.35297906  0.86743282  1
  Al  Al13  1  0.45657423  0.16831314  0.16831314  1
  Al  Al14  1  0.79817908  0.64702094  0.13256718  1
  F  F15  1  0.20503591  0.22162542  0.77810030  1
  F  F16  1  0.62930214  0.01065947  0.77697522  1
  F  F17  1  0.79496409  0.77837458  0.22189970  1
  F  F18  1  0.54209270  0.11404176  0.34800571  1
  F  F19  1  0.18809462  0.96219889  0.48225741  1
  F  F20  1  0.45790730  0.65199429  0.88595824  1
  F  F21  1  0.23710902  0.24586870  0.24586870  1
  F  F22  1  0.76289098  0.75413130  0.75413130  1
  F  F23  1  0.03561682  0.74725626  0.48581662  1
  F  F24  1  0.60864075  0.55520150  0.25562760  1
  F  F25  1  0.62930214  0.77697522  0.01065947  1
  F  F26  1  0.99281900  0.00139375  0.73778892  1
  F  F27  1  0.37069786  0.22302478  0.98934053  1
  F  F28  1  0.96438318  0.25274374  0.51418338  1
  F  F29  1  0.00718100  0.26221108  0.99860625  1
  F  F30  1  0.99281900  0.73778892  0.00139375  1
  F  F31  1  0.18809462  0.48225741  0.96219889  1
  F  F32  1  0.37069786  0.98934053  0.22302478  1
  F  F33  1  0.45790730  0.88595824  0.65199429  1
  F  F34  1  0.39135925  0.74437240  0.44479850  1
  F  F35  1  0.79496409  0.22189970  0.77837458  1
  F  F36  1  0.31648811  0.89868974  0.89868974  1
  F  F37  1  0.81190538  0.03780111  0.51774259  1
  F  F38  1  0.68351189  0.10131026  0.10131026  1
  F  F39  1  0.60864075  0.25562760  0.55520150  1
  F  F40  1  0.00718100  0.99860625  0.26221108  1
  F  F41  1  0.54209270  0.34800571  0.11404176  1
  F  F42  1  0.81190538  0.51774259  0.03780111  1
  F  F43  1  0.96438318  0.51418338  0.25274374  1
  F  F44  1  0.03561682  0.48581662  0.74725626  1
  F  F45  1  0.20503591  0.77810030  0.22162542  1
  F  F46  1  0.39135925  0.44479850  0.74437240  1
  F  F47  1  0.71940041  0.57722234  0.57722234  1
  F  F48  1  0.28059959  0.42277766  0.42277766  1
