# generated using pymatgen
data_Ba17Dy16Zn8Pt4O57
_symmetry_space_group_name_H-M   'P 1'
_cell_length_a   5.77171719
_cell_length_b   16.61413890
_cell_length_c   16.61417506
_cell_angle_alpha   88.27140317
_cell_angle_beta   79.99768069
_cell_angle_gamma   79.99607135
_symmetry_Int_Tables_number   1
_chemical_formula_structural   Ba17Dy16Zn8Pt4O57
_chemical_formula_sum   'Ba17 Dy16 Zn8 Pt4 O57'
_cell_volume   1545.09870393
_cell_formula_units_Z   1
loop_
 _symmetry_equiv_pos_site_id
 _symmetry_equiv_pos_as_xyz
  1  'x, y, z'
loop_
 _atom_site_type_symbol
 _atom_site_label
 _atom_site_symmetry_multiplicity
 _atom_site_fract_x
 _atom_site_fract_y
 _atom_site_fract_z
 _atom_site_occupancy
  Ba  Ba0  1  0.44160695  0.62601685  0.49082992  1
  Ba  Ba1  1  0.88800906  0.38861234  0.83535649  1
  Ba  Ba2  1  0.64951009  0.69226249  0.00877199  1
  Ba  Ba3  1  0.55839305  0.37398315  0.50917008  1
  Ba  Ba4  1  0.73222201  0.45694467  0.07860249  1
  Ba  Ba5  1  0.18918937  0.07860927  0.54306434  1
  Ba  Ba6  1  0.65825472  0.99122631  0.69225785  1
  Ba  Ba7  1  0.34174528  0.00877369  0.30774215  1
  Ba  Ba8  1  0.27663292  0.83535297  0.61137993  1
  Ba  Ba9  1  0.26777799  0.54305533  0.92139751  1
  Ba  Ba10  1  0.81081063  0.92139073  0.45693566  1
  Ba  Ba11  1  0.93237753  0.50917497  0.62600458  1
  Ba  Ba12  1  0.06762247  0.49082503  0.37399542  1
  Ba  Ba13  1  0.35048991  0.30773751  0.99122801  1
  Ba  Ba14  1  0.11199094  0.61138766  0.16464351  1
  Ba  Ba15  1  0.00000000  0.00000000  0.00000000  1
  Ba  Ba16  1  0.72336708  0.16464703  0.38862007  1
  Dy  Dy17  1  0.40023396  0.08812090  0.11135488  1
  Dy  Dy18  1  0.49363572  0.25596525  0.75675085  1
  Dy  Dy19  1  0.04968565  0.27655366  0.62406606  1
  Dy  Dy20  1  0.67378130  0.37594149  0.27655811  1
  Dy  Dy21  1  0.50636428  0.74403475  0.24324915  1
  Dy  Dy22  1  0.59976604  0.91187910  0.88864512  1
  Dy  Dy23  1  0.74959365  0.75675371  0.74403692  1
  Dy  Dy24  1  0.32621870  0.62405851  0.72344189  1
  Dy  Dy25  1  0.17197113  0.77569571  0.88037688  1
  Dy  Dy26  1  0.51164034  0.88863023  0.08812553  1
  Dy  Dy27  1  0.25040635  0.24324629  0.25596308  1
  Dy  Dy28  1  0.05233642  0.11962348  0.77569993  1
  Dy  Dy29  1  0.48835966  0.11136977  0.91187447  1
  Dy  Dy30  1  0.94766358  0.88037652  0.22430007  1
  Dy  Dy31  1  0.82802887  0.22430429  0.11962312  1
  Dy  Dy32  1  0.95031435  0.72344634  0.37593394  1
  Zn  Zn33  1  0.92416218  0.20938158  0.94223680  1
  Zn  Zn34  1  0.86642246  0.05776440  0.20937358  1
  Zn  Zn35  1  0.62084536  0.16686488  0.59150038  1
  Zn  Zn36  1  0.07583782  0.79061842  0.05776320  1
  Zn  Zn37  1  0.13357754  0.94223560  0.79062642  1
  Zn  Zn38  1  0.78767585  0.59150259  0.83312909  1
  Zn  Zn39  1  0.21232415  0.40849741  0.16687091  1
  Zn  Zn40  1  0.37915464  0.83313512  0.40849962  1
  Pt  Pt41  1  0.58292541  0.56144928  0.27282797  1
  Pt  Pt42  1  0.41707459  0.43855072  0.72717203  1
  Pt  Pt43  1  0.14432989  0.27282521  0.43854959  1
  Pt  Pt44  1  0.85567011  0.72717479  0.56145041  1
  O  O45  1  0.00085805  0.31929646  0.17603965  1
  O  O46  1  0.92514567  0.31084136  0.35518159  1
  O  O47  1  0.65962148  0.15515521  0.02427900  1
  O  O48  1  0.49615645  0.68069684  0.82396283  1
  O  O49  1  0.76040076  0.53865192  0.94060805  1
  O  O50  1  0.76882231  0.83917959  0.62312487  1
  O  O51  1  0.92708875  0.85178187  0.79650541  1
  O  O52  1  0.83919637  0.84487146  0.97572348  1
  O  O53  1  0.11126812  0.52061778  0.76755042  1
  O  O54  1  0.67982712  0.82398057  0.31929905  1
  O  O55  1  0.99914195  0.68070354  0.82396035  1
  O  O56  1  0.50384355  0.31930316  0.17603717  1
  O  O57  1  0.05498779  0.38040882  0.50951854  1
  O  O58  1  0.07485433  0.68915864  0.64481841  1
  O  O59  1  0.23117769  0.16082041  0.37687513  1
  O  O60  1  0.77891584  0.79649131  0.14821863  1
  O  O61  1  0.16080363  0.15512854  0.02427652  1
  O  O62  1  0.39194572  0.37688554  0.83918380  1
  O  O63  1  0.57541075  0.14821714  0.20349282  1
  O  O64  1  0.40883926  0.31085733  0.35518567  1
  O  O65  1  0.56460316  0.49047833  0.38040756  1
  O  O66  1  0.94501221  0.61959118  0.49048146  1
  O  O67  1  0.28030596  0.64481749  0.31084481  1
  O  O68  1  0.70094800  0.05938778  0.53864228  1
  O  O69  1  0.71969404  0.35518251  0.68915519  1
  O  O70  1  0.15752637  0.68274715  0.00210975  1
  O  O71  1  0.15958179  0.99788470  0.68275326  1
  O  O72  1  0.88873188  0.47938222  0.23244958  1
  O  O73  1  0.84041821  0.00211530  0.31724674  1
  O  O74  1  0.12114522  0.76755744  0.47938791  1
  O  O75  1  0.76400912  0.64482158  0.31085340  1
  O  O76  1  0.50000000  0.00000000  0.00000000  1
  O  O77  1  0.59116074  0.68914267  0.64481433  1
  O  O78  1  0.22108416  0.20350869  0.85178137  1
  O  O79  1  0.84247363  0.31725285  0.99789025  1
  O  O80  1  0.27640703  0.79649546  0.14821603  1
  O  O81  1  0.39947168  0.47938292  0.23245036  1
  O  O82  1  0.36808640  0.23244720  0.52062540  1
  O  O83  1  0.32017288  0.17601943  0.68070095  1
  O  O84  1  0.60805428  0.62311446  0.16081620  1
  O  O85  1  0.18511020  0.97570838  0.15511975  1
  O  O86  1  0.72359297  0.20350454  0.85178397  1
  O  O87  1  0.63191360  0.76755280  0.47937460  1
  O  O88  1  0.68393762  0.97571476  0.15514941  1
  O  O89  1  0.07291125  0.14821813  0.20349459  1
  O  O90  1  0.23959924  0.46134808  0.05939195  1
  O  O91  1  0.81488980  0.02429162  0.84488025  1
  O  O92  1  0.60052832  0.52061708  0.76754964  1
  O  O93  1  0.17687921  0.82397090  0.31929228  1
  O  O94  1  0.42458925  0.85178286  0.79650718  1
  O  O95  1  0.82312079  0.17602910  0.68070772  1
  O  O96  1  0.31606238  0.02428524  0.84485059  1
  O  O97  1  0.87885478  0.23244256  0.52061209  1
  O  O98  1  0.43539684  0.50952167  0.61959244  1
  O  O99  1  0.23599088  0.35517842  0.68914660  1
  O  O100  1  0.34037852  0.84484479  0.97572100  1
  O  O101  1  0.29905200  0.94061222  0.46135772  1
