# generated using pymatgen
data_CaPO4
_symmetry_space_group_name_H-M   'P 1'
_cell_length_a   6.56909917
_cell_length_b   6.82147576
_cell_length_c   6.96038149
_cell_angle_alpha   90.00000000
_cell_angle_beta   90.00000000
_cell_angle_gamma   104.44832195
_symmetry_Int_Tables_number   1
_chemical_formula_structural   CaPO4
_chemical_formula_sum   'Ca4 P4 O16'
_cell_volume   302.03683371
_cell_formula_units_Z   4
loop_
 _symmetry_equiv_pos_site_id
 _symmetry_equiv_pos_as_xyz
  1  'x, y, z'
loop_
 _atom_site_type_symbol
 _atom_site_label
 _atom_site_symmetry_multiplicity
 _atom_site_fract_x
 _atom_site_fract_y
 _atom_site_fract_z
 _atom_site_occupancy
  Ca  Ca0  1  0.89908060  0.72068735  0.65692441  1
  Ca  Ca1  1  0.10091940  0.27931265  0.34307559  1
  Ca  Ca2  1  0.60091940  0.77931265  0.15692441  1
  Ca  Ca3  1  0.39908060  0.22068735  0.84307559  1
  P  P4  1  0.11113473  0.80421544  0.16197761  1
  P  P5  1  0.88886527  0.19578456  0.83802239  1
  P  P6  1  0.38886527  0.69578456  0.66197761  1
  P  P7  1  0.61113473  0.30421544  0.33802239  1
  O  O8  1  0.20754238  0.62526541  0.21166291  1
  O  O9  1  0.79245762  0.37473459  0.78833709  1
  O  O10  1  0.29245762  0.87473459  0.71166291  1
  O  O11  1  0.70754238  0.12526541  0.28833709  1
  O  O12  1  0.94030118  0.74464661  0.00517408  1
  O  O13  1  0.05969882  0.25535339  0.99482592  1
  O  O14  1  0.55969882  0.75535339  0.50517408  1
  O  O15  1  0.44030118  0.24464661  0.49482592  1
  O  O16  1  0.00938947  0.88311819  0.33631137  1
  O  O17  1  0.99061053  0.11688181  0.66368863  1
  O  O18  1  0.49061053  0.61688181  0.83631137  1
  O  O19  1  0.50938947  0.38311819  0.16368863  1
  O  O20  1  0.30235029  0.97573442  0.09747359  1
  O  O21  1  0.69764971  0.02426558  0.90252641  1
  O  O22  1  0.19764971  0.52426558  0.59747359  1
  O  O23  1  0.80235029  0.47573442  0.40252641  1
