# generated using pymatgen
data_Li2Si3O7
_symmetry_space_group_name_H-M   'P 1'
_cell_length_a   4.92570338
_cell_length_b   6.06204444
_cell_length_c   19.98387179
_cell_angle_alpha   90.00000000
_cell_angle_beta   90.00000000
_cell_angle_gamma   90.00000000
_symmetry_Int_Tables_number   1
_chemical_formula_structural   Li2Si3O7
_chemical_formula_sum   'Li8 Si12 O28'
_cell_volume   596.71507010
_cell_formula_units_Z   4
loop_
 _symmetry_equiv_pos_site_id
 _symmetry_equiv_pos_as_xyz
  1  'x, y, z'
loop_
 _atom_site_type_symbol
 _atom_site_label
 _atom_site_symmetry_multiplicity
 _atom_site_fract_x
 _atom_site_fract_y
 _atom_site_fract_z
 _atom_site_occupancy
  Li  Li0  1  0.05710583  0.35321466  0.04424683  1
  Li  Li1  1  0.94289417  0.64678534  0.95575317  1
  Li  Li2  1  0.44289417  0.35321466  0.95575317  1
  Li  Li3  1  0.44289417  0.35321466  0.54424683  1
  Li  Li4  1  0.55710583  0.64678534  0.04424683  1
  Li  Li5  1  0.05710583  0.35321466  0.45575317  1
  Li  Li6  1  0.55710583  0.64678534  0.45575317  1
  Li  Li7  1  0.94289417  0.64678534  0.54424683  1
  Si  Si8  1  0.94647249  0.14642647  0.60520701  1
  Si  Si9  1  0.92086168  0.35040151  0.75000000  1
  Si  Si10  1  0.44647249  0.85357353  0.60520701  1
  Si  Si11  1  0.57913832  0.35040151  0.25000000  1
  Si  Si12  1  0.07913832  0.64959849  0.25000000  1
  Si  Si13  1  0.05352751  0.85357353  0.10520701  1
  Si  Si14  1  0.44647249  0.85357353  0.89479299  1
  Si  Si15  1  0.55352751  0.14642647  0.39479299  1
  Si  Si16  1  0.55352751  0.14642647  0.10520701  1
  Si  Si17  1  0.94647249  0.14642647  0.89479299  1
  Si  Si18  1  0.42086168  0.64959849  0.75000000  1
  Si  Si19  1  0.05352751  0.85357353  0.39479299  1
  O  O20  1  0.04333812  0.33678213  0.94453763  1
  O  O21  1  0.61957681  0.08740413  0.90787529  1
  O  O22  1  0.01206771  0.79640209  0.31566115  1
  O  O23  1  0.95666188  0.66321787  0.05546237  1
  O  O24  1  0.89725287  0.42426985  0.25000000  1
  O  O25  1  0.88042319  0.08740413  0.40787529  1
  O  O26  1  0.10274713  0.57573015  0.75000000  1
  O  O27  1  0.98793229  0.20359791  0.81566115  1
  O  O28  1  0.45666188  0.33678213  0.44453763  1
  O  O29  1  0.60274713  0.42426985  0.75000000  1
  O  O30  1  0.54333812  0.66321787  0.94453763  1
  O  O31  1  0.48793229  0.79640209  0.81566115  1
  O  O32  1  0.38042319  0.91259587  0.40787529  1
  O  O33  1  0.48793229  0.79640209  0.68433885  1
  O  O34  1  0.54333812  0.66321787  0.55546237  1
  O  O35  1  0.95666188  0.66321787  0.44453763  1
  O  O36  1  0.98793229  0.20359791  0.68433885  1
  O  O37  1  0.38042319  0.91259587  0.09212471  1
  O  O38  1  0.88042319  0.08740413  0.09212471  1
  O  O39  1  0.39725287  0.57573015  0.25000000  1
  O  O40  1  0.51206771  0.20359791  0.31566115  1
  O  O41  1  0.61957681  0.08740413  0.59212471  1
  O  O42  1  0.51206771  0.20359791  0.18433885  1
  O  O43  1  0.04333812  0.33678213  0.55546237  1
  O  O44  1  0.01206771  0.79640209  0.18433885  1
  O  O45  1  0.45666188  0.33678213  0.05546237  1
  O  O46  1  0.11957681  0.91259587  0.90787529  1
  O  O47  1  0.11957681  0.91259587  0.59212471  1
