# generated using pymatgen
data_Ba3Al2Cu2F16
_symmetry_space_group_name_H-M   'P 1'
_cell_length_a   5.39476346
_cell_length_b   7.49518134
_cell_length_c   16.24353722
_cell_angle_alpha   96.68675614
_cell_angle_beta   90.00000000
_cell_angle_gamma   90.00000000
_symmetry_Int_Tables_number   1
_chemical_formula_structural   Ba3Al2Cu2F16
_chemical_formula_sum   'Ba6 Al4 Cu4 F32'
_cell_volume   652.33520560
_cell_formula_units_Z   2
loop_
 _symmetry_equiv_pos_site_id
 _symmetry_equiv_pos_as_xyz
  1  'x, y, z'
loop_
 _atom_site_type_symbol
 _atom_site_label
 _atom_site_symmetry_multiplicity
 _atom_site_fract_x
 _atom_site_fract_y
 _atom_site_fract_z
 _atom_site_occupancy
  Ba  Ba0  1  0.74098764  0.69154585  0.18468119  1
  Ba  Ba1  1  0.25894536  0.16204951  0.11451314  1
  Ba  Ba2  1  0.75894536  0.83795049  0.88548686  1
  Ba  Ba3  1  0.24098764  0.30845415  0.81531881  1
  Ba  Ba4  1  0.68849672  0.74687996  0.46971593  1
  Ba  Ba5  1  0.18849672  0.25312004  0.53028407  1
  Al  Al6  1  0.17942874  0.92053953  0.34043146  1
  Al  Al7  1  0.23426601  0.66928530  0.02463246  1
  Al  Al8  1  0.73426601  0.33071470  0.97536754  1
  Al  Al9  1  0.67942874  0.07946047  0.65956854  1
  Cu  Cu10  1  0.21159105  0.78416380  0.69563279  1
  Cu  Cu11  1  0.68876701  0.56349783  0.67045424  1
  Cu  Cu12  1  0.71159105  0.21583620  0.30436721  1
  Cu  Cu13  1  0.18876701  0.43650217  0.32954576  1
  F  F14  1  0.51108589  0.63297781  0.76951683  1
  F  F15  1  0.19853303  0.90045177  0.45318745  1
  F  F16  1  0.33117303  0.13690931  0.36265102  1
  F  F17  1  0.96103015  0.20678613  0.67741810  1
  F  F18  1  0.49997231  0.40590558  0.26413206  1
  F  F19  1  0.22043619  0.69850066  0.91682142  1
  F  F20  1  0.46103015  0.79321387  0.32258190  1
  F  F21  1  0.74685974  0.40008757  0.87325858  1
  F  F22  1  0.99804846  0.18424055  0.95559702  1
  F  F23  1  0.24685974  0.59991243  0.12674142  1
  F  F24  1  0.69853303  0.09954823  0.54681255  1
  F  F25  1  0.94280832  0.52720749  0.00795265  1
  F  F26  1  0.12860924  0.94656136  0.79097032  1
  F  F27  1  0.72043619  0.30149934  0.08317858  1
  F  F28  1  0.87432037  0.03489452  0.36498581  1
  F  F29  1  0.49804846  0.81575945  0.04440298  1
  F  F30  1  0.99616740  0.71049306  0.32945625  1
  F  F31  1  0.34039961  0.49976332  0.43348705  1
  F  F32  1  0.44280832  0.47279251  0.99204735  1
  F  F33  1  0.01108589  0.36702219  0.23048317  1
  F  F34  1  0.83117303  0.86309069  0.63734898  1
  F  F35  1  0.99997231  0.59409442  0.73586794  1
  F  F36  1  0.12965623  0.94146394  0.23241402  1
  F  F37  1  0.36761015  0.61030541  0.61138605  1
  F  F38  1  0.02320734  0.85379862  0.05336997  1
  F  F39  1  0.52320734  0.14620138  0.94663003  1
  F  F40  1  0.49616740  0.28950694  0.67054375  1
  F  F41  1  0.84039961  0.50023668  0.56651295  1
  F  F42  1  0.62965623  0.05853606  0.76758598  1
  F  F43  1  0.86761015  0.38969459  0.38861395  1
  F  F44  1  0.37432037  0.96510548  0.63501419  1
  F  F45  1  0.62860924  0.05343864  0.20902968  1
