# generated using pymatgen
data_K2UCu3S5
_symmetry_space_group_name_H-M   'P 1'
_cell_length_a   3.94324961
_cell_length_b   7.26934490
_cell_length_c   17.61941834
_cell_angle_alpha   90.00000000
_cell_angle_beta   90.00000000
_cell_angle_gamma   105.73714770
_symmetry_Int_Tables_number   1
_chemical_formula_structural   K2UCu3S5
_chemical_formula_sum   'K4 U2 Cu6 S10'
_cell_volume   486.12629621
_cell_formula_units_Z   2
loop_
 _symmetry_equiv_pos_site_id
 _symmetry_equiv_pos_as_xyz
  1  'x, y, z'
loop_
 _atom_site_type_symbol
 _atom_site_label
 _atom_site_symmetry_multiplicity
 _atom_site_fract_x
 _atom_site_fract_y
 _atom_site_fract_z
 _atom_site_occupancy
  K  K0  1  0.23634100  0.47268200  0.13402550  1
  K  K1  1  0.76365900  0.52731800  0.86597450  1
  K  K2  1  0.76365900  0.52731800  0.63402550  1
  K  K3  1  0.23634100  0.47268200  0.36597450  1
  U  U4  1  0.50000000  0.00000000  0.00000000  1
  U  U5  1  0.50000000  0.00000000  0.50000000  1
  Cu  Cu6  1  0.55346928  0.10693856  0.75000000  1
  Cu  Cu7  1  0.95640871  0.91281742  0.14367245  1
  Cu  Cu8  1  0.04359129  0.08718258  0.64367245  1
  Cu  Cu9  1  0.04359129  0.08718258  0.85632755  1
  Cu  Cu10  1  0.44653072  0.89306144  0.25000000  1
  Cu  Cu11  1  0.95640871  0.91281742  0.35632755  1
  S  S12  1  0.44785588  0.89571176  0.85809680  1
  S  S13  1  0.55214412  0.10428824  0.35809680  1
  S  S14  1  0.12453023  0.24906046  0.97009523  1
  S  S15  1  0.55214412  0.10428824  0.14190320  1
  S  S16  1  0.87546977  0.75093954  0.47009523  1
  S  S17  1  0.12453023  0.24906046  0.52990477  1
  S  S18  1  0.85350330  0.70700660  0.25000000  1
  S  S19  1  0.14649670  0.29299340  0.75000000  1
  S  S20  1  0.87546977  0.75093954  0.02990477  1
  S  S21  1  0.44785588  0.89571176  0.64190320  1
