# generated using pymatgen
data_SmAsS
_symmetry_space_group_name_H-M   'P 1'
_cell_length_a   3.88810033
_cell_length_b   3.92681267
_cell_length_c   17.36956851
_cell_angle_alpha   90.00000000
_cell_angle_beta   90.00000000
_cell_angle_gamma   90.00000000
_symmetry_Int_Tables_number   1
_chemical_formula_structural   SmAsS
_chemical_formula_sum   'Sm4 As4 S4'
_cell_volume   265.19582133
_cell_formula_units_Z   4
loop_
 _symmetry_equiv_pos_site_id
 _symmetry_equiv_pos_as_xyz
  1  'x, y, z'
loop_
 _atom_site_type_symbol
 _atom_site_label
 _atom_site_symmetry_multiplicity
 _atom_site_fract_x
 _atom_site_fract_y
 _atom_site_fract_z
 _atom_site_occupancy
  Sm  Sm0  1  0.25000000  0.24521966  0.85403589  1
  Sm  Sm1  1  0.75000000  0.74521966  0.64596411  1
  Sm  Sm2  1  0.75000000  0.75478034  0.14596411  1
  Sm  Sm3  1  0.25000000  0.25478034  0.35403589  1
  As  As4  1  0.25000000  0.78181728  0.49893447  1
  As  As5  1  0.75000000  0.21818272  0.50106553  1
  As  As6  1  0.25000000  0.71818272  0.99893447  1
  As  As7  1  0.75000000  0.28181728  0.00106553  1
  S  S8  1  0.25000000  0.24898858  0.68658522  1
  S  S9  1  0.25000000  0.25101142  0.18658522  1
  S  S10  1  0.75000000  0.75101142  0.31341478  1
  S  S11  1  0.75000000  0.74898858  0.81341478  1
