# generated using pymatgen
data_NaAsO2
_symmetry_space_group_name_H-M   'P 1'
_cell_length_a   5.17121929
_cell_length_b   6.79418333
_cell_length_c   15.51204887
_cell_angle_alpha   90.00000000
_cell_angle_beta   90.00000000
_cell_angle_gamma   90.00000000
_symmetry_Int_Tables_number   1
_chemical_formula_structural   NaAsO2
_chemical_formula_sum   'Na8 As8 O16'
_cell_volume   545.00361194
_cell_formula_units_Z   8
loop_
 _symmetry_equiv_pos_site_id
 _symmetry_equiv_pos_as_xyz
  1  'x, y, z'
loop_
 _atom_site_type_symbol
 _atom_site_label
 _atom_site_symmetry_multiplicity
 _atom_site_fract_x
 _atom_site_fract_y
 _atom_site_fract_z
 _atom_site_occupancy
  Na  Na0  1  0.25367525  0.59783426  0.19812371  1
  Na  Na1  1  0.75367525  0.40216574  0.30187629  1
  Na  Na2  1  0.24632475  0.09783426  0.80187629  1
  Na  Na3  1  0.25367525  0.09783426  0.30187629  1
  Na  Na4  1  0.24632475  0.59783426  0.69812371  1
  Na  Na5  1  0.74632475  0.90216574  0.69812371  1
  Na  Na6  1  0.74632475  0.40216574  0.80187629  1
  Na  Na7  1  0.75367525  0.90216574  0.19812371  1
  As  As8  1  0.25657023  0.59862455  0.91494290  1
  As  As9  1  0.75657023  0.40137545  0.58505710  1
  As  As10  1  0.74342977  0.90137545  0.41494290  1
  As  As11  1  0.24342977  0.59862455  0.41494290  1
  As  As12  1  0.25657023  0.09862455  0.58505710  1
  As  As13  1  0.74342977  0.40137545  0.08505710  1
  As  As14  1  0.24342977  0.09862455  0.08505710  1
  As  As15  1  0.75657023  0.90137545  0.91494290  1
  O  O16  1  0.29961390  0.92984274  0.16644700  1
  O  O17  1  0.56958119  0.18726198  0.62981679  1
  O  O18  1  0.79961390  0.07015726  0.33355300  1
  O  O19  1  0.20038610  0.42984274  0.83355300  1
  O  O20  1  0.43041881  0.81273802  0.37018321  1
  O  O21  1  0.93041881  0.18726198  0.12981679  1
  O  O22  1  0.79961390  0.57015726  0.16644700  1
  O  O23  1  0.93041881  0.68726198  0.37018321  1
  O  O24  1  0.29961390  0.42984274  0.33355300  1
  O  O25  1  0.06958119  0.81273802  0.87018321  1
  O  O26  1  0.43041881  0.31273802  0.12981679  1
  O  O27  1  0.70038610  0.57015726  0.66644700  1
  O  O28  1  0.06958119  0.31273802  0.62981679  1
  O  O29  1  0.56958119  0.68726198  0.87018321  1
  O  O30  1  0.20038610  0.92984274  0.66644700  1
  O  O31  1  0.70038610  0.07015726  0.83355300  1
