# generated using pymatgen
data_Na5FeS4
_symmetry_space_group_name_H-M   'P 1'
_cell_length_a   7.13707023
_cell_length_b   12.01690308
_cell_length_c   21.62577748
_cell_angle_alpha   90.00000000
_cell_angle_beta   90.00000000
_cell_angle_gamma   90.00000000
_symmetry_Int_Tables_number   1
_chemical_formula_structural   Na5FeS4
_chemical_formula_sum   'Na40 Fe8 S32'
_cell_volume   1854.74521252
_cell_formula_units_Z   8
loop_
 _symmetry_equiv_pos_site_id
 _symmetry_equiv_pos_as_xyz
  1  'x, y, z'
loop_
 _atom_site_type_symbol
 _atom_site_label
 _atom_site_symmetry_multiplicity
 _atom_site_fract_x
 _atom_site_fract_y
 _atom_site_fract_z
 _atom_site_occupancy
  Na  Na0  1  0.04920077  0.28598332  0.13363015  1
  Na  Na1  1  0.10526186  0.16049800  0.83039228  1
  Na  Na2  1  0.37681258  0.41008242  0.25065062  1
  Na  Na3  1  0.39473814  0.16049800  0.33039228  1
  Na  Na4  1  0.55891775  0.94273626  0.06739226  1
  Na  Na5  1  0.90892606  0.14661075  0.99896515  1
  Na  Na6  1  0.59107394  0.14661075  0.49896515  1
  Na  Na7  1  0.09107394  0.85338925  0.00103485  1
  Na  Na8  1  0.95079923  0.71401668  0.86636985  1
  Na  Na9  1  0.89473814  0.33950200  0.33039228  1
  Na  Na10  1  0.44108225  0.05726374  0.93260774  1
  Na  Na11  1  0.95079923  0.21401668  0.63363015  1
  Na  Na12  1  0.55891775  0.44273626  0.43260774  1
  Na  Na13  1  0.87681258  0.08991758  0.25065062  1
  Na  Na14  1  0.05891775  0.05726374  0.43260774  1
  Na  Na15  1  0.44108225  0.55726374  0.56739226  1
  Na  Na16  1  0.39473814  0.66049800  0.16960772  1
  Na  Na17  1  0.45079923  0.28598332  0.63363015  1
  Na  Na18  1  0.12318742  0.91008242  0.74934938  1
  Na  Na19  1  0.94108225  0.44273626  0.93260774  1
  Na  Na20  1  0.54920077  0.71401668  0.36636985  1
  Na  Na21  1  0.59107394  0.64661075  0.00103485  1
  Na  Na22  1  0.10526186  0.66049800  0.66960772  1
  Na  Na23  1  0.54920077  0.21401668  0.13363015  1
  Na  Na24  1  0.87681258  0.58991758  0.24934938  1
  Na  Na25  1  0.62318742  0.58991758  0.74934938  1
  Na  Na26  1  0.89473814  0.83950200  0.16960772  1
  Na  Na27  1  0.37681258  0.91008242  0.24934938  1
  Na  Na28  1  0.05891775  0.55726374  0.06739226  1
  Na  Na29  1  0.40892606  0.35338925  0.99896515  1
  Na  Na30  1  0.04920077  0.78598332  0.36636985  1
  Na  Na31  1  0.09107394  0.35338925  0.49896515  1
  Na  Na32  1  0.90892606  0.64661075  0.50103485  1
  Na  Na33  1  0.12318742  0.41008242  0.75065062  1
  Na  Na34  1  0.40892606  0.85338925  0.50103485  1
  Na  Na35  1  0.62318742  0.08991758  0.75065062  1
  Na  Na36  1  0.45079923  0.78598332  0.86636985  1
  Na  Na37  1  0.60526186  0.33950200  0.83039228  1
  Na  Na38  1  0.94108225  0.94273626  0.56739226  1
  Na  Na39  1  0.60526186  0.83950200  0.66960772  1
  Fe  Fe40  1  0.33214587  0.54054877  0.87452127  1
  Fe  Fe41  1  0.33214587  0.04054877  0.62547873  1
  Fe  Fe42  1  0.16785413  0.04054877  0.12547873  1
  Fe  Fe43  1  0.66785413  0.45945123  0.12547873  1
  Fe  Fe44  1  0.16785413  0.54054877  0.37452127  1
  Fe  Fe45  1  0.83214587  0.95945123  0.87452127  1
  Fe  Fe46  1  0.83214587  0.45945123  0.62547873  1
  Fe  Fe47  1  0.66785413  0.95945123  0.37452127  1
  S  S48  1  0.79362761  0.86995728  0.45808081  1
  S  S49  1  0.24692710  0.35612234  0.87519748  1
  S  S50  1  0.74692710  0.64387766  0.62480252  1
  S  S51  1  0.74067427  0.86847060  0.78677966  1
  S  S52  1  0.75307290  0.64387766  0.12480252  1
  S  S53  1  0.65142317  0.05559300  0.62074170  1
  S  S54  1  0.24067427  0.13152940  0.71322034  1
  S  S55  1  0.20637239  0.13004272  0.54191919  1
  S  S56  1  0.29362761  0.63004272  0.45808081  1
  S  S57  1  0.79362761  0.36995728  0.04191919  1
  S  S58  1  0.15142317  0.94440700  0.87925830  1
  S  S59  1  0.65142317  0.55559300  0.87925830  1
  S  S60  1  0.29362761  0.13004272  0.04191919  1
  S  S61  1  0.24692710  0.85612234  0.62480252  1
  S  S62  1  0.84857683  0.05559300  0.12074170  1
  S  S63  1  0.75932573  0.86847060  0.28677966  1
  S  S64  1  0.34857683  0.44440700  0.12074170  1
  S  S65  1  0.75307290  0.14387766  0.37519748  1
  S  S66  1  0.70637239  0.36995728  0.54191919  1
  S  S67  1  0.15142317  0.44440700  0.62074170  1
  S  S68  1  0.24067427  0.63152940  0.78677966  1
  S  S69  1  0.84857683  0.55559300  0.37925830  1
  S  S70  1  0.25307290  0.85612234  0.12480252  1
  S  S71  1  0.25932573  0.63152940  0.28677966  1
  S  S72  1  0.74692710  0.14387766  0.87519748  1
  S  S73  1  0.70637239  0.86995728  0.95808081  1
  S  S74  1  0.34857683  0.94440700  0.37925830  1
  S  S75  1  0.74067427  0.36847060  0.71322034  1
  S  S76  1  0.25932573  0.13152940  0.21322034  1
  S  S77  1  0.25307290  0.35612234  0.37519748  1
  S  S78  1  0.75932573  0.36847060  0.21322034  1
  S  S79  1  0.20637239  0.63004272  0.95808081  1
