# generated using pymatgen
data_KUP3O11
_symmetry_space_group_name_H-M   'P 1'
_cell_length_a   8.60006764
_cell_length_b   15.05504588
_cell_length_c   15.35773199
_cell_angle_alpha   90.00000000
_cell_angle_beta   90.00000000
_cell_angle_gamma   91.88195771
_symmetry_Int_Tables_number   1
_chemical_formula_structural   KUP3O11
_chemical_formula_sum   'K8 U8 P24 O88'
_cell_volume   1987.36078424
_cell_formula_units_Z   8
loop_
 _symmetry_equiv_pos_site_id
 _symmetry_equiv_pos_as_xyz
  1  'x, y, z'
loop_
 _atom_site_type_symbol
 _atom_site_label
 _atom_site_symmetry_multiplicity
 _atom_site_fract_x
 _atom_site_fract_y
 _atom_site_fract_z
 _atom_site_occupancy
  K  K0  1  0.84017289  0.76250392  0.25000000  1
  K  K1  1  0.61483211  0.18802917  0.75000000  1
  K  K2  1  0.82056851  0.72583169  0.75000000  1
  K  K3  1  0.17943149  0.27416831  0.25000000  1
  K  K4  1  0.38516789  0.81197083  0.25000000  1
  K  K5  1  0.68817273  0.32318844  0.25000000  1
  K  K6  1  0.15982711  0.23749608  0.75000000  1
  K  K7  1  0.31182727  0.67681156  0.75000000  1
  U  U8  1  0.58703698  0.74054922  0.50573924  1
  U  U9  1  0.64945897  0.03607740  0.25000000  1
  U  U10  1  0.35054103  0.96392260  0.75000000  1
  U  U11  1  0.41296302  0.25945078  0.00573924  1
  U  U12  1  0.41296302  0.25945078  0.49426076  1
  U  U13  1  0.58703698  0.74054922  0.99426076  1
  U  U14  1  0.90839899  0.44887244  0.75000000  1
  U  U15  1  0.09160101  0.55112756  0.25000000  1
  P  P16  1  0.78653006  0.39786628  0.52670852  1
  P  P17  1  0.07744444  0.01923680  0.25000000  1
  P  P18  1  0.21346994  0.60213372  0.47329148  1
  P  P19  1  0.24227429  0.88930396  0.98089543  1
  P  P20  1  0.25925185  0.45808247  0.60514519  1
  P  P21  1  0.69645424  0.96397335  0.89255909  1
  P  P22  1  0.69645424  0.96397335  0.60744091  1
  P  P23  1  0.74074815  0.54191753  0.10514519  1
  P  P24  1  0.25925185  0.45808247  0.89485481  1
  P  P25  1  0.97722775  0.25661608  0.44284987  1
  P  P26  1  0.78653006  0.39786628  0.97329148  1
  P  P27  1  0.21346994  0.60213372  0.02670852  1
  P  P28  1  0.92255556  0.98076320  0.75000000  1
  P  P29  1  0.02277225  0.74338392  0.55715013  1
  P  P30  1  0.30354576  0.03602665  0.10744091  1
  P  P31  1  0.97722775  0.25661608  0.05715013  1
  P  P32  1  0.48232212  0.44837122  0.75000000  1
  P  P33  1  0.51767788  0.55162878  0.25000000  1
  P  P34  1  0.30354576  0.03602665  0.39255909  1
  P  P35  1  0.24227429  0.88930396  0.51910457  1
  P  P36  1  0.75772571  0.11069604  0.48089543  1
  P  P37  1  0.75772571  0.11069604  0.01910457  1
  P  P38  1  0.02277225  0.74338392  0.94284987  1
  P  P39  1  0.74074815  0.54191753  0.39485481  1
  O  O40  1  0.60376792  0.50259345  0.16824362  1
  O  O41  1  0.60376792  0.50259345  0.33175638  1
  O  O42  1  0.32368792  0.40259913  0.53356239  1
  O  O43  1  0.63794745  0.77256232  0.39533335  1
  O  O44  1  0.13102628  0.41775389  0.66073542  1
  O  O45  1  0.54176605  0.71036546  0.88212860  1
  O  O46  1  0.20573657  0.96154228  0.44569415  1
  O  O47  1  0.31003347  0.08143093  0.75000000  1
  O  O48  1  0.79426343  0.03845772  0.55430585  1
  O  O49  1  0.57074110  0.00772243  0.65893248  1
  O  O50  1  0.09925067  0.92182123  0.25000000  1
  O  O51  1  0.73057266  0.06371442  0.10400603  1
  O  O52  1  0.62906676  0.35304237  0.96524320  1
  O  O53  1  0.83730418  0.45806967  0.89971707  1
  O  O54  1  0.42925890  0.99227757  0.34106752  1
  O  O55  1  0.45823395  0.28963454  0.11787140  1
  O  O56  1  0.13102628  0.41775389  0.83926458  1
  O  O57  1  0.63794745  0.77256232  0.10466665  1
  O  O58  1  0.45823395  0.28963454  0.38212860  1
  O  O59  1  0.90074933  0.07817877  0.75000000  1
  O  O60  1  0.19960144  0.54987762  0.93474887  1
  O  O61  1  0.91950135  0.05941656  0.25000000  1
  O  O62  1  0.90328756  0.27006784  0.14299671  1
  O  O63  1  0.62906676  0.35304237  0.53475680  1
  O  O64  1  0.64568726  0.48877968  0.75000000  1
  O  O65  1  0.85973211  0.32996038  0.75000000  1
  O  O66  1  0.19960144  0.54987762  0.56525113  1
  O  O67  1  0.15245933  0.26046336  0.44829789  1
  O  O68  1  0.58646948  0.14945885  0.25000000  1
  O  O69  1  0.36287867  0.82731265  0.48658892  1
  O  O70  1  0.08107710  0.67383762  0.01586466  1
  O  O71  1  0.86897372  0.58224611  0.33926458  1
  O  O72  1  0.26942734  0.93628558  0.60400603  1
  O  O73  1  0.03493893  0.43435208  0.25000000  1
  O  O74  1  0.15245933  0.26046336  0.05170211  1
  O  O75  1  0.57074110  0.00772243  0.84106752  1
  O  O76  1  0.79426343  0.03845772  0.94569415  1
  O  O77  1  0.20573657  0.96154228  0.05430585  1
  O  O78  1  0.54176605  0.71036546  0.61787140  1
  O  O79  1  0.35431274  0.51122032  0.25000000  1
  O  O80  1  0.45303385  0.35089440  0.75000000  1
  O  O81  1  0.32368792  0.40259913  0.96643761  1
  O  O82  1  0.08049865  0.94058344  0.75000000  1
  O  O83  1  0.16853180  0.07061671  0.33018206  1
  O  O84  1  0.16853180  0.07061671  0.16981794  1
  O  O85  1  0.73057266  0.06371442  0.39599397  1
  O  O86  1  0.90328756  0.27006784  0.35700329  1
  O  O87  1  0.07410281  0.83891704  0.98477217  1
  O  O88  1  0.92589719  0.16108296  0.48477217  1
  O  O89  1  0.36205255  0.22743768  0.89533335  1
  O  O90  1  0.39623208  0.49740655  0.83175638  1
  O  O91  1  0.65086228  0.88799556  0.54902002  1
  O  O92  1  0.67631208  0.59740087  0.03356239  1
  O  O93  1  0.83146820  0.92938329  0.83018206  1
  O  O94  1  0.37093324  0.64695763  0.46524320  1
  O  O95  1  0.96506107  0.56564792  0.75000000  1
  O  O96  1  0.16269582  0.54193033  0.10028293  1
  O  O97  1  0.67631208  0.59740087  0.46643761  1
  O  O98  1  0.08107710  0.67383762  0.48413534  1
  O  O99  1  0.42925890  0.99227757  0.15893248  1
  O  O100  1  0.09671244  0.72993216  0.85700329  1
  O  O101  1  0.68996653  0.91856907  0.25000000  1
  O  O102  1  0.92589719  0.16108296  0.01522783  1
  O  O103  1  0.84754067  0.73953664  0.55170211  1
  O  O104  1  0.91892290  0.32616238  0.98413534  1
  O  O105  1  0.26942734  0.93628558  0.89599397  1
  O  O106  1  0.34913772  0.11200444  0.04902002  1
  O  O107  1  0.39623208  0.49740655  0.66824362  1
  O  O108  1  0.63712133  0.17268735  0.51341108  1
  O  O109  1  0.37093324  0.64695763  0.03475680  1
  O  O110  1  0.63712133  0.17268735  0.98658892  1
  O  O111  1  0.91892290  0.32616238  0.51586466  1
  O  O112  1  0.84754067  0.73953664  0.94829789  1
  O  O113  1  0.36287867  0.82731265  0.01341108  1
  O  O114  1  0.09671244  0.72993216  0.64299671  1
  O  O115  1  0.80039856  0.45012238  0.43474887  1
  O  O116  1  0.16269582  0.54193033  0.39971707  1
  O  O117  1  0.34913772  0.11200444  0.45097998  1
  O  O118  1  0.83146820  0.92938329  0.66981794  1
  O  O119  1  0.14026789  0.67003962  0.25000000  1
  O  O120  1  0.86897372  0.58224611  0.16073542  1
  O  O121  1  0.80039856  0.45012238  0.06525113  1
  O  O122  1  0.65086228  0.88799556  0.95097998  1
  O  O123  1  0.54696615  0.64910560  0.25000000  1
  O  O124  1  0.36205255  0.22743768  0.60466665  1
  O  O125  1  0.07410281  0.83891704  0.51522783  1
  O  O126  1  0.83730418  0.45806967  0.60028293  1
  O  O127  1  0.41353052  0.85054115  0.75000000  1
