# generated using pymatgen
data_K4Ba(SiO3)3
_symmetry_space_group_name_H-M   'P 1'
_cell_length_a   7.33240619
_cell_length_b   7.33240573
_cell_length_c   11.29037197
_cell_angle_alpha   90.00000000
_cell_angle_beta   90.00000000
_cell_angle_gamma   111.76965196
_symmetry_Int_Tables_number   1
_chemical_formula_structural   K4Ba(SiO3)3
_chemical_formula_sum   'K8 Ba2 Si6 O18'
_cell_volume   563.72652351
_cell_formula_units_Z   2
loop_
 _symmetry_equiv_pos_site_id
 _symmetry_equiv_pos_as_xyz
  1  'x, y, z'
loop_
 _atom_site_type_symbol
 _atom_site_label
 _atom_site_symmetry_multiplicity
 _atom_site_fract_x
 _atom_site_fract_y
 _atom_site_fract_z
 _atom_site_occupancy
  K  K0  1  0.51022391  0.48977609  0.00000000  1
  K  K1  1  0.67266190  0.22588889  0.75000000  1
  K  K2  1  0.03958693  0.96041307  0.00000000  1
  K  K3  1  0.77411111  0.32733810  0.25000000  1
  K  K4  1  0.03958693  0.96041307  0.50000000  1
  K  K5  1  0.51022391  0.48977609  0.50000000  1
  K  K6  1  0.24763965  0.23456079  0.25000000  1
  K  K7  1  0.76543921  0.75236035  0.75000000  1
  Ba  Ba8  1  0.25982481  0.73398335  0.75000000  1
  Ba  Ba9  1  0.26601665  0.74017519  0.25000000  1
  Si  Si10  1  0.19224196  0.26335987  0.75000000  1
  Si  Si11  1  0.98093071  0.41301523  0.52705791  1
  Si  Si12  1  0.73664013  0.80775804  0.25000000  1
  Si  Si13  1  0.58698477  0.01906929  0.47294209  1
  Si  Si14  1  0.58698477  0.01906929  0.02705791  1
  Si  Si15  1  0.98093071  0.41301523  0.97294209  1
  O  O16  1  0.94906299  0.60001780  0.91395393  1
  O  O17  1  0.75518918  0.24481082  0.00000000  1
  O  O18  1  0.69035551  0.92426169  0.36802962  1
  O  O19  1  0.39998220  0.05093701  0.41395393  1
  O  O20  1  0.07573831  0.30964449  0.86802962  1
  O  O21  1  0.55561084  0.88683444  0.59147178  1
  O  O22  1  0.57914140  0.58320344  0.25000000  1
  O  O23  1  0.11316556  0.44438916  0.40852822  1
  O  O24  1  0.11316556  0.44438916  0.09147178  1
  O  O25  1  0.39998220  0.05093701  0.08604607  1
  O  O26  1  0.96709295  0.84466814  0.25000000  1
  O  O27  1  0.75518918  0.24481082  0.50000000  1
  O  O28  1  0.41679656  0.42085860  0.75000000  1
  O  O29  1  0.69035551  0.92426169  0.13197038  1
  O  O30  1  0.55561084  0.88683444  0.90852822  1
  O  O31  1  0.07573831  0.30964449  0.63197038  1
  O  O32  1  0.94906299  0.60001780  0.58604607  1
  O  O33  1  0.15533186  0.03290705  0.75000000  1
