# generated using pymatgen
data_CaMgVO5
_symmetry_space_group_name_H-M   'P 1'
_cell_length_a   6.05694866
_cell_length_b   7.42925005
_cell_length_c   9.15936981
_cell_angle_alpha   90.00000000
_cell_angle_beta   90.00000000
_cell_angle_gamma   90.00000000
_symmetry_Int_Tables_number   1
_chemical_formula_structural   CaMgVO5
_chemical_formula_sum   'Ca4 Mg4 V4 O20'
_cell_volume   412.15869134
_cell_formula_units_Z   4
loop_
 _symmetry_equiv_pos_site_id
 _symmetry_equiv_pos_as_xyz
  1  'x, y, z'
loop_
 _atom_site_type_symbol
 _atom_site_label
 _atom_site_symmetry_multiplicity
 _atom_site_fract_x
 _atom_site_fract_y
 _atom_site_fract_z
 _atom_site_occupancy
  Ca  Ca0  1  0.47389537  0.12939713  0.33649752  1
  Ca  Ca1  1  0.02610463  0.87060287  0.83649752  1
  Ca  Ca2  1  0.52610463  0.62939713  0.16350248  1
  Ca  Ca3  1  0.97389537  0.37060287  0.66350248  1
  Mg  Mg4  1  0.25420579  0.25793744  0.99529283  1
  Mg  Mg5  1  0.24579421  0.74206256  0.49529283  1
  Mg  Mg6  1  0.74579421  0.75793744  0.50470717  1
  Mg  Mg7  1  0.75420579  0.24206256  0.00470717  1
  V  V8  1  0.01493970  0.38081956  0.31777124  1
  V  V9  1  0.48506030  0.61918044  0.81777124  1
  V  V10  1  0.98506030  0.88081956  0.18222876  1
  V  V11  1  0.51493970  0.11918044  0.68222876  1
  O  O12  1  0.01185046  0.06433782  0.05973166  1
  O  O13  1  0.48814954  0.93566218  0.55973166  1
  O  O14  1  0.98814954  0.56433782  0.44026834  1
  O  O15  1  0.51185046  0.43566218  0.94026834  1
  O  O16  1  0.49457823  0.11306409  0.08748789  1
  O  O17  1  0.00542177  0.88693591  0.58748789  1
  O  O18  1  0.50542177  0.61306409  0.41251211  1
  O  O19  1  0.99457823  0.38693591  0.91251211  1
  O  O20  1  0.26410263  0.15227478  0.77668387  1
  O  O21  1  0.23589737  0.84772522  0.27668387  1
  O  O22  1  0.73589737  0.65227478  0.72331613  1
  O  O23  1  0.76410263  0.34772522  0.22331613  1
  O  O24  1  0.07735759  0.20858879  0.43486589  1
  O  O25  1  0.42264241  0.79141121  0.93486589  1
  O  O26  1  0.92264241  0.70858879  0.06513411  1
  O  O27  1  0.57735759  0.29141121  0.56513411  1
  O  O28  1  0.24507594  0.39116744  0.20202317  1
  O  O29  1  0.25492406  0.60883256  0.70202317  1
  O  O30  1  0.75492406  0.89116744  0.29797683  1
  O  O31  1  0.74507594  0.10883256  0.79797683  1
