# generated using pymatgen
data_Cr2F5
_symmetry_space_group_name_H-M   'P 1'
_cell_length_a   5.53412366
_cell_length_b   5.53412361
_cell_length_c   7.31259610
_cell_angle_alpha   68.03522076
_cell_angle_beta   68.03522098
_cell_angle_gamma   87.06474104
_symmetry_Int_Tables_number   1
_chemical_formula_structural   Cr2F5
_chemical_formula_sum   'Cr4 F10'
_cell_volume   191.59976223
_cell_formula_units_Z   2
loop_
 _symmetry_equiv_pos_site_id
 _symmetry_equiv_pos_as_xyz
  1  'x, y, z'
loop_
 _atom_site_type_symbol
 _atom_site_label
 _atom_site_symmetry_multiplicity
 _atom_site_fract_x
 _atom_site_fract_y
 _atom_site_fract_z
 _atom_site_occupancy
  Cr  Cr0  1  0.00000000  0.00000000  0.50000000  1
  Cr  Cr1  1  0.50000000  0.50000000  0.00000000  1
  Cr  Cr2  1  0.50000000  0.50000000  0.50000000  1
  Cr  Cr3  1  0.00000000  0.00000000  0.00000000  1
  F  F4  1  0.67601663  0.18553493  0.54072680  1
  F  F5  1  0.31446507  0.82398337  0.95927320  1
  F  F6  1  0.32398337  0.81446507  0.45927320  1
  F  F7  1  0.68553493  0.17601663  0.04072680  1
  F  F8  1  0.18433865  0.31566135  0.75000000  1
  F  F9  1  0.81566135  0.68433865  0.25000000  1
  F  F10  1  0.91011831  0.85879039  0.82162838  1
  F  F11  1  0.64120961  0.58988169  0.67837162  1
  F  F12  1  0.08988169  0.14120961  0.17837162  1
  F  F13  1  0.35879039  0.41011831  0.32162838  1
