# generated using pymatgen
data_Ba2Ti2Si2O9F2
_symmetry_space_group_name_H-M   'P 1'
_cell_length_a   8.87257752
_cell_length_b   10.95090143
_cell_length_c   19.04214130
_cell_angle_alpha   90.00000000
_cell_angle_beta   90.00000000
_cell_angle_gamma   90.00000000
_symmetry_Int_Tables_number   1
_chemical_formula_structural   Ba2Ti2Si2O9F2
_chemical_formula_sum   'Ba16 Ti16 Si16 O72 F16'
_cell_volume   1850.18627859
_cell_formula_units_Z   8
loop_
 _symmetry_equiv_pos_site_id
 _symmetry_equiv_pos_as_xyz
  1  'x, y, z'
loop_
 _atom_site_type_symbol
 _atom_site_label
 _atom_site_symmetry_multiplicity
 _atom_site_fract_x
 _atom_site_fract_y
 _atom_site_fract_z
 _atom_site_occupancy
  Ba  Ba0  1  0.74694587  0.69921783  0.78133811  1
  Ba  Ba1  1  0.24694587  0.69921783  0.71866189  1
  Ba  Ba2  1  0.25647347  0.50374496  0.02715789  1
  Ba  Ba3  1  0.75647347  0.99625504  0.97284211  1
  Ba  Ba4  1  0.25305413  0.19921783  0.71866189  1
  Ba  Ba5  1  0.75305413  0.19921783  0.78133811  1
  Ba  Ba6  1  0.25305413  0.30078217  0.21866189  1
  Ba  Ba7  1  0.75647347  0.50374496  0.47284211  1
  Ba  Ba8  1  0.74352653  0.00374496  0.47284211  1
  Ba  Ba9  1  0.75305413  0.30078217  0.28133811  1
  Ba  Ba10  1  0.74694587  0.80078217  0.28133811  1
  Ba  Ba11  1  0.24352653  0.00374496  0.02715789  1
  Ba  Ba12  1  0.24694587  0.80078217  0.21866189  1
  Ba  Ba13  1  0.74352653  0.49625504  0.97284211  1
  Ba  Ba14  1  0.24352653  0.49625504  0.52715789  1
  Ba  Ba15  1  0.25647347  0.99625504  0.52715789  1
  Ti  Ti16  1  0.05048350  0.23762400  0.92274261  1
  Ti  Ti17  1  0.96906364  0.54062285  0.16228659  1
  Ti  Ti18  1  0.96906364  0.95937715  0.66228659  1
  Ti  Ti19  1  0.94951650  0.76237600  0.07725739  1
  Ti  Ti20  1  0.03093636  0.45937715  0.83771341  1
  Ti  Ti21  1  0.44951650  0.76237600  0.42274261  1
  Ti  Ti22  1  0.55048350  0.23762400  0.57725739  1
  Ti  Ti23  1  0.44951650  0.73762400  0.92274261  1
  Ti  Ti24  1  0.55048350  0.26237600  0.07725739  1
  Ti  Ti25  1  0.53093636  0.04062285  0.16228659  1
  Ti  Ti26  1  0.53093636  0.45937715  0.66228659  1
  Ti  Ti27  1  0.03093636  0.04062285  0.33771341  1
  Ti  Ti28  1  0.94951650  0.73762400  0.57725739  1
  Ti  Ti29  1  0.46906364  0.54062285  0.33771341  1
  Ti  Ti30  1  0.05048350  0.26237600  0.42274261  1
  Ti  Ti31  1  0.46906364  0.95937715  0.83771341  1
  Si  Si32  1  0.58397608  0.51747310  0.16878775  1
  Si  Si33  1  0.41602392  0.48252690  0.83121225  1
  Si  Si34  1  0.08397608  0.98252690  0.83121225  1
  Si  Si35  1  0.44033003  0.25859552  0.40991590  1
  Si  Si36  1  0.55966997  0.74140448  0.59008410  1
  Si  Si37  1  0.44033003  0.24140448  0.90991590  1
  Si  Si38  1  0.91602392  0.48252690  0.66878775  1
  Si  Si39  1  0.05966997  0.75859552  0.40991590  1
  Si  Si40  1  0.05966997  0.74140448  0.90991590  1
  Si  Si41  1  0.94033003  0.25859552  0.09008410  1
  Si  Si42  1  0.08397608  0.51747310  0.33121225  1
  Si  Si43  1  0.94033003  0.24140448  0.59008410  1
  Si  Si44  1  0.91602392  0.01747310  0.16878775  1
  Si  Si45  1  0.41602392  0.01747310  0.33121225  1
  Si  Si46  1  0.58397608  0.98252690  0.66878775  1
  Si  Si47  1  0.55966997  0.75859552  0.09008410  1
  O  O48  1  0.73303439  0.99668423  0.17458472  1
  O  O49  1  0.98070543  0.80845847  0.97722215  1
  O  O50  1  0.97014712  0.62099193  0.88259223  1
  O  O51  1  0.51929457  0.19154153  0.47722215  1
  O  O52  1  0.49316469  0.97073843  0.25829725  1
  O  O53  1  0.97014712  0.87900807  0.38259223  1
  O  O54  1  0.23303439  0.99668423  0.32541528  1
  O  O55  1  0.95378382  0.79040522  0.67758415  1
  O  O56  1  0.76696561  0.49668423  0.17458472  1
  O  O57  1  0.26288542  0.28514377  0.42913397  1
  O  O58  1  0.76288542  0.21485623  0.57086603  1
  O  O59  1  0.47014712  0.62099193  0.61740777  1
  O  O60  1  0.73711458  0.78514377  0.07086603  1
  O  O61  1  0.50683531  0.47073843  0.24170275  1
  O  O62  1  0.52985288  0.12099193  0.88259223  1
  O  O63  1  0.44680951  0.16639772  0.33976578  1
  O  O64  1  0.54621618  0.20959478  0.17758415  1
  O  O65  1  0.98070543  0.69154153  0.47722215  1
  O  O66  1  0.46154721  0.90512733  0.93709202  1
  O  O67  1  0.45378382  0.79040522  0.82241585  1
  O  O68  1  0.53845279  0.40512733  0.56290798  1
  O  O69  1  0.53845279  0.09487267  0.06290798  1
  O  O70  1  0.05319049  0.66639772  0.33976578  1
  O  O71  1  0.02985288  0.12099193  0.61740777  1
  O  O72  1  0.48070543  0.69154153  0.02277785  1
  O  O73  1  0.05319049  0.83360228  0.83976578  1
  O  O74  1  0.04621618  0.20959478  0.32241585  1
  O  O75  1  0.01929457  0.30845847  0.52277785  1
  O  O76  1  0.02985288  0.37900807  0.11740777  1
  O  O77  1  0.26288542  0.21485623  0.92913397  1
  O  O78  1  0.94680951  0.16639772  0.16023422  1
  O  O79  1  0.73711458  0.71485623  0.57086603  1
  O  O80  1  0.49316469  0.52926157  0.75829725  1
  O  O81  1  0.97769019  0.55536721  0.60047866  1
  O  O82  1  0.55319049  0.66639772  0.16023422  1
  O  O83  1  0.04621618  0.29040522  0.82241585  1
  O  O84  1  0.26696561  0.49668423  0.32541528  1
  O  O85  1  0.47769019  0.55536721  0.89952134  1
  O  O86  1  0.76288542  0.28514377  0.07086603  1
  O  O87  1  0.26696561  0.00331577  0.82541528  1
  O  O88  1  0.73303439  0.50331577  0.67458472  1
  O  O89  1  0.47014712  0.87900807  0.11740777  1
  O  O90  1  0.76696561  0.00331577  0.67458472  1
  O  O91  1  0.46154721  0.59487267  0.43709202  1
  O  O92  1  0.55319049  0.83360228  0.66023422  1
  O  O93  1  0.97769019  0.94463279  0.10047866  1
  O  O94  1  0.03845279  0.09487267  0.43709202  1
  O  O95  1  0.96154721  0.90512733  0.56290798  1
  O  O96  1  0.02230981  0.05536721  0.89952134  1
  O  O97  1  0.23711458  0.78514377  0.42913397  1
  O  O98  1  0.52230981  0.44463279  0.10047866  1
  O  O99  1  0.95378382  0.70959478  0.17758415  1
  O  O100  1  0.96154721  0.59487267  0.06290798  1
  O  O101  1  0.52230981  0.05536721  0.60047866  1
  O  O102  1  0.48070543  0.80845847  0.52277785  1
  O  O103  1  0.23711458  0.71485623  0.92913397  1
  O  O104  1  0.99316469  0.52926157  0.74170275  1
  O  O105  1  0.01929457  0.19154153  0.02277785  1
  O  O106  1  0.02230981  0.44463279  0.39952134  1
  O  O107  1  0.94680951  0.33360228  0.66023422  1
  O  O108  1  0.52985288  0.37900807  0.38259223  1
  O  O109  1  0.00683531  0.47073843  0.25829725  1
  O  O110  1  0.47769019  0.94463279  0.39952134  1
  O  O111  1  0.03845279  0.40512733  0.93709202  1
  O  O112  1  0.23303439  0.50331577  0.82541528  1
  O  O113  1  0.00683531  0.02926157  0.75829725  1
  O  O114  1  0.51929457  0.30845847  0.97722215  1
  O  O115  1  0.54621618  0.29040522  0.67758415  1
  O  O116  1  0.45378382  0.70959478  0.32241585  1
  O  O117  1  0.99316469  0.97073843  0.24170275  1
  O  O118  1  0.50683531  0.02926157  0.74170275  1
  O  O119  1  0.44680951  0.33360228  0.83976578  1
  F  F120  1  0.82281157  0.27169436  0.41665366  1
  F  F121  1  0.29901598  0.05796727  0.16402614  1
  F  F122  1  0.79901598  0.05796727  0.33597386  1
  F  F123  1  0.20098402  0.55796727  0.16402614  1
  F  F124  1  0.67718843  0.72830564  0.91665366  1
  F  F125  1  0.82281157  0.22830564  0.91665366  1
  F  F126  1  0.29901598  0.44203273  0.66402614  1
  F  F127  1  0.32281157  0.22830564  0.58334634  1
  F  F128  1  0.70098402  0.55796727  0.33597386  1
  F  F129  1  0.20098402  0.94203273  0.66402614  1
  F  F130  1  0.32281157  0.27169436  0.08334634  1
  F  F131  1  0.70098402  0.94203273  0.83597386  1
  F  F132  1  0.67718843  0.77169436  0.41665366  1
  F  F133  1  0.17718843  0.77169436  0.08334634  1
  F  F134  1  0.79901598  0.44203273  0.83597386  1
  F  F135  1  0.17718843  0.72830564  0.58334634  1
