# generated using pymatgen
data_Nd4Ga2O9
_symmetry_space_group_name_H-M   'P 1'
_cell_length_a   7.81794436
_cell_length_b   11.07774194
_cell_length_c   11.65171147
_cell_angle_alpha   90.00000000
_cell_angle_beta   108.99849465
_cell_angle_gamma   90.00000000
_symmetry_Int_Tables_number   1
_chemical_formula_structural   Nd4Ga2O9
_chemical_formula_sum   'Nd16 Ga8 O36'
_cell_volume   954.12996402
_cell_formula_units_Z   4
loop_
 _symmetry_equiv_pos_site_id
 _symmetry_equiv_pos_as_xyz
  1  'x, y, z'
loop_
 _atom_site_type_symbol
 _atom_site_label
 _atom_site_symmetry_multiplicity
 _atom_site_fract_x
 _atom_site_fract_y
 _atom_site_fract_z
 _atom_site_occupancy
  Nd  Nd0  1  0.52232512  0.39410205  0.28332519  1
  Nd  Nd1  1  0.52232512  0.10589795  0.78332519  1
  Nd  Nd2  1  0.66413773  0.87673970  0.56817237  1
  Nd  Nd3  1  0.97660408  0.90890296  0.19387732  1
  Nd  Nd4  1  0.02339592  0.40890296  0.30612268  1
  Nd  Nd5  1  0.33586227  0.12326030  0.43182763  1
  Nd  Nd6  1  0.97660408  0.59109704  0.69387732  1
  Nd  Nd7  1  0.66413773  0.62326030  0.06817237  1
  Nd  Nd8  1  0.16509399  0.62001340  0.08885736  1
  Nd  Nd9  1  0.16509399  0.87998660  0.58885736  1
  Nd  Nd10  1  0.47767488  0.60589795  0.71667481  1
  Nd  Nd11  1  0.33586227  0.37673970  0.93182763  1
  Nd  Nd12  1  0.47767488  0.89410205  0.21667481  1
  Nd  Nd13  1  0.02339592  0.09109704  0.80612268  1
  Nd  Nd14  1  0.83490601  0.37998660  0.91114264  1
  Nd  Nd15  1  0.83490601  0.12001340  0.41114264  1
  Ga  Ga16  1  0.21612852  0.18549340  0.12617028  1
  Ga  Ga17  1  0.34394908  0.68282739  0.38581017  1
  Ga  Ga18  1  0.34394908  0.81717261  0.88581017  1
  Ga  Ga19  1  0.65605092  0.31717261  0.61418983  1
  Ga  Ga20  1  0.65605092  0.18282739  0.11418983  1
  Ga  Ga21  1  0.21612852  0.31450660  0.62617028  1
  Ga  Ga22  1  0.78387148  0.68549340  0.37382972  1
  Ga  Ga23  1  0.78387148  0.81450660  0.87382972  1
  O  O24  1  0.56714752  0.74919454  0.38676056  1
  O  O25  1  0.63899477  0.22977989  0.95984872  1
  O  O26  1  0.21402543  0.77304381  0.25069894  1
  O  O27  1  0.92211715  0.00592180  0.60528382  1
  O  O28  1  0.43363505  0.50956169  0.10405736  1
  O  O29  1  0.70295584  0.02736240  0.17537239  1
  O  O30  1  0.76567096  0.77096013  0.23166105  1
  O  O31  1  0.78381573  0.52425426  0.33753747  1
  O  O32  1  0.70295584  0.47263760  0.67537239  1
  O  O33  1  0.07788285  0.50592180  0.89471618  1
  O  O34  1  0.21402543  0.72695619  0.75069894  1
  O  O35  1  0.23432904  0.27096013  0.26833895  1
  O  O36  1  0.63899477  0.27022011  0.45984872  1
  O  O37  1  0.76567096  0.72903987  0.73166105  1
  O  O38  1  0.43363505  0.99043831  0.60405736  1
  O  O39  1  0.92597828  0.73563453  0.52496012  1
  O  O40  1  0.21618427  0.47574574  0.66246253  1
  O  O41  1  0.92597828  0.76436547  0.02496012  1
  O  O42  1  0.78381573  0.97574574  0.83753747  1
  O  O43  1  0.36100523  0.77022011  0.04015128  1
  O  O44  1  0.56714752  0.75080546  0.88676056  1
  O  O45  1  0.07788285  0.99407820  0.39471618  1
  O  O46  1  0.36100523  0.72977989  0.54015128  1
  O  O47  1  0.56636495  0.00956169  0.39594264  1
  O  O48  1  0.07402172  0.26436547  0.47503988  1
  O  O49  1  0.07402172  0.23563453  0.97503988  1
  O  O50  1  0.29704416  0.97263760  0.82462761  1
  O  O51  1  0.78597457  0.27304381  0.24930106  1
  O  O52  1  0.23432904  0.22903987  0.76833895  1
  O  O53  1  0.21618427  0.02425426  0.16246253  1
  O  O54  1  0.78597457  0.22695619  0.74930106  1
  O  O55  1  0.29704416  0.52736240  0.32462761  1
  O  O56  1  0.92211715  0.49407820  0.10528382  1
  O  O57  1  0.43285248  0.25080546  0.61323944  1
  O  O58  1  0.43285248  0.24919454  0.11323944  1
  O  O59  1  0.56636495  0.49043831  0.89594264  1
