# generated using pymatgen
data_S
_symmetry_space_group_name_H-M   'P 1'
_cell_length_a   11.85825288
_cell_length_b   11.59914210
_cell_length_c   11.86138635
_cell_angle_alpha   90.00000000
_cell_angle_beta   98.35936090
_cell_angle_gamma   90.00000000
_symmetry_Int_Tables_number   1
_chemical_formula_structural   S
_chemical_formula_sum   S48
_cell_volume   1614.14768410
_cell_formula_units_Z   48
loop_
 _symmetry_equiv_pos_site_id
 _symmetry_equiv_pos_as_xyz
  1  'x, y, z'
loop_
 _atom_site_type_symbol
 _atom_site_label
 _atom_site_symmetry_multiplicity
 _atom_site_fract_x
 _atom_site_fract_y
 _atom_site_fract_z
 _atom_site_occupancy
  S  S0  1  0.78745553  0.68025817  0.73035309  1
  S  S1  1  0.04970163  0.98236321  0.96146943  1
  S  S2  1  0.21254447  0.18025817  0.26964691  1
  S  S3  1  0.34027656  0.92384087  0.24573136  1
  S  S4  1  0.54665979  0.84537673  0.95096969  1
  S  S5  1  0.27671910  0.14885957  0.74602427  1
  S  S6  1  0.15360749  0.40689549  0.77507865  1
  S  S7  1  0.23552135  0.81975344  0.13488728  1
  S  S8  1  0.24208626  0.01916464  0.34158334  1
  S  S9  1  0.16684477  0.55839620  0.33617430  1
  S  S10  1  0.70039490  0.93141660  0.96086559  1
  S  S11  1  0.24651780  0.31033136  0.67505750  1
  S  S12  1  0.95029837  0.48236321  0.03853057  1
  S  S13  1  0.26341977  0.51000028  0.88203427  1
  S  S14  1  0.84639251  0.90689549  0.22492135  1
  S  S15  1  0.94529747  0.68069999  0.83036602  1
  S  S16  1  0.07534466  0.15414061  1.00185501  1
  S  S17  1  0.83315523  0.05839620  0.66382570  1
  S  S18  1  0.07157172  0.76427490  0.49911702  1
  S  S19  1  0.43774632  0.61853366  0.44975558  1
  S  S20  1  0.65972344  0.42384087  0.75426864  1
  S  S21  1  0.34275576  0.82604543  0.61079555  1
  S  S22  1  0.92842828  0.26427490  0.50088298  1
  S  S23  1  0.56247071  0.64680969  0.15976469  1
  S  S24  1  0.05915454  0.59249307  0.45388358  1
  S  S25  1  0.72328090  0.64885957  0.25397573  1
  S  S26  1  0.79506119  0.39850638  0.02249201  1
  S  S27  1  0.05470253  0.18069999  0.16963398  1
  S  S28  1  0.29960510  0.43141660  0.03913441  1
  S  S29  1  0.94084546  0.09249307  0.54611642  1
  S  S30  1  0.31720401  0.48991220  0.41865888  1
  S  S31  1  0.44152209  0.67927599  0.61375301  1
  S  S32  1  0.57588258  0.67384173  0.99030622  1
  S  S33  1  0.75348220  0.81033136  0.32494250  1
  S  S34  1  0.42411742  0.17384173  0.00969378  1
  S  S35  1  0.75791374  0.51916464  0.65841666  1
  S  S36  1  0.65724424  0.32604543  0.38920445  1
  S  S37  1  0.73658023  0.01000028  0.11796573  1
  S  S38  1  0.18367444  0.78249981  0.64835040  1
  S  S39  1  0.76447865  0.31975344  0.86511272  1
  S  S40  1  0.92465534  0.65414061  -0.00185501  1
  S  S41  1  0.43752929  0.14680969  0.84023531  1
  S  S42  1  0.45334021  0.34537673  0.04903031  1
  S  S43  1  0.68279599  0.98991220  0.58134112  1
  S  S44  1  0.56225368  0.11853366  0.55024442  1
  S  S45  1  0.81632556  0.28249981  0.35164960  1
  S  S46  1  0.55847791  0.17927599  0.38624699  1
  S  S47  1  0.20493881  0.89850638  0.97750799  1
