# generated using pymatgen
data_Tl2Cu3(SeO3)6
_symmetry_space_group_name_H-M   'P 1'
_cell_length_a   4.85234113
_cell_length_b   9.82928322
_cell_length_c   10.21161304
_cell_angle_alpha   67.86275115
_cell_angle_beta   82.13238701
_cell_angle_gamma   79.47687066
_symmetry_Int_Tables_number   1
_chemical_formula_structural   Tl2Cu3(SeO3)6
_chemical_formula_sum   'Tl2 Cu3 Se6 O18'
_cell_volume   442.31216622
_cell_formula_units_Z   1
loop_
 _symmetry_equiv_pos_site_id
 _symmetry_equiv_pos_as_xyz
  1  'x, y, z'
loop_
 _atom_site_type_symbol
 _atom_site_label
 _atom_site_symmetry_multiplicity
 _atom_site_fract_x
 _atom_site_fract_y
 _atom_site_fract_z
 _atom_site_occupancy
  Tl  Tl0  1  0.44685685  0.31580751  0.67790468  1
  Tl  Tl1  1  0.55314315  0.68419249  0.32209532  1
  Cu  Cu2  1  0.20603539  0.52993533  0.08652330  1
  Cu  Cu3  1  0.79396461  0.47006467  0.91347670  1
  Cu  Cu4  1  0.00000000  0.00000000  0.00000000  1
  Se  Se5  1  0.62473314  0.78431251  0.96209482  1
  Se  Se6  1  0.91277568  0.92443897  0.34970872  1
  Se  Se7  1  0.08722432  0.07556103  0.65029128  1
  Se  Se8  1  0.31109580  0.64293954  0.67892199  1
  Se  Se9  1  0.68890420  0.35706046  0.32107801  1
  Se  Se10  1  0.37526686  0.21568749  0.03790518  1
  O  O11  1  0.90057973  0.64117608  0.95762924  1
  O  O12  1  0.57424738  0.57757152  0.57679647  1
  O  O13  1  0.26190057  0.14580964  0.92338828  1
  O  O14  1  0.97816217  0.03610560  0.17449102  1
  O  O15  1  0.09942027  0.35882392  0.04237076  1
  O  O16  1  0.42575262  0.42242848  0.42320353  1
  O  O17  1  0.87038443  0.50958944  0.26908055  1
  O  O18  1  0.37479686  0.69624487  0.09466119  1
  O  O19  1  0.73809943  0.85419036  0.07661172  1
  O  O20  1  0.48370235  0.61919229  0.82491993  1
  O  O21  1  0.43229191  0.10627780  0.63738688  1
  O  O22  1  0.51629765  0.38080771  0.17508007  1
  O  O23  1  0.92856821  0.25319873  0.63545223  1
  O  O24  1  0.56770809  0.89372220  0.36261312  1
  O  O25  1  0.07143179  0.74680127  0.36454777  1
  O  O26  1  0.02183783  0.96389440  0.82550898  1
  O  O27  1  0.12961557  0.49041056  0.73091945  1
  O  O28  1  0.62520314  0.30375513  0.90533881  1
