# generated using pymatgen
data_Tl2Te3O7
_symmetry_space_group_name_H-M   'P 1'
_cell_length_a   6.96750367
_cell_length_b   7.62993024
_cell_length_c   10.35329955
_cell_angle_alpha   93.00024068
_cell_angle_beta   109.14378302
_cell_angle_gamma   111.92835620
_symmetry_Int_Tables_number   1
_chemical_formula_structural   Tl2Te3O7
_chemical_formula_sum   'Tl4 Te6 O14'
_cell_volume   472.64811734
_cell_formula_units_Z   2
loop_
 _symmetry_equiv_pos_site_id
 _symmetry_equiv_pos_as_xyz
  1  'x, y, z'
loop_
 _atom_site_type_symbol
 _atom_site_label
 _atom_site_symmetry_multiplicity
 _atom_site_fract_x
 _atom_site_fract_y
 _atom_site_fract_z
 _atom_site_occupancy
  Tl  Tl0  1  0.88683632  0.14563912  0.83028184  1
  Tl  Tl1  1  0.29553379  0.04050787  0.56595609  1
  Tl  Tl2  1  0.11316368  0.85436088  0.16971816  1
  Tl  Tl3  1  0.70446621  0.95949213  0.43404391  1
  Te  Te4  1  0.48771806  0.20914743  0.98961745  1
  Te  Te5  1  0.13535143  0.35218196  0.23772078  1
  Te  Te6  1  0.25958935  0.50620517  0.66465334  1
  Te  Te7  1  0.86464857  0.64781804  0.76227922  1
  Te  Te8  1  0.51228194  0.79085257  0.01038255  1
  Te  Te9  1  0.74041065  0.49379483  0.33534666  1
  O  O10  1  0.05689451  0.46986001  0.37092204  1
  O  O11  1  0.55722965  0.46019853  0.69165165  1
  O  O12  1  0.16835933  0.15057481  0.32442338  1
  O  O13  1  0.35009543  0.90476118  0.87713384  1
  O  O14  1  0.83164067  0.84942519  0.67557662  1
  O  O15  1  0.32221558  0.53453272  0.86545059  1
  O  O16  1  0.67778442  0.46546728  0.13454941  1
  O  O17  1  0.64990457  0.09523882  0.12286616  1
  O  O18  1  0.89085386  0.76098660  0.36653781  1
  O  O19  1  0.44277035  0.53980147  0.30834835  1
  O  O20  1  0.94310549  0.53013999  0.62907796  1
  O  O21  1  0.76450305  0.84365858  0.96499331  1
  O  O22  1  0.10914614  0.23901340  0.63346219  1
  O  O23  1  0.23549695  0.15634142  0.03500669  1
