# generated using pymatgen
data_Li3U7(PO7)5
_symmetry_space_group_name_H-M   'P 1'
_cell_length_a   10.05756644
_cell_length_b   10.05756644
_cell_length_c   14.77228827
_cell_angle_alpha   90.00000000
_cell_angle_beta   90.00000000
_cell_angle_gamma   90.00000000
_symmetry_Int_Tables_number   1
_chemical_formula_structural   Li3U7(PO7)5
_chemical_formula_sum   'Li6 U14 P10 O70'
_cell_volume   1494.28554174
_cell_formula_units_Z   2
loop_
 _symmetry_equiv_pos_site_id
 _symmetry_equiv_pos_as_xyz
  1  'x, y, z'
loop_
 _atom_site_type_symbol
 _atom_site_label
 _atom_site_symmetry_multiplicity
 _atom_site_fract_x
 _atom_site_fract_y
 _atom_site_fract_z
 _atom_site_occupancy
  Li  Li0  1  0.50000000  0.00000000  0.70001950  1
  Li  Li1  1  0.20427544  0.70427544  0.86747565  1
  Li  Li2  1  0.29572456  0.20427544  0.13252435  1
  Li  Li3  1  0.70427544  0.79572456  0.13252435  1
  Li  Li4  1  0.79572456  0.29572456  0.86747565  1
  Li  Li5  1  0.00000000  0.50000000  0.29998050  1
  U  U6  1  0.26182902  0.76182902  0.28110790  1
  U  U7  1  0.24816193  0.74816193  0.56881521  1
  U  U8  1  0.00000000  0.00000000  0.14323464  1
  U  U9  1  0.50000000  0.50000000  0.85676536  1
  U  U10  1  0.00000000  0.00000000  0.85676536  1
  U  U11  1  0.50000000  0.50000000  0.14323464  1
  U  U12  1  0.23817098  0.26182902  0.71889210  1
  U  U13  1  0.76182902  0.73817098  0.71889210  1
  U  U14  1  0.50000000  0.00000000  0.98801480  1
  U  U15  1  0.73817098  0.23817098  0.28110790  1
  U  U16  1  0.75183807  0.25183807  0.56881521  1
  U  U17  1  0.74816193  0.75183807  0.43118479  1
  U  U18  1  0.00000000  0.50000000  0.01198520  1
  U  U19  1  0.25183807  0.24816193  0.43118479  1
  P  P20  1  0.50000000  0.50000000  0.36347264  1
  P  P21  1  0.75467966  0.74532034  0.93749198  1
  P  P22  1  0.00000000  0.00000000  0.36347264  1
  P  P23  1  0.00000000  0.50000000  0.48684414  1
  P  P24  1  0.24532034  0.25467966  0.93749198  1
  P  P25  1  0.74532034  0.24532034  0.06250802  1
  P  P26  1  0.25467966  0.75467966  0.06250802  1
  P  P27  1  0.50000000  0.50000000  0.63652736  1
  P  P28  1  0.00000000  0.00000000  0.63652736  1
  P  P29  1  0.50000000  0.00000000  0.51315586  1
  O  O30  1  0.26247175  0.76247175  0.44099486  1
  O  O31  1  0.38731267  0.88731267  0.27938972  1
  O  O32  1  0.16461247  0.66461247  0.00370353  1
  O  O33  1  0.58457709  0.40477304  0.57903248  1
  O  O34  1  0.83930562  0.66069438  0.00172621  1
  O  O35  1  0.13440544  0.63440544  0.28265359  1
  O  O36  1  0.73752825  0.23752825  0.44099486  1
  O  O37  1  0.08809445  0.41190555  0.42278587  1
  O  O38  1  0.62354391  0.36698979  0.85162502  1
  O  O39  1  0.61268733  0.11268733  0.27938972  1
  O  O40  1  0.40477304  0.41542291  0.42096752  1
  O  O41  1  0.91542291  0.90477304  0.42096752  1
  O  O42  1  0.09112467  0.92054441  0.29640852  1
  O  O43  1  0.59522696  0.58457709  0.42096752  1
  O  O44  1  0.86698979  0.12354391  0.85162502  1
  O  O45  1  0.83538753  0.33538753  0.00370353  1
  O  O46  1  0.36698979  0.37645609  0.14837498  1
  O  O47  1  0.26453243  0.23546757  0.30936544  1
  O  O48  1  0.66069438  0.16069438  0.99827379  1
  O  O49  1  0.11268733  0.38731267  0.72061028  1
  O  O50  1  0.37645609  0.63301021  0.85162502  1
  O  O51  1  0.90887533  0.07945559  0.29640852  1
  O  O52  1  0.88731267  0.61268733  0.72061028  1
  O  O53  1  0.86559456  0.36559456  0.28265359  1
  O  O54  1  0.76453243  0.26453243  0.69063456  1
  O  O55  1  0.36559456  0.13440544  0.71734641  1
  O  O56  1  0.00000000  0.50000000  0.13475771  1
  O  O57  1  0.15922314  0.17263309  0.86959530  1
  O  O58  1  0.33930562  0.83930562  0.99827379  1
  O  O59  1  0.50000000  0.50000000  0.00000000  1
  O  O60  1  0.76247175  0.73752825  0.55900514  1
  O  O61  1  0.41190555  0.91190555  0.57721413  1
  O  O62  1  0.23546757  0.73546757  0.69063456  1
  O  O63  1  0.34077686  0.67263309  0.13040470  1
  O  O64  1  0.90965528  0.40965528  0.54558443  1
  O  O65  1  0.92054441  0.90887533  0.70359148  1
  O  O66  1  0.59034472  0.90965528  0.45441557  1
  O  O67  1  0.65922314  0.32736691  0.13040470  1
  O  O68  1  0.16069438  0.33930562  0.00172621  1
  O  O69  1  0.09522696  0.91542291  0.57903248  1
  O  O70  1  0.09034472  0.59034472  0.54558443  1
  O  O71  1  0.67263309  0.65922314  0.86959530  1
  O  O72  1  0.32736691  0.34077686  0.86959530  1
  O  O73  1  0.07945559  0.09112467  0.70359148  1
  O  O74  1  0.08457709  0.09522696  0.42096752  1
  O  O75  1  0.50000000  0.00000000  0.86524229  1
  O  O76  1  0.12354391  0.13301021  0.14837498  1
  O  O77  1  0.40887533  0.42054441  0.70359148  1
  O  O78  1  0.23752825  0.26247175  0.55900514  1
  O  O79  1  0.33538753  0.16461247  0.99629647  1
  O  O80  1  0.84077686  0.82736691  0.86959530  1
  O  O81  1  0.63440544  0.86559456  0.71734641  1
  O  O82  1  0.17263309  0.84077686  0.13040470  1
  O  O83  1  0.73546757  0.76453243  0.30936544  1
  O  O84  1  0.82736691  0.15922314  0.13040470  1
  O  O85  1  0.42054441  0.59112467  0.29640852  1
  O  O86  1  0.00000000  0.50000000  0.88952648  1
  O  O87  1  0.41542291  0.59522696  0.57903248  1
  O  O88  1  0.40965528  0.09034472  0.45441557  1
  O  O89  1  0.57945559  0.40887533  0.29640852  1
  O  O90  1  0.00000000  0.00000000  0.00000000  1
  O  O91  1  0.63301021  0.62354391  0.14837498  1
  O  O92  1  0.90477304  0.08457709  0.57903248  1
  O  O93  1  0.91190555  0.58809445  0.42278587  1
  O  O94  1  0.59112467  0.57945559  0.70359148  1
  O  O95  1  0.58809445  0.08809445  0.57721413  1
  O  O96  1  0.13301021  0.87645609  0.85162502  1
  O  O97  1  0.87645609  0.86698979  0.14837498  1
  O  O98  1  0.50000000  0.00000000  0.11047352  1
  O  O99  1  0.66461247  0.83538753  0.99629647  1
