# generated using pymatgen
data_CsZnPO4
_symmetry_space_group_name_H-M   'P 1'
_cell_length_a   5.49974841
_cell_length_b   9.40294422
_cell_length_c   9.50502903
_cell_angle_alpha   90.00000000
_cell_angle_beta   90.00000000
_cell_angle_gamma   90.00000000
_symmetry_Int_Tables_number   1
_chemical_formula_structural   CsZnPO4
_chemical_formula_sum   'Cs4 Zn4 P4 O16'
_cell_volume   491.54143186
_cell_formula_units_Z   4
loop_
 _symmetry_equiv_pos_site_id
 _symmetry_equiv_pos_as_xyz
  1  'x, y, z'
loop_
 _atom_site_type_symbol
 _atom_site_label
 _atom_site_symmetry_multiplicity
 _atom_site_fract_x
 _atom_site_fract_y
 _atom_site_fract_z
 _atom_site_occupancy
  Cs  Cs0  1  0.76194979  0.00351569  0.79653801  1
  Cs  Cs1  1  0.26194979  0.49648431  0.29653801  1
  Cs  Cs2  1  0.26194979  0.99648431  0.20346199  1
  Cs  Cs3  1  0.76194979  0.50351569  0.70346199  1
  Zn  Zn4  1  0.25157621  0.32585013  0.91736284  1
  Zn  Zn5  1  0.75157621  0.17414987  0.41736284  1
  Zn  Zn6  1  0.25157621  0.82585013  0.58263716  1
  Zn  Zn7  1  0.75157621  0.67414987  0.08263716  1
  P  P8  1  0.75199146  0.80432192  0.41235420  1
  P  P9  1  0.25199146  0.19567808  0.58764580  1
  P  P10  1  0.75199146  0.30432192  0.08764580  1
  P  P11  1  0.25199146  0.69567808  0.91235420  1
  O  O12  1  0.57674055  0.75805114  0.53323011  1
  O  O13  1  0.07674055  0.74194886  0.03323011  1
  O  O14  1  0.66228451  0.23489033  0.22608299  1
  O  O15  1  0.57674055  0.25805114  0.96676989  1
  O  O16  1  0.01170230  0.74798159  0.44914472  1
  O  O17  1  0.16228451  0.26510967  0.72608299  1
  O  O18  1  0.51170230  0.25201841  0.55085528  1
  O  O19  1  0.01170230  0.24798159  0.05085528  1
  O  O20  1  0.25565518  0.03277241  0.60525234  1
  O  O21  1  0.07674055  0.24194886  0.46676989  1
  O  O22  1  0.75565518  0.46722759  0.10525234  1
  O  O23  1  0.75565518  0.96722759  0.39474766  1
  O  O24  1  0.25565518  0.53277241  0.89474766  1
  O  O25  1  0.16228451  0.76510967  0.77391701  1
  O  O26  1  0.66228451  0.73489033  0.27391701  1
  O  O27  1  0.51170230  0.75201841  0.94914472  1
