# generated using pymatgen
data_K3Ti3(PO4)5
_symmetry_space_group_name_H-M   'P 1'
_cell_length_a   6.36779794
_cell_length_b   14.87759434
_cell_length_c   18.34233990
_cell_angle_alpha   90.00000000
_cell_angle_beta   90.00000000
_cell_angle_gamma   90.00000000
_symmetry_Int_Tables_number   1
_chemical_formula_structural   K3Ti3(PO4)5
_chemical_formula_sum   'K12 Ti12 P20 O80'
_cell_volume   1737.70769390
_cell_formula_units_Z   4
loop_
 _symmetry_equiv_pos_site_id
 _symmetry_equiv_pos_as_xyz
  1  'x, y, z'
loop_
 _atom_site_type_symbol
 _atom_site_label
 _atom_site_symmetry_multiplicity
 _atom_site_fract_x
 _atom_site_fract_y
 _atom_site_fract_z
 _atom_site_occupancy
  K  K0  1  0.34269665  0.74726623  0.17805576  1
  K  K1  1  0.62142869  0.51998942  0.84719954  1
  K  K2  1  0.65730335  0.24726623  0.82194424  1
  K  K3  1  0.36217258  0.46872191  0.14576758  1
  K  K4  1  0.63782742  0.46872191  0.64576758  1
  K  K5  1  0.37857131  0.51998942  0.34719954  1
  K  K6  1  0.63782742  0.96872191  0.85423242  1
  K  K7  1  0.62142869  0.01998942  0.65280046  1
  K  K8  1  0.37857131  0.01998942  0.15280046  1
  K  K9  1  0.65730335  0.74726623  0.67805576  1
  K  K10  1  0.36217258  0.96872191  0.35423242  1
  K  K11  1  0.34269665  0.24726623  0.32194424  1
  Ti  Ti12  1  0.75398036  0.85499631  0.05314685  1
  Ti  Ti13  1  0.75040228  0.25017382  0.14847387  1
  Ti  Ti14  1  0.24893073  0.11698294  0.95753839  1
  Ti  Ti15  1  0.24601964  0.35499631  0.94685315  1
  Ti  Ti16  1  0.24959772  0.75017382  0.85152613  1
  Ti  Ti17  1  0.24959772  0.25017382  0.64847387  1
  Ti  Ti18  1  0.75106927  0.11698294  0.45753839  1
  Ti  Ti19  1  0.24893073  0.61698294  0.54246161  1
  Ti  Ti20  1  0.75398036  0.35499631  0.44685315  1
  Ti  Ti21  1  0.75106927  0.61698294  0.04246161  1
  Ti  Ti22  1  0.75040228  0.75017382  0.35152613  1
  Ti  Ti23  1  0.24601964  0.85499631  0.55314685  1
  P  P24  1  0.13585366  0.09807384  0.77991107  1
  P  P25  1  0.25336500  0.08925458  0.51259239  1
  P  P26  1  0.25474146  0.88454935  0.00575244  1
  P  P27  1  0.25474146  0.38454935  0.49424756  1
  P  P28  1  0.86634728  0.40784733  0.27224876  1
  P  P29  1  0.86634728  0.90784733  0.22775124  1
  P  P30  1  0.86414634  0.59807384  0.22008893  1
  P  P31  1  0.74757557  0.24521515  0.60405959  1
  P  P32  1  0.74663500  0.08925458  0.01259239  1
  P  P33  1  0.13365272  0.90784733  0.72775124  1
  P  P34  1  0.74525854  0.38454935  0.99424756  1
  P  P35  1  0.13365272  0.40784733  0.77224876  1
  P  P36  1  0.74757557  0.74521515  0.89594041  1
  P  P37  1  0.74525854  0.88454935  0.50575244  1
  P  P38  1  0.86414634  0.09807384  0.27991107  1
  P  P39  1  0.13585366  0.59807384  0.72008893  1
  P  P40  1  0.25242443  0.74521515  0.39594041  1
  P  P41  1  0.25336500  0.58925458  0.98740761  1
  P  P42  1  0.74663500  0.58925458  0.48740761  1
  P  P43  1  0.25242443  0.24521515  0.10405959  1
  O  O44  1  0.24872938  0.67636993  0.75973338  1
  O  O45  1  0.26232437  0.98457168  0.98690405  1
  O  O46  1  0.05303207  0.11245276  0.46893228  1
  O  O47  1  0.24856126  0.07975949  0.85346407  1
  O  O48  1  0.25074698  0.73400925  0.57011446  1
  O  O49  1  0.24856126  0.57975949  0.64653593  1
  O  O50  1  0.94403153  0.86135251  0.55013131  1
  O  O51  1  0.73683493  0.32662477  0.06418457  1
  O  O52  1  0.04937500  0.74684021  0.34971553  1
  O  O53  1  0.24872938  0.17636993  0.74026662  1
  O  O54  1  0.75127062  0.67636993  0.25973338  1
  O  O55  1  0.94696793  0.11245276  0.96893228  1
  O  O56  1  0.89805368  0.40198649  0.77284880  1
  O  O57  1  0.74991128  0.87782793  0.15815873  1
  O  O58  1  0.56273572  0.11318182  0.96028266  1
  O  O59  1  0.24656732  0.36275138  0.70711762  1
  O  O60  1  0.73659283  0.15532266  0.56254820  1
  O  O61  1  0.73683493  0.82662477  0.43581543  1
  O  O62  1  0.44006838  0.86001364  0.05677182  1
  O  O63  1  0.56277673  0.25100263  0.65894359  1
  O  O64  1  0.90033309  0.10253326  0.78387100  1
  O  O65  1  0.75127062  0.17636993  0.24026662  1
  O  O66  1  0.95062500  0.74684021  0.84971553  1
  O  O67  1  0.75343268  0.36275138  0.20711762  1
  O  O68  1  0.94696793  0.61245276  0.53106772  1
  O  O69  1  0.73909493  0.98874830  0.03101030  1
  O  O70  1  0.75143874  0.57975949  0.14653593  1
  O  O71  1  0.95062500  0.24684021  0.65028447  1
  O  O72  1  0.73909493  0.48874830  0.46898970  1
  O  O73  1  0.10194632  0.40198649  0.27284880  1
  O  O74  1  0.26316507  0.82662477  0.93581543  1
  O  O75  1  0.26641061  0.14354846  0.58494057  1
  O  O76  1  0.25613566  0.82887957  0.44593395  1
  O  O77  1  0.73358939  0.64354846  0.41505943  1
  O  O78  1  0.26340717  0.65532266  0.43745180  1
  O  O79  1  0.44006838  0.36001364  0.44322818  1
  O  O80  1  0.24656732  0.86275138  0.79288238  1
  O  O81  1  0.21116533  0.51255237  0.76951308  1
  O  O82  1  0.05596847  0.36135251  0.44986869  1
  O  O83  1  0.05596847  0.86135251  0.05013131  1
  O  O84  1  0.78883467  0.51255237  0.26951308  1
  O  O85  1  0.43722327  0.25100263  0.15894359  1
  O  O86  1  0.94403153  0.36135251  0.94986869  1
  O  O87  1  0.74386434  0.32887957  0.55406605  1
  O  O88  1  0.56277673  0.75100263  0.84105641  1
  O  O89  1  0.89805368  0.90198649  0.72715120  1
  O  O90  1  0.10194632  0.90198649  0.22715120  1
  O  O91  1  0.25074698  0.23400925  0.92988554  1
  O  O92  1  0.09966691  0.10253326  0.28387100  1
  O  O93  1  0.04937500  0.24684021  0.15028447  1
  O  O94  1  0.43726428  0.11318182  0.46028266  1
  O  O95  1  0.26232437  0.48457168  0.51309595  1
  O  O96  1  0.26340717  0.15532266  0.06254820  1
  O  O97  1  0.25008872  0.87782793  0.65815873  1
  O  O98  1  0.73767563  0.48457168  0.01309595  1
  O  O99  1  0.26090507  0.98874830  0.53101030  1
  O  O100  1  0.25008872  0.37782793  0.84184127  1
  O  O101  1  0.26090507  0.48874830  0.96898970  1
  O  O102  1  0.55993162  0.86001364  0.55677182  1
  O  O103  1  0.26641061  0.64354846  0.91505943  1
  O  O104  1  0.43726428  0.61318182  0.03971734  1
  O  O105  1  0.55993162  0.36001364  0.94322818  1
  O  O106  1  0.56273572  0.61318182  0.53971734  1
  O  O107  1  0.75343268  0.86275138  0.29288238  1
  O  O108  1  0.74386434  0.82887957  0.94593395  1
  O  O109  1  0.09966691  0.60253326  0.21612900  1
  O  O110  1  0.73767563  0.98457168  0.48690405  1
  O  O111  1  0.90033309  0.60253326  0.71612900  1
  O  O112  1  0.74991128  0.37782793  0.34184127  1
  O  O113  1  0.75143874  0.07975949  0.35346407  1
  O  O114  1  0.73659283  0.65532266  0.93745180  1
  O  O115  1  0.43722327  0.75100263  0.34105641  1
  O  O116  1  0.74925302  0.73400925  0.07011446  1
  O  O117  1  0.78883467  0.01255237  0.23048692  1
  O  O118  1  0.26316507  0.32662477  0.56418457  1
  O  O119  1  0.25613566  0.32887957  0.05406605  1
  O  O120  1  0.21116533  0.01255237  0.73048692  1
  O  O121  1  0.05303207  0.61245276  0.03106772  1
  O  O122  1  0.74925302  0.23400925  0.42988554  1
  O  O123  1  0.73358939  0.14354846  0.08494057  1
