# generated using pymatgen
data_UTe3Pb2O11
_symmetry_space_group_name_H-M   'P 1'
_cell_length_a   7.19098678
_cell_length_b   11.72675848
_cell_length_c   13.53832220
_cell_angle_alpha   90.00000000
_cell_angle_beta   90.00000000
_cell_angle_gamma   91.70633936
_symmetry_Int_Tables_number   1
_chemical_formula_structural   UTe3Pb2O11
_chemical_formula_sum   'U4 Te12 Pb8 O44'
_cell_volume   1141.13938661
_cell_formula_units_Z   4
loop_
 _symmetry_equiv_pos_site_id
 _symmetry_equiv_pos_as_xyz
  1  'x, y, z'
loop_
 _atom_site_type_symbol
 _atom_site_label
 _atom_site_symmetry_multiplicity
 _atom_site_fract_x
 _atom_site_fract_y
 _atom_site_fract_z
 _atom_site_occupancy
  U  U0  1  0.10952540  0.74328787  0.27925875  1
  U  U1  1  0.60952540  0.24328787  0.22074125  1
  U  U2  1  0.89047460  0.25671213  0.72074125  1
  U  U3  1  0.39047460  0.75671213  0.77925875  1
  Te  Te4  1  0.59100441  0.92732860  0.25868661  1
  Te  Te5  1  0.06421372  0.08675315  0.26085753  1
  Te  Te6  1  0.90899559  0.57267140  0.75868661  1
  Te  Te7  1  0.93578628  0.91324685  0.73914247  1
  Te  Te8  1  0.27141288  0.25791232  0.51805734  1
  Te  Te9  1  0.40899559  0.07267140  0.74131339  1
  Te  Te10  1  0.22858712  0.24208768  0.01805734  1
  Te  Te11  1  0.72858712  0.74208768  0.48194266  1
  Te  Te12  1  0.56421372  0.58675315  0.23914247  1
  Te  Te13  1  0.43578628  0.41324685  0.76085753  1
  Te  Te14  1  0.77141288  0.75791232  0.98194266  1
  Te  Te15  1  0.09100441  0.42732860  0.24131339  1
  Pb  Pb16  1  0.77791049  0.43333085  0.44728822  1
  Pb  Pb17  1  0.75877648  0.06160350  0.50690004  1
  Pb  Pb18  1  0.22208951  0.56666915  0.55271178  1
  Pb  Pb19  1  0.24122352  0.93839650  0.49309996  1
  Pb  Pb20  1  0.25877648  0.56160350  0.99309996  1
  Pb  Pb21  1  0.74122352  0.43839650  0.00690004  1
  Pb  Pb22  1  0.72208951  0.06666915  0.94728822  1
  Pb  Pb23  1  0.27791049  0.93333085  0.05271178  1
  O  O24  1  0.79853068  0.09173369  0.28683875  1
  O  O25  1  0.21652250  0.73007223  0.40431845  1
  O  O26  1  0.08916870  0.93874987  0.32010778  1
  O  O27  1  0.29853068  0.59173369  0.21316125  1
  O  O28  1  0.52854677  0.94560580  0.39522511  1
  O  O29  1  0.78347750  0.26992777  0.59568155  1
  O  O30  1  0.45993774  0.45527627  0.62656228  1
  O  O31  1  0.50854198  0.26217438  0.34571497  1
  O  O32  1  0.20146932  0.90826631  0.71316125  1
  O  O33  1  0.11996715  0.67532435  0.72279937  1
  O  O34  1  0.71652250  0.23007223  0.09568155  1
  O  O35  1  0.82243237  0.75608278  0.34942952  1
  O  O36  1  0.13175115  0.38403296  0.47331526  1
  O  O37  1  0.70146932  0.40826631  0.78683875  1
  O  O38  1  0.61996715  0.17532435  0.77720063  1
  O  O39  1  0.88003285  0.32467565  0.27720063  1
  O  O40  1  0.46192877  0.05210746  0.20197615  1
  O  O41  1  0.02854677  0.44560580  0.10477489  1
  O  O42  1  0.37165929  0.36721605  0.96384287  1
  O  O43  1  0.97145323  0.55439420  0.89522511  1
  O  O44  1  0.36824885  0.11596704  0.97331526  1
  O  O45  1  0.86824885  0.61596704  0.52668474  1
  O  O46  1  0.38003285  0.82467565  0.22279937  1
  O  O47  1  0.00854198  0.76217438  0.15428503  1
  O  O48  1  0.87165929  0.86721605  0.53615713  1
  O  O49  1  0.03807123  0.44789254  0.70197615  1
  O  O50  1  0.95993774  0.95527627  0.87343772  1
  O  O51  1  0.58916870  0.43874987  0.17989222  1
  O  O52  1  0.91083130  0.06125013  0.67989222  1
  O  O53  1  0.17756763  0.24391722  0.65057048  1
  O  O54  1  0.63175115  0.88403296  0.02668474  1
  O  O55  1  0.96192877  0.55210746  0.29802385  1
  O  O56  1  0.12834071  0.13278395  0.46384287  1
  O  O57  1  0.67756763  0.74391722  0.84942952  1
  O  O58  1  0.62834071  0.63278395  0.03615713  1
  O  O59  1  0.54006226  0.54472373  0.37343772  1
  O  O60  1  0.99145802  0.23782562  0.84571497  1
  O  O61  1  0.47145323  0.05439420  0.60477489  1
  O  O62  1  0.49145802  0.73782562  0.65428503  1
  O  O63  1  0.28347750  0.76992777  0.90431845  1
  O  O64  1  0.04006226  0.04472373  0.12656228  1
  O  O65  1  0.53807123  0.94789254  0.79802385  1
  O  O66  1  0.41083130  0.56125013  0.82010778  1
  O  O67  1  0.32243237  0.25608278  0.15057048  1
