# generated using pymatgen
data_Ca2Mn3Si3O14
_symmetry_space_group_name_H-M   'P 1'
_cell_length_a   6.04904947
_cell_length_b   8.67015687
_cell_length_c   10.43489918
_cell_angle_alpha   107.01727079
_cell_angle_beta   90.00000000
_cell_angle_gamma   90.00000000
_symmetry_Int_Tables_number   1
_chemical_formula_structural   Ca2Mn3Si3O14
_chemical_formula_sum   'Ca4 Mn6 Si6 O28'
_cell_volume   523.30950088
_cell_formula_units_Z   2
loop_
 _symmetry_equiv_pos_site_id
 _symmetry_equiv_pos_as_xyz
  1  'x, y, z'
loop_
 _atom_site_type_symbol
 _atom_site_label
 _atom_site_symmetry_multiplicity
 _atom_site_fract_x
 _atom_site_fract_y
 _atom_site_fract_z
 _atom_site_occupancy
  Ca  Ca0  1  0.75000000  0.33169686  0.18837560  1
  Ca  Ca1  1  0.25000000  0.66830314  0.81162440  1
  Ca  Ca2  1  0.75000000  0.23890384  0.82127852  1
  Ca  Ca3  1  0.25000000  0.76109616  0.17872148  1
  Mn  Mn4  1  -0.00000000  0.50000000  0.50000000  1
  Mn  Mn5  1  0.50000000  0.50000000  0.50000000  1
  Mn  Mn6  1  -0.00000000  0.00000000  -0.00000000  1
  Mn  Mn7  1  0.50000000  0.00000000  -0.00000000  1
  Mn  Mn8  1  0.00000000  0.00000000  0.50000000  1
  Mn  Mn9  1  0.50000000  0.00000000  0.50000000  1
  Si  Si10  1  0.75000000  0.66560348  0.00298076  1
  Si  Si11  1  0.25000000  0.33439652  0.99701924  1
  Si  Si12  1  0.75000000  0.80588500  0.69274996  1
  Si  Si13  1  0.25000000  0.19411500  0.30725004  1
  Si  Si14  1  0.75000000  0.71588229  0.31048184  1
  Si  Si15  1  0.25000000  0.28411771  0.68951816  1
  O  O16  1  0.75000000  0.61608615  0.14924536  1
  O  O17  1  0.25000000  0.38391385  0.85075464  1
  O  O18  1  0.75000000  0.40734834  0.55931501  1
  O  O19  1  0.25000000  0.59265166  0.44068499  1
  O  O20  1  0.75000000  0.09896540  0.44201845  1
  O  O21  1  0.25000000  0.90103460  0.55798155  1
  O  O22  1  0.75000000  0.91565068  0.58225082  1
  O  O23  1  0.25000000  0.08434932  0.41774918  1
  O  O24  1  0.98130699  0.77037781  0.00321566  1
  O  O25  1  0.01869301  0.22962219  0.99678434  1
  O  O26  1  0.48130699  0.22962219  0.99678434  1
  O  O27  1  0.51869301  0.77037781  0.00321566  1
  O  O28  1  0.75000000  0.05599459  0.11106075  1
  O  O29  1  0.25000000  0.94400541  0.88893925  1
  O  O30  1  0.75000000  0.94493823  0.84307482  1
  O  O31  1  0.25000000  0.05506177  0.15692518  1
  O  O32  1  0.97493733  0.82336066  0.34057976  1
  O  O33  1  0.02506267  0.17663934  0.65942024  1
  O  O34  1  0.47493733  0.17663934  0.65942024  1
  O  O35  1  0.52506267  0.82336066  0.34057976  1
  O  O36  1  0.97072455  0.69449163  0.66332040  1
  O  O37  1  0.02927545  0.30550837  0.33667960  1
  O  O38  1  0.47072455  0.30550837  0.33667960  1
  O  O39  1  0.52927545  0.69449163  0.66332040  1
  O  O40  1  0.75000000  0.57498855  0.38829612  1
  O  O41  1  0.25000000  0.42501145  0.61170388  1
  O  O42  1  0.75000000  0.50224048  0.88329865  1
  O  O43  1  0.25000000  0.49775952  0.11670135  1
