# generated using pymatgen
data_LiHo3Ge2(O4F)2
_symmetry_space_group_name_H-M   'P 1'
_cell_length_a   5.11064968
_cell_length_b   9.22109957
_cell_length_c   9.32099506
_cell_angle_alpha   78.16090760
_cell_angle_beta   74.08879687
_cell_angle_gamma   73.91177433
_symmetry_Int_Tables_number   1
_chemical_formula_structural   LiHo3Ge2(O4F)2
_chemical_formula_sum   'Li2 Ho6 Ge4 O16 F4'
_cell_volume   401.89960460
_cell_formula_units_Z   2
loop_
 _symmetry_equiv_pos_site_id
 _symmetry_equiv_pos_as_xyz
  1  'x, y, z'
loop_
 _atom_site_type_symbol
 _atom_site_label
 _atom_site_symmetry_multiplicity
 _atom_site_fract_x
 _atom_site_fract_y
 _atom_site_fract_z
 _atom_site_occupancy
  Li  Li0  1  0.00000000  0.00000000  0.50000000  1
  Li  Li1  1  0.50000000  0.50000000  0.00000000  1
  Ho  Ho2  1  0.32802129  0.90680158  0.84883533  1
  Ho  Ho3  1  0.08365821  0.59319842  0.65116467  1
  Ho  Ho4  1  0.67197871  0.09319842  0.15116467  1
  Ho  Ho5  1  0.78975912  0.25000000  0.75000000  1
  Ho  Ho6  1  0.21024088  0.75000000  0.25000000  1
  Ho  Ho7  1  0.91634179  0.40680158  0.34883533  1
  Ge  Ge8  1  0.90882984  0.70019477  0.01057381  1
  Ge  Ge9  1  0.61959842  0.79980523  0.48942619  1
  Ge  Ge10  1  0.38040158  0.20019477  0.51057381  1
  Ge  Ge11  1  0.09117016  0.29980523  0.98942619  1
  O  O12  1  0.67617284  0.78475485  0.67079068  1
  O  O13  1  0.32382716  0.21524515  0.32920932  1
  O  O14  1  0.22400949  0.05575596  0.63403252  1
  O  O15  1  0.95834979  0.86314296  0.07160262  1
  O  O16  1  0.04165021  0.13685704  0.92839738  1
  O  O17  1  0.89309537  0.63685704  0.42839738  1
  O  O18  1  0.55246705  0.71281437  0.02392788  1
  O  O19  1  0.44753295  0.28718563  0.97607212  1
  O  O20  1  0.28920930  0.78718563  0.47607212  1
  O  O21  1  0.71079070  0.21281437  0.52392788  1
  O  O22  1  0.77599051  0.94424404  0.36596748  1
  O  O23  1  0.08620202  0.55575596  0.13403252  1
  O  O24  1  0.86828163  0.28475485  0.17079068  1
  O  O25  1  0.91379798  0.44424404  0.86596748  1
  O  O26  1  0.13171837  0.71524515  0.82920932  1
  O  O27  1  0.10690463  0.36314296  0.57160262  1
  F  F28  1  0.65981187  0.02877532  0.82883720  1
  F  F29  1  0.48257561  0.52877532  0.32883720  1
  F  F30  1  0.51742439  0.47122468  0.67116280  1
  F  F31  1  0.34018813  0.97122468  0.17116280  1
