# generated using pymatgen
data_LuSeO3F
_symmetry_space_group_name_H-M   'P 1'
_cell_length_a   4.29284810
_cell_length_b   6.50545766
_cell_length_c   6.90008632
_cell_angle_alpha   91.83468779
_cell_angle_beta   93.79079841
_cell_angle_gamma   96.63505535
_symmetry_Int_Tables_number   1
_chemical_formula_structural   LuSeO3F
_chemical_formula_sum   'Lu2 Se2 O6 F2'
_cell_volume   190.83595441
_cell_formula_units_Z   2
loop_
 _symmetry_equiv_pos_site_id
 _symmetry_equiv_pos_as_xyz
  1  'x, y, z'
loop_
 _atom_site_type_symbol
 _atom_site_label
 _atom_site_symmetry_multiplicity
 _atom_site_fract_x
 _atom_site_fract_y
 _atom_site_fract_z
 _atom_site_occupancy
  Lu  Lu0  1  0.46039485  0.36842668  0.24456881  1
  Lu  Lu1  1  0.53960515  0.63157332  0.75543119  1
  Se  Se2  1  0.68022876  0.85854141  0.27226364  1
  Se  Se3  1  0.31977124  0.14145859  0.72773636  1
  O  O4  1  0.60065498  0.67499169  0.07939233  1
  O  O5  1  0.40378517  0.02209737  0.23441231  1
  O  O6  1  0.51222850  0.67913599  0.43100450  1
  O  O7  1  0.39934502  0.32500831  0.92060767  1
  O  O8  1  0.59621483  0.97790263  0.76558769  1
  O  O9  1  0.48777150  0.32086401  0.56899550  1
  F  F10  1  0.95962390  0.35051825  0.25495448  1
  F  F11  1  0.04037610  0.64948175  0.74504552  1
