# generated using pymatgen
data_KAlSiO4
_symmetry_space_group_name_H-M   'P 1'
_cell_length_a   8.68051328
_cell_length_b   9.17007001
_cell_length_c   15.89870584
_cell_angle_alpha   90.00000000
_cell_angle_beta   89.79058729
_cell_angle_gamma   90.00000000
_symmetry_Int_Tables_number   1
_chemical_formula_structural   KAlSiO4
_chemical_formula_sum   'K12 Al12 Si12 O48'
_cell_volume   1265.54307083
_cell_formula_units_Z   12
loop_
 _symmetry_equiv_pos_site_id
 _symmetry_equiv_pos_as_xyz
  1  'x, y, z'
loop_
 _atom_site_type_symbol
 _atom_site_label
 _atom_site_symmetry_multiplicity
 _atom_site_fract_x
 _atom_site_fract_y
 _atom_site_fract_z
 _atom_site_occupancy
  K  K0  1  0.24551821  -0.00001836  0.93848668  1
  K  K1  1  0.74777232  0.00354398  0.54840047  1
  K  K2  1  0.74624421  0.98322480  0.89190128  1
  K  K3  1  0.75201178  0.96950074  0.29366144  1
  K  K4  1  0.24798822  0.46950074  0.70633856  1
  K  K5  1  0.24770673  0.01296430  0.60451539  1
  K  K6  1  0.25222768  0.50354398  0.45159953  1
  K  K7  1  0.74683720  0.53052100  0.79203365  1
  K  K8  1  0.75229327  0.51296430  0.39548461  1
  K  K9  1  0.75448179  0.49998164  0.06151332  1
  K  K10  1  0.25316280  0.03052100  0.20796635  1
  K  K11  1  0.25375579  0.48322480  0.10809872  1
  Al  Al12  1  0.56270770  0.34247792  0.56334603  1
  Al  Al13  1  0.43508104  0.33436239  0.88732783  1
  Al  Al14  1  0.93857364  0.16488277  0.05521133  1
  Al  Al15  1  0.56491896  0.83436239  0.11267217  1
  Al  Al16  1  0.06537599  0.65716624  0.27456569  1
  Al  Al17  1  0.06142636  0.66488277  0.94478867  1
  Al  Al18  1  0.43729230  0.84247792  0.43665397  1
  Al  Al19  1  0.43320428  0.82343904  0.76870973  1
  Al  Al20  1  0.93293310  0.67435308  0.60039605  1
  Al  Al21  1  0.06706690  0.17435308  0.39960395  1
  Al  Al22  1  0.93462401  0.15716624  0.72543431  1
  Al  Al23  1  0.56679572  0.32343904  0.23129027  1
  Si  Si24  1  0.05648750  0.82289526  0.76942360  1
  Si  Si25  1  0.44362632  0.17498219  0.40036953  1
  Si  Si26  1  0.05337247  0.33350520  0.88708489  1
  Si  Si27  1  0.55243720  0.16716824  0.05546922  1
  Si  Si28  1  0.05617640  0.84237230  0.43606147  1
  Si  Si29  1  0.94662753  0.83350520  0.11291511  1
  Si  Si30  1  0.94382360  0.34237230  0.56393853  1
  Si  Si31  1  0.94351250  0.32289526  0.23057640  1
  Si  Si32  1  0.55483512  0.15579569  0.72551203  1
  Si  Si33  1  0.44516488  0.65579569  0.27448797  1
  Si  Si34  1  0.44756280  0.66716824  0.94453078  1
  Si  Si35  1  0.55637368  0.67498219  0.59963047  1
  O  O36  1  0.23781272  0.77909313  0.75634508  1
  O  O37  1  0.03375923  0.99658966  0.75110621  1
  O  O38  1  0.97664369  0.70697762  0.04232017  1
  O  O39  1  0.47664448  0.51457684  0.58119889  1
  O  O40  1  0.73855715  0.16806294  0.03947096  1
  O  O41  1  0.53363455  0.70547240  0.03309352  1
  O  O42  1  0.26220140  0.17558054  0.42730518  1
  O  O43  1  0.02210095  0.50207935  0.58447294  1
  O  O44  1  0.52918694  0.30028434  0.45690946  1
  O  O45  1  0.26144285  0.66806294  0.96052904  1
  O  O46  1  0.50444219  0.28890015  0.12698141  1
  O  O47  1  0.53120637  0.28816624  0.79336746  1
  O  O48  1  0.23734939  0.34345456  0.86603628  1
  O  O49  1  0.01912603  0.80580583  0.53483732  1
  O  O50  1  0.00326249  0.79239049  0.86773842  1
  O  O51  1  0.26239847  0.61077094  0.27999367  1
  O  O52  1  0.47081306  0.80028434  0.54309054  1
  O  O53  1  0.99673751  0.29239049  0.13226158  1
  O  O54  1  0.49555781  0.78890015  0.87301859  1
  O  O55  1  0.01259045  0.21630978  0.62728283  1
  O  O56  1  0.24032064  0.84988462  0.42159183  1
  O  O57  1  0.46636545  0.20547240  0.96690648  1
  O  O58  1  0.48967797  0.20880689  0.63287308  1
  O  O59  1  0.03896500  0.79613257  0.19996406  1
  O  O60  1  0.73779860  0.67558054  0.57269482  1
  O  O61  1  0.96624077  0.49658966  0.24889379  1
  O  O62  1  0.75967936  0.34988462  0.57840817  1
  O  O63  1  0.46879363  0.78816624  0.20663254  1
  O  O64  1  0.97789905  0.00207935  0.41552706  1
  O  O65  1  0.50995168  0.50578556  0.91624588  1
  O  O66  1  0.52335552  0.01457684  0.41880111  1
  O  O67  1  0.04617527  0.22001574  0.29288318  1
  O  O68  1  0.54339234  0.51120860  0.24714204  1
  O  O69  1  0.76265061  0.84345456  0.13396372  1
  O  O70  1  0.02335631  0.20697762  0.95767983  1
  O  O71  1  0.98765909  0.49105004  0.92094806  1
  O  O72  1  0.46299989  0.21026438  0.30006225  1
  O  O73  1  0.53700011  0.71026438  0.69993775  1
  O  O74  1  0.76218728  0.27909313  0.24365492  1
  O  O75  1  0.95382473  0.72001574  0.70711682  1
  O  O76  1  0.51032203  0.70880689  0.36712692  1
  O  O77  1  0.98740955  0.71630978  0.37271717  1
  O  O78  1  0.73760153  0.11077094  0.72000633  1
  O  O79  1  0.01234091  0.99105004  0.07905194  1
  O  O80  1  0.45660766  0.01120860  0.75285796  1
  O  O81  1  0.96103500  0.29613257  0.80003594  1
  O  O82  1  0.98087397  0.30580583  0.46516268  1
  O  O83  1  0.49004832  0.00578556  0.08375412  1
