# generated using pymatgen
data_Mg2B2O5
_symmetry_space_group_name_H-M   'P 1'
_cell_length_a   3.15678763
_cell_length_b   9.31891472
_cell_length_c   12.48226156
_cell_angle_alpha   105.08303958
_cell_angle_beta   90.00000000
_cell_angle_gamma   90.00000000
_symmetry_Int_Tables_number   1
_chemical_formula_structural   Mg2B2O5
_chemical_formula_sum   'Mg8 B8 O20'
_cell_volume   354.55091988
_cell_formula_units_Z   4
loop_
 _symmetry_equiv_pos_site_id
 _symmetry_equiv_pos_as_xyz
  1  'x, y, z'
loop_
 _atom_site_type_symbol
 _atom_site_label
 _atom_site_symmetry_multiplicity
 _atom_site_fract_x
 _atom_site_fract_y
 _atom_site_fract_z
 _atom_site_occupancy
  Mg  Mg0  1  0.21623913  0.14595736  0.64415513  1
  Mg  Mg1  1  0.78376087  0.85404264  0.35584487  1
  Mg  Mg2  1  0.28376087  0.14595736  0.14415513  1
  Mg  Mg3  1  0.75173186  0.39760754  0.56310508  1
  Mg  Mg4  1  0.24826814  0.60239246  0.43689492  1
  Mg  Mg5  1  0.74826814  0.39760754  0.06310508  1
  Mg  Mg6  1  0.71623913  0.85404264  0.85584487  1
  Mg  Mg7  1  0.25173186  0.60239246  0.93689492  1
  B  B8  1  0.18054436  0.14325289  0.90895027  1
  B  B9  1  0.31945564  0.14325289  0.40895027  1
  B  B10  1  0.81945564  0.85674711  0.09104973  1
  B  B11  1  0.17010709  0.66855670  0.19016284  1
  B  B12  1  0.82989291  0.33144330  0.80983716  1
  B  B13  1  0.67010709  0.33144330  0.30983716  1
  B  B14  1  0.32989291  0.66855670  0.69016284  1
  B  B15  1  0.68054436  0.85674711  0.59104973  1
  O  O16  1  0.72632399  0.32071844  0.70201326  1
  O  O17  1  0.44150529  0.20225538  0.31894708  1
  O  O18  1  0.77367601  0.32071844  0.20201326  1
  O  O19  1  0.05849471  0.20225538  0.81894708  1
  O  O20  1  0.71639322  0.00578470  0.61260721  1
  O  O21  1  0.25040231  0.55445140  0.59812394  1
  O  O22  1  0.21639322  0.99421530  0.88739279  1
  O  O23  1  0.25007852  0.24111518  0.51100018  1
  O  O24  1  0.27367601  0.67928156  0.29798674  1
  O  O25  1  0.78360678  0.00578470  0.11260721  1
  O  O26  1  0.55849471  0.79774462  0.68105292  1
  O  O27  1  0.24992148  0.24111518  0.01100018  1
  O  O28  1  0.74959769  0.44554860  0.40187606  1
  O  O29  1  0.94150529  0.79774462  0.18105292  1
  O  O30  1  0.24959769  0.55445140  0.09812394  1
  O  O31  1  0.75007852  0.75888482  0.98899982  1
  O  O32  1  0.75040231  0.44554860  0.90187606  1
  O  O33  1  0.22632399  0.67928156  0.79798674  1
  O  O34  1  0.28360678  0.99421530  0.38739279  1
  O  O35  1  0.74992148  0.75888482  0.48899982  1
