# generated using pymatgen
data_NbCoTe2
_symmetry_space_group_name_H-M   'P 1'
_cell_length_a   6.37525627
_cell_length_b   7.79508728
_cell_length_c   8.60677608
_cell_angle_alpha   116.92642397
_cell_angle_beta   90.00000000
_cell_angle_gamma   90.00000000
_symmetry_Int_Tables_number   1
_chemical_formula_structural   NbCoTe2
_chemical_formula_sum   'Nb4 Co4 Te8'
_cell_volume   381.34997929
_cell_formula_units_Z   4
loop_
 _symmetry_equiv_pos_site_id
 _symmetry_equiv_pos_as_xyz
  1  'x, y, z'
loop_
 _atom_site_type_symbol
 _atom_site_label
 _atom_site_symmetry_multiplicity
 _atom_site_fract_x
 _atom_site_fract_y
 _atom_site_fract_z
 _atom_site_occupancy
  Co  Co0  1  0.64410971  0.94445557  0.88891115  1
  Co  Co1  1  0.14410971  0.55554443  0.11108885  1
  Co  Co2  1  0.35589029  0.05554443  0.11108885  1
  Co  Co3  1  0.85589029  0.44445557  0.88891115  1
  Nb  Nb4  1  0.50000000  0.70649577  0.00000000  1
  Nb  Nb5  1  0.00000000  0.79350423  0.00000000  1
  Nb  Nb6  1  0.50000000  0.29350423  0.00000000  1
  Nb  Nb7  1  0.00000000  0.20649577  0.00000000  1
  Te  Te8  1  0.75000000  0.09667694  0.69335388  1
  Te  Te9  1  0.25000000  0.40332306  0.30664612  1
  Te  Te10  1  0.25000000  0.90332306  0.30664612  1
  Te  Te11  1  0.75000000  0.59667694  0.69335388  1
  Te  Te12  1  0.74399547  0.10811676  0.21623352  1
  Te  Te13  1  0.24399547  0.39188324  0.78376648  1
  Te  Te14  1  0.25600453  0.89188324  0.78376648  1
  Te  Te15  1  0.75600453  0.60811676  0.21623352  1
