# generated using pymatgen
data_K2Ce(NO3)6
_symmetry_space_group_name_H-M   'P 1'
_cell_length_a   6.84003667
_cell_length_b   8.50352306
_cell_length_c   13.06510440
_cell_angle_alpha   91.57392882
_cell_angle_beta   90.00000000
_cell_angle_gamma   90.00000000
_symmetry_Int_Tables_number   1
_chemical_formula_structural   K2Ce(NO3)6
_chemical_formula_sum   'K4 Ce2 N12 O36'
_cell_volume   759.63737686
_cell_formula_units_Z   2
loop_
 _symmetry_equiv_pos_site_id
 _symmetry_equiv_pos_as_xyz
  1  'x, y, z'
loop_
 _atom_site_type_symbol
 _atom_site_label
 _atom_site_symmetry_multiplicity
 _atom_site_fract_x
 _atom_site_fract_y
 _atom_site_fract_z
 _atom_site_occupancy
  K  K0  1  0.77946044  0.96039204  0.34049370  1
  K  K1  1  0.27946044  0.53960796  0.15950630  1
  K  K2  1  0.22053956  0.03960796  0.65950630  1
  K  K3  1  0.72053956  0.46039204  0.84049370  1
  Ce  Ce4  1  0.50000000  0.50000000  0.50000000  1
  Ce  Ce5  1  0.00000000  0.00000000  0.00000000  1
  N  N6  1  0.27838737  0.78571689  0.88705655  1
  N  N7  1  0.76705689  0.53789452  0.31842116  1
  N  N8  1  0.25451003  0.78162654  0.45119361  1
  N  N9  1  0.22161263  0.28571689  0.38705655  1
  N  N10  1  0.26705689  0.96210548  0.18157884  1
  N  N11  1  0.75451003  0.71837346  0.04880639  1
  N  N12  1  0.23294311  0.46210548  0.68157884  1
  N  N13  1  0.74548997  0.21837346  0.54880639  1
  N  N14  1  0.24548997  0.28162654  0.95119361  1
  N  N15  1  0.72161263  0.21428311  0.11294345  1
  N  N16  1  0.77838737  0.71428311  0.61294345  1
  N  N17  1  0.73294311  0.03789452  0.81842116  1
  O  O18  1  0.35782665  0.39358020  0.94149719  1
  O  O19  1  0.71750317  0.92598690  0.88078095  1
  O  O20  1  0.09044812  0.29464543  0.00693798  1
  O  O21  1  0.70950981  0.18693500  0.01607766  1
  O  O22  1  0.85782665  0.10641980  0.55850281  1
  O  O23  1  0.88467708  0.12744409  0.83125470  1
  O  O24  1  0.38467708  0.37255591  0.66874530  1
  O  O25  1  0.61034395  0.30326469  0.15970294  1
  O  O26  1  0.20950981  0.31306500  0.48392234  1
  O  O27  1  0.40955188  0.79464543  0.50693798  1
  O  O28  1  0.63913774  0.64048418  0.65815239  1
  O  O29  1  0.59044812  0.20535457  0.49306202  1
  O  O30  1  0.88802492  0.56173956  0.25080932  1
  O  O31  1  0.11197508  0.43826044  0.74919068  1
  O  O32  1  0.38802492  0.93826044  0.24919068  1
  O  O33  1  0.61532292  0.62744409  0.33125470  1
  O  O34  1  0.64217335  0.60641980  0.05850281  1
  O  O35  1  0.11532292  0.87255591  0.16874530  1
  O  O36  1  0.11034395  0.19673531  0.34029706  1
  O  O37  1  0.88965605  0.80326469  0.65970294  1
  O  O38  1  0.27456879  0.14663281  0.90855941  1
  O  O39  1  0.79049019  0.68693500  0.51607766  1
  O  O40  1  0.21750317  0.57401310  0.61921905  1
  O  O41  1  0.78249683  0.42598690  0.38078095  1
  O  O42  1  0.13913774  0.85951582  0.84184761  1
  O  O43  1  0.38965605  0.69673531  0.84029706  1
  O  O44  1  0.22543121  0.64663281  0.40855941  1
  O  O45  1  0.14217335  0.89358020  0.44149719  1
  O  O46  1  0.90955188  0.70535457  0.99306202  1
  O  O47  1  0.36086226  0.35951582  0.34184761  1
  O  O48  1  0.77456879  0.35336719  0.59144059  1
  O  O49  1  0.28249683  0.07401310  0.11921905  1
  O  O50  1  0.29049019  0.81306500  0.98392234  1
  O  O51  1  0.61197508  0.06173956  0.75080932  1
  O  O52  1  0.86086226  0.14048418  0.15815239  1
  O  O53  1  0.72543121  0.85336719  0.09144059  1
