# generated using pymatgen
data_KMoAsO6
_symmetry_space_group_name_H-M   'P 1'
_cell_length_a   6.75935019
_cell_length_b   7.13962604
_cell_length_c   10.94219996
_cell_angle_alpha   90.00000000
_cell_angle_beta   90.00000000
_cell_angle_gamma   90.00000000
_symmetry_Int_Tables_number   1
_chemical_formula_structural   KMoAsO6
_chemical_formula_sum   'K4 Mo4 As4 O24'
_cell_volume   528.06217335
_cell_formula_units_Z   4
loop_
 _symmetry_equiv_pos_site_id
 _symmetry_equiv_pos_as_xyz
  1  'x, y, z'
loop_
 _atom_site_type_symbol
 _atom_site_label
 _atom_site_symmetry_multiplicity
 _atom_site_fract_x
 _atom_site_fract_y
 _atom_site_fract_z
 _atom_site_occupancy
  K  K0  1  0.50000000  0.00000000  0.50000000  1
  K  K1  1  0.00000000  0.50000000  0.00000000  1
  K  K2  1  0.50000000  0.50000000  0.00000000  1
  K  K3  1  0.00000000  0.00000000  0.50000000  1
  Mo  Mo4  1  0.75000000  0.54838838  0.33998203  1
  Mo  Mo5  1  0.25000000  0.45161162  0.66001797  1
  Mo  Mo6  1  0.25000000  0.04838838  0.16001797  1
  Mo  Mo7  1  0.75000000  0.95161162  0.83998203  1
  As  As8  1  0.75000000  0.54261940  0.65430255  1
  As  As9  1  0.25000000  0.45738060  0.34569745  1
  As  As10  1  0.75000000  0.95738060  0.15430255  1
  As  As11  1  0.25000000  0.04261940  0.84569745  1
  O  O12  1  0.75000000  0.32849362  0.40915262  1
  O  O13  1  0.45604303  0.60288321  0.35035066  1
  O  O14  1  0.75000000  0.81524270  0.02789496  1
  O  O15  1  0.25000000  0.31524270  0.47210504  1
  O  O16  1  0.75000000  0.48777450  0.18641484  1
  O  O17  1  0.75000000  0.65020795  0.79484646  1
  O  O18  1  0.95604303  0.39711679  0.64964934  1
  O  O19  1  0.75000000  0.01222550  0.68641484  1
  O  O20  1  0.04395697  0.89711679  0.85035066  1
  O  O21  1  0.75000000  0.84979205  0.29484646  1
  O  O22  1  0.54395697  0.10288321  0.14964934  1
  O  O23  1  0.95604303  0.10288321  0.14964934  1
  O  O24  1  0.25000000  0.98777450  0.31358516  1
  O  O25  1  0.25000000  0.34979205  0.20515354  1
  O  O26  1  0.75000000  0.68475730  0.52789496  1
  O  O27  1  0.25000000  0.51222550  0.81358516  1
  O  O28  1  0.25000000  0.18475730  0.97210504  1
  O  O29  1  0.04395697  0.60288321  0.35035066  1
  O  O30  1  0.75000000  0.17150638  0.90915262  1
  O  O31  1  0.45604303  0.89711679  0.85035066  1
  O  O32  1  0.25000000  0.15020795  0.70515354  1
  O  O33  1  0.25000000  0.67150638  0.59084738  1
  O  O34  1  0.54395697  0.39711679  0.64964934  1
  O  O35  1  0.25000000  0.82849362  0.09084738  1
