# generated using pymatgen
data_Ba6(NiO3)5
_symmetry_space_group_name_H-M   'P 1'
_cell_length_a   7.20944849
_cell_length_b   7.20944862
_cell_length_c   7.20944951
_cell_angle_alpha   88.24340977
_cell_angle_beta   88.24340977
_cell_angle_gamma   88.24341232
_symmetry_Int_Tables_number   1
_chemical_formula_structural   Ba6(NiO3)5
_chemical_formula_sum   'Ba6 Ni5 O15'
_cell_volume   374.20170443
_cell_formula_units_Z   1
loop_
 _symmetry_equiv_pos_site_id
 _symmetry_equiv_pos_as_xyz
  1  'x, y, z'
loop_
 _atom_site_type_symbol
 _atom_site_label
 _atom_site_symmetry_multiplicity
 _atom_site_fract_x
 _atom_site_fract_y
 _atom_site_fract_z
 _atom_site_occupancy
  Ba  Ba0  1  0.33649124  0.66350876  0.00000000  1
  Ba  Ba1  1  0.00000000  0.33649124  0.66350876  1
  Ba  Ba2  1  0.66350876  1.00000000  0.33649124  1
  Ba  Ba3  1  0.14888530  0.85111470  0.50000000  1
  Ba  Ba4  1  0.50000000  0.14888530  0.85111470  1
  Ba  Ba5  1  0.85111470  0.50000000  0.14888530  1
  Ni  Ni6  1  0.09499815  0.09499815  0.09499815  1
  Ni  Ni7  1  0.90500185  0.90500185  0.90500185  1
  Ni  Ni8  1  0.28985946  0.28985946  0.28985946  1
  Ni  Ni9  1  0.71014054  0.71014054  0.71014054  1
  Ni  Ni10  1  0.50000000  0.50000000  0.50000000  1
  O  O11  1  0.03683495  0.19266189  0.32910890  1
  O  O12  1  0.32910890  0.03683495  0.19266189  1
  O  O13  1  0.19266189  0.32910890  0.03683495  1
  O  O14  1  0.80733811  0.96316505  0.67089110  1
  O  O15  1  0.67089110  0.80733811  0.96316505  1
  O  O16  1  0.96316505  0.67089110  0.80733811  1
  O  O17  1  0.14348744  1.00000000  0.85651256  1
  O  O18  1  0.85651256  0.14348744  0.00000000  1
  O  O19  1  0.00000000  0.85651256  0.14348744  1
  O  O20  1  0.36591790  0.23362010  0.52844384  1
  O  O21  1  0.52844384  0.36591790  0.23362010  1
  O  O22  1  0.23362010  0.52844384  0.36591790  1
  O  O23  1  0.76637990  0.63408210  0.47155616  1
  O  O24  1  0.47155616  0.76637990  0.63408210  1
  O  O25  1  0.63408210  0.47155616  0.76637990  1
