# generated using pymatgen
data_SrV2ZnO7
_symmetry_space_group_name_H-M   'P 1'
_cell_length_a   6.77283272
_cell_length_b   7.59732826
_cell_length_c   12.13877975
_cell_angle_alpha   96.05230375
_cell_angle_beta   90.00000000
_cell_angle_gamma   90.00000000
_symmetry_Int_Tables_number   1
_chemical_formula_structural   SrV2ZnO7
_chemical_formula_sum   'Sr4 V8 Zn4 O28'
_cell_volume   621.12465553
_cell_formula_units_Z   4
loop_
 _symmetry_equiv_pos_site_id
 _symmetry_equiv_pos_as_xyz
  1  'x, y, z'
loop_
 _atom_site_type_symbol
 _atom_site_label
 _atom_site_symmetry_multiplicity
 _atom_site_fract_x
 _atom_site_fract_y
 _atom_site_fract_z
 _atom_site_occupancy
  Sr  Sr0  1  0.64940712  0.25481435  0.02366186  1
  Sr  Sr1  1  0.85059288  0.75481435  0.52366186  1
  Sr  Sr2  1  0.14940712  0.24518565  0.47633814  1
  Sr  Sr3  1  0.35059288  0.74518565  0.97633814  1
  V  V4  1  0.58872206  0.41436724  0.72040229  1
  V  V5  1  0.15622918  0.25587512  0.03845988  1
  V  V6  1  0.41127794  0.58563276  0.27959771  1
  V  V7  1  0.34377082  0.75587512  0.53845988  1
  V  V8  1  0.08872206  0.08563276  0.77959771  1
  V  V9  1  0.84377082  0.74412488  0.96154012  1
  V  V10  1  0.65622918  0.24412488  0.46154012  1
  V  V11  1  0.91127794  0.91436724  0.22040229  1
  Zn  Zn12  1  0.60778369  0.97745394  0.76709828  1
  Zn  Zn13  1  0.39221631  0.02254606  0.23290172  1
  Zn  Zn14  1  0.89221631  0.47745394  0.26709828  1
  Zn  Zn15  1  0.10778369  0.52254606  0.73290172  1
  O  O16  1  0.08911825  0.05355512  0.28194865  1
  O  O17  1  0.58911825  0.44644488  0.21805135  1
  O  O18  1  0.69757584  0.02431730  0.19418962  1
  O  O19  1  0.02850556  0.66857219  0.87102567  1
  O  O20  1  0.82394716  0.40227372  0.41999538  1
  O  O21  1  0.13103599  0.25829142  0.69941728  1
  O  O22  1  0.80242416  0.52431730  0.69418962  1
  O  O23  1  0.30242416  0.97568270  0.80581038  1
  O  O24  1  0.50674950  0.32771632  0.58020639  1
  O  O25  1  0.86896401  0.74170858  0.30058272  1
  O  O26  1  0.91088175  0.94644488  0.71805135  1
  O  O27  1  0.32394716  0.09772628  0.08000462  1
  O  O28  1  0.47149444  0.16857219  0.37102567  1
  O  O29  1  0.67605284  0.90227372  0.91999538  1
  O  O30  1  0.99325050  0.82771632  0.08020639  1
  O  O31  1  0.30396182  0.42070189  0.00558067  1
  O  O32  1  0.00674950  0.17228368  0.91979361  1
  O  O33  1  0.19757584  0.47568270  0.30581038  1
  O  O34  1  0.19603818  0.92070189  0.50558067  1
  O  O35  1  0.36896401  0.75829142  0.19941728  1
  O  O36  1  0.97149444  0.33142781  0.12897433  1
  O  O37  1  0.52850556  0.83142781  0.62897433  1
  O  O38  1  0.63103599  0.24170858  0.80058272  1
  O  O39  1  0.69603818  0.57929811  0.99441933  1
  O  O40  1  0.80396182  0.07929811  0.49441933  1
  O  O41  1  0.49325050  0.67228368  0.41979361  1
  O  O42  1  0.41088175  0.55355512  0.78194865  1
  O  O43  1  0.17605284  0.59772628  0.58000462  1
