# generated using pymatgen
data_Mg2V2O7
_symmetry_space_group_name_H-M   'P 1'
_cell_length_a   6.71965221
_cell_length_b   8.53170552
_cell_length_c   9.61705362
_cell_angle_alpha   90.00000000
_cell_angle_beta   100.83311820
_cell_angle_gamma   90.00000000
_symmetry_Int_Tables_number   1
_chemical_formula_structural   Mg2V2O7
_chemical_formula_sum   'Mg8 V8 O28'
_cell_volume   541.52091561
_cell_formula_units_Z   4
loop_
 _symmetry_equiv_pos_site_id
 _symmetry_equiv_pos_as_xyz
  1  'x, y, z'
loop_
 _atom_site_type_symbol
 _atom_site_label
 _atom_site_symmetry_multiplicity
 _atom_site_fract_x
 _atom_site_fract_y
 _atom_site_fract_z
 _atom_site_occupancy
  Mg  Mg0  1  0.30790119  0.11081556  0.18136308  1
  Mg  Mg1  1  0.69209881  0.61081556  0.31863692  1
  Mg  Mg2  1  0.14694486  0.12106349  0.46382564  1
  Mg  Mg3  1  0.69209881  0.88918444  0.81863692  1
  Mg  Mg4  1  0.30790119  0.38918444  0.68136308  1
  Mg  Mg5  1  0.85305514  0.87893651  0.53617436  1
  Mg  Mg6  1  0.14694486  0.37893651  0.96382564  1
  Mg  Mg7  1  0.85305514  0.62106349  0.03617436  1
  V  V8  1  0.35946687  0.75793604  0.53098703  1
  V  V9  1  0.64053313  0.25793604  0.96901297  1
  V  V10  1  0.80772057  0.52065306  0.68563095  1
  V  V11  1  0.35946687  0.74206396  0.03098703  1
  V  V12  1  0.19227943  0.02065306  0.81436905  1
  V  V13  1  0.19227943  0.47934694  0.31436905  1
  V  V14  1  0.64053313  0.24206396  0.46901297  1
  V  V15  1  0.80772057  0.97934694  0.18563095  1
  O  O16  1  0.85131720  0.37914939  0.00258324  1
  O  O17  1  0.74945361  0.85809508  0.31604692  1
  O  O18  1  0.67631049  0.37417113  0.34777020  1
  O  O19  1  0.03114285  0.07680874  0.24742853  1
  O  O20  1  0.25054639  0.14190492  0.68395308  1
  O  O21  1  0.82722346  0.86775773  0.03937052  1
  O  O22  1  0.85131720  0.12085061  0.50258324  1
  O  O23  1  0.03114285  0.42319126  0.74742853  1
  O  O24  1  0.42825126  0.36878147  0.89852849  1
  O  O25  1  0.39032043  0.87002378  0.87646699  1
  O  O26  1  0.14868280  0.87914939  0.49741676  1
  O  O27  1  0.25054639  0.35809508  0.18395308  1
  O  O28  1  0.82722346  0.63224227  0.53937052  1
  O  O29  1  0.60967957  0.12997622  0.12353301  1
  O  O30  1  0.17277654  0.36775773  0.46062948  1
  O  O31  1  0.14868280  0.62085061  0.99741676  1
  O  O32  1  0.96885715  0.92319126  0.75257147  1
  O  O33  1  0.39032043  0.62997622  0.37646699  1
  O  O34  1  0.42825126  0.13121853  0.39852849  1
  O  O35  1  0.32368951  0.87417113  0.15222980  1
  O  O36  1  0.96885715  0.57680874  0.25257147  1
  O  O37  1  0.32368951  0.62582887  0.65222980  1
  O  O38  1  0.60967957  0.37002378  0.62353301  1
  O  O39  1  0.57174874  0.86878147  0.60147151  1
  O  O40  1  0.74945361  0.64190492  0.81604692  1
  O  O41  1  0.17277654  0.13224227  0.96062948  1
  O  O42  1  0.57174874  0.63121853  0.10147151  1
  O  O43  1  0.67631049  0.12582887  0.84777020  1
