# generated using pymatgen
data_CaMnB2O5
_symmetry_space_group_name_H-M   'P 1'
_cell_length_a   5.73648589
_cell_length_b   11.55231091
_cell_length_c   12.53654537
_cell_angle_alpha   90.00000000
_cell_angle_beta   102.56631644
_cell_angle_gamma   90.00000000
_symmetry_Int_Tables_number   1
_chemical_formula_structural   CaMnB2O5
_chemical_formula_sum   'Ca8 Mn8 B16 O40'
_cell_volume   810.89093188
_cell_formula_units_Z   8
loop_
 _symmetry_equiv_pos_site_id
 _symmetry_equiv_pos_as_xyz
  1  'x, y, z'
loop_
 _atom_site_type_symbol
 _atom_site_label
 _atom_site_symmetry_multiplicity
 _atom_site_fract_x
 _atom_site_fract_y
 _atom_site_fract_z
 _atom_site_occupancy
  Ca  Ca0  1  0.12629601  0.88081155  0.09155421  1
  Ca  Ca1  1  0.62629601  0.61918845  0.09155421  1
  Ca  Ca2  1  0.37370399  0.38081155  0.90844579  1
  Ca  Ca3  1  0.87370399  0.11918845  0.90844579  1
  Ca  Ca4  1  0.14646447  0.87203440  0.58687378  1
  Ca  Ca5  1  0.64646447  0.62796560  0.58687378  1
  Ca  Ca6  1  0.85353553  0.12796560  0.41312622  1
  Ca  Ca7  1  0.35353553  0.37203440  0.41312622  1
  Mn  Mn8  1  0.24497327  0.12816278  0.23598630  1
  Mn  Mn9  1  0.25043738  0.62778615  0.26220417  1
  Mn  Mn10  1  0.74497327  0.37183722  0.23598630  1
  Mn  Mn11  1  0.75502673  0.87183722  0.76401370  1
  Mn  Mn12  1  0.74956262  0.37221385  0.73779583  1
  Mn  Mn13  1  0.25502673  0.62816278  0.76401370  1
  Mn  Mn14  1  0.75043738  0.87221385  0.26220417  1
  Mn  Mn15  1  0.24956262  0.12778615  0.73779583  1
  B  B16  1  0.62982402  0.87501946  0.99083922  1
  B  B17  1  0.64778179  0.88081578  0.48867083  1
  B  B18  1  0.35221821  0.11918422  0.51132917  1
  B  B19  1  0.30000361  0.87568908  0.32732296  1
  B  B20  1  0.85221821  0.38081578  0.51132917  1
  B  B21  1  0.12982402  0.62498054  0.99083922  1
  B  B22  1  0.70664847  0.11558226  0.17205156  1
  B  B23  1  0.80000361  0.62431092  0.32732296  1
  B  B24  1  0.20664847  0.38441774  0.17205156  1
  B  B25  1  0.79335153  0.61558226  0.82794844  1
  B  B26  1  0.14778179  0.61918422  0.48867083  1
  B  B27  1  0.37017598  0.12498054  0.00916078  1
  B  B28  1  0.19999639  0.37568908  0.67267704  1
  B  B29  1  0.29335153  0.88441774  0.82794844  1
  B  B30  1  0.87017598  0.37501946  0.00916078  1
  B  B31  1  0.69999639  0.12431092  0.67267704  1
  O  O32  1  0.19953240  0.08666316  0.06219395  1
  O  O33  1  0.39459309  0.94627088  0.25927651  1
  O  O34  1  0.22299639  0.66577606  0.59082039  1
  O  O35  1  0.60540691  0.05372912  0.74072349  1
  O  O36  1  0.19159214  0.67681743  0.09100527  1
  O  O37  1  0.10397920  0.30960108  0.23380739  1
  O  O38  1  0.61923295  0.11230925  0.05718571  1
  O  O39  1  0.27700361  0.16577606  0.40917961  1
  O  O40  1  0.10540691  0.44627088  0.74072349  1
  O  O41  1  0.88886282  0.19497250  0.71476079  1
  O  O42  1  0.30840786  0.17681743  0.90899473  1
  O  O43  1  0.39602080  0.80960108  0.76619261  1
  O  O44  1  0.19185086  0.07416061  0.56618120  1
  O  O45  1  0.69185086  0.42583939  0.56618120  1
  O  O46  1  0.69159214  0.82318257  0.09100527  1
  O  O47  1  0.38886282  0.30502750  0.71476079  1
  O  O48  1  0.72299639  0.83422394  0.59082039  1
  O  O49  1  0.38076705  0.88769075  0.94281429  1
  O  O50  1  0.89280700  0.04577296  0.22170272  1
  O  O51  1  0.61113718  0.69497250  0.28523921  1
  O  O52  1  0.89602080  0.69039892  0.76619261  1
  O  O53  1  0.60397920  0.19039892  0.23380739  1
  O  O54  1  0.30814914  0.57416061  0.43381880  1
  O  O55  1  0.60719300  0.54577296  0.77829728  1
  O  O56  1  0.11113718  0.80502750  0.28523921  1
  O  O57  1  0.89767515  0.62745411  0.44227130  1
  O  O58  1  0.11923295  0.38769075  0.05718571  1
  O  O59  1  0.10719300  0.95422704  0.77829728  1
  O  O60  1  0.10232485  0.37254589  0.55772870  1
  O  O61  1  0.39280700  0.45422704  0.22170272  1
  O  O62  1  0.80046760  0.91333684  0.93780605  1
  O  O63  1  0.89459309  0.55372912  0.25927651  1
  O  O64  1  0.77700361  0.33422394  0.40917961  1
  O  O65  1  0.39767515  0.87254589  0.44227130  1
  O  O66  1  0.88076705  0.61230925  0.94281429  1
  O  O67  1  0.30046760  0.58666316  0.93780605  1
  O  O68  1  0.69953240  0.41333684  0.06219395  1
  O  O69  1  0.60232485  0.12745411  0.55772870  1
  O  O70  1  0.80840786  0.32318257  0.90899473  1
  O  O71  1  0.80814914  0.92583939  0.43381880  1
