# generated using pymatgen
data_K3Bi5(PO4)6
_symmetry_space_group_name_H-M   'P 1'
_cell_length_a   7.05555233
_cell_length_b   9.59219305
_cell_length_c   17.77469045
_cell_angle_alpha   81.42957158
_cell_angle_beta   78.55265778
_cell_angle_gamma   68.42018849
_symmetry_Int_Tables_number   1
_chemical_formula_structural   K3Bi5(PO4)6
_chemical_formula_sum   'K6 Bi10 P12 O48'
_cell_volume   1092.56537907
_cell_formula_units_Z   2
loop_
 _symmetry_equiv_pos_site_id
 _symmetry_equiv_pos_as_xyz
  1  'x, y, z'
loop_
 _atom_site_type_symbol
 _atom_site_label
 _atom_site_symmetry_multiplicity
 _atom_site_fract_x
 _atom_site_fract_y
 _atom_site_fract_z
 _atom_site_occupancy
  K  K0  1  0.68692825  0.74989268  0.25010219  1
  K  K1  1  0.31307175  0.25010732  0.74989781  1
  K  K2  1  0.52154509  0.08555262  0.07002388  1
  K  K3  1  0.32300203  0.58579272  0.56990315  1
  K  K4  1  0.47845491  0.91444738  0.92997612  1
  K  K5  1  0.67699797  0.41420728  0.43009685  1
  Bi  Bi6  1  0.23643071  0.19688287  0.52863760  1
  Bi  Bi7  1  0.16682920  0.15349472  0.29568009  1
  Bi  Bi8  1  0.38404391  0.65344154  0.79568978  1
  Bi  Bi9  1  0.83317080  0.84650528  0.70431991  1
  Bi  Bi10  1  0.03800301  0.69690160  0.02863097  1
  Bi  Bi11  1  0.76356929  0.80311713  0.47136240  1
  Bi  Bi12  1  0.96199699  0.30309840  0.97136903  1
  Bi  Bi13  1  0.85265881  0.24999352  0.75002410  1
  Bi  Bi14  1  0.14734119  0.75000648  0.24997590  1
  Bi  Bi15  1  0.61595609  0.34655846  0.20431022  1
  P  P16  1  0.84626556  0.52669439  0.61826597  1
  P  P17  1  0.68171494  0.08215054  0.34886864  1
  P  P18  1  0.11274126  0.41787620  0.15113255  1
  P  P19  1  0.54307120  0.64890408  0.09132222  1
  P  P20  1  0.88725874  0.58212380  0.84886745  1
  P  P21  1  0.31828506  0.91784946  0.65113136  1
  P  P22  1  0.99134933  0.97328479  0.88173472  1
  P  P23  1  0.45692880  0.35109592  0.90867778  1
  P  P24  1  0.71672835  0.14885762  0.59133881  1
  P  P25  1  0.00865067  0.02671521  0.11826528  1
  P  P26  1  0.15373444  0.47330561  0.38173403  1
  P  P27  1  0.28327165  0.85114238  0.40866119  1
  O  O28  1  0.13335153  0.78042379  0.45726660  1
  O  O29  1  0.62906261  0.28030565  0.95726714  1
  O  O30  1  0.95089161  0.88451714  0.11875338  1
  O  O31  1  0.29685011  0.84515724  0.31804955  1
  O  O32  1  0.69263139  0.73896169  0.07551035  1
  O  O33  1  0.46012045  0.65488625  0.18194049  1
  O  O34  1  0.21369119  0.02395878  0.41545935  1
  O  O35  1  0.86475170  0.93153994  0.95714204  1
  O  O36  1  0.86745661  0.00521553  0.81318068  1
  O  O37  1  0.31424242  0.50520912  0.31317559  1
  O  O38  1  0.41817770  0.91424816  0.56578493  1
  O  O39  1  0.92387131  0.41516034  0.83822917  1
  O  O40  1  0.67457453  0.69155101  0.82691243  1
  O  O41  1  0.79889803  0.16177994  0.12993495  1
  O  O42  1  0.30736861  0.26103831  0.92448965  1
  O  O43  1  0.95429906  0.61553104  0.38125336  1
  O  O44  1  0.17726957  0.08479915  0.66177481  1
  O  O45  1  0.58182230  0.08575184  0.43421507  1
  O  O46  1  0.13524830  0.06846006  0.04285796  1
  O  O47  1  0.82273043  0.91520085  0.33822519  1
  O  O48  1  0.09067065  0.33824998  0.37007393  1
  O  O49  1  0.94964649  0.36522680  0.20917117  1
  O  O50  1  0.49288498  0.23892929  0.57553795  1
  O  O51  1  0.53987955  0.34511375  0.81805951  1
  O  O52  1  0.80692217  0.19157834  0.32690827  1
  O  O53  1  0.04570094  0.38446896  0.61874664  1
  O  O54  1  0.68575758  0.49479088  0.68682441  1
  O  O55  1  0.07612869  0.58483966  0.16177083  1
  O  O56  1  0.32542547  0.30844899  0.17308757  1
  O  O57  1  0.52398020  0.13482540  0.29083333  1
  O  O58  1  0.65302789  0.47609529  0.08451326  1
  O  O59  1  0.34697211  0.52390471  0.91548674  1
  O  O60  1  0.10179617  0.41427507  0.06578141  1
  O  O61  1  0.05035351  0.63477320  0.79082883  1
  O  O62  1  0.24667484  0.43153568  0.45714596  1
  O  O63  1  0.70314989  0.15484276  0.68195045  1
  O  O64  1  0.37093739  0.71969435  0.04273286  1
  O  O65  1  0.90932935  0.66175002  0.62992607  1
  O  O66  1  0.50711502  0.76107071  0.42446205  1
  O  O67  1  0.75332516  0.56846432  0.54285404  1
  O  O68  1  0.86664847  0.21957621  0.54273340  1
  O  O69  1  0.20110197  0.83822006  0.87006505  1
  O  O70  1  0.04910839  0.11548286  0.88124662  1
  O  O71  1  0.89820383  0.58572493  0.93421859  1
  O  O72  1  0.19307783  0.80842166  0.67309173  1
  O  O73  1  0.47601980  0.86517460  0.70916667  1
  O  O74  1  0.13254339  0.99478447  0.18681932  1
  O  O75  1  0.78630881  0.97604122  0.58454065  1
