# generated using pymatgen
data_CaTaAlO5
_symmetry_space_group_name_H-M   'P 1'
_cell_length_a   6.72204726
_cell_length_b   7.44558736
_cell_length_c   9.03592234
_cell_angle_alpha   90.00000000
_cell_angle_beta   90.00000000
_cell_angle_gamma   114.12276903
_symmetry_Int_Tables_number   1
_chemical_formula_structural   CaTaAlO5
_chemical_formula_sum   'Ca4 Ta4 Al4 O20'
_cell_volume   412.75055342
_cell_formula_units_Z   4
loop_
 _symmetry_equiv_pos_site_id
 _symmetry_equiv_pos_as_xyz
  1  'x, y, z'
loop_
 _atom_site_type_symbol
 _atom_site_label
 _atom_site_symmetry_multiplicity
 _atom_site_fract_x
 _atom_site_fract_y
 _atom_site_fract_z
 _atom_site_occupancy
  Ca  Ca0  1  0.00495084  0.71134940  0.33551437  1
  Ca  Ca1  1  0.50495084  0.21134940  0.16448563  1
  Ca  Ca2  1  0.99504916  0.28865060  0.66448563  1
  Ca  Ca3  1  0.49504916  0.78865060  0.83551437  1
  Ta  Ta4  1  0.50000000  0.50000000  0.50000000  1
  Ta  Ta5  1  0.50000000  0.00000000  0.50000000  1
  Ta  Ta6  1  0.00000000  0.50000000  0.00000000  1
  Ta  Ta7  1  0.00000000  0.00000000  0.00000000  1
  Al  Al8  1  0.49097880  0.25053678  0.81466481  1
  Al  Al9  1  0.00902120  0.24946322  0.31466481  1
  Al  Al10  1  0.99097880  0.75053678  0.68533519  1
  Al  Al11  1  0.50902120  0.74946322  0.18533519  1
  O  O12  1  0.11682258  0.12027961  0.19828819  1
  O  O13  1  0.19265689  0.42891994  0.43553989  1
  O  O14  1  0.99007566  0.74654673  0.07627091  1
  O  O15  1  0.80734311  0.57108006  0.56446011  1
  O  O16  1  0.61682258  0.62027961  0.30171181  1
  O  O17  1  0.10017743  0.61503073  0.79725032  1
  O  O18  1  0.50992434  0.75345327  0.57627091  1
  O  O19  1  0.39982257  0.88496927  0.29725032  1
  O  O20  1  0.89982257  0.38496927  0.20274968  1
  O  O21  1  0.81192771  0.09930560  0.44216347  1
  O  O22  1  0.31192771  0.59930560  0.05783653  1
  O  O23  1  0.30734311  0.07108006  0.93553989  1
  O  O24  1  0.69265689  0.92891994  0.06446011  1
  O  O25  1  0.49007566  0.24654673  0.42372909  1
  O  O26  1  0.68807229  0.40069440  0.94216347  1
  O  O27  1  0.18807229  0.90069440  0.55783653  1
  O  O28  1  0.60017743  0.11503073  0.70274968  1
  O  O29  1  0.38317742  0.37972039  0.69828819  1
  O  O30  1  0.00992434  0.25345327  0.92372909  1
  O  O31  1  0.88317742  0.87972039  0.80171181  1
