# generated using pymatgen
data_Li2U3V2O15
_symmetry_space_group_name_H-M   'P 1'
_cell_length_a   7.44855882
_cell_length_b   7.44855883
_cell_length_c   13.55405244
_cell_angle_alpha   105.94844612
_cell_angle_beta   105.94844613
_cell_angle_gamma   90.00000369
_symmetry_Int_Tables_number   1
_chemical_formula_structural   Li2U3V2O15
_chemical_formula_sum   'Li4 U6 V4 O30'
_cell_volume   692.89527112
_cell_formula_units_Z   2
loop_
 _symmetry_equiv_pos_site_id
 _symmetry_equiv_pos_as_xyz
  1  'x, y, z'
loop_
 _atom_site_type_symbol
 _atom_site_label
 _atom_site_symmetry_multiplicity
 _atom_site_fract_x
 _atom_site_fract_y
 _atom_site_fract_z
 _atom_site_occupancy
  Li  Li0  1  0.71937090  0.46937090  0.93874281  1
  Li  Li1  1  0.28062910  0.53062910  0.06125719  1
  Li  Li2  1  0.96937090  0.21937090  0.43874281  1
  Li  Li3  1  0.03062910  0.78062910  0.56125719  1
  U  U4  1  0.29000401  0.04000401  0.08000802  1
  U  U5  1  0.70999599  0.95999599  0.91999198  1
  U  U6  1  0.45999599  0.20999599  0.41999198  1
  U  U7  1  0.54000401  0.79000401  0.58000802  1
  U  U8  1  0.87500000  0.62500000  0.25000000  1
  U  U9  1  0.12500000  0.37500000  0.75000000  1
  V  V10  1  0.15727331  0.90727331  0.81454762  1
  V  V11  1  0.84272669  0.09272669  0.18545238  1
  V  V12  1  0.40727331  0.65727331  0.31454762  1
  V  V13  1  0.59272669  0.34272669  0.68545238  1
  O  O14  1  0.97482773  0.04725877  0.09451754  1
  O  O15  1  0.21612205  0.21185026  0.42370052  1
  O  O16  1  0.05137259  0.30137259  0.60274518  1
  O  O17  1  0.71185026  0.71612205  0.92370052  1
  O  O18  1  0.17462401  0.61836791  0.23673683  1
  O  O19  1  0.54725877  0.11968881  0.59451754  1
  O  O20  1  0.28814974  0.79242153  0.07629948  1
  O  O21  1  0.28814974  0.28387795  0.07629948  1
  O  O22  1  0.19862741  0.44862741  0.89725482  1
  O  O23  1  0.61968881  0.04725877  0.09451754  1
  O  O24  1  0.38031119  0.95274123  0.90548246  1
  O  O25  1  0.45274123  0.52517227  0.40548246  1
  O  O26  1  0.29242153  0.78814974  0.57629948  1
  O  O27  1  0.11836791  0.67462401  0.73673683  1
  O  O28  1  0.78387795  0.78814974  0.57629948  1
  O  O29  1  0.70757847  0.21185026  0.42370052  1
  O  O30  1  0.88163209  0.32537599  0.26326317  1
  O  O31  1  0.94862741  0.69862741  0.39725482  1
  O  O32  1  0.71185026  0.20757847  0.92370052  1
  O  O33  1  0.62500000  0.87500000  0.75000000  1
  O  O34  1  0.88163209  0.93788718  0.26326317  1
  O  O35  1  0.54725877  0.47482773  0.59451754  1
  O  O36  1  0.45274123  0.88031119  0.40548246  1
  O  O37  1  0.43788718  0.38163209  0.76326317  1
  O  O38  1  0.11836791  0.06211282  0.73673683  1
  O  O39  1  0.56211282  0.61836791  0.23673683  1
  O  O40  1  0.02517227  0.95274123  0.90548246  1
  O  O41  1  0.82537599  0.38163209  0.76326317  1
  O  O42  1  0.37500000  0.12500000  0.25000000  1
  O  O43  1  0.80137259  0.55137259  0.10274518  1
