# generated using pymatgen
data_Er2WO6
_symmetry_space_group_name_H-M   'P 1'
_cell_length_a   5.55381661
_cell_length_b   10.55265647
_cell_length_c   16.10191997
_cell_angle_alpha   90.00000000
_cell_angle_beta   90.00000000
_cell_angle_gamma   90.00000000
_symmetry_Int_Tables_number   1
_chemical_formula_structural   Er2WO6
_chemical_formula_sum   'Er16 W8 O48'
_cell_volume   943.69357708
_cell_formula_units_Z   8
loop_
 _symmetry_equiv_pos_site_id
 _symmetry_equiv_pos_as_xyz
  1  'x, y, z'
loop_
 _atom_site_type_symbol
 _atom_site_label
 _atom_site_symmetry_multiplicity
 _atom_site_fract_x
 _atom_site_fract_y
 _atom_site_fract_z
 _atom_site_occupancy
  Er  Er0  1  0.45425504  0.14557104  0.72723812  1
  Er  Er1  1  0.10067980  0.85772894  0.43904714  1
  Er  Er2  1  0.45425504  0.64557104  0.77276188  1
  Er  Er3  1  0.89932020  0.14227106  0.56095286  1
  Er  Er4  1  0.95425504  0.35442896  0.72723812  1
  Er  Er5  1  0.89932020  0.64227106  0.93904714  1
  Er  Er6  1  0.95425504  0.85442896  0.77276188  1
  Er  Er7  1  0.60067980  0.64227106  0.43904714  1
  Er  Er8  1  0.54574496  0.85442896  0.27276188  1
  Er  Er9  1  0.04574496  0.14557104  0.22723812  1
  Er  Er10  1  0.39932020  0.35772894  0.56095286  1
  Er  Er11  1  0.54574496  0.35442896  0.22723812  1
  Er  Er12  1  0.60067980  0.14227106  0.06095286  1
  Er  Er13  1  0.39932020  0.85772894  0.93904714  1
  Er  Er14  1  0.10067980  0.35772894  0.06095286  1
  Er  Er15  1  0.04574496  0.64557104  0.27276188  1
  W  W16  1  0.11314899  0.37915819  0.37911565  1
  W  W17  1  0.38685101  0.37915819  0.87911565  1
  W  W18  1  0.38685101  0.87915819  0.62088435  1
  W  W19  1  0.88685101  0.12084181  0.87911565  1
  W  W20  1  0.61314899  0.12084181  0.37911565  1
  W  W21  1  0.88685101  0.62084181  0.62088435  1
  W  W22  1  0.61314899  0.62084181  0.12088435  1
  W  W23  1  0.11314899  0.87915819  0.12088435  1
  O  O24  1  0.67874384  0.27090675  0.64485811  1
  O  O25  1  0.09563218  0.98670138  0.89233374  1
  O  O26  1  0.18785764  0.44508354  0.26855379  1
  O  O27  1  0.31214236  0.94508354  0.73144621  1
  O  O28  1  0.38261299  0.45869247  0.42834171  1
  O  O29  1  0.42056542  0.78508085  0.52192333  1
  O  O30  1  0.81214236  0.55491646  0.73144621  1
  O  O31  1  0.59563218  0.51329862  0.89233374  1
  O  O32  1  0.90436782  0.01329862  0.10766626  1
  O  O33  1  0.67874384  0.77090675  0.85514189  1
  O  O34  1  0.33974175  0.73132724  0.17348196  1
  O  O35  1  0.07943458  0.78508085  0.02192333  1
  O  O36  1  0.83974175  0.26867276  0.32651804  1
  O  O37  1  0.38261299  0.95869247  0.07165829  1
  O  O38  1  0.82125616  0.77090675  0.35514189  1
  O  O39  1  0.61738701  0.04130753  0.92834171  1
  O  O40  1  0.42056542  0.28508085  0.97807667  1
  O  O41  1  0.11738701  0.95869247  0.57165829  1
  O  O42  1  0.33974175  0.23132724  0.32651804  1
  O  O43  1  0.18785764  0.94508354  0.23144621  1
  O  O44  1  0.32125616  0.72909325  0.35514189  1
  O  O45  1  0.88261299  0.04130753  0.42834171  1
  O  O46  1  0.40436782  0.48670138  0.10766626  1
  O  O47  1  0.57943458  0.21491915  0.47807667  1
  O  O48  1  0.66025825  0.76867276  0.67348196  1
  O  O49  1  0.90436782  0.51329862  0.39233374  1
  O  O50  1  0.66025825  0.26867276  0.82651804  1
  O  O51  1  0.17874384  0.22909325  0.64485811  1
  O  O52  1  0.88261299  0.54130753  0.07165829  1
  O  O53  1  0.16025825  0.73132724  0.67348196  1
  O  O54  1  0.17874384  0.72909325  0.85514189  1
  O  O55  1  0.32125616  0.22909325  0.14485811  1
  O  O56  1  0.61738701  0.54130753  0.57165829  1
  O  O57  1  0.83974175  0.76867276  0.17348196  1
  O  O58  1  0.11738701  0.45869247  0.92834171  1
  O  O59  1  0.92056542  0.21491915  0.97807667  1
  O  O60  1  0.68785764  0.05491646  0.26855379  1
  O  O61  1  0.82125616  0.27090675  0.14485811  1
  O  O62  1  0.81214236  0.05491646  0.76855379  1
  O  O63  1  0.09563218  0.48670138  0.60766626  1
  O  O64  1  0.57943458  0.71491915  0.02192333  1
  O  O65  1  0.31214236  0.44508354  0.76855379  1
  O  O66  1  0.59563218  0.01329862  0.60766626  1
  O  O67  1  0.16025825  0.23132724  0.82651804  1
  O  O68  1  0.92056542  0.71491915  0.52192333  1
  O  O69  1  0.07943458  0.28508085  0.47807667  1
  O  O70  1  0.68785764  0.55491646  0.23144621  1
  O  O71  1  0.40436782  0.98670138  0.39233374  1
