# generated using pymatgen
data_PrCu6
_symmetry_space_group_name_H-M   'P 1'
_cell_length_a   5.08912458
_cell_length_b   8.07883112
_cell_length_c   10.18971490
_cell_angle_alpha   90.00000000
_cell_angle_beta   90.00000000
_cell_angle_gamma   91.34405691
_symmetry_Int_Tables_number   1
_chemical_formula_structural   PrCu6
_chemical_formula_sum   'Pr4 Cu24'
_cell_volume   418.82648828
_cell_formula_units_Z   4
loop_
 _symmetry_equiv_pos_site_id
 _symmetry_equiv_pos_as_xyz
  1  'x, y, z'
loop_
 _atom_site_type_symbol
 _atom_site_label
 _atom_site_symmetry_multiplicity
 _atom_site_fract_x
 _atom_site_fract_y
 _atom_site_fract_z
 _atom_site_occupancy
  Pr  Pr0  1  0.25845718  0.76101480  0.06456283  1
  Pr  Pr1  1  0.74154282  0.23898520  0.93543717  1
  Pr  Pr2  1  0.25845718  0.26101480  0.43543717  1
  Pr  Pr3  1  0.74154282  0.73898520  0.56456283  1
  Cu  Cu4  1  0.24949270  0.90054227  0.51634306  1
  Cu  Cu5  1  0.00682345  0.93725599  0.31077151  1
  Cu  Cu6  1  0.75695716  0.35184206  0.64208022  1
  Cu  Cu7  1  0.75695716  0.85184206  0.85791978  1
  Cu  Cu8  1  0.74999589  0.18175052  0.24378448  1
  Cu  Cu9  1  0.25000411  0.31824948  0.74378448  1
  Cu  Cu10  1  0.99317655  0.56274401  0.81077151  1
  Cu  Cu11  1  0.24304284  0.64815794  0.35791978  1
  Cu  Cu12  1  0.00682345  0.43725599  0.18922849  1
  Cu  Cu13  1  0.77034921  0.93590945  0.09716254  1
  Cu  Cu14  1  0.22965079  0.56409055  0.59716254  1
  Cu  Cu15  1  0.22965079  0.06409055  0.90283746  1
  Cu  Cu16  1  0.99317655  0.06274401  0.68922849  1
  Cu  Cu17  1  0.49686757  0.93330707  0.30819477  1
  Cu  Cu18  1  0.50313243  0.56669293  0.80819477  1
  Cu  Cu19  1  0.25000411  0.81824948  0.75621552  1
  Cu  Cu20  1  0.24949270  0.40054227  0.98365694  1
  Cu  Cu21  1  0.75050730  0.09945773  0.48365694  1
  Cu  Cu22  1  0.24304284  0.14815794  0.14208022  1
  Cu  Cu23  1  0.77034921  0.43590945  0.40283746  1
  Cu  Cu24  1  0.75050730  0.59945773  0.01634306  1
  Cu  Cu25  1  0.49686757  0.43330707  0.19180523  1
  Cu  Cu26  1  0.74999589  0.68175052  0.25621552  1
  Cu  Cu27  1  0.50313243  0.06669293  0.69180523  1
