# generated using pymatgen
data_PbI2
_symmetry_space_group_name_H-M   'P 1'
_cell_length_a   4.66789023
_cell_length_b   4.66789046
_cell_length_c   37.62898664
_cell_angle_alpha   90.00000000
_cell_angle_beta   90.00000000
_cell_angle_gamma   119.99999847
_symmetry_Int_Tables_number   1
_chemical_formula_structural   PbI2
_chemical_formula_sum   'Pb5 I10'
_cell_volume   710.05902465
_cell_formula_units_Z   5
loop_
 _symmetry_equiv_pos_site_id
 _symmetry_equiv_pos_as_xyz
  1  'x, y, z'
loop_
 _atom_site_type_symbol
 _atom_site_label
 _atom_site_symmetry_multiplicity
 _atom_site_fract_x
 _atom_site_fract_y
 _atom_site_fract_z
 _atom_site_occupancy
  Pb  Pb0  1  0.00000000  0.00000000  0.85284653  1
  Pb  Pb1  1  0.33333300  0.66666700  0.45304472  1
  Pb  Pb2  1  0.33333300  0.66666700  0.65322946  1
  Pb  Pb3  1  0.33333300  0.66666700  0.25303506  1
  Pb  Pb4  1  0.33333300  0.66666700  0.05288590  1
  I  I5  1  0.66666700  0.33333300  0.10254768  1
  I  I6  1  0.66666700  0.33333300  0.70278125  1
  I  I7  1  0.00000000  0.00000000  0.20341094  1
  I  I8  1  0.33333300  0.66666700  0.80323157  1
  I  I9  1  0.66666700  0.33333300  0.50265548  1
  I  I10  1  0.00000000  0.00000000  0.00328409  1
  I  I11  1  0.66666700  0.33333300  0.30261317  1
  I  I12  1  0.66666700  0.33333300  0.90243130  1
  I  I13  1  0.00000000  0.00000000  0.40340782  1
  I  I14  1  0.00000000  0.00000000  0.60359504  1
