# generated using pymatgen
data_CrCl3
_symmetry_space_group_name_H-M   'P 1'
_cell_length_a   7.59848577
_cell_length_b   7.59848531
_cell_length_c   7.59848523
_cell_angle_alpha   46.88551831
_cell_angle_beta   46.88552074
_cell_angle_gamma   46.88551852
_symmetry_Int_Tables_number   1
_chemical_formula_structural   CrCl3
_chemical_formula_sum   'Cr2 Cl6'
_cell_volume   213.65030876
_cell_formula_units_Z   2
loop_
 _symmetry_equiv_pos_site_id
 _symmetry_equiv_pos_as_xyz
  1  'x, y, z'
loop_
 _atom_site_type_symbol
 _atom_site_label
 _atom_site_symmetry_multiplicity
 _atom_site_fract_x
 _atom_site_fract_y
 _atom_site_fract_z
 _atom_site_occupancy
  Cr  Cr0  1  0.66668322  0.66668322  0.66668322  1
  Cr  Cr1  1  0.33331678  0.33331678  0.33331678  1
  Cl  Cl2  1  0.57735077  0.93423920  0.29107699  1
  Cl  Cl3  1  0.70892301  0.42264923  0.06576080  1
  Cl  Cl4  1  0.29107699  0.57735077  0.93423920  1
  Cl  Cl5  1  0.06576080  0.70892301  0.42264923  1
  Cl  Cl6  1  0.42264923  0.06576080  0.70892301  1
  Cl  Cl7  1  0.93423920  0.29107699  0.57735077  1
