# generated using pymatgen
data_BaTbFe4O7
_symmetry_space_group_name_H-M   'P 1'
_cell_length_a   6.37849358
_cell_length_b   6.37849358
_cell_length_c   10.76551891
_cell_angle_alpha   90.00000000
_cell_angle_beta   90.00000000
_cell_angle_gamma   120.00000951
_symmetry_Int_Tables_number   1
_chemical_formula_structural   BaTbFe4O7
_chemical_formula_sum   'Ba2 Tb2 Fe8 O14'
_cell_volume   379.31655996
_cell_formula_units_Z   2
loop_
 _symmetry_equiv_pos_site_id
 _symmetry_equiv_pos_as_xyz
  1  'x, y, z'
loop_
 _atom_site_type_symbol
 _atom_site_label
 _atom_site_symmetry_multiplicity
 _atom_site_fract_x
 _atom_site_fract_y
 _atom_site_fract_z
 _atom_site_occupancy
  Ba  Ba0  1  0.66666700  0.33333300  0.53407873  1
  Ba  Ba1  1  0.33333300  0.66666700  0.03407873  1
  Tb  Tb2  1  0.66666700  0.33333300  0.94048159  1
  Tb  Tb3  1  0.33333300  0.66666700  0.44048159  1
  Fe  Fe4  1  0.18885454  0.37770909  0.73870489  1
  Fe  Fe5  1  0.18885454  0.81114546  0.73870489  1
  Fe  Fe6  1  0.81114546  0.62229091  0.23870489  1
  Fe  Fe7  1  0.62229091  0.81114546  0.73870489  1
  Fe  Fe8  1  0.81114546  0.18885454  0.23870489  1
  Fe  Fe9  1  0.37770909  0.18885454  0.23870489  1
  Fe  Fe10  1  0.00000000  0.00000000  0.98582202  1
  Fe  Fe11  1  0.00000000  0.00000000  0.48582202  1
  O  O12  1  0.00000000  0.00000000  0.80773385  1
  O  O13  1  0.00000000  0.00000000  0.30773385  1
  O  O14  1  0.15697773  0.31395545  0.55957757  1
  O  O15  1  0.15697773  0.84302227  0.55957757  1
  O  O16  1  0.84302227  0.68604455  0.05957757  1
  O  O17  1  0.68604455  0.84302227  0.55957757  1
  O  O18  1  0.84302227  0.15697773  0.05957757  1
  O  O19  1  0.31395545  0.15697773  0.05957757  1
  O  O20  1  0.49233607  0.98467214  0.83661215  1
  O  O21  1  0.49233607  0.50766393  0.83661215  1
  O  O22  1  0.50766393  0.01532786  0.33661215  1
  O  O23  1  0.01532786  0.50766393  0.83661215  1
  O  O24  1  0.50766393  0.49233607  0.33661215  1
  O  O25  1  0.98467214  0.49233607  0.33661215  1
