# generated using pymatgen
data_Li2Ni(WO4)2
_symmetry_space_group_name_H-M   'P 1'
_cell_length_a   5.02153373
_cell_length_b   5.68741771
_cell_length_c   5.89958818
_cell_angle_alpha   108.07452763
_cell_angle_beta   91.18587406
_cell_angle_gamma   116.26935110
_symmetry_Int_Tables_number   1
_chemical_formula_structural   Li2Ni(WO4)2
_chemical_formula_sum   'Li2 Ni1 W2 O8'
_cell_volume   141.14396421
_cell_formula_units_Z   1
loop_
 _symmetry_equiv_pos_site_id
 _symmetry_equiv_pos_as_xyz
  1  'x, y, z'
loop_
 _atom_site_type_symbol
 _atom_site_label
 _atom_site_symmetry_multiplicity
 _atom_site_fract_x
 _atom_site_fract_y
 _atom_site_fract_z
 _atom_site_occupancy
  Li  Li0  1  0.96177007  0.92297605  0.25245823  1
  Li  Li1  1  0.03822993  0.07702395  0.74754177  1
  Ni  Ni2  1  0.50000000  0.00000000  0.00000000  1
  W  W3  1  0.25738213  0.52553561  0.33634076  1
  W  W4  1  0.74261787  0.47446439  0.66365924  1
  O  O5  1  0.49212824  0.24586163  0.80873859  1
  O  O6  1  0.96348348  0.23899089  0.07587730  1
  O  O7  1  0.44988708  0.27831328  0.33071437  1
  O  O8  1  0.55011292  0.72168672  0.66928563  1
  O  O9  1  0.96288607  0.27882120  0.54256268  1
  O  O10  1  0.03651652  0.76100911  0.92412270  1
  O  O11  1  0.03711393  0.72117880  0.45743732  1
  O  O12  1  0.50787176  0.75413837  0.19126141  1
