# generated using pymatgen
data_Sr3V4CdO14
_symmetry_space_group_name_H-M   'P 1'
_cell_length_a   7.17169692
_cell_length_b   7.17169692
_cell_length_c   25.95954794
_cell_angle_alpha   90.00000000
_cell_angle_beta   90.00000000
_cell_angle_gamma   90.00000000
_symmetry_Int_Tables_number   1
_chemical_formula_structural   Sr3V4CdO14
_chemical_formula_sum   'Sr12 V16 Cd4 O56'
_cell_volume   1335.18357414
_cell_formula_units_Z   4
loop_
 _symmetry_equiv_pos_site_id
 _symmetry_equiv_pos_as_xyz
  1  'x, y, z'
loop_
 _atom_site_type_symbol
 _atom_site_label
 _atom_site_symmetry_multiplicity
 _atom_site_fract_x
 _atom_site_fract_y
 _atom_site_fract_z
 _atom_site_occupancy
  Sr  Sr0  1  0.27327780  0.27327780  0.00000000  1
  Sr  Sr1  1  0.33764331  0.39980292  0.38008664  1
  Sr  Sr2  1  0.22672220  0.77327780  0.25000000  1
  Sr  Sr3  1  0.66235669  0.60019708  0.88008664  1
  Sr  Sr4  1  0.39980292  0.33764331  0.61991336  1
  Sr  Sr5  1  0.10019708  0.83764331  0.63008664  1
  Sr  Sr6  1  0.89980292  0.16235669  0.13008664  1
  Sr  Sr7  1  0.16235669  0.89980292  0.86991336  1
  Sr  Sr8  1  0.72672220  0.72672220  0.50000000  1
  Sr  Sr9  1  0.77327780  0.22672220  0.75000000  1
  Sr  Sr10  1  0.83764331  0.10019708  0.36991336  1
  Sr  Sr11  1  0.60019708  0.66235669  0.11991336  1
  V  V12  1  0.24867786  0.64033764  0.50167507  1
  V  V13  1  0.59094041  0.83299657  0.64711666  1
  V  V14  1  0.66700343  0.09094041  0.89711666  1
  V  V15  1  0.74867786  0.85966236  0.24832493  1
  V  V16  1  0.90905959  0.33299657  0.60288334  1
  V  V17  1  0.64033764  0.24867786  0.49832493  1
  V  V18  1  0.09094041  0.66700343  0.10288334  1
  V  V19  1  0.16700343  0.40905959  0.85288334  1
  V  V20  1  0.40905959  0.16700343  0.14711666  1
  V  V21  1  0.75132214  0.35966236  0.00167507  1
  V  V22  1  0.25132214  0.14033764  0.74832493  1
  V  V23  1  0.33299657  0.90905959  0.39711666  1
  V  V24  1  0.85966236  0.74867786  0.75167507  1
  V  V25  1  0.83299657  0.59094041  0.35288334  1
  V  V26  1  0.35966236  0.75132214  0.99832493  1
  V  V27  1  0.14033764  0.25132214  0.25167507  1
  Cd  Cd28  1  0.87825086  0.87825086  0.00000000  1
  Cd  Cd29  1  0.12174914  0.12174914  0.50000000  1
  Cd  Cd30  1  0.62174914  0.37825086  0.25000000  1
  Cd  Cd31  1  0.37825086  0.62174914  0.75000000  1
  O  O32  1  0.24234718  0.70989852  0.15202197  1
  O  O33  1  0.56126255  0.84602923  0.02284005  1
  O  O34  1  0.04501531  0.14226167  0.58482388  1
  O  O35  1  0.49874682  0.07012689  0.38217786  1
  O  O36  1  0.35773833  0.54501531  0.83482388  1
  O  O37  1  0.59788433  0.40262440  0.04997538  1
  O  O38  1  0.43873745  0.15397077  0.52284005  1
  O  O39  1  0.09788433  0.09737560  0.70002462  1
  O  O40  1  0.40262440  0.59788433  0.95002462  1
  O  O41  1  0.76197524  0.39176919  0.54695431  1
  O  O42  1  0.84602923  0.56126255  0.97715995  1
  O  O43  1  0.14226167  0.04501531  0.41517612  1
  O  O44  1  0.23802476  0.60823081  0.04695431  1
  O  O45  1  0.00125318  0.57012689  0.86782214  1
  O  O46  1  0.26197524  0.10823081  0.20304569  1
  O  O47  1  0.34602923  0.93873745  0.77284005  1
  O  O48  1  0.20559030  0.92329659  0.97744223  1
  O  O49  1  0.74234718  0.79010148  0.59797803  1
  O  O50  1  0.42987311  0.99874682  0.63217786  1
  O  O51  1  0.65397077  0.06126255  0.27284005  1
  O  O52  1  0.89176919  0.73802476  0.29695431  1
  O  O53  1  0.09737560  0.09788433  0.29997538  1
  O  O54  1  0.60823081  0.23802476  0.95304569  1
  O  O55  1  0.93873745  0.34602923  0.22715995  1
  O  O56  1  0.57012689  0.00125318  0.13217786  1
  O  O57  1  0.57670341  0.70559030  0.22744223  1
  O  O58  1  0.92329659  0.20559030  0.02255777  1
  O  O59  1  0.73802476  0.89176919  0.70304569  1
  O  O60  1  0.85773833  0.95498469  0.91517612  1
  O  O61  1  0.70989852  0.24234718  0.84797803  1
  O  O62  1  0.59737560  0.40211567  0.45002462  1
  O  O63  1  0.92987311  0.50125318  0.11782214  1
  O  O64  1  0.75765282  0.29010148  0.65202197  1
  O  O65  1  0.40211567  0.59737560  0.54997538  1
  O  O66  1  0.07012689  0.49874682  0.61782214  1
  O  O67  1  0.15397077  0.43873745  0.47715995  1
  O  O68  1  0.64226167  0.45498469  0.33482388  1
  O  O69  1  0.79440970  0.07670341  0.47744223  1
  O  O70  1  0.25765282  0.20989852  0.09797803  1
  O  O71  1  0.29440970  0.42329659  0.27255777  1
  O  O72  1  0.95498469  0.85773833  0.08482388  1
  O  O73  1  0.42329659  0.29440970  0.72744223  1
  O  O74  1  0.79010148  0.74234718  0.40202197  1
  O  O75  1  0.29010148  0.75765282  0.34797803  1
  O  O76  1  0.39176919  0.76197524  0.45304569  1
  O  O77  1  0.07670341  0.79440970  0.52255777  1
  O  O78  1  0.90211567  0.90262440  0.20002462  1
  O  O79  1  0.90262440  0.90211567  0.79997538  1
  O  O80  1  0.10823081  0.26197524  0.79695431  1
  O  O81  1  0.20989852  0.25765282  0.90202197  1
  O  O82  1  0.54501531  0.35773833  0.16517612  1
  O  O83  1  0.70559030  0.57670341  0.77255777  1
  O  O84  1  0.50125318  0.92987311  0.88217786  1
  O  O85  1  0.99874682  0.42987311  0.36782214  1
  O  O86  1  0.06126255  0.65397077  0.72715995  1
  O  O87  1  0.45498469  0.64226167  0.66517612  1
