# generated using pymatgen
data_CdI2
_symmetry_space_group_name_H-M   'P 1'
_cell_length_a   22.17028593
_cell_length_b   22.17028599
_cell_length_c   22.17028678
_cell_angle_alpha   11.21394392
_cell_angle_beta   11.21394329
_cell_angle_gamma   11.21394235
_symmetry_Int_Tables_number   1
_chemical_formula_structural   CdI2
_chemical_formula_sum   'Cd3 I6'
_cell_volume   358.05320209
_cell_formula_units_Z   3
loop_
 _symmetry_equiv_pos_site_id
 _symmetry_equiv_pos_as_xyz
  1  'x, y, z'
loop_
 _atom_site_type_symbol
 _atom_site_label
 _atom_site_symmetry_multiplicity
 _atom_site_fract_x
 _atom_site_fract_y
 _atom_site_fract_z
 _atom_site_occupancy
  Cd  Cd0  1  0.55555005  0.55555005  0.55555005  1
  Cd  Cd1  1  0.00000000  0.00000000  0.00000000  1
  Cd  Cd2  1  0.44444995  0.44444995  0.44444995  1
  I  I3  1  0.64051787  0.64051787  0.64051787  1
  I  I4  1  0.35948213  0.35948213  0.35948213  1
  I  I5  1  0.86273420  0.86273420  0.86273420  1
  I  I6  1  0.13726580  0.13726580  0.13726580  1
  I  I7  1  0.75163824  0.75163824  0.75163824  1
  I  I8  1  0.24836176  0.24836176  0.24836176  1
