# generated using pymatgen
data_Rb2SbBr6
_symmetry_space_group_name_H-M   'P 1'
_cell_length_a   10.98286582
_cell_length_b   10.98286527
_cell_length_c   13.56626071
_cell_angle_alpha   113.87771841
_cell_angle_beta   113.87771722
_cell_angle_gamma   90.00000154
_symmetry_Int_Tables_number   1
_chemical_formula_structural   Rb2SbBr6
_chemical_formula_sum   'Rb8 Sb4 Br24'
_cell_volume   1341.75104142
_cell_formula_units_Z   4
loop_
 _symmetry_equiv_pos_site_id
 _symmetry_equiv_pos_as_xyz
  1  'x, y, z'
loop_
 _atom_site_type_symbol
 _atom_site_label
 _atom_site_symmetry_multiplicity
 _atom_site_fract_x
 _atom_site_fract_y
 _atom_site_fract_z
 _atom_site_occupancy
  Rb  Rb0  1  0.49819264  0.26586422  0.49565684  1
  Rb  Rb1  1  0.77020738  0.00180736  0.00434316  1
  Rb  Rb2  1  0.99746421  0.72979262  0.49565684  1
  Rb  Rb3  1  0.76586422  0.49746421  0.99565684  1
  Rb  Rb4  1  0.50180736  0.73413578  0.50434316  1
  Rb  Rb5  1  0.22979262  0.99819264  0.99565684  1
  Rb  Rb6  1  0.23413578  0.50253579  0.00434316  1
  Rb  Rb7  1  0.00253579  0.27020738  0.50434316  1
  Sb  Sb8  1  0.62500000  0.87500000  0.25000000  1
  Sb  Sb9  1  0.37500000  0.12500000  0.75000000  1
  Sb  Sb10  1  0.12500000  0.37500000  0.25000000  1
  Sb  Sb11  1  0.87500000  0.62500000  0.75000000  1
  Br  Br12  1  0.86744773  0.84934356  0.25019871  1
  Br  Br13  1  0.85901675  0.37143463  0.74364167  1
  Br  Br14  1  0.59914485  0.63255227  0.24980129  1
  Br  Br15  1  0.87143463  0.38462492  0.24364167  1
  Br  Br16  1  0.74512240  0.99512240  0.49024481  1
  Br  Br17  1  0.61724902  0.09914485  0.74980129  1
  Br  Br18  1  0.38275098  0.90085515  0.25019871  1
  Br  Br19  1  0.37220704  0.35901675  0.24364167  1
  Br  Br20  1  0.40085515  0.36744773  0.75019871  1
  Br  Br21  1  0.25487760  0.00487760  0.50975519  1
  Br  Br22  1  0.34934356  0.88275098  0.75019871  1
  Br  Br23  1  0.75083451  0.50083451  0.50166902  1
  Br  Br24  1  0.99916549  0.74916549  0.99833098  1
  Br  Br25  1  0.88462492  0.87220704  0.74364167  1
  Br  Br26  1  0.12856537  0.61537508  0.75635833  1
  Br  Br27  1  0.62779296  0.64098325  0.75635833  1
  Br  Br28  1  0.13255227  0.15065644  0.74980129  1
  Br  Br29  1  0.65065644  0.11724902  0.24980129  1
  Br  Br30  1  0.50487760  0.75487760  0.00975519  1
  Br  Br31  1  0.00083451  0.25083451  0.00166902  1
  Br  Br32  1  0.49512240  0.24512240  0.99024481  1
  Br  Br33  1  0.24916549  0.49916549  0.49833098  1
  Br  Br34  1  0.11537508  0.12779296  0.25635833  1
  Br  Br35  1  0.14098325  0.62856537  0.25635833  1
