# generated using pymatgen
data_NbCl5
_symmetry_space_group_name_H-M   'P 1'
_cell_length_a   8.44681017
_cell_length_b   8.57188192
_cell_length_c   10.75808049
_cell_angle_alpha   90.00000000
_cell_angle_beta   90.00000000
_cell_angle_gamma   89.37102449
_symmetry_Int_Tables_number   1
_chemical_formula_structural   NbCl5
_chemical_formula_sum   'Nb4 Cl20'
_cell_volume   778.89252241
_cell_formula_units_Z   4
loop_
 _symmetry_equiv_pos_site_id
 _symmetry_equiv_pos_as_xyz
  1  'x, y, z'
loop_
 _atom_site_type_symbol
 _atom_site_label
 _atom_site_symmetry_multiplicity
 _atom_site_fract_x
 _atom_site_fract_y
 _atom_site_fract_z
 _atom_site_occupancy
  Nb  Nb0  1  0.55102984  0.34245132  0.13486080  1
  Nb  Nb1  1  0.94897016  0.15754868  0.63486080  1
  Nb  Nb2  1  0.05102984  0.84245132  0.36513920  1
  Nb  Nb3  1  0.44897016  0.65754868  0.86513920  1
  Cl  Cl4  1  0.12922757  0.58738736  0.38229736  1
  Cl  Cl5  1  0.46229663  0.63143985  0.10464210  1
  Cl  Cl6  1  0.78242841  0.78415956  0.37909024  1
  Cl  Cl7  1  0.21757159  0.21584044  0.62090976  1
  Cl  Cl8  1  0.62922757  0.08738736  0.11770264  1
  Cl  Cl9  1  0.37077243  0.91261264  0.88229736  1
  Cl  Cl10  1  0.69178646  0.06488648  0.61463354  1
  Cl  Cl11  1  0.80821354  0.43511352  0.11463354  1
  Cl  Cl12  1  0.45720422  0.61980054  0.65492774  1
  Cl  Cl13  1  0.53770337  0.36856015  0.89535790  1
  Cl  Cl14  1  0.19178646  0.56488648  0.88536646  1
  Cl  Cl15  1  0.71757159  0.71584044  0.87909024  1
  Cl  Cl16  1  0.95720422  0.11980054  0.84507226  1
  Cl  Cl17  1  0.28242841  0.28415956  0.12090976  1
  Cl  Cl18  1  0.03770337  0.86856015  0.60464210  1
  Cl  Cl19  1  0.96229663  0.13143985  0.39535790  1
  Cl  Cl20  1  0.54279578  0.38019946  0.34507226  1
  Cl  Cl21  1  0.30821354  0.93511352  0.38536646  1
  Cl  Cl22  1  0.87077243  0.41261264  0.61770264  1
  Cl  Cl23  1  0.04279578  0.88019946  0.15492774  1
