# generated using pymatgen
data_PbI2
_symmetry_space_group_name_H-M   'P 1'
_cell_length_a   15.38236518
_cell_length_b   15.38236507
_cell_length_c   15.38236597
_cell_angle_alpha   17.48341634
_cell_angle_beta   17.48341743
_cell_angle_gamma   17.48341800
_symmetry_Int_Tables_number   1
_chemical_formula_structural   PbI2
_chemical_formula_sum   'Pb2 I4'
_cell_volume   286.70958163
_cell_formula_units_Z   2
loop_
 _symmetry_equiv_pos_site_id
 _symmetry_equiv_pos_as_xyz
  1  'x, y, z'
loop_
 _atom_site_type_symbol
 _atom_site_label
 _atom_site_symmetry_multiplicity
 _atom_site_fract_x
 _atom_site_fract_y
 _atom_site_fract_z
 _atom_site_occupancy
  Pb  Pb0  1  0.41698360  0.41698360  0.41698360  1
  Pb  Pb1  1  0.58301640  0.58301640  0.58301640  1
  I  I2  1  0.87532974  0.87532974  0.87532974  1
  I  I3  1  0.12467026  0.12467026  0.12467026  1
  I  I4  1  0.70933461  0.70933461  0.70933461  1
  I  I5  1  0.29066539  0.29066539  0.29066539  1
