# generated using pymatgen
data_K2Ge2Se5
_symmetry_space_group_name_H-M   'P 1'
_cell_length_a   10.03382793
_cell_length_b   10.25008812
_cell_length_c   23.98850204
_cell_angle_alpha   86.65549064
_cell_angle_beta   90.00000000
_cell_angle_gamma   90.00000000
_symmetry_Int_Tables_number   1
_chemical_formula_structural   K2Ge2Se5
_chemical_formula_sum   'K16 Ge16 Se40'
_cell_volume   2462.95828072
_cell_formula_units_Z   8
loop_
 _symmetry_equiv_pos_site_id
 _symmetry_equiv_pos_as_xyz
  1  'x, y, z'
loop_
 _atom_site_type_symbol
 _atom_site_label
 _atom_site_symmetry_multiplicity
 _atom_site_fract_x
 _atom_site_fract_y
 _atom_site_fract_z
 _atom_site_occupancy
  K  K0  1  0.88042407  0.84084248  0.15667086  1
  K  K1  1  0.85367567  0.32017161  0.23918390  1
  K  K2  1  0.64632433  0.32017161  0.73918390  1
  K  K3  1  0.49804051  0.56705965  0.10476383  1
  K  K4  1  0.62053339  0.31710374  0.50298100  1
  K  K5  1  0.35367567  0.67982839  0.26081610  1
  K  K6  1  0.38042407  0.15915752  0.34332914  1
  K  K7  1  0.00195949  0.56705965  0.60476383  1
  K  K8  1  0.99804051  0.43294035  0.39523617  1
  K  K9  1  0.14632433  0.67982839  0.76081610  1
  K  K10  1  0.11957593  0.15915752  0.84332914  1
  K  K11  1  0.50195949  0.43294035  0.89523617  1
  K  K12  1  0.61957593  0.84084248  0.65667086  1
  K  K13  1  0.37946661  0.68289626  0.49701900  1
  K  K14  1  0.12053339  0.68289626  0.99701900  1
  K  K15  1  0.87946661  0.31710374  0.00298100  1
  Ge  Ge16  1  0.08437475  0.83941582  0.37923096  1
  Ge  Ge17  1  0.41562525  0.83941582  0.87923096  1
  Ge  Ge18  1  0.24237531  0.27383140  0.69275267  1
  Ge  Ge19  1  0.72843233  0.73984389  0.96823475  1
  Ge  Ge20  1  0.58437475  0.16058418  0.12076904  1
  Ge  Ge21  1  0.77181441  0.05372696  0.37560684  1
  Ge  Ge22  1  0.27181441  0.94627304  0.12439316  1
  Ge  Ge23  1  0.22843233  0.26015611  0.53176525  1
  Ge  Ge24  1  0.27156767  0.26015611  0.03176525  1
  Ge  Ge25  1  0.91562525  0.16058418  0.62076904  1
  Ge  Ge26  1  0.74237531  0.72616860  0.80724733  1
  Ge  Ge27  1  0.77156767  0.73984389  0.46823475  1
  Ge  Ge28  1  0.22818559  0.94627304  0.62439316  1
  Ge  Ge29  1  0.25762469  0.27383140  0.19275267  1
  Ge  Ge30  1  0.72818559  0.05372696  0.87560684  1
  Ge  Ge31  1  0.75762469  0.72616860  0.30724733  1
  Se  Se32  1  0.80564569  0.63034900  0.04890676  1
  Se  Se33  1  0.68237221  0.94898386  0.29575484  1
  Se  Se34  1  0.18237221  0.05101614  0.20424516  1
  Se  Se35  1  0.48924567  0.06161166  0.87219657  1
  Se  Se36  1  0.19035389  0.03972646  0.03645117  1
  Se  Se37  1  0.68721241  0.16328450  0.62464512  1
  Se  Se38  1  0.98924567  0.93838834  0.62780343  1
  Se  Se39  1  0.98770885  0.27222128  0.53346294  1
  Se  Se40  1  0.69435431  0.63034900  0.54890676  1
  Se  Se41  1  0.82027367  0.61846317  0.89360516  1
  Se  Se42  1  0.29629681  0.73053892  0.63280010  1
  Se  Se43  1  0.31762779  0.05101614  0.70424516  1
  Se  Se44  1  0.48770885  0.72777872  0.96653706  1
  Se  Se45  1  0.18721241  0.83671550  0.87535488  1
  Se  Se46  1  0.80964611  0.96027354  0.96354883  1
  Se  Se47  1  0.17972633  0.38153683  0.10639484  1
  Se  Se48  1  0.18360812  0.38697655  0.26716454  1
  Se  Se49  1  0.00107263  0.28450462  0.69644463  1
  Se  Se50  1  0.31639188  0.38697655  0.76716454  1
  Se  Se51  1  0.31278759  0.83671550  0.37535488  1
  Se  Se52  1  0.81639188  0.61302345  0.73283546  1
  Se  Se53  1  0.67972633  0.61846317  0.39360516  1
  Se  Se54  1  0.69035389  0.96027354  0.46354883  1
  Se  Se55  1  0.81278759  0.16328450  0.12464512  1
  Se  Se56  1  0.99892737  0.71549538  0.30355537  1
  Se  Se57  1  0.51075433  0.93838834  0.12780343  1
  Se  Se58  1  0.32027367  0.38153683  0.60639484  1
  Se  Se59  1  0.30564569  0.36965100  0.45109324  1
  Se  Se60  1  0.51229115  0.27222128  0.03346294  1
  Se  Se61  1  0.68360812  0.61302345  0.23283546  1
  Se  Se62  1  0.01075433  0.06161166  0.37219657  1
  Se  Se63  1  0.50107263  0.71549538  0.80355537  1
  Se  Se64  1  0.30964611  0.03972646  0.53645117  1
  Se  Se65  1  0.19435431  0.36965100  0.95109324  1
  Se  Se66  1  0.01229115  0.72777872  0.46653706  1
  Se  Se67  1  0.70370319  0.26946108  0.36719990  1
  Se  Se68  1  0.81762779  0.94898386  0.79575484  1
  Se  Se69  1  0.20370319  0.73053892  0.13280010  1
  Se  Se70  1  0.49892737  0.28450462  0.19644463  1
  Se  Se71  1  0.79629681  0.26946108  0.86719990  1
