# generated using pymatgen
data_Ba2YCu2HgO7
_symmetry_space_group_name_H-M   'P 1'
_cell_length_a   3.89266899
_cell_length_b   3.89266899
_cell_length_c   12.89869378
_cell_angle_alpha   90.00000000
_cell_angle_beta   90.00000000
_cell_angle_gamma   90.00000000
_symmetry_Int_Tables_number   1
_chemical_formula_structural   Ba2YCu2HgO7
_chemical_formula_sum   'Ba2 Y1 Cu2 Hg1 O7'
_cell_volume   195.45225408
_cell_formula_units_Z   1
loop_
 _symmetry_equiv_pos_site_id
 _symmetry_equiv_pos_as_xyz
  1  'x, y, z'
loop_
 _atom_site_type_symbol
 _atom_site_label
 _atom_site_symmetry_multiplicity
 _atom_site_fract_x
 _atom_site_fract_y
 _atom_site_fract_z
 _atom_site_occupancy
  Ba  Ba0  1  0.50000000  0.50000000  0.20194472  1
  Ba  Ba1  1  0.50000000  0.50000000  0.79805528  1
  Y  Y2  1  0.50000000  0.50000000  0.50000000  1
  Cu  Cu3  1  -0.00000000  0.00000000  0.37070777  1
  Cu  Cu4  1  0.00000000  0.00000000  0.62929223  1
  Hg  Hg5  1  -0.00000000  -0.00000000  -0.00000000  1
  O  O6  1  0.00000000  -0.00000000  0.16463890  1
  O  O7  1  -0.00000000  -0.00000000  0.83536110  1
  O  O8  1  0.00000000  0.50000000  0.38819784  1
  O  O9  1  -0.00000000  0.50000000  0.61180216  1
  O  O10  1  0.50000000  0.00000000  0.38819784  1
  O  O11  1  0.50000000  -0.00000000  0.61180216  1
  O  O12  1  0.50000000  0.50000000  -0.00000000  1
