# generated using pymatgen
data_Ni4B3
_symmetry_space_group_name_H-M   'P 1'
_cell_length_a   4.02800775
_cell_length_b   4.02800775
_cell_length_c   7.81562738
_cell_angle_alpha   79.47070082
_cell_angle_beta   79.47070082
_cell_angle_gamma   74.54777464
_symmetry_Int_Tables_number   1
_chemical_formula_structural   Ni4B3
_chemical_formula_sum   'Ni8 B6'
_cell_volume   118.95720738
_cell_formula_units_Z   2
loop_
 _symmetry_equiv_pos_site_id
 _symmetry_equiv_pos_as_xyz
  1  'x, y, z'
loop_
 _atom_site_type_symbol
 _atom_site_label
 _atom_site_symmetry_multiplicity
 _atom_site_fract_x
 _atom_site_fract_y
 _atom_site_fract_z
 _atom_site_occupancy
  Ni  Ni0  1  0.77665130  0.63266132  0.21284865  1
  Ni  Ni1  1  0.36733868  0.22334870  0.28715135  1
  Ni  Ni2  1  0.22334870  0.36733868  0.78715135  1
  Ni  Ni3  1  0.63266132  0.77665130  0.71284865  1
  Ni  Ni4  1  0.20280305  0.70885270  0.48435179  1
  Ni  Ni5  1  0.29114730  0.79719695  0.01564821  1
  Ni  Ni6  1  0.79719695  0.29114730  0.51564821  1
  Ni  Ni7  1  0.70885270  0.20280305  0.98435179  1
  B  B8  1  0.15122394  0.31350453  0.05850783  1
  B  B9  1  0.68649547  0.84877606  0.44149217  1
  B  B10  1  0.84877606  0.68649547  0.94149217  1
  B  B11  1  0.31350453  0.15122394  0.55850783  1
  B  B12  1  0.92739212  0.07260788  0.25000000  1
  B  B13  1  0.07260788  0.92739212  0.75000000  1
