# generated using pymatgen
data_Cr3(P2O7)2
_symmetry_space_group_name_H-M   'P 1'
_cell_length_a   4.80035463
_cell_length_b   8.02368660
_cell_length_c   12.89677628
_cell_angle_alpha   89.56915372
_cell_angle_beta   89.74659158
_cell_angle_gamma   87.84649205
_symmetry_Int_Tables_number   1
_chemical_formula_structural   Cr3(P2O7)2
_chemical_formula_sum   'Cr6 P8 O28'
_cell_volume   496.37009058
_cell_formula_units_Z   2
loop_
 _symmetry_equiv_pos_site_id
 _symmetry_equiv_pos_as_xyz
  1  'x, y, z'
loop_
 _atom_site_type_symbol
 _atom_site_label
 _atom_site_symmetry_multiplicity
 _atom_site_fract_x
 _atom_site_fract_y
 _atom_site_fract_z
 _atom_site_occupancy
  Cr  Cr0  1  0.76579913  0.99097932  0.73230151  1
  Cr  Cr1  1  0.71494423  0.48955741  0.76238405  1
  Cr  Cr2  1  0.00000000  0.00000000  0.50000000  1
  Cr  Cr3  1  0.23420087  0.00902068  0.26769849  1
  Cr  Cr4  1  0.28505577  0.51044259  0.23761595  1
  Cr  Cr5  1  0.50000000  0.50000000  0.00000000  1
  P  P6  1  0.24149954  0.23809029  0.84410295  1
  P  P7  1  0.23337169  0.70607588  0.65054484  1
  P  P8  1  0.76662831  0.29392412  0.34945516  1
  P  P9  1  0.50553549  0.25259352  0.56127301  1
  P  P10  1  0.75850046  0.76190971  0.15589705  1
  P  P11  1  0.02806554  0.25054411  0.06237249  1
  P  P12  1  0.49446451  0.74740648  0.43872699  1
  P  P13  1  0.97193446  0.74945589  0.93762751  1
  O  O14  1  0.65574848  0.33911057  0.46445710  1
  O  O15  1  0.21137042  0.20703435  0.53383318  1
  O  O16  1  0.05934402  0.11810090  0.14355545  1
  O  O17  1  0.94065598  0.88189910  0.85644455  1
  O  O18  1  0.01794652  0.58141397  0.67842110  1
  O  O19  1  0.81248026  0.82193739  0.03834088  1
  O  O20  1  0.31614262  0.91092220  0.41505614  1
  O  O21  1  0.59172617  0.59739695  0.14038743  1
  O  O22  1  0.47448398  0.62454897  0.35149219  1
  O  O23  1  0.68385738  0.08907780  0.58494386  1
  O  O24  1  0.95996207  0.27946190  0.79237892  1
  O  O25  1  0.59059927  0.89957195  0.20635098  1
  O  O26  1  0.34425152  0.66088943  0.53554290  1
  O  O27  1  0.26956461  0.70191889  0.96670667  1
  O  O28  1  0.19139801  0.41166219  0.09229244  1
  O  O29  1  0.04003793  0.72053810  0.20762108  1
  O  O30  1  0.40940073  0.10042805  0.79364902  1
  O  O31  1  0.73043539  0.29808111  0.03329333  1
  O  O32  1  0.18751974  0.17806261  0.96165912  1
  O  O33  1  0.98205248  0.41858603  0.32157890  1
  O  O34  1  0.52551602  0.37545103  0.64850781  1
  O  O35  1  0.78862958  0.79296565  0.46616682  1
  O  O36  1  0.40827383  0.40260305  0.85961257  1
  O  O37  1  0.80860199  0.58833781  0.90770756  1
  O  O38  1  0.89566178  0.11223576  0.36189850  1
  O  O39  1  0.51420161  0.29693487  0.27661781  1
  O  O40  1  0.10433822  0.88776424  0.63810150  1
  O  O41  1  0.48579839  0.70306513  0.72338219  1
