# generated using pymatgen
data_Sr(AlCl4)2
_symmetry_space_group_name_H-M   'P 1'
_cell_length_a   11.64252498
_cell_length_b   11.64252506
_cell_length_c   13.34183098
_cell_angle_alpha   115.86910223
_cell_angle_beta   115.86910240
_cell_angle_gamma   90.00000131
_symmetry_Int_Tables_number   1
_chemical_formula_structural   Sr(AlCl4)2
_chemical_formula_sum   'Sr4 Al8 Cl32'
_cell_volume   1423.13062753
_cell_formula_units_Z   4
loop_
 _symmetry_equiv_pos_site_id
 _symmetry_equiv_pos_as_xyz
  1  'x, y, z'
loop_
 _atom_site_type_symbol
 _atom_site_label
 _atom_site_symmetry_multiplicity
 _atom_site_fract_x
 _atom_site_fract_y
 _atom_site_fract_z
 _atom_site_occupancy
  Sr  Sr0  1  0.37500000  0.12500000  0.75000000  1
  Sr  Sr1  1  0.62500000  0.87500000  0.25000000  1
  Sr  Sr2  1  0.12500000  0.37500000  0.25000000  1
  Sr  Sr3  1  0.87500000  0.62500000  0.75000000  1
  Al  Al4  1  0.71314584  0.75000000  0.50000000  1
  Al  Al5  1  0.28685416  0.25000000  0.50000000  1
  Al  Al6  1  0.75000000  0.28685416  1.00000000  1
  Al  Al7  1  0.78685416  0.25000000  0.50000000  1
  Al  Al8  1  0.25000000  0.21314584  0.00000000  1
  Al  Al9  1  0.25000000  0.71314584  0.00000000  1
  Al  Al10  1  0.75000000  0.78685416  1.00000000  1
  Al  Al11  1  0.21314584  0.75000000  0.50000000  1
  Cl  Cl12  1  0.59825192  0.16519686  0.32961389  1
  Cl  Cl13  1  0.66441703  0.59825192  0.82961389  1
  Cl  Cl14  1  0.33480314  0.90174808  0.17038611  1
  Cl  Cl15  1  0.83480314  0.26863803  0.17038611  1
  Cl  Cl16  1  0.90027029  0.41588778  0.52351028  1
  Cl  Cl17  1  0.76863803  0.33480314  0.67038611  1
  Cl  Cl18  1  0.09972971  0.58411222  0.47648972  1
  Cl  Cl19  1  0.37676001  0.39237750  0.47648972  1
  Cl  Cl20  1  0.60762250  0.90027029  0.02351028  1
  Cl  Cl21  1  0.08411222  0.59972971  0.97648972  1
  Cl  Cl22  1  0.16519686  0.73136197  0.82961389  1
  Cl  Cl23  1  0.41588778  0.62323999  0.02351028  1
  Cl  Cl24  1  0.12323999  0.91588778  0.52351028  1
  Cl  Cl25  1  0.23136197  0.66519686  0.32961389  1
  Cl  Cl26  1  0.66519686  0.09825192  0.82961389  1
  Cl  Cl27  1  0.33558297  0.40174808  0.17038611  1
  Cl  Cl28  1  0.87676001  0.08411222  0.47648972  1
  Cl  Cl29  1  0.40027029  0.10762250  0.52351028  1
  Cl  Cl30  1  0.39237750  0.09972971  0.97648972  1
  Cl  Cl31  1  0.90174808  0.83558297  0.67038611  1
  Cl  Cl32  1  0.26863803  0.33558297  0.67038611  1
  Cl  Cl33  1  0.89237750  0.87676001  0.97648972  1
  Cl  Cl34  1  0.16441703  0.23136197  0.82961389  1
  Cl  Cl35  1  0.58411222  0.37676001  0.97648972  1
  Cl  Cl36  1  0.10762250  0.12323999  0.02351028  1
  Cl  Cl37  1  0.73136197  0.66441703  0.32961389  1
  Cl  Cl38  1  0.09825192  0.16441703  0.32961389  1
  Cl  Cl39  1  0.59972971  0.89237750  0.47648972  1
  Cl  Cl40  1  0.83558297  0.76863803  0.17038611  1
  Cl  Cl41  1  0.91588778  0.40027029  0.02351028  1
  Cl  Cl42  1  0.40174808  0.83480314  0.67038611  1
  Cl  Cl43  1  0.62323999  0.60762250  0.52351028  1
