# generated using pymatgen
data_BP2N2Cl7
_symmetry_space_group_name_H-M   'P 1'
_cell_length_a   8.65203774
_cell_length_b   9.98042865
_cell_length_c   15.41904383
_cell_angle_alpha   106.40177008
_cell_angle_beta   90.00000000
_cell_angle_gamma   90.00000000
_symmetry_Int_Tables_number   1
_chemical_formula_structural   BP2N2Cl7
_chemical_formula_sum   'B4 P8 N8 Cl28'
_cell_volume   1277.26750716
_cell_formula_units_Z   4
loop_
 _symmetry_equiv_pos_site_id
 _symmetry_equiv_pos_as_xyz
  1  'x, y, z'
loop_
 _atom_site_type_symbol
 _atom_site_label
 _atom_site_symmetry_multiplicity
 _atom_site_fract_x
 _atom_site_fract_y
 _atom_site_fract_z
 _atom_site_occupancy
  B  B0  1  0.42866284  0.08135290  0.48383847  1
  B  B1  1  0.07133716  0.58135290  0.98383847  1
  B  B2  1  0.57133716  0.91864710  0.51616153  1
  B  B3  1  0.92866284  0.41864710  0.01616153  1
  P  P4  1  0.12455047  0.55784103  0.16417707  1
  P  P5  1  0.52397189  0.00039825  0.16716806  1
  P  P6  1  0.62455047  0.94215897  0.33582293  1
  P  P7  1  0.47602811  0.99960175  0.83283194  1
  P  P8  1  0.37544953  0.05784103  0.66417707  1
  P  P9  1  0.87544953  0.44215897  0.83582293  1
  P  P10  1  0.97602811  0.50039825  0.66716806  1
  P  P11  1  0.02397189  0.49960175  0.33283194  1
  N  N12  1  0.54234981  0.96663598  0.43011432  1
  N  N13  1  0.95765019  0.46663598  0.93011432  1
  N  N14  1  0.04234981  0.53336402  0.06988568  1
  N  N15  1  0.47805192  0.00255893  0.73285082  1
  N  N16  1  0.45765019  0.03336402  0.56988568  1
  N  N17  1  0.52194808  0.99744107  0.26714918  1
  N  N18  1  0.02194808  0.50255893  0.23285082  1
  N  N19  1  0.97805192  0.49744107  0.76714918  1
  Cl  Cl20  1  0.16276814  0.96865943  0.65674612  1
  Cl  Cl21  1  0.31838052  0.06317510  0.13620359  1
  Cl  Cl22  1  0.27383928  0.55712428  0.94089658  1
  Cl  Cl23  1  0.43637384  0.18284256  0.92296904  1
  Cl  Cl24  1  0.82558510  0.23867744  0.78399908  1
  Cl  Cl25  1  0.82493110  0.63233267  0.63766874  1
  Cl  Cl26  1  0.56362616  0.81715744  0.07703096  1
  Cl  Cl27  1  0.17441490  0.76132256  0.21600092  1
  Cl  Cl28  1  0.32558510  0.26132256  0.71600092  1
  Cl  Cl29  1  0.77383928  0.94287572  0.55910342  1
  Cl  Cl30  1  0.33723186  0.46865943  0.15674612  1
  Cl  Cl31  1  0.32493110  0.86766733  0.86233126  1
  Cl  Cl32  1  0.67506890  0.13233267  0.13766874  1
  Cl  Cl33  1  0.66276814  0.53134057  0.84325388  1
  Cl  Cl34  1  0.50826512  0.73594154  0.50618906  1
  Cl  Cl35  1  0.67441490  0.73867744  0.28399908  1
  Cl  Cl36  1  0.18161948  0.56317510  0.63620359  1
  Cl  Cl37  1  0.72616072  0.44287572  0.05910342  1
  Cl  Cl38  1  0.68161948  0.93682490  0.86379641  1
  Cl  Cl39  1  0.83723186  0.03134057  0.34325388  1
  Cl  Cl40  1  0.17506890  0.36766733  0.36233126  1
  Cl  Cl41  1  0.93637384  0.31715744  0.57703096  1
  Cl  Cl42  1  0.00826512  0.76405846  0.99381094  1
  Cl  Cl43  1  0.81838052  0.43682490  0.36379641  1
  Cl  Cl44  1  0.22616072  0.05712428  0.44089658  1
  Cl  Cl45  1  0.06362616  0.68284256  0.42296904  1
  Cl  Cl46  1  0.99173488  0.23594154  0.00618906  1
  Cl  Cl47  1  0.49173488  0.26405846  0.49381094  1
