# generated using pymatgen
data_Hf5Sb9
_symmetry_space_group_name_H-M   'P 1'
_cell_length_a   8.73503523
_cell_length_b   8.84360619
_cell_length_c   8.84360619
_cell_angle_alpha   90.00000000
_cell_angle_beta   90.00000000
_cell_angle_gamma   90.00000000
_symmetry_Int_Tables_number   1
_chemical_formula_structural   Hf5Sb9
_chemical_formula_sum   'Hf10 Sb18'
_cell_volume   683.16160614
_cell_formula_units_Z   2
loop_
 _symmetry_equiv_pos_site_id
 _symmetry_equiv_pos_as_xyz
  1  'x, y, z'
loop_
 _atom_site_type_symbol
 _atom_site_label
 _atom_site_symmetry_multiplicity
 _atom_site_fract_x
 _atom_site_fract_y
 _atom_site_fract_z
 _atom_site_occupancy
  Hf  Hf0  1  0.25483356  0.75000000  0.75000000  1
  Hf  Hf1  1  0.74516644  0.25000000  0.25000000  1
  Hf  Hf2  1  0.26647087  0.54267856  0.35534426  1
  Hf  Hf3  1  0.73352913  0.45732144  0.64465574  1
  Hf  Hf4  1  0.26647087  0.14465574  0.54267856  1
  Hf  Hf5  1  0.26647087  0.95732144  0.14465574  1
  Hf  Hf6  1  0.73352913  0.04267856  0.85534426  1
  Hf  Hf7  1  0.73352913  0.85534426  0.45732144  1
  Hf  Hf8  1  0.26647087  0.35534426  0.95732144  1
  Hf  Hf9  1  0.73352913  0.64465574  0.04267856  1
  Sb  Sb10  1  0.00194864  0.98134606  0.66989539  1
  Sb  Sb11  1  0.99805136  0.16989539  0.01865394  1
  Sb  Sb12  1  0.38178556  0.84676000  0.44651592  1
  Sb  Sb13  1  0.61821444  0.55348408  0.34676000  1
  Sb  Sb14  1  0.61821444  0.15324000  0.55348408  1
  Sb  Sb15  1  0.38178556  0.44651592  0.65324000  1
  Sb  Sb16  1  0.00194864  0.51865394  0.83010461  1
  Sb  Sb17  1  0.39224374  0.25000000  0.25000000  1
  Sb  Sb18  1  0.61821444  0.34676000  0.94651592  1
  Sb  Sb19  1  0.99805136  0.48134606  0.16989539  1
  Sb  Sb20  1  0.99805136  0.33010461  0.48134606  1
  Sb  Sb21  1  0.99805136  0.01865394  0.33010461  1
  Sb  Sb22  1  0.38178556  0.05348408  0.84676000  1
  Sb  Sb23  1  0.60775626  0.75000000  0.75000000  1
  Sb  Sb24  1  0.00194864  0.83010461  0.98134606  1
  Sb  Sb25  1  0.61821444  0.94651592  0.15324000  1
  Sb  Sb26  1  0.00194864  0.66989539  0.51865394  1
  Sb  Sb27  1  0.38178556  0.65324000  0.05348408  1
