# generated using pymatgen
data_UCl5
_symmetry_space_group_name_H-M   'P 1'
_cell_length_a   8.43125260
_cell_length_b   8.88728846
_cell_length_c   11.21773244
_cell_angle_alpha   90.00000000
_cell_angle_beta   90.00000000
_cell_angle_gamma   91.03135780
_symmetry_Int_Tables_number   1
_chemical_formula_structural   UCl5
_chemical_formula_sum   'U4 Cl20'
_cell_volume   840.41944197
_cell_formula_units_Z   4
loop_
 _symmetry_equiv_pos_site_id
 _symmetry_equiv_pos_as_xyz
  1  'x, y, z'
loop_
 _atom_site_type_symbol
 _atom_site_label
 _atom_site_symmetry_multiplicity
 _atom_site_fract_x
 _atom_site_fract_y
 _atom_site_fract_z
 _atom_site_occupancy
  U  U0  1  0.44906825  0.66143047  0.36553594  1
  U  U1  1  0.05093175  0.83856953  0.86553594  1
  U  U2  1  0.55093175  0.33856953  0.63446406  1
  U  U3  1  0.94906825  0.16143047  0.13446406  1
  Cl  Cl4  1  0.03830391  0.86933708  0.10731227  1
  Cl  Cl5  1  0.36511981  0.92660134  0.37276602  1
  Cl  Cl6  1  0.04600467  0.85374654  0.64458480  1
  Cl  Cl7  1  0.53830391  0.36933708  0.39268773  1
  Cl  Cl8  1  0.33054130  0.92699341  0.87258432  1
  Cl  Cl9  1  0.26656027  0.26096435  0.62849955  1
  Cl  Cl10  1  0.16945870  0.57300659  0.37258432  1
  Cl  Cl11  1  0.73343973  0.73903565  0.37150045  1
  Cl  Cl12  1  0.86511981  0.42660134  0.12723398  1
  Cl  Cl13  1  0.95399533  0.14625346  0.35541520  1
  Cl  Cl14  1  0.96169609  0.13066292  0.89268773  1
  Cl  Cl15  1  0.63488019  0.07339866  0.62723398  1
  Cl  Cl16  1  0.45399533  0.64625346  0.14458480  1
  Cl  Cl17  1  0.76656027  0.76096435  0.87150045  1
  Cl  Cl18  1  0.13488019  0.57339866  0.87276602  1
  Cl  Cl19  1  0.23343973  0.23903565  0.12849955  1
  Cl  Cl20  1  0.46169609  0.63066292  0.60731227  1
  Cl  Cl21  1  0.66945870  0.07300659  0.12741568  1
  Cl  Cl22  1  0.83054130  0.42699341  0.62741568  1
  Cl  Cl23  1  0.54600467  0.35374654  0.85541520  1
