# generated using pymatgen
data_Rb2CoCl4
_symmetry_space_group_name_H-M   'P 1'
_cell_length_a   7.38708521
_cell_length_b   9.38057021
_cell_length_c   12.93292515
_cell_angle_alpha   90.00000000
_cell_angle_beta   90.00000000
_cell_angle_gamma   90.00000000
_symmetry_Int_Tables_number   1
_chemical_formula_structural   Rb2CoCl4
_chemical_formula_sum   'Rb8 Co4 Cl16'
_cell_volume   896.18797245
_cell_formula_units_Z   4
loop_
 _symmetry_equiv_pos_site_id
 _symmetry_equiv_pos_as_xyz
  1  'x, y, z'
loop_
 _atom_site_type_symbol
 _atom_site_label
 _atom_site_symmetry_multiplicity
 _atom_site_fract_x
 _atom_site_fract_y
 _atom_site_fract_z
 _atom_site_occupancy
  Rb  Rb0  1  0.25054869  0.48893754  0.17839370  1
  Rb  Rb1  1  0.25158669  0.63036755  0.59093608  1
  Rb  Rb2  1  0.75158669  0.86963245  0.09093608  1
  Rb  Rb3  1  0.75158669  0.36963245  0.40906392  1
  Rb  Rb4  1  0.25158669  0.13036755  0.90906392  1
  Rb  Rb5  1  0.75054869  0.01106246  0.67839370  1
  Rb  Rb6  1  0.25054869  0.98893754  0.32160630  1
  Rb  Rb7  1  0.75054869  0.51106246  0.82160630  1
  Co  Co8  1  0.25097904  0.72345595  0.92168237  1
  Co  Co9  1  0.75097904  0.27654405  0.07831763  1
  Co  Co10  1  0.25097904  0.22345595  0.57831763  1
  Co  Co11  1  0.75097904  0.77654405  0.42168237  1
  Cl  Cl12  1  0.75529647  0.17744020  0.91842373  1
  Cl  Cl13  1  0.50099837  0.18733909  0.15438646  1
  Cl  Cl14  1  0.75529647  0.67744020  0.58157627  1
  Cl  Cl15  1  0.50099837  0.68733909  0.34561354  1
  Cl  Cl16  1  0.00099837  0.31266091  0.65438646  1
  Cl  Cl17  1  0.00099837  0.81266091  0.84561354  1
  Cl  Cl18  1  0.75639078  0.51602979  0.08069687  1
  Cl  Cl19  1  0.25639078  0.98397021  0.58069687  1
  Cl  Cl20  1  0.25639078  0.48397021  0.91930313  1
  Cl  Cl21  1  0.49319997  0.80709998  0.83524740  1
  Cl  Cl22  1  0.99319997  0.19290002  0.16475260  1
  Cl  Cl23  1  0.75639078  0.01602979  0.41930313  1
  Cl  Cl24  1  0.25529647  0.82255980  0.08157627  1
  Cl  Cl25  1  0.99319997  0.69290002  0.33524740  1
  Cl  Cl26  1  0.49319997  0.30709998  0.66475260  1
  Cl  Cl27  1  0.25529647  0.32255980  0.41842373  1
