# generated using pymatgen
data_TiHg6As4Cl7
_symmetry_space_group_name_H-M   'P 1'
_cell_length_a   12.53767102
_cell_length_b   12.53767102
_cell_length_c   12.53767102
_cell_angle_alpha   90.00000000
_cell_angle_beta   90.00000000
_cell_angle_gamma   90.00000000
_symmetry_Int_Tables_number   1
_chemical_formula_structural   TiHg6As4Cl7
_chemical_formula_sum   'Ti4 Hg24 As16 Cl28'
_cell_volume   1970.83656055
_cell_formula_units_Z   4
loop_
 _symmetry_equiv_pos_site_id
 _symmetry_equiv_pos_as_xyz
  1  'x, y, z'
loop_
 _atom_site_type_symbol
 _atom_site_label
 _atom_site_symmetry_multiplicity
 _atom_site_fract_x
 _atom_site_fract_y
 _atom_site_fract_z
 _atom_site_occupancy
  Ti  Ti0  1  0.50000000  0.50000000  0.50000000  1
  Ti  Ti1  1  0.50000000  0.00000000  0.00000000  1
  Ti  Ti2  1  0.00000000  0.50000000  0.00000000  1
  Ti  Ti3  1  0.00000000  0.00000000  0.50000000  1
  Hg  Hg4  1  0.18824161  0.30437616  0.45330982  1
  Hg  Hg5  1  0.19562384  0.54669018  0.68824161  1
  Hg  Hg6  1  0.04669018  0.68824161  0.30437616  1
  Hg  Hg7  1  0.45330982  0.31175839  0.80437616  1
  Hg  Hg8  1  0.68824161  0.30437616  0.04669018  1
  Hg  Hg9  1  0.31175839  0.80437616  0.45330982  1
  Hg  Hg10  1  0.30437616  0.04669018  0.68824161  1
  Hg  Hg11  1  0.95330982  0.18824161  0.19562384  1
  Hg  Hg12  1  0.81175839  0.80437616  0.04669018  1
  Hg  Hg13  1  0.68824161  0.19562384  0.54669018  1
  Hg  Hg14  1  0.81175839  0.69562384  0.54669018  1
  Hg  Hg15  1  0.18824161  0.19562384  0.95330982  1
  Hg  Hg16  1  0.30437616  0.45330982  0.18824161  1
  Hg  Hg17  1  0.69562384  0.95330982  0.31175839  1
  Hg  Hg18  1  0.45330982  0.18824161  0.30437616  1
  Hg  Hg19  1  0.31175839  0.69562384  0.95330982  1
  Hg  Hg20  1  0.69562384  0.54669018  0.81175839  1
  Hg  Hg21  1  0.54669018  0.81175839  0.69562384  1
  Hg  Hg22  1  0.80437616  0.45330982  0.31175839  1
  Hg  Hg23  1  0.04669018  0.81175839  0.80437616  1
  Hg  Hg24  1  0.19562384  0.95330982  0.18824161  1
  Hg  Hg25  1  0.80437616  0.04669018  0.81175839  1
  Hg  Hg26  1  0.54669018  0.68824161  0.19562384  1
  Hg  Hg27  1  0.95330982  0.31175839  0.69562384  1
  As  As28  1  0.26616483  0.26616483  0.26616483  1
  As  As29  1  0.34970704  0.65029296  0.15029296  1
  As  As30  1  0.73383517  0.73383517  0.73383517  1
  As  As31  1  0.65029296  0.15029296  0.34970704  1
  As  As32  1  0.15029296  0.34970704  0.65029296  1
  As  As33  1  0.76616483  0.23383517  0.73383517  1
  As  As34  1  0.73383517  0.76616483  0.23383517  1
  As  As35  1  0.84970704  0.65029296  0.34970704  1
  As  As36  1  0.84970704  0.84970704  0.84970704  1
  As  As37  1  0.26616483  0.23383517  0.76616483  1
  As  As38  1  0.65029296  0.34970704  0.84970704  1
  As  As39  1  0.76616483  0.26616483  0.23383517  1
  As  As40  1  0.23383517  0.76616483  0.26616483  1
  As  As41  1  0.23383517  0.73383517  0.76616483  1
  As  As42  1  0.34970704  0.84970704  0.65029296  1
  As  As43  1  0.15029296  0.15029296  0.15029296  1
  Cl  Cl44  1  0.31841768  0.53678005  0.45565012  1
  Cl  Cl45  1  0.45565012  0.31841768  0.53678005  1
  Cl  Cl46  1  0.50000000  0.00000000  0.50000000  1
  Cl  Cl47  1  0.81841768  0.96321995  0.54434988  1
  Cl  Cl48  1  0.81841768  0.53678005  0.04434988  1
  Cl  Cl49  1  0.96321995  0.95565012  0.31841768  1
  Cl  Cl50  1  0.00000000  0.00000000  0.00000000  1
  Cl  Cl51  1  0.18158232  0.46321995  0.95565012  1
  Cl  Cl52  1  0.45565012  0.18158232  0.03678005  1
  Cl  Cl53  1  0.00000000  0.50000000  0.50000000  1
  Cl  Cl54  1  0.54434988  0.68158232  0.46321995  1
  Cl  Cl55  1  0.04434988  0.81841768  0.53678005  1
  Cl  Cl56  1  0.46321995  0.54434988  0.68158232  1
  Cl  Cl57  1  0.53678005  0.45565012  0.31841768  1
  Cl  Cl58  1  0.54434988  0.81841768  0.96321995  1
  Cl  Cl59  1  0.46321995  0.95565012  0.18158232  1
  Cl  Cl60  1  0.95565012  0.18158232  0.46321995  1
  Cl  Cl61  1  0.31841768  0.96321995  0.95565012  1
  Cl  Cl62  1  0.53678005  0.04434988  0.81841768  1
  Cl  Cl63  1  0.03678005  0.45565012  0.18158232  1
  Cl  Cl64  1  0.04434988  0.68158232  0.03678005  1
  Cl  Cl65  1  0.50000000  0.50000000  0.00000000  1
  Cl  Cl66  1  0.03678005  0.04434988  0.68158232  1
  Cl  Cl67  1  0.18158232  0.03678005  0.45565012  1
  Cl  Cl68  1  0.68158232  0.46321995  0.54434988  1
  Cl  Cl69  1  0.68158232  0.03678005  0.04434988  1
  Cl  Cl70  1  0.96321995  0.54434988  0.81841768  1
  Cl  Cl71  1  0.95565012  0.31841768  0.96321995  1
