# generated using pymatgen
data_Ca3(AlN2)2
_symmetry_space_group_name_H-M   'P 1'
_cell_length_a   5.83042272
_cell_length_b   9.58721246
_cell_length_c   9.60088463
_cell_angle_alpha   111.57982995
_cell_angle_beta   90.00000000
_cell_angle_gamma   90.00000000
_symmetry_Int_Tables_number   1
_chemical_formula_structural   Ca3(AlN2)2
_chemical_formula_sum   'Ca12 Al8 N16'
_cell_volume   499.04844414
_cell_formula_units_Z   4
loop_
 _symmetry_equiv_pos_site_id
 _symmetry_equiv_pos_as_xyz
  1  'x, y, z'
loop_
 _atom_site_type_symbol
 _atom_site_label
 _atom_site_symmetry_multiplicity
 _atom_site_fract_x
 _atom_site_fract_y
 _atom_site_fract_z
 _atom_site_occupancy
  Ca  Ca0  1  0.34794698  0.32870771  0.46444573  1
  Ca  Ca1  1  0.59379414  0.31488310  0.94913985  1
  Ca  Ca2  1  0.84794698  0.17129229  0.53555427  1
  Ca  Ca3  1  0.40620586  0.68511690  0.05086015  1
  Ca  Ca4  1  0.65205302  0.67129229  0.53555427  1
  Ca  Ca5  1  0.09379414  0.18511690  0.05086015  1
  Ca  Ca6  1  0.37969276  0.90009786  0.81782202  1
  Ca  Ca7  1  0.87969276  0.59990214  0.18217798  1
  Ca  Ca8  1  0.90620586  0.81488310  0.94913985  1
  Ca  Ca9  1  0.62030724  0.09990214  0.18217798  1
  Ca  Ca10  1  0.12030724  0.40009786  0.81782202  1
  Ca  Ca11  1  0.15205302  0.82870771  0.46444573  1
  Al  Al12  1  0.85771532  0.98840796  0.74178202  1
  Al  Al13  1  0.88925289  0.39151381  0.38065669  1
  Al  Al14  1  0.14228468  0.01159204  0.25821798  1
  Al  Al15  1  0.38925289  0.10848619  0.61934331  1
  Al  Al16  1  0.35771532  0.51159204  0.25821798  1
  Al  Al17  1  0.11074711  0.60848619  0.61934331  1
  Al  Al18  1  0.64228468  0.48840796  0.74178202  1
  Al  Al19  1  0.61074711  0.89151381  0.38065669  1
  N  N20  1  0.26150697  0.93711704  0.06125587  1
  N  N21  1  0.10267134  0.55158562  0.39873300  1
  N  N22  1  0.51083669  0.29786745  0.69954141  1
  N  N23  1  0.60267134  0.94841438  0.60126700  1
  N  N24  1  0.39732866  0.05158562  0.39873300  1
  N  N25  1  0.48916331  0.70213255  0.30045859  1
  N  N26  1  0.09884262  0.10592254  0.70430810  1
  N  N27  1  0.73849303  0.06288296  0.93874413  1
  N  N28  1  0.98916331  0.79786745  0.69954141  1
  N  N29  1  0.76150697  0.56288296  0.93874413  1
  N  N30  1  0.23849303  0.43711704  0.06125587  1
  N  N31  1  0.89732866  0.44841438  0.60126700  1
  N  N32  1  0.90115738  0.89407746  0.29569190  1
  N  N33  1  0.59884262  0.39407746  0.29569190  1
  N  N34  1  0.40115738  0.60592254  0.70430810  1
  N  N35  1  0.01083669  0.20213255  0.30045859  1
