# generated using pymatgen
data_Cd3As2
_symmetry_space_group_name_H-M   'P 1'
_cell_length_a   12.90774173
_cell_length_b   12.90774173
_cell_length_c   15.87732705
_cell_angle_alpha   113.98412194
_cell_angle_beta   113.98412194
_cell_angle_gamma   90.00000000
_symmetry_Int_Tables_number   1
_chemical_formula_structural   Cd3As2
_chemical_formula_sum   'Cd48 As32'
_cell_volume   2164.54671998
_cell_formula_units_Z   16
loop_
 _symmetry_equiv_pos_site_id
 _symmetry_equiv_pos_as_xyz
  1  'x, y, z'
loop_
 _atom_site_type_symbol
 _atom_site_label
 _atom_site_symmetry_multiplicity
 _atom_site_fract_x
 _atom_site_fract_y
 _atom_site_fract_z
 _atom_site_occupancy
  Cd  Cd0  1  0.31679898  0.58712677  0.39502050  1
  Cd  Cd1  1  0.57822151  0.08712677  0.39502050  1
  Cd  Cd2  1  0.08712677  0.81679898  0.89502050  1
  Cd  Cd3  1  0.30789373  0.31679898  0.89502050  1
  Cd  Cd4  1  0.68320102  0.41287323  0.60497950  1
  Cd  Cd5  1  0.42177849  0.91287323  0.60497950  1
  Cd  Cd6  1  0.91287323  0.18320102  0.10497950  1
  Cd  Cd7  1  0.69210627  0.68320102  0.10497950  1
  Cd  Cd8  1  0.81679898  0.80789373  0.39502050  1
  Cd  Cd9  1  0.07822151  0.30789373  0.39502050  1
  Cd  Cd10  1  0.58712677  0.07822151  0.89502050  1
  Cd  Cd11  1  0.80789373  0.57822151  0.89502050  1
  Cd  Cd12  1  0.18320102  0.19210627  0.60497950  1
  Cd  Cd13  1  0.92177849  0.69210627  0.60497950  1
  Cd  Cd14  1  0.41287323  0.92177849  0.10497950  1
  Cd  Cd15  1  0.19210627  0.42177849  0.10497950  1
  Cd  Cd16  1  0.56980887  0.53911857  0.35488365  1
  Cd  Cd17  1  0.28507478  0.03911857  0.35488365  1
  Cd  Cd18  1  0.03911857  0.06980887  0.85488365  1
  Cd  Cd19  1  0.31576508  0.56980887  0.85488365  1
  Cd  Cd20  1  0.43019113  0.46088143  0.64511635  1
  Cd  Cd21  1  0.71492522  0.96088143  0.64511635  1
  Cd  Cd22  1  0.96088143  0.93019113  0.14511635  1
  Cd  Cd23  1  0.68423492  0.43019113  0.14511635  1
  Cd  Cd24  1  0.06980887  0.81576508  0.35488365  1
  Cd  Cd25  1  0.78507478  0.31576508  0.35488365  1
  Cd  Cd26  1  0.53911857  0.78507478  0.85488365  1
  Cd  Cd27  1  0.81576508  0.28507478  0.85488365  1
  Cd  Cd28  1  0.93019113  0.18423492  0.64511635  1
  Cd  Cd29  1  0.21492522  0.68423492  0.64511635  1
  Cd  Cd30  1  0.46088143  0.21492522  0.14511635  1
  Cd  Cd31  1  0.18423492  0.71492522  0.14511635  1
  Cd  Cd32  1  0.04315678  0.55623934  0.37497533  1
  Cd  Cd33  1  0.83181855  0.05623934  0.37497533  1
  Cd  Cd34  1  0.05623934  0.54315678  0.87497533  1
  Cd  Cd35  1  0.31873599  0.04315678  0.87497533  1
  Cd  Cd36  1  0.95684322  0.44376066  0.62502467  1
  Cd  Cd37  1  0.16818145  0.94376066  0.62502467  1
  Cd  Cd38  1  0.94376066  0.45684322  0.12502467  1
  Cd  Cd39  1  0.68126401  0.95684322  0.12502467  1
  Cd  Cd40  1  0.54315678  0.81873599  0.37497533  1
  Cd  Cd41  1  0.33181855  0.31873599  0.37497533  1
  Cd  Cd42  1  0.55623934  0.33181855  0.87497533  1
  Cd  Cd43  1  0.81873599  0.83181855  0.87497533  1
  Cd  Cd44  1  0.45684322  0.18126401  0.62502467  1
  Cd  Cd45  1  0.66818145  0.68126401  0.62502467  1
  Cd  Cd46  1  0.44376066  0.66818145  0.12502467  1
  Cd  Cd47  1  0.18126401  0.16818145  0.12502467  1
  As  As48  1  0.13456852  0.62252511  0.25375416  1
  As  As49  1  0.61918565  0.12252511  0.25375416  1
  As  As50  1  0.12252511  0.63456852  0.75375416  1
  As  As51  1  0.13122906  0.13456852  0.75375416  1
  As  As52  1  0.86543148  0.37747489  0.74624584  1
  As  As53  1  0.38081435  0.87747489  0.74624584  1
  As  As54  1  0.87747489  0.36543148  0.24624584  1
  As  As55  1  0.86877094  0.86543148  0.24624584  1
  As  As56  1  0.63456852  0.63122906  0.25375416  1
  As  As57  1  0.11918565  0.13122906  0.25375416  1
  As  As58  1  0.62252511  0.11918565  0.75375416  1
  As  As59  1  0.63122906  0.61918565  0.75375416  1
  As  As60  1  0.36543148  0.36877094  0.74624584  1
  As  As61  1  0.88081435  0.86877094  0.74624584  1
  As  As62  1  0.37747489  0.88081435  0.24624584  1
  As  As63  1  0.36877094  0.38081435  0.24624584  1
  As  As64  1  0.25049253  0.50049253  0.50098506  1
  As  As65  1  0.75049253  0.00049253  0.50098506  1
  As  As66  1  0.00049253  0.75049253  0.00098506  1
  As  As67  1  0.50049253  0.25049253  0.00098506  1
  As  As68  1  0.74950747  0.49950747  0.49901494  1
  As  As69  1  0.24950747  0.99950747  0.49901494  1
  As  As70  1  0.99950747  0.24950747  0.99901494  1
  As  As71  1  0.49950747  0.74950747  0.99901494  1
  As  As72  1  0.51079155  0.75000000  0.50000000  1
  As  As73  1  0.48920845  0.25000000  0.50000000  1
  As  As74  1  0.25000000  0.01079155  -0.00000000  1
  As  As75  1  0.25000000  0.51079155  -0.00000000  1
  As  As76  1  0.75000000  0.98920845  -0.00000000  1
  As  As77  1  0.75000000  0.48920845  -0.00000000  1
  As  As78  1  0.01079155  0.75000000  0.50000000  1
  As  As79  1  0.98920845  0.25000000  0.50000000  1
