# generated using pymatgen
data_YMg4Cu
_symmetry_space_group_name_H-M   'P 1'
_cell_length_a   4.04653432
_cell_length_b   11.96854210
_cell_length_c   11.96854209
_cell_angle_alpha   112.81755063
_cell_angle_beta   90.00000000
_cell_angle_gamma   90.00000000
_symmetry_Int_Tables_number   1
_chemical_formula_structural   YMg4Cu
_chemical_formula_sum   'Y4 Mg16 Cu4'
_cell_volume   534.28901111
_cell_formula_units_Z   4
loop_
 _symmetry_equiv_pos_site_id
 _symmetry_equiv_pos_as_xyz
  1  'x, y, z'
loop_
 _atom_site_type_symbol
 _atom_site_label
 _atom_site_symmetry_multiplicity
 _atom_site_fract_x
 _atom_site_fract_y
 _atom_site_fract_z
 _atom_site_occupancy
  Y  Y0  1  0.00000000  0.30136383  0.30136383  1
  Y  Y1  1  0.00000000  0.69863617  0.69863617  1
  Y  Y2  1  0.00000000  0.36735115  0.63264885  1
  Y  Y3  1  0.00000000  0.63264885  0.36735115  1
  Mg  Mg4  1  0.00000000  0.16470081  0.83529919  1
  Mg  Mg5  1  0.00000000  0.58680053  0.92304501  1
  Mg  Mg6  1  0.50000000  0.78923918  0.94984308  1
  Mg  Mg7  1  0.50000000  0.62485846  0.13513689  1
  Mg  Mg8  1  0.50000000  0.94984308  0.78923918  1
  Mg  Mg9  1  0.00000000  0.41319947  0.07695499  1
  Mg  Mg10  1  0.50000000  0.05015692  0.21076082  1
  Mg  Mg11  1  0.00000000  0.83529919  0.16470081  1
  Mg  Mg12  1  0.50000000  0.37514154  0.86486311  1
  Mg  Mg13  1  0.50000000  0.86486311  0.37514154  1
  Mg  Mg14  1  0.00000000  0.92304501  0.58680053  1
  Mg  Mg15  1  0.50000000  0.13513689  0.62485846  1
  Mg  Mg16  1  0.50000000  0.21076082  0.05015692  1
  Mg  Mg17  1  0.00000000  0.07695499  0.41319947  1
  Mg  Mg18  1  0.00000000  0.00000000  0.00000000  1
  Mg  Mg19  1  0.50000000  0.50000000  0.50000000  1
  Cu  Cu20  1  0.50000000  0.23524286  0.44606734  1
  Cu  Cu21  1  0.50000000  0.44606734  0.23524286  1
  Cu  Cu22  1  0.50000000  0.55393266  0.76475714  1
  Cu  Cu23  1  0.50000000  0.76475714  0.55393266  1
