# generated using pymatgen
data_Li2Ni(SO4)2
_symmetry_space_group_name_H-M   'P 1'
_cell_length_a   9.13962241
_cell_length_b   9.25861506
_cell_length_c   13.74112219
_cell_angle_alpha   90.00000000
_cell_angle_beta   90.00000000
_cell_angle_gamma   90.00000000
_symmetry_Int_Tables_number   1
_chemical_formula_structural   Li2Ni(SO4)2
_chemical_formula_sum   'Li16 Ni8 S16 O64'
_cell_volume   1162.77713575
_cell_formula_units_Z   8
loop_
 _symmetry_equiv_pos_site_id
 _symmetry_equiv_pos_as_xyz
  1  'x, y, z'
loop_
 _atom_site_type_symbol
 _atom_site_label
 _atom_site_symmetry_multiplicity
 _atom_site_fract_x
 _atom_site_fract_y
 _atom_site_fract_z
 _atom_site_occupancy
  Li  Li0  1  0.72025787  0.46649487  0.37333534  1
  Li  Li1  1  0.54443116  0.22566518  0.87220740  1
  Li  Li2  1  0.45556884  0.27433482  0.37220740  1
  Li  Li3  1  0.22025787  0.53350513  0.12666466  1
  Li  Li4  1  0.54443116  0.72566518  0.62779260  1
  Li  Li5  1  0.27974213  0.53350513  0.62666466  1
  Li  Li6  1  0.45556884  0.77433482  0.12779260  1
  Li  Li7  1  0.95556884  0.72566518  0.12779260  1
  Li  Li8  1  0.77974213  0.96649487  0.62666466  1
  Li  Li9  1  0.27974213  0.03350513  0.87333534  1
  Li  Li10  1  0.77974213  0.46649487  0.87333534  1
  Li  Li11  1  0.04443116  0.77433482  0.62779260  1
  Li  Li12  1  0.04443116  0.27433482  0.87220740  1
  Li  Li13  1  0.95556884  0.22566518  0.37220740  1
  Li  Li14  1  0.72025787  0.96649487  0.12666466  1
  Li  Li15  1  0.22025787  0.03350513  0.37333534  1
  Ni  Ni16  1  0.89663609  0.36191111  0.62204434  1
  Ni  Ni17  1  0.60336391  0.86191111  0.37795566  1
  Ni  Ni18  1  0.39663609  0.63808889  0.87795566  1
  Ni  Ni19  1  0.39663609  0.13808889  0.62204434  1
  Ni  Ni20  1  0.10336391  0.63808889  0.37795566  1
  Ni  Ni21  1  0.60336391  0.36191111  0.12204434  1
  Ni  Ni22  1  0.10336391  0.13808889  0.12204434  1
  Ni  Ni23  1  0.89663609  0.86191111  0.87795566  1
  S  S24  1  0.43066104  0.07493302  0.22692873  1
  S  S25  1  0.81294037  0.16071915  0.99132377  1
  S  S26  1  0.31294037  0.83928085  0.50867623  1
  S  S27  1  0.43066104  0.57493302  0.27307127  1
  S  S28  1  0.93066104  0.92506698  0.27307127  1
  S  S29  1  0.31294037  0.33928085  0.99132377  1
  S  S30  1  0.18705963  0.83928085  0.00867623  1
  S  S31  1  0.68705963  0.16071915  0.49132377  1
  S  S32  1  0.56933896  0.92506698  0.77307127  1
  S  S33  1  0.18705963  0.33928085  0.49132377  1
  S  S34  1  0.06933896  0.07493302  0.72692873  1
  S  S35  1  0.06933896  0.57493302  0.77307127  1
  S  S36  1  0.93066104  0.42506698  0.22692873  1
  S  S37  1  0.56933896  0.42506698  0.72692873  1
  S  S38  1  0.81294037  0.66071915  0.50867623  1
  S  S39  1  0.68705963  0.66071915  0.00867623  1
  O  O40  1  0.00209748  0.48195046  0.84786762  1
  O  O41  1  0.99790252  0.51804954  0.15213238  1
  O  O42  1  0.26722268  0.07408298  0.22213165  1
  O  O43  1  0.01143066  0.22533594  0.72173433  1
  O  O44  1  0.26722268  0.57408298  0.27786835  1
  O  O45  1  0.98856934  0.27466406  0.22173433  1
  O  O46  1  0.51143066  0.77466406  0.77826567  1
  O  O47  1  0.27168868  0.81056026  0.91787159  1
  O  O48  1  0.76722268  0.42591702  0.22213165  1
  O  O49  1  0.29910514  0.99826472  0.52277708  1
  O  O50  1  0.75784189  0.74263077  0.59374979  1
  O  O51  1  0.23277732  0.07408298  0.72213165  1
  O  O52  1  0.20089486  0.99826472  0.02277708  1
  O  O53  1  0.77168868  0.18943974  0.58212841  1
  O  O54  1  0.96897710  0.20424295  0.00551451  1
  O  O55  1  0.23277732  0.57408298  0.77786835  1
  O  O56  1  0.99790252  0.01804954  0.34786762  1
  O  O57  1  0.03102290  0.79575705  0.99448549  1
  O  O58  1  0.50209748  0.51804954  0.65213238  1
  O  O59  1  0.49790252  0.98195046  0.15213238  1
  O  O60  1  0.20089486  0.49826472  0.47722292  1
  O  O61  1  0.49790252  0.48195046  0.34786762  1
  O  O62  1  0.01143066  0.72533594  0.77826567  1
  O  O63  1  0.46332401  0.52333572  0.17108950  1
  O  O64  1  0.73277732  0.42591702  0.72213165  1
  O  O65  1  0.53102290  0.70424295  0.99448549  1
  O  O66  1  0.53667599  0.97666428  0.67108950  1
  O  O67  1  0.70089486  0.00173528  0.47722292  1
  O  O68  1  0.96897710  0.70424295  0.49448549  1
  O  O69  1  0.75784189  0.24263077  0.90625021  1
  O  O70  1  0.77168868  0.68943974  0.91787159  1
  O  O71  1  0.00209748  0.98195046  0.65213238  1
  O  O72  1  0.48856934  0.72533594  0.27826567  1
  O  O73  1  0.46332401  0.02333572  0.32891050  1
  O  O74  1  0.46897710  0.29575705  0.00551451  1
  O  O75  1  0.74215811  0.24263077  0.40625021  1
  O  O76  1  0.51143066  0.27466406  0.72173433  1
  O  O77  1  0.27168868  0.31056026  0.58212841  1
  O  O78  1  0.24215811  0.25736923  0.40625021  1
  O  O79  1  0.79910514  0.00173528  0.97722292  1
  O  O80  1  0.53102290  0.20424295  0.50551451  1
  O  O81  1  0.22831132  0.31056026  0.08212841  1
  O  O82  1  0.72831132  0.18943974  0.08212841  1
  O  O83  1  0.03667599  0.52333572  0.67108950  1
  O  O84  1  0.76722268  0.92591702  0.27786835  1
  O  O85  1  0.46897710  0.79575705  0.49448549  1
  O  O86  1  0.25784189  0.75736923  0.59374979  1
  O  O87  1  0.03102290  0.29575705  0.50551451  1
  O  O88  1  0.48856934  0.22533594  0.22173433  1
  O  O89  1  0.24215811  0.75736923  0.09374979  1
  O  O90  1  0.96332401  0.97666428  0.17108950  1
  O  O91  1  0.50209748  0.01804954  0.84786762  1
  O  O92  1  0.29910514  0.49826472  0.97722292  1
  O  O93  1  0.74215811  0.74263077  0.09374979  1
  O  O94  1  0.96332401  0.47666428  0.32891050  1
  O  O95  1  0.22831132  0.81056026  0.41787159  1
  O  O96  1  0.79910514  0.50173528  0.52277708  1
  O  O97  1  0.70089486  0.50173528  0.02277708  1
  O  O98  1  0.03667599  0.02333572  0.82891050  1
  O  O99  1  0.53667599  0.47666428  0.82891050  1
  O  O100  1  0.72831132  0.68943974  0.41787159  1
  O  O101  1  0.73277732  0.92591702  0.77786835  1
  O  O102  1  0.25784189  0.25736923  0.90625021  1
  O  O103  1  0.98856934  0.77466406  0.27826567  1
