# generated using pymatgen
data_KPSe3
_symmetry_space_group_name_H-M   'P 1'
_cell_length_a   7.44771831
_cell_length_b   7.44771793
_cell_length_c   19.28676894
_cell_angle_alpha   90.00000000
_cell_angle_beta   90.00000000
_cell_angle_gamma   120.00000165
_symmetry_Int_Tables_number   1
_chemical_formula_structural   KPSe3
_chemical_formula_sum   'K6 P6 Se18'
_cell_volume   926.48110028
_cell_formula_units_Z   6
loop_
 _symmetry_equiv_pos_site_id
 _symmetry_equiv_pos_as_xyz
  1  'x, y, z'
loop_
 _atom_site_type_symbol
 _atom_site_label
 _atom_site_symmetry_multiplicity
 _atom_site_fract_x
 _atom_site_fract_y
 _atom_site_fract_z
 _atom_site_occupancy
  K  K0  1  0.28545981  0.73392672  0.41257658  1
  K  K1  1  0.73392672  0.28545981  0.58742342  1
  K  K2  1  0.71454019  0.44846691  0.92075742  1
  K  K3  1  0.44846691  0.71454019  0.07924258  1
  K  K4  1  0.26607328  0.55153309  0.74590958  1
  K  K5  1  0.55153309  0.26607328  0.25409042  1
  P  P6  1  0.93762995  0.07087366  0.38728963  1
  P  P7  1  0.07087366  0.93762995  0.61271037  1
  P  P8  1  0.86675629  0.92912634  0.27937637  1
  P  P9  1  0.92912634  0.86675629  0.72062363  1
  P  P10  1  0.13324371  0.06237005  0.05395663  1
  P  P11  1  0.06237005  0.13324371  0.94604337  1
  Se  Se12  1  1.00083200  0.72990275  0.05899421  1
  Se  Se13  1  0.92448200  0.17725153  0.11059573  1
  Se  Se14  1  0.82274847  0.74723047  0.44392973  1
  Se  Se15  1  0.25276953  0.07551800  0.77726273  1
  Se  Se16  1  -0.00083200  0.72907075  0.27433979  1
  Se  Se17  1  0.54304998  0.79752325  0.25310091  1
  Se  Se18  1  0.17725153  0.92448200  0.88940427  1
  Se  Se19  1  0.27092925  0.27009725  0.60767279  1
  Se  Se20  1  0.74723047  0.82274847  0.55607027  1
  Se  Se21  1  0.27009725  0.27092925  0.39232721  1
  Se  Se22  1  0.45695002  0.25447327  0.08023209  1
  Se  Se23  1  0.25447327  0.45695002  0.91976791  1
  Se  Se24  1  0.20247675  0.74552673  0.58643491  1
  Se  Se25  1  0.79752325  0.54304998  0.74689909  1
  Se  Se26  1  0.72990275  1.00083200  0.94100579  1
  Se  Se27  1  0.07551800  0.25276953  0.22273727  1
  Se  Se28  1  0.74552673  0.20247675  0.41356509  1
  Se  Se29  1  0.72907075  -0.00083200  0.72566021  1
