# generated using pymatgen
data_MoCl5
_symmetry_space_group_name_H-M   'P 1'
_cell_length_a   6.34028010
_cell_length_b   12.85953086
_cell_length_c   12.85953108
_cell_angle_alpha   90.09707343
_cell_angle_beta   94.07360095
_cell_angle_gamma   94.07359886
_symmetry_Int_Tables_number   1
_chemical_formula_structural   MoCl5
_chemical_formula_sum   'Mo6 Cl30'
_cell_volume   1043.16155627
_cell_formula_units_Z   6
loop_
 _symmetry_equiv_pos_site_id
 _symmetry_equiv_pos_as_xyz
  1  'x, y, z'
loop_
 _atom_site_type_symbol
 _atom_site_label
 _atom_site_symmetry_multiplicity
 _atom_site_fract_x
 _atom_site_fract_y
 _atom_site_fract_z
 _atom_site_occupancy
  Mo  Mo0  1  1.00000000  0.89275922  0.10724078  1
  Mo  Mo1  1  0.00000000  0.10724078  0.89275922  1
  Mo  Mo2  1  0.43369778  0.44044821  0.22643427  1
  Mo  Mo3  1  0.56630222  0.55955179  0.77356573  1
  Mo  Mo4  1  0.56630222  0.77356573  0.55955179  1
  Mo  Mo5  1  0.43369778  0.22643427  0.44044821  1
  Cl  Cl6  1  0.82388027  0.68255962  0.49306208  1
  Cl  Cl7  1  0.74942097  0.73707487  0.73707487  1
  Cl  Cl8  1  0.68696253  0.02100527  0.83197594  1
  Cl  Cl9  1  0.61640208  0.40425141  0.40425141  1
  Cl  Cl10  1  0.37577425  0.40373766  0.78388768  1
  Cl  Cl11  1  0.25057903  0.26292513  0.26292513  1
  Cl  Cl12  1  0.30903335  0.65129535  0.83951327  1
  Cl  Cl13  1  0.12831223  0.92688125  0.92688125  1
  Cl  Cl14  1  0.69096665  0.16048673  0.34870465  1
  Cl  Cl15  1  0.37577425  0.78388768  0.40373766  1
  Cl  Cl16  1  0.86276326  0.26616009  0.88701991  1
  Cl  Cl17  1  0.31303747  0.16802406  0.97899473  1
  Cl  Cl18  1  0.24407708  0.44921473  0.07004949  1
  Cl  Cl19  1  0.31303747  0.97899473  0.16802406  1
  Cl  Cl20  1  0.62422575  0.21611232  0.59626234  1
  Cl  Cl21  1  0.62422575  0.59626234  0.21611232  1
  Cl  Cl22  1  0.24407708  0.07004949  0.44921473  1
  Cl  Cl23  1  0.68696253  0.83197594  0.02100527  1
  Cl  Cl24  1  0.69096665  0.34870465  0.16048673  1
  Cl  Cl25  1  0.13723674  0.73383991  0.11298009  1
  Cl  Cl26  1  0.17611973  0.31744038  0.50693792  1
  Cl  Cl27  1  0.30903335  0.83951327  0.65129535  1
  Cl  Cl28  1  0.75592292  0.55078527  0.92995051  1
  Cl  Cl29  1  0.86276326  0.88701991  0.26616009  1
  Cl  Cl30  1  0.75592292  0.92995051  0.55078527  1
  Cl  Cl31  1  0.38359792  0.59574859  0.59574859  1
  Cl  Cl32  1  0.82388027  0.49306208  0.68255962  1
  Cl  Cl33  1  0.13723674  0.11298009  0.73383991  1
  Cl  Cl34  1  0.87168777  0.07311875  0.07311875  1
  Cl  Cl35  1  0.17611973  0.50693792  0.31744038  1
