# generated using pymatgen
data_WSCl4
_symmetry_space_group_name_H-M   'P 1'
_cell_length_a   9.60594732
_cell_length_b   13.31586538
_cell_length_c   13.63797745
_cell_angle_alpha   90.00000000
_cell_angle_beta   90.00000000
_cell_angle_gamma   110.27172528
_symmetry_Int_Tables_number   1
_chemical_formula_structural   WSCl4
_chemical_formula_sum   'W8 S8 Cl32'
_cell_volume   1636.40273014
_cell_formula_units_Z   8
loop_
 _symmetry_equiv_pos_site_id
 _symmetry_equiv_pos_as_xyz
  1  'x, y, z'
loop_
 _atom_site_type_symbol
 _atom_site_label
 _atom_site_symmetry_multiplicity
 _atom_site_fract_x
 _atom_site_fract_y
 _atom_site_fract_z
 _atom_site_occupancy
  W  W0  1  0.70828056  0.33756609  0.08669936  1
  W  W1  1  0.79171944  0.16243391  0.58669936  1
  W  W2  1  0.62858014  0.58421096  0.63976272  1
  W  W3  1  0.37141986  0.41578904  0.36023728  1
  W  W4  1  0.29171944  0.66243391  0.91330064  1
  W  W5  1  0.12858014  0.08421096  0.86023728  1
  W  W6  1  0.20828056  0.83756609  0.41330064  1
  W  W7  1  0.87141986  0.91578904  0.13976272  1
  S  S8  1  0.73813583  0.23229135  0.46057004  1
  S  S9  1  0.76097698  0.77175643  0.21370676  1
  S  S10  1  0.76186417  0.26770865  0.96057004  1
  S  S11  1  0.23902302  0.22824357  0.78629324  1
  S  S12  1  0.26186417  0.76770865  0.53942996  1
  S  S13  1  0.73902302  0.72824357  0.71370676  1
  S  S14  1  0.26097698  0.27175643  0.28629324  1
  S  S15  1  0.23813583  0.73229135  0.03942996  1
  Cl  Cl16  1  0.51624720  0.64622526  0.95169206  1
  Cl  Cl17  1  0.18773079  0.48104331  0.94178524  1
  Cl  Cl18  1  0.18608272  0.45005424  0.44425803  1
  Cl  Cl19  1  0.48375280  0.35377474  0.04830794  1
  Cl  Cl20  1  0.68608272  0.95005424  0.05574197  1
  Cl  Cl21  1  0.59470109  0.14188852  0.69100188  1
  Cl  Cl22  1  0.68773079  0.98104331  0.55821476  1
  Cl  Cl23  1  0.56510143  0.64520670  0.49200579  1
  Cl  Cl24  1  0.31226921  0.01895669  0.44178524  1
  Cl  Cl25  1  0.57661408  0.19251307  0.18171830  1
  Cl  Cl26  1  0.86699636  0.04423295  0.25073829  1
  Cl  Cl27  1  0.92338592  0.30748693  0.68171830  1
  Cl  Cl28  1  0.09470109  0.64188852  0.80899812  1
  Cl  Cl29  1  0.61710032  0.45376768  0.31613846  1
  Cl  Cl30  1  0.07661408  0.69251307  0.31828170  1
  Cl  Cl31  1  0.81391728  0.54994576  0.55574197  1
  Cl  Cl32  1  0.13300364  0.95576705  0.74926171  1
  Cl  Cl33  1  0.63300364  0.45576705  0.75073829  1
  Cl  Cl34  1  0.11710032  0.95376768  0.18386154  1
  Cl  Cl35  1  0.01624720  0.14622526  0.54830794  1
  Cl  Cl36  1  0.31391728  0.04994576  0.94425803  1
  Cl  Cl37  1  0.06510143  0.14520670  0.00799421  1
  Cl  Cl38  1  0.40529891  0.85811148  0.30899812  1
  Cl  Cl39  1  0.43489857  0.35479330  0.50799421  1
  Cl  Cl40  1  0.98375280  0.85377474  0.45169206  1
  Cl  Cl41  1  0.36699636  0.54423295  0.24926171  1
  Cl  Cl42  1  0.88289968  0.04623232  0.81613846  1
  Cl  Cl43  1  0.38289968  0.54623232  0.68386154  1
  Cl  Cl44  1  0.42338592  0.80748693  0.81828170  1
  Cl  Cl45  1  0.81226921  0.51895669  0.05821476  1
  Cl  Cl46  1  0.93489857  0.85479330  0.99200579  1
  Cl  Cl47  1  0.90529891  0.35811148  0.19100188  1
