# generated using pymatgen
data_Pr5Ti4FeO17
_symmetry_space_group_name_H-M   'P 1'
_cell_length_a   5.54064381
_cell_length_b   7.78651594
_cell_length_c   32.15211938
_cell_angle_alpha   96.90479752
_cell_angle_beta   90.00000000
_cell_angle_gamma   90.00000000
_symmetry_Int_Tables_number   1
_chemical_formula_structural   Pr5Ti4FeO17
_chemical_formula_sum   'Pr20 Ti16 Fe4 O68'
_cell_volume   1377.05637439
_cell_formula_units_Z   4
loop_
 _symmetry_equiv_pos_site_id
 _symmetry_equiv_pos_as_xyz
  1  'x, y, z'
loop_
 _atom_site_type_symbol
 _atom_site_label
 _atom_site_symmetry_multiplicity
 _atom_site_fract_x
 _atom_site_fract_y
 _atom_site_fract_z
 _atom_site_occupancy
  Pr  Pr0  1  0.01858256  0.29141713  0.08016770  1
  Pr  Pr1  1  0.51858256  0.20858287  0.41983230  1
  Pr  Pr2  1  0.54541810  0.84587706  0.20040827  1
  Pr  Pr3  1  0.45458190  0.15412294  0.79959173  1
  Pr  Pr4  1  0.11333183  0.13578487  0.27927864  1
  Pr  Pr5  1  0.49894706  0.29665078  0.59550288  1
  Pr  Pr6  1  0.50779261  0.75270704  0.00729476  1
  Pr  Pr7  1  1.00105294  0.79665078  0.09550288  1
  Pr  Pr8  1  0.50105294  0.70334922  0.40449712  1
  Pr  Pr9  1  0.99220739  0.25270704  0.50729476  1
  Pr  Pr10  1  -0.00105294  0.20334922  0.90449712  1
  Pr  Pr11  1  0.00779261  0.74729296  0.49270524  1
  Pr  Pr12  1  0.48141744  0.79141713  0.58016770  1
  Pr  Pr13  1  0.49220739  0.24729296  0.99270524  1
  Pr  Pr14  1  0.04541810  0.65412294  0.29959173  1
  Pr  Pr15  1  0.88666817  0.86421513  0.72072136  1
  Pr  Pr16  1  0.95458190  0.34587706  0.70040827  1
  Pr  Pr17  1  0.61333183  0.36421513  0.22072136  1
  Pr  Pr18  1  0.38666817  0.63578487  0.77927864  1
  Pr  Pr19  1  0.98141744  0.70858287  0.91983230  1
  Ti  Ti20  1  0.51568916  0.04794711  0.09308677  1
  Ti  Ti21  1  0.48723864  0.45208877  0.90593481  1
  Ti  Ti22  1  0.98431084  0.54794711  0.59308677  1
  Ti  Ti23  1  0.05417036  0.58787543  0.17881349  1
  Ti  Ti24  1  0.04364102  0.10019530  0.17618022  1
  Ti  Ti25  1  0.94582964  0.41212457  0.82118651  1
  Ti  Ti26  1  0.45635898  0.60019530  0.67618022  1
  Ti  Ti27  1  0.01568916  0.45205289  0.40691323  1
  Ti  Ti28  1  0.01276136  0.95208877  0.40593481  1
  Ti  Ti29  1  0.55417036  0.91212457  0.32118651  1
  Ti  Ti30  1  0.98723864  0.04791123  0.59406519  1
  Ti  Ti31  1  0.48431084  0.95205289  0.90691323  1
  Ti  Ti32  1  0.51276136  0.54791123  0.09406519  1
  Ti  Ti33  1  0.44582964  0.08787543  0.67881349  1
  Ti  Ti34  1  0.95635898  0.89980470  0.82381978  1
  Ti  Ti35  1  0.54364102  0.39980470  0.32381978  1
  Fe  Fe36  1  0.50000000  0.00000000  0.50000000  1
  Fe  Fe37  1  0.00000000  0.00000000  0.00000000  1
  Fe  Fe38  1  0.00000000  0.50000000  0.00000000  1
  Fe  Fe39  1  0.50000000  0.50000000  0.50000000  1
  O  O40  1  0.31163829  0.12902050  0.21109000  1
  O  O41  1  0.08239365  0.74865530  0.99699104  1
  O  O42  1  0.65482574  0.13250325  0.72565626  1
  O  O43  1  0.39210534  0.33360670  0.67067319  1
  O  O44  1  0.67285670  0.58797640  0.72035612  1
  O  O45  1  0.68836171  0.87097950  0.78891000  1
  O  O46  1  0.21856571  0.43564600  0.94762622  1
  O  O47  1  0.28642607  0.99003269  0.86249538  1
  O  O48  1  0.91760635  0.25134470  0.00300896  1
  O  O49  1  0.32714330  0.41202360  0.27964388  1
  O  O50  1  0.79803344  0.91679703  0.88019444  1
  O  O51  1  0.20196656  0.08320297  0.11980556  1
  O  O52  1  0.20835704  0.86993014  0.36148658  1
  O  O53  1  0.79164296  0.13006986  0.63851342  1
  O  O54  1  0.21918948  0.01270001  0.94806508  1
  O  O55  1  0.21357393  0.49003269  0.36249538  1
  O  O56  1  0.16261051  0.07420951  0.70408478  1
  O  O57  1  0.78081052  0.98729999  0.05193492  1
  O  O58  1  0.17285670  0.91202360  0.77964388  1
  O  O59  1  0.33738949  0.57420951  0.20408478  1
  O  O60  1  0.83738949  0.92579049  0.29591522  1
  O  O61  1  0.57730548  0.29554041  0.09115124  1
  O  O62  1  0.71918948  0.48729999  0.55193492  1
  O  O63  1  0.70835704  0.63006986  0.13851342  1
  O  O64  1  0.18836171  0.62902050  0.71109000  1
  O  O65  1  0.71357393  0.00996731  0.13750462  1
  O  O66  1  0.41760635  0.24865530  0.49699104  1
  O  O67  1  0.71023367  0.93580520  0.96290544  1
  O  O68  1  0.70196656  0.41679703  0.38019444  1
  O  O69  1  0.81163829  0.37097950  0.28891000  1
  O  O70  1  0.29803344  0.58320297  0.61980556  1
  O  O71  1  0.19857768  0.53674315  0.11914383  1
  O  O72  1  0.28976633  0.06419480  0.03709456  1
  O  O73  1  0.45619730  0.16420044  0.32925260  1
  O  O74  1  0.21023367  0.56419480  0.53709456  1
  O  O75  1  0.29164296  0.36993014  0.86148658  1
  O  O76  1  0.10789466  0.83360670  0.17067319  1
  O  O77  1  0.89210534  0.16639330  0.82932681  1
  O  O78  1  0.42269452  0.70445959  0.90884876  1
  O  O79  1  0.92269452  0.79554041  0.59115124  1
  O  O80  1  0.21016256  0.97351486  0.53673773  1
  O  O81  1  0.78143429  0.56435400  0.05237378  1
  O  O82  1  0.69857768  0.96325685  0.38085617  1
  O  O83  1  0.92939185  0.70875890  0.41776059  1
  O  O84  1  0.71016256  0.52648514  0.96326227  1
  O  O85  1  0.15482574  0.36749675  0.77434374  1
  O  O86  1  0.30142232  0.03674315  0.61914383  1
  O  O87  1  0.57060815  0.20875890  0.91776059  1
  O  O88  1  0.07730548  0.20445959  0.40884876  1
  O  O89  1  0.28143429  0.93564600  0.44762622  1
  O  O90  1  0.66261051  0.42579049  0.79591522  1
  O  O91  1  0.42939185  0.79124110  0.08223941  1
  O  O92  1  0.71856571  0.06435400  0.55237378  1
  O  O93  1  0.54380270  0.83579956  0.67074740  1
  O  O94  1  0.07060815  0.29124110  0.58223941  1
  O  O95  1  0.78983744  0.02648514  0.46326227  1
  O  O96  1  0.82714330  0.08797640  0.22035612  1
  O  O97  1  0.28081052  0.51270001  0.44806508  1
  O  O98  1  0.84517426  0.63250325  0.22565626  1
  O  O99  1  0.78976633  0.43580520  0.46290544  1
  O  O100  1  0.28983744  0.47351486  0.03673773  1
  O  O101  1  0.60789466  0.66639330  0.32932681  1
  O  O102  1  0.78642607  0.50996731  0.63750462  1
  O  O103  1  0.34517426  0.86749675  0.27434374  1
  O  O104  1  0.58239365  0.75134470  0.50300896  1
  O  O105  1  0.80142232  0.46325685  0.88085617  1
  O  O106  1  0.04380270  0.66420044  0.82925260  1
  O  O107  1  0.95619730  0.33579956  0.17074740  1
