# generated using pymatgen
data_Ba3Na2(CN2)4
_symmetry_space_group_name_H-M   'P 1'
_cell_length_a   6.41935561
_cell_length_b   10.13680508
_cell_length_c   16.82742948
_cell_angle_alpha   90.00000000
_cell_angle_beta   90.46463758
_cell_angle_gamma   90.00000000
_symmetry_Int_Tables_number   1
_chemical_formula_structural   Ba3Na2(CN2)4
_chemical_formula_sum   'Ba12 Na8 C16 N32'
_cell_volume   1094.95438989
_cell_formula_units_Z   4
loop_
 _symmetry_equiv_pos_site_id
 _symmetry_equiv_pos_as_xyz
  1  'x, y, z'
loop_
 _atom_site_type_symbol
 _atom_site_label
 _atom_site_symmetry_multiplicity
 _atom_site_fract_x
 _atom_site_fract_y
 _atom_site_fract_z
 _atom_site_occupancy
  Ba  Ba0  1  0.76040040  0.68022037  0.34635776  1
  Ba  Ba1  1  0.24928950  0.87364843  0.14280018  1
  Ba  Ba2  1  0.76131630  0.69068560  0.99340662  1
  Ba  Ba3  1  0.23959960  0.31977963  0.65364224  1
  Ba  Ba4  1  0.26131630  0.80931440  0.49340662  1
  Ba  Ba5  1  0.25071050  0.37364843  0.35719982  1
  Ba  Ba6  1  0.23868370  0.30931440  0.00659338  1
  Ba  Ba7  1  0.73868370  0.19068560  0.50659338  1
  Ba  Ba8  1  0.75071050  0.12635157  0.85719982  1
  Ba  Ba9  1  0.73959960  0.18022037  0.15364224  1
  Ba  Ba10  1  0.26040040  0.81977963  0.84635776  1
  Ba  Ba11  1  0.74928950  0.62635157  0.64280018  1
  Na  Na12  1  0.55614975  0.52150031  0.16880459  1
  Na  Na13  1  0.94385025  0.02150031  0.33119541  1
  Na  Na14  1  0.93992647  0.47674771  0.82997980  1
  Na  Na15  1  0.43992647  0.02325229  0.32997980  1
  Na  Na16  1  0.05614975  0.97849969  0.66880459  1
  Na  Na17  1  0.06007353  0.52325229  0.17002020  1
  Na  Na18  1  0.56007353  0.97674771  0.67002020  1
  Na  Na19  1  0.44385025  0.47849969  0.83119541  1
  C  C20  1  0.25118186  0.67333131  0.69082634  1
  C  C21  1  0.24881814  0.17333131  0.80917366  1
  C  C22  1  0.50000000  0.50000000  0.50000000  1
  C  C23  1  0.74881814  0.32666869  0.30917366  1
  C  C24  1  0.24454639  0.10430695  0.50240162  1
  C  C25  1  0.75645802  0.77744648  0.79953639  1
  C  C26  1  0.25645802  0.72255352  0.29953639  1
  C  C27  1  0.75545361  0.89569305  0.49759838  1
  C  C28  1  0.74454639  0.39569305  0.00240162  1
  C  C29  1  0.25545361  0.60430695  0.99759838  1
  C  C30  1  0.50000000  0.00000000  0.00000000  1
  C  C31  1  0.74354198  0.27744648  0.70046361  1
  C  C32  1  0.00000000  0.00000000  0.00000000  1
  C  C33  1  0.24354198  0.22255352  0.20046361  1
  C  C34  1  0.75118186  0.82666869  0.19082634  1
  C  C35  1  0.00000000  0.50000000  0.50000000  1
  N  N36  1  0.33635107  0.62182287  0.06393005  1
  N  N37  1  0.17356046  0.82557114  0.32399714  1
  N  N38  1  0.55252895  0.61591651  0.48843016  1
  N  N39  1  0.55199972  0.92250388  0.94682683  1
  N  N40  1  0.44747105  0.38408349  0.51156984  1
  N  N41  1  0.66047390  0.37831641  0.72749584  1
  N  N42  1  0.05252895  0.88408349  0.98843016  1
  N  N43  1  0.33112309  0.07627851  0.77702464  1
  N  N44  1  0.66633173  0.22655578  0.33788887  1
  N  N45  1  0.66887691  0.92372149  0.22297536  1
  N  N46  1  0.17425901  0.58070669  0.93166050  1
  N  N47  1  0.83952610  0.87831641  0.77250416  1
  N  N48  1  0.16887691  0.57627851  0.72297536  1
  N  N49  1  0.05199972  0.57749612  0.44682683  1
  N  N50  1  0.16047390  0.12168359  0.22749584  1
  N  N51  1  0.94747105  0.11591651  0.01156984  1
  N  N52  1  0.82643954  0.17442886  0.67600286  1
  N  N53  1  0.66364893  0.37817713  0.93606995  1
  N  N54  1  0.83112309  0.42372149  0.27702464  1
  N  N55  1  0.33366827  0.77344422  0.66211113  1
  N  N56  1  0.33952610  0.62168359  0.27250416  1
  N  N57  1  0.44800028  0.07749612  0.05317317  1
  N  N58  1  0.16633173  0.27344422  0.83788887  1
  N  N59  1  0.83366827  0.72655578  0.16211113  1
  N  N60  1  0.67425901  0.91929331  0.43166050  1
  N  N61  1  0.82574099  0.41929331  0.06833950  1
  N  N62  1  0.94800028  0.42250388  0.55317317  1
  N  N63  1  0.67356046  0.67442886  0.82399714  1
  N  N64  1  0.16364893  0.12182287  0.43606995  1
  N  N65  1  0.83635107  0.87817713  0.56393005  1
  N  N66  1  0.32574099  0.08070669  0.56833950  1
  N  N67  1  0.32643954  0.32557114  0.17600286  1
