# generated using pymatgen
data_Ba(Mo3S4)2
_symmetry_space_group_name_H-M   'P 1'
_cell_length_a   6.65851547
_cell_length_b   6.73156351
_cell_length_c   6.79470460
_cell_angle_alpha   89.11259404
_cell_angle_beta   89.24878395
_cell_angle_gamma   87.91486738
_symmetry_Int_Tables_number   1
_chemical_formula_structural   Ba(Mo3S4)2
_chemical_formula_sum   'Ba1 Mo6 S8'
_cell_volume   304.29159148
_cell_formula_units_Z   1
loop_
 _symmetry_equiv_pos_site_id
 _symmetry_equiv_pos_as_xyz
  1  'x, y, z'
loop_
 _atom_site_type_symbol
 _atom_site_label
 _atom_site_symmetry_multiplicity
 _atom_site_fract_x
 _atom_site_fract_y
 _atom_site_fract_z
 _atom_site_occupancy
  S  S0  1  0.26099135  0.24573997  0.25218025  1
  S  S1  1  0.73900865  0.75426003  0.74781975  1
  S  S2  1  0.39204032  0.73020990  0.12582682  1
  S  S3  1  0.60795968  0.26979010  0.87417318  1
  S  S4  1  0.73358034  0.12317058  0.38671077  1
  S  S5  1  0.26641966  0.87682942  0.61328923  1
  S  S6  1  0.12568220  0.39161655  0.73312365  1
  S  S7  1  0.87431780  0.60838345  0.26687635  1
  Mo  Mo8  1  0.56742528  0.41651737  0.23324958  1
  Mo  Mo9  1  0.43257472  0.58348263  0.76675042  1
  Mo  Mo10  1  0.41801649  0.23352483  0.56388705  1
  Mo  Mo11  1  0.58198351  0.76647517  0.43611295  1
  Mo  Mo12  1  0.24177577  0.56369878  0.41952619  1
  Mo  Mo13  1  0.75822423  0.43630122  0.58047381  1
  Ba  Ba14  1  0.00000000  0.00000000  0.00000000  1
