# generated using pymatgen
data_Pr2Al19Co6
_symmetry_space_group_name_H-M   'P 1'
_cell_length_a   8.22714530
_cell_length_b   10.68696224
_cell_length_c   10.68696240
_cell_angle_alpha   68.87938154
_cell_angle_beta   78.52721945
_cell_angle_gamma   78.52722254
_symmetry_Int_Tables_number   1
_chemical_formula_structural   Pr2Al19Co6
_chemical_formula_sum   'Pr4 Al38 Co12'
_cell_volume   850.63788261
_cell_formula_units_Z   2
loop_
 _symmetry_equiv_pos_site_id
 _symmetry_equiv_pos_as_xyz
  1  'x, y, z'
loop_
 _atom_site_type_symbol
 _atom_site_label
 _atom_site_symmetry_multiplicity
 _atom_site_fract_x
 _atom_site_fract_y
 _atom_site_fract_z
 _atom_site_occupancy
  Pr  Pr0  1  0.25748135  0.72077637  0.72077637  1
  Pr  Pr1  1  0.74251865  0.27922363  0.27922363  1
  Pr  Pr2  1  0.77162375  0.71998558  0.71998558  1
  Pr  Pr3  1  0.22837625  0.28001442  0.28001442  1
  Al  Al4  1  1.00000000  0.83053450  0.16946550  1
  Al  Al5  1  0.44794953  0.52146656  0.18525676  1
  Al  Al6  1  0.64756019  0.91839557  0.91839557  1
  Al  Al7  1  0.04719761  0.04996933  0.27574320  1
  Al  Al8  1  0.94379498  0.18791104  0.53780637  1
  Al  Al9  1  0.84536144  0.66933556  0.43508088  1
  Al  Al10  1  0.64869010  0.56239726  0.33005256  1
  Al  Al11  1  0.76160304  0.50232282  0.00113167  1
  Al  Al12  1  0.44794953  0.18525676  0.52146656  1
  Al  Al13  1  0.46510999  0.93703377  0.70380696  1
  Al  Al14  1  0.53489001  0.29619304  0.06296623  1
  Al  Al15  1  0.55205047  0.81474324  0.47853344  1
  Al  Al16  1  0.53489001  0.06296623  0.29619304  1
  Al  Al17  1  0.23839696  0.49767718  0.99886833  1
  Al  Al18  1  0.05620502  0.46219363  0.81208896  1
  Al  Al19  1  0.46510999  0.70380696  0.93703377  1
  Al  Al20  1  0.35130990  0.66994744  0.43760274  1
  Al  Al21  1  0.84536144  0.43508088  0.66933556  1
  Al  Al22  1  0.23839696  0.99886833  0.49767718  1
  Al  Al23  1  0.76160304  0.00113167  0.50232282  1
  Al  Al24  1  0.95280239  0.72425680  0.95003067  1
  Al  Al25  1  0.36386688  0.79973319  0.14845120  1
  Al  Al26  1  0.36386688  0.14845120  0.79973319  1
  Al  Al27  1  0.81763887  0.08649110  0.08649110  1
  Al  Al28  1  0.15463856  0.33066444  0.56491912  1
  Al  Al29  1  0.18236113  0.91350890  0.91350890  1
  Al  Al30  1  0.04719761  0.27574320  0.04996933  1
  Al  Al31  1  0.63613312  0.20026681  0.85154880  1
  Al  Al32  1  0.95280239  0.95003067  0.72425680  1
  Al  Al33  1  0.00000000  0.16946550  0.83053450  1
  Al  Al34  1  0.05620502  0.81208896  0.46219363  1
  Al  Al35  1  0.15463856  0.56491912  0.33066444  1
  Al  Al36  1  0.94379498  0.53780637  0.18791104  1
  Al  Al37  1  0.55205047  0.47853344  0.81474324  1
  Al  Al38  1  0.64869010  0.33005256  0.56239726  1
  Al  Al39  1  0.35130990  0.43760274  0.66994744  1
  Al  Al40  1  0.35243981  0.08160443  0.08160443  1
  Al  Al41  1  0.63613312  0.85154880  0.20026681  1
  Co  Co42  1  0.59462816  0.56134216  0.56134216  1
  Co  Co43  1  0.90587683  0.43846614  0.43846614  1
  Co  Co44  1  0.18906171  0.68091985  0.07946034  1
  Co  Co45  1  0.40537184  0.43865784  0.43865784  1
  Co  Co46  1  0.67276133  0.68544774  0.08244368  1
  Co  Co47  1  0.81093829  0.31908015  0.92053966  1
  Co  Co48  1  0.09412317  0.56153386  0.56153386  1
  Co  Co49  1  0.18906171  0.07946034  0.68091985  1
  Co  Co50  1  0.67276133  0.08244368  0.68544774  1
  Co  Co51  1  0.32723867  0.31455226  0.91755632  1
  Co  Co52  1  0.81093829  0.92053966  0.31908015  1
  Co  Co53  1  0.32723867  0.91755632  0.31455226  1
