# generated using pymatgen
data_Fe13Ge3
_symmetry_space_group_name_H-M   'P 1'
_cell_length_a   5.74382200
_cell_length_b   5.71123797
_cell_length_c   5.73333196
_cell_angle_alpha   90.07648366
_cell_angle_beta   89.95778040
_cell_angle_gamma   90.06154934
_symmetry_Int_Tables_number   1
_chemical_formula_structural   Fe13Ge3
_chemical_formula_sum   'Fe13 Ge3'
_cell_volume   188.07781135
_cell_formula_units_Z   1
loop_
 _symmetry_equiv_pos_site_id
 _symmetry_equiv_pos_as_xyz
  1  'x, y, z'
loop_
 _atom_site_type_symbol
 _atom_site_label
 _atom_site_symmetry_multiplicity
 _atom_site_fract_x
 _atom_site_fract_y
 _atom_site_fract_z
 _atom_site_occupancy
  Fe  Fe0  1  0.25211537  0.25210903  0.74796728  1
  Fe  Fe1  1  0.25268560  0.25222535  0.25225191  1
  Fe  Fe2  1  0.25202348  0.74763913  0.74780539  1
  Fe  Fe3  1  0.74736202  0.74756459  0.25269495  1
  Fe  Fe4  1  0.74715210  0.25246584  0.25263454  1
  Fe  Fe5  1  0.49994915  0.99988372  0.50019910  1
  Fe  Fe6  1  0.50012969  0.50021058  0.49994340  1
  Fe  Fe7  1  0.74754709  0.25244444  0.74735752  1
  Fe  Fe8  1  0.25254371  0.74770996  0.25225744  1
  Fe  Fe9  1  0.00000285  0.49988940  0.49985084  1
  Fe  Fe10  1  0.74789649  0.74762503  0.74735274  1
  Fe  Fe11  1  0.49998242  0.50009787  -0.00004566  1
  Fe  Fe12  1  0.00003752  0.00034152  -0.00000308  1
  Ge  Ge13  1  0.49998838  -0.00014698  0.99959618  1
  Ge  Ge14  1  0.00035829  0.00019381  0.49988307  1
  Ge  Ge15  1  0.00022584  0.49974671  0.00025440  1
