# generated using pymatgen
data_Sr5Mn5O13
_symmetry_space_group_name_H-M   'P 1'
_cell_length_a   3.87884928
_cell_length_b   8.77507118
_cell_length_c   8.77507118
_cell_angle_alpha   90.00000000
_cell_angle_beta   90.00000000
_cell_angle_gamma   90.00000000
_symmetry_Int_Tables_number   1
_chemical_formula_structural   Sr5Mn5O13
_chemical_formula_sum   'Sr5 Mn5 O13'
_cell_volume   298.67866435
_cell_formula_units_Z   1
loop_
 _symmetry_equiv_pos_site_id
 _symmetry_equiv_pos_as_xyz
  1  'x, y, z'
loop_
 _atom_site_type_symbol
 _atom_site_label
 _atom_site_symmetry_multiplicity
 _atom_site_fract_x
 _atom_site_fract_y
 _atom_site_fract_z
 _atom_site_occupancy
  Sr  Sr0  1  0.50000000  0.28208752  0.11157004  1
  Sr  Sr1  1  0.50000000  0.88842996  0.28208752  1
  Sr  Sr2  1  0.50000000  0.11157004  0.71791248  1
  Sr  Sr3  1  0.50000000  0.71791248  0.88842996  1
  Sr  Sr4  1  0.50000000  0.50000000  0.50000000  1
  Mn  Mn5  1  0.00000000  0.19997009  0.39960811  1
  Mn  Mn6  1  0.00000000  0.80002991  0.60039189  1
  Mn  Mn7  1  0.00000000  0.60039189  0.19997009  1
  Mn  Mn8  1  0.00000000  0.39960811  0.80002991  1
  Mn  Mn9  1  0.00000000  0.00000000  0.00000000  1
  O  O10  1  0.00000000  0.71085052  0.40099934  1
  O  O11  1  0.00000000  0.78691998  0.07437897  1
  O  O12  1  0.50000000  0.83373303  0.58425420  1
  O  O13  1  0.00000000  0.07437897  0.21308002  1
  O  O14  1  0.00000000  0.59900066  0.71085052  1
  O  O15  1  0.00000000  0.28914948  0.59900066  1
  O  O16  1  0.00000000  0.21308002  0.92562103  1
  O  O17  1  0.50000000  0.16626697  0.41574580  1
  O  O18  1  0.50000000  0.41574580  0.83373303  1
  O  O19  1  0.50000000  0.58425420  0.16626697  1
  O  O20  1  0.00000000  0.92562103  0.78691998  1
  O  O21  1  0.50000000  0.00000000  0.00000000  1
  O  O22  1  0.00000000  0.40099934  0.28914948  1
