# generated using pymatgen
data_Th(MoO4)2
_symmetry_space_group_name_H-M   'P 1'
_cell_length_a   17.99512962
_cell_length_b   17.99512969
_cell_length_c   6.30578873
_cell_angle_alpha   90.00000000
_cell_angle_beta   90.00000000
_cell_angle_gamma   119.99999987
_symmetry_Int_Tables_number   1
_chemical_formula_structural   Th(MoO4)2
_chemical_formula_sum   'Th9 Mo18 O72'
_cell_volume   1768.39797292
_cell_formula_units_Z   9
loop_
 _symmetry_equiv_pos_site_id
 _symmetry_equiv_pos_as_xyz
  1  'x, y, z'
loop_
 _atom_site_type_symbol
 _atom_site_label
 _atom_site_symmetry_multiplicity
 _atom_site_fract_x
 _atom_site_fract_y
 _atom_site_fract_z
 _atom_site_occupancy
  Th  Th0  1  0.33373195  0.00031835  0.24685093  1
  Th  Th1  1  0.99968165  0.33341360  0.24685093  1
  Th  Th2  1  0.66666700  0.33333300  0.49631950  1
  Th  Th3  1  0.00031835  0.66658640  0.75314907  1
  Th  Th4  1  0.33333300  0.66666700  0.50368050  1
  Th  Th5  1  0.66626805  0.99968165  0.75314907  1
  Th  Th6  1  0.66658640  0.66626805  0.24685093  1
  Th  Th7  1  0.33341360  0.33373195  0.75314907  1
  Th  Th8  1  0.00000000  0.00000000  0.00000000  1
  Mo  Mo9  1  0.10260308  0.50381560  0.74287305  1
  Mo  Mo10  1  0.17044436  0.73442318  0.24095854  1
  Mo  Mo11  1  0.26557682  0.43602117  0.24095854  1
  Mo  Mo12  1  0.23116741  0.16479912  0.25767272  1
  Mo  Mo13  1  0.16479912  0.93363171  0.74232728  1
  Mo  Mo14  1  0.06636829  0.23116741  0.74232728  1
  Mo  Mo15  1  0.82955564  0.26557682  0.75904146  1
  Mo  Mo16  1  0.56397883  0.82955564  0.24095854  1
  Mo  Mo17  1  0.40121252  0.89739692  0.74287305  1
  Mo  Mo18  1  0.50381560  0.40121252  0.25712695  1
  Mo  Mo19  1  0.49618440  0.59878748  0.74287305  1
  Mo  Mo20  1  0.59878748  0.10260308  0.25712695  1
  Mo  Mo21  1  0.83520088  0.06636829  0.25767272  1
  Mo  Mo22  1  0.89739692  0.49618440  0.25712695  1
  Mo  Mo23  1  0.73442318  0.56397883  0.75904146  1
  Mo  Mo24  1  0.43602117  0.17044436  0.75904146  1
  Mo  Mo25  1  0.76883259  0.83520088  0.74232728  1
  Mo  Mo26  1  0.93363171  0.76883259  0.25767272  1
  O  O27  1  0.54695163  0.25335182  0.70607917  1
  O  O28  1  0.58765409  0.37260184  0.28288560  1
  O  O29  1  0.75778392  0.78718458  0.48751536  1
  O  O30  1  0.03610870  0.11938816  0.79244882  1
  O  O31  1  0.21690585  0.84730660  0.22069796  1
  O  O32  1  0.88185632  0.17934821  0.23892006  1
  O  O33  1  0.63215056  0.08202119  0.00772044  1
  O  O34  1  0.63040074  0.78309415  0.22069796  1
  O  O35  1  0.08327946  0.96389130  0.79244882  1
  O  O36  1  0.29749189  0.11814368  0.23892006  1
  O  O37  1  0.70250811  0.88185632  0.76107994  1
  O  O38  1  0.24221608  0.21281542  0.51248464  1
  O  O39  1  0.65408880  0.08178913  0.46399715  1
  O  O40  1  0.91797881  0.55012936  0.00772044  1
  O  O41  1  0.69660625  0.59918111  0.54125997  1
  O  O42  1  0.45304837  0.74664818  0.29392083  1
  O  O43  1  0.24660630  0.98396640  0.94004967  1
  O  O44  1  0.54904359  0.51361203  0.28700828  1
  O  O45  1  0.30339375  0.40081889  0.45874003  1
  O  O46  1  0.59918111  0.90257487  0.45874003  1
  O  O47  1  0.55012936  0.63215056  0.99227956  1
  O  O48  1  0.57074866  0.88721731  0.00302627  1
  O  O49  1  0.57229967  0.65408880  0.53600285  1
  O  O50  1  0.21505225  0.58765409  0.71711440  1
  O  O51  1  0.51361203  0.96456844  0.71299172  1
  O  O52  1  0.78494775  0.41234591  0.28288560  1
  O  O53  1  0.02940066  0.24221608  0.48751536  1
  O  O54  1  0.34591120  0.91821087  0.53600285  1
  O  O55  1  0.42770033  0.34591120  0.46399715  1
  O  O56  1  0.70640018  0.45304837  0.70607917  1
  O  O57  1  0.88061184  0.91672054  0.79244882  1
  O  O58  1  0.91672054  0.03610870  0.20755118  1
  O  O59  1  0.78309415  0.15269340  0.77930204  1
  O  O60  1  0.11814368  0.82065179  0.76107994  1
  O  O61  1  0.88721731  0.31646865  0.99697373  1
  O  O62  1  0.03543156  0.54904359  0.71299172  1
  O  O63  1  0.31646865  0.42925134  0.00302627  1
  O  O64  1  0.45095641  0.48638797  0.71299172  1
  O  O65  1  0.98396640  0.73736010  0.05995033  1
  O  O66  1  0.44987064  0.36784944  0.00772044  1
  O  O67  1  0.37260184  0.78494775  0.71711440  1
  O  O68  1  0.97059934  0.75778392  0.51248464  1
  O  O69  1  0.36959926  0.21690585  0.77930204  1
  O  O70  1  0.84730660  0.63040074  0.77930204  1
  O  O71  1  0.91821087  0.57229967  0.46399715  1
  O  O72  1  0.78718458  0.02940066  0.51248464  1
  O  O73  1  0.08178913  0.42770033  0.53600285  1
  O  O74  1  0.73736010  0.75339370  0.94004967  1
  O  O75  1  0.29359982  0.54695163  0.29392083  1
  O  O76  1  0.11938816  0.08327946  0.20755118  1
  O  O77  1  0.09742513  0.69660625  0.45874003  1
  O  O78  1  0.40081889  0.09742513  0.54125997  1
  O  O79  1  0.01603360  0.26263990  0.94004967  1
  O  O80  1  0.25335182  0.70640018  0.29392083  1
  O  O81  1  0.96456844  0.45095641  0.28700828  1
  O  O82  1  0.74664818  0.29359982  0.70607917  1
  O  O83  1  0.42925134  0.11278269  0.99697373  1
  O  O84  1  0.68353135  0.57074866  0.99697373  1
  O  O85  1  0.11278269  0.68353135  0.00302627  1
  O  O86  1  0.96389130  0.88061184  0.20755118  1
  O  O87  1  0.36784944  0.91797881  0.99227956  1
  O  O88  1  0.15269340  0.36959926  0.22069796  1
  O  O89  1  0.82065179  0.70250811  0.23892006  1
  O  O90  1  0.48638797  0.03543156  0.28700828  1
  O  O91  1  0.75339370  0.01603360  0.05995033  1
  O  O92  1  0.41234591  0.62739816  0.71711440  1
  O  O93  1  0.17934821  0.29749189  0.76107994  1
  O  O94  1  0.62739816  0.21505225  0.28288560  1
  O  O95  1  0.26263990  0.24660630  0.05995033  1
  O  O96  1  0.90257487  0.30339375  0.54125997  1
  O  O97  1  0.21281542  0.97059934  0.48751536  1
  O  O98  1  0.08202119  0.44987064  0.99227956  1
