# generated using pymatgen
data_Ga2NiCl8
_symmetry_space_group_name_H-M   'P 1'
_cell_length_a   8.02515356
_cell_length_b   9.63753364
_cell_length_c   9.92303475
_cell_angle_alpha   73.44524179
_cell_angle_beta   66.14834844
_cell_angle_gamma   65.39570024
_symmetry_Int_Tables_number   1
_chemical_formula_structural   Ga2NiCl8
_chemical_formula_sum   'Ga4 Ni2 Cl16'
_cell_volume   631.89464826
_cell_formula_units_Z   2
loop_
 _symmetry_equiv_pos_site_id
 _symmetry_equiv_pos_as_xyz
  1  'x, y, z'
loop_
 _atom_site_type_symbol
 _atom_site_label
 _atom_site_symmetry_multiplicity
 _atom_site_fract_x
 _atom_site_fract_y
 _atom_site_fract_z
 _atom_site_occupancy
  Ga  Ga0  1  0.67257494  0.13537850  0.03271050  1
  Ga  Ga1  1  0.32742506  0.86462150  0.96728950  1
  Ga  Ga2  1  0.84066394  0.36462150  0.46728950  1
  Ga  Ga3  1  0.15933606  0.63537850  0.53271050  1
  Ni  Ni4  1  -0.00278793  0.25000000  0.75000000  1
  Ni  Ni5  1  1.00278793  0.75000000  0.25000000  1
  Cl  Cl6  1  0.86817660  0.78445509  0.50874282  1
  Cl  Cl7  1  0.13182340  0.21554491  0.49125718  1
  Cl  Cl8  1  0.68774860  0.24212240  0.44193456  1
  Cl  Cl9  1  0.62819444  0.74212240  0.94193456  1
  Cl  Cl10  1  0.83862550  0.28445509  0.00874282  1
  Cl  Cl11  1  0.85742328  0.55805452  0.28019665  1
  Cl  Cl12  1  0.14691923  0.94520364  0.18973742  1
  Cl  Cl13  1  0.28186028  0.55479636  0.31026258  1
  Cl  Cl14  1  0.14257672  0.44194548  0.71980335  1
  Cl  Cl15  1  0.31225140  0.75787760  0.55806544  1
  Cl  Cl16  1  0.69567445  0.94194548  0.21980335  1
  Cl  Cl17  1  0.16137450  0.71554491  0.99125718  1
  Cl  Cl18  1  0.37180556  0.25787760  0.05806544  1
  Cl  Cl19  1  0.30432555  0.05805452  0.78019665  1
  Cl  Cl20  1  0.71813972  0.44520364  0.68973742  1
  Cl  Cl21  1  0.85308077  0.05479636  0.81026258  1
