# generated using pymatgen
data_BaH6C2N4O5
_symmetry_space_group_name_H-M   'P 1'
_cell_length_a   6.85237493
_cell_length_b   10.16536660
_cell_length_c   11.64892151
_cell_angle_alpha   90.00000000
_cell_angle_beta   90.00000000
_cell_angle_gamma   90.39751265
_symmetry_Int_Tables_number   1
_chemical_formula_structural   BaH6C2N4O5
_chemical_formula_sum   'Ba4 H24 C8 N16 O20'
_cell_volume   811.40826974
_cell_formula_units_Z   4
loop_
 _symmetry_equiv_pos_site_id
 _symmetry_equiv_pos_as_xyz
  1  'x, y, z'
loop_
 _atom_site_type_symbol
 _atom_site_label
 _atom_site_symmetry_multiplicity
 _atom_site_fract_x
 _atom_site_fract_y
 _atom_site_fract_z
 _atom_site_occupancy
  Ba  Ba0  1  0.90802522  0.91901413  0.18934361  1
  Ba  Ba1  1  0.09197478  0.08098587  0.81065639  1
  Ba  Ba2  1  0.09197478  0.58098587  0.68934361  1
  Ba  Ba3  1  0.90802522  0.41901413  0.31065639  1
  H  H4  1  0.42332443  0.82307149  0.84024448  1
  H  H5  1  0.57667557  0.17692851  0.15975552  1
  H  H6  1  0.57667557  0.67692851  0.34024448  1
  H  H7  1  0.42332443  0.32307149  0.65975552  1
  H  H8  1  0.69068546  0.66382239  0.52353990  1
  H  H9  1  0.30931454  0.33617761  0.47646010  1
  H  H10  1  0.30931454  0.83617761  0.02353990  1
  H  H11  1  0.69068546  0.16382239  0.97646010  1
  H  H12  1  0.52406513  0.61785134  0.80952390  1
  H  H13  1  0.47593487  0.38214866  0.19047610  1
  H  H14  1  0.47593487  0.88214866  0.30952390  1
  H  H15  1  0.52406513  0.11785134  0.69047610  1
  H  H16  1  0.56356458  0.69809968  0.69634548  1
  H  H17  1  0.43643542  0.30190032  0.30365452  1
  H  H18  1  0.43643542  0.80190032  0.19634548  1
  H  H19  1  0.56356458  0.19809968  0.80365452  1
  H  H20  1  0.54164308  0.92604320  0.91191038  1
  H  H21  1  0.45835692  0.07395680  0.08808962  1
  H  H22  1  0.45835692  0.57395680  0.41191038  1
  H  H23  1  0.54164308  0.42604320  0.58808962  1
  H  H24  1  0.74850425  0.80453702  0.57020987  1
  H  H25  1  0.25149575  0.19546298  0.42979013  1
  H  H26  1  0.25149575  0.69546298  0.07020987  1
  H  H27  1  0.74850425  0.30453702  0.92979013  1
  C  C28  1  0.88177054  0.80651377  0.89959374  1
  C  C29  1  0.11822946  0.19348623  0.10040626  1
  C  C30  1  0.11822946  0.69348623  0.39959374  1
  C  C31  1  0.88177054  0.30651377  0.60040626  1
  C  C32  1  0.82345820  0.67927307  0.95272607  1
  C  C33  1  0.17654180  0.32072693  0.04727393  1
  C  C34  1  0.17654180  0.82072693  0.45272607  1
  C  C35  1  0.82345820  0.17927307  0.54727393  1
  N  N36  1  0.81196415  0.56438125  0.89527183  1
  N  N37  1  0.18803585  0.43561875  0.10472817  1
  N  N38  1  0.18803585  0.93561875  0.39527183  1
  N  N39  1  0.81196415  0.06438125  0.60472817  1
  N  N40  1  0.21330223  0.83652760  0.56505933  1
  N  N41  1  0.78669777  0.16347240  0.43494067  1
  N  N42  1  0.78669777  0.66347240  0.06505933  1
  N  N43  1  0.21330223  0.33652760  0.93494067  1
  N  N44  1  0.76603141  0.97539874  0.52410534  1
  N  N45  1  0.23396859  0.02460126  0.47589466  1
  N  N46  1  0.23396859  0.52460126  0.02410534  1
  N  N47  1  0.76603141  0.47539874  0.97589466  1
  N  N48  1  0.24711917  0.96580116  0.57777996  1
  N  N49  1  0.75288083  0.03419884  0.42222004  1
  N  N50  1  0.75288083  0.53419884  0.07777996  1
  N  N51  1  0.24711917  0.46580116  0.92222004  1
  O  O52  1  0.73894118  0.70971950  0.59362157  1
  O  O53  1  0.26105882  0.29028050  0.40637843  1
  O  O54  1  0.26105882  0.79028050  0.09362157  1
  O  O55  1  0.73894118  0.20971950  0.90637843  1
  O  O56  1  0.40708592  0.90181280  0.89090105  1
  O  O57  1  0.59291408  0.09818720  0.10909895  1
  O  O58  1  0.59291408  0.59818720  0.39090105  1
  O  O59  1  0.40708592  0.40181280  0.60909895  1
  O  O60  1  0.82752320  0.91263544  0.94930880  1
  O  O61  1  0.17247680  0.08736456  0.05069120  1
  O  O62  1  0.17247680  0.58736456  0.44930880  1
  O  O63  1  0.82752320  0.41263544  0.55069120  1
  O  O64  1  0.46417309  0.68292934  0.75895046  1
  O  O65  1  0.53582691  0.31707066  0.24104954  1
  O  O66  1  0.53582691  0.81707066  0.25895046  1
  O  O67  1  0.46417309  0.18292934  0.74104954  1
  O  O68  1  0.98504068  0.80348269  0.80956027  1
  O  O69  1  0.01495932  0.19651731  0.19043973  1
  O  O70  1  0.01495932  0.69651731  0.30956027  1
  O  O71  1  0.98504068  0.30348269  0.69043973  1
