# generated using pymatgen
data_TlCr4BiO14
_symmetry_space_group_name_H-M   'P 1'
_cell_length_a   8.40394063
_cell_length_b   8.77749088
_cell_length_c   17.26948740
_cell_angle_alpha   90.00000000
_cell_angle_beta   90.00000000
_cell_angle_gamma   91.65395080
_symmetry_Int_Tables_number   1
_chemical_formula_structural   TlCr4BiO14
_chemical_formula_sum   'Tl4 Cr16 Bi4 O56'
_cell_volume   1273.36185572
_cell_formula_units_Z   4
loop_
 _symmetry_equiv_pos_site_id
 _symmetry_equiv_pos_as_xyz
  1  'x, y, z'
loop_
 _atom_site_type_symbol
 _atom_site_label
 _atom_site_symmetry_multiplicity
 _atom_site_fract_x
 _atom_site_fract_y
 _atom_site_fract_z
 _atom_site_occupancy
  Tl  Tl0  1  0.76444374  0.49971576  0.37556057  1
  Tl  Tl1  1  0.26444374  0.49971576  0.12443943  1
  Tl  Tl2  1  0.23555626  0.50028424  0.62443943  1
  Tl  Tl3  1  0.73555626  0.50028424  0.87556057  1
  Cr  Cr4  1  0.36856076  0.27445045  0.94778246  1
  Cr  Cr5  1  0.58255642  0.21819134  0.68390101  1
  Cr  Cr6  1  0.86856076  0.27445045  0.55221754  1
  Cr  Cr7  1  0.58767452  0.79406976  0.55908898  1
  Cr  Cr8  1  0.16630838  0.23724432  0.29563188  1
  Cr  Cr9  1  0.91232548  0.20593024  0.05908898  1
  Cr  Cr10  1  0.41232548  0.20593024  0.44091102  1
  Cr  Cr11  1  0.66630838  0.23724432  0.20436812  1
  Cr  Cr12  1  0.41744358  0.78180866  0.31609899  1
  Cr  Cr13  1  0.83369162  0.76275568  0.70436812  1
  Cr  Cr14  1  0.91744358  0.78180866  0.18390101  1
  Cr  Cr15  1  0.33369162  0.76275568  0.79563188  1
  Cr  Cr16  1  0.08767452  0.79406976  0.94091102  1
  Cr  Cr17  1  0.63143924  0.72554955  0.05221754  1
  Cr  Cr18  1  0.08255642  0.21819134  0.81609899  1
  Cr  Cr19  1  0.13143924  0.72554955  0.44778246  1
  Bi  Bi20  1  0.79155897  0.99270352  0.37676398  1
  Bi  Bi21  1  0.70844103  0.00729648  0.87676398  1
  Bi  Bi22  1  0.20844103  0.00729648  0.62323602  1
  Bi  Bi23  1  0.29155897  0.99270352  0.12323602  1
  O  O24  1  0.05850362  0.38537750  0.29244217  1
  O  O25  1  0.46851694  0.77077524  0.10035242  1
  O  O26  1  0.86795996  0.20579364  0.46273929  1
  O  O27  1  0.88840723  0.20990924  0.84017456  1
  O  O28  1  0.27266495  0.80237531  0.70522159  1
  O  O29  1  0.99362891  0.65629663  0.98405302  1
  O  O30  1  0.44149638  0.61462250  0.79244217  1
  O  O31  1  0.87575908  0.61853016  0.22126711  1
  O  O32  1  0.83435699  0.28275804  0.14587610  1
  O  O33  1  0.26873259  0.13632541  0.49641670  1
  O  O34  1  0.06737328  0.09380058  0.33443258  1
  O  O35  1  0.20173143  0.19295035  0.89919802  1
  O  O36  1  0.46153748  0.92877955  0.58218215  1
  O  O37  1  0.55850362  0.38537750  0.20755783  1
  O  O38  1  0.93262672  0.90619942  0.66556742  1
  O  O39  1  0.62424092  0.38146984  0.72126711  1
  O  O40  1  0.03846252  0.07122045  0.08218215  1
  O  O41  1  0.72733505  0.19762469  0.29477841  1
  O  O42  1  0.76873259  0.13632541  0.00358330  1
  O  O43  1  0.38840723  0.20990924  0.65982544  1
  O  O44  1  0.43262672  0.90619942  0.83443258  1
  O  O45  1  0.96153748  0.92877955  0.91781785  1
  O  O46  1  0.00637109  0.34370337  0.01594698  1
  O  O47  1  0.63204004  0.79420636  0.96273929  1
  O  O48  1  0.50637109  0.34370337  0.48405302  1
  O  O49  1  0.53846252  0.07122045  0.41781785  1
  O  O50  1  0.29826857  0.80704965  0.39919802  1
  O  O51  1  0.61159277  0.79009076  0.34017456  1
  O  O52  1  0.66564301  0.71724196  0.64587610  1
  O  O53  1  0.96851694  0.77077524  0.39964758  1
  O  O54  1  0.12424092  0.38146984  0.77873289  1
  O  O55  1  0.79826857  0.80704965  0.10080198  1
  O  O56  1  0.03148306  0.22922476  0.60035242  1
  O  O57  1  0.11159277  0.79009076  0.15982544  1
  O  O58  1  0.77266495  0.80237531  0.79477841  1
  O  O59  1  0.56737328  0.09380058  0.16556742  1
  O  O60  1  0.53148306  0.22922476  0.89964758  1
  O  O61  1  0.37575908  0.61853016  0.27873289  1
  O  O62  1  0.64103192  0.54291707  0.04838740  1
  O  O63  1  0.36795996  0.20579364  0.03726071  1
  O  O64  1  0.62648761  0.08328314  0.74527215  1
  O  O65  1  0.12648761  0.08328314  0.75472785  1
  O  O66  1  0.14103192  0.54291707  0.45161260  1
  O  O67  1  0.87351239  0.91671686  0.24527215  1
  O  O68  1  0.49362891  0.65629663  0.51594698  1
  O  O69  1  0.35896808  0.45708293  0.95161260  1
  O  O70  1  0.23126741  0.86367459  0.99641670  1
  O  O71  1  0.37351239  0.91671686  0.25472785  1
  O  O72  1  0.73126741  0.86367459  0.50358330  1
  O  O73  1  0.94149638  0.61462250  0.70755783  1
  O  O74  1  0.16564301  0.71724196  0.85412390  1
  O  O75  1  0.33435699  0.28275804  0.35412390  1
  O  O76  1  0.13204004  0.79420636  0.53726071  1
  O  O77  1  0.85896808  0.45708293  0.54838740  1
  O  O78  1  0.70173143  0.19295035  0.60080198  1
  O  O79  1  0.22733505  0.19762469  0.20522159  1
