# generated using pymatgen
data_MnV2O7
_symmetry_space_group_name_H-M   'P 1'
_cell_length_a   5.84470971
_cell_length_b   6.99985841
_cell_length_c   7.91020030
_cell_angle_alpha   79.92399176
_cell_angle_beta   82.01299185
_cell_angle_gamma   74.96264278
_symmetry_Int_Tables_number   1
_chemical_formula_structural   MnV2O7
_chemical_formula_sum   'Mn2 V4 O14'
_cell_volume   306.22774687
_cell_formula_units_Z   2
loop_
 _symmetry_equiv_pos_site_id
 _symmetry_equiv_pos_as_xyz
  1  'x, y, z'
loop_
 _atom_site_type_symbol
 _atom_site_label
 _atom_site_symmetry_multiplicity
 _atom_site_fract_x
 _atom_site_fract_y
 _atom_site_fract_z
 _atom_site_occupancy
  Mn  Mn0  1  0.91241603  0.65739149  0.65276508  1
  Mn  Mn1  1  0.08758397  0.34260851  0.34723492  1
  V  V2  1  0.90105036  0.14955836  0.76140824  1
  V  V3  1  0.09894964  0.85044164  0.23859176  1
  V  V4  1  0.30242234  0.32474062  0.90810913  1
  V  V5  1  0.69757766  0.67525938  0.09189087  1
  O  O6  1  0.60752135  0.18608208  0.87013427  1
  O  O7  1  0.39247865  0.81391792  0.12986573  1
  O  O8  1  0.11418055  0.16065943  0.90434852  1
  O  O9  1  0.88581945  0.83934057  0.09565148  1
  O  O10  1  0.91678761  0.34277533  0.59288543  1
  O  O11  1  0.08321239  0.65722467  0.40711457  1
  O  O12  1  0.97511771  0.93026694  0.68779144  1
  O  O13  1  0.02488229  0.06973306  0.31220856  1
  O  O14  1  0.22483126  0.51909960  0.74953145  1
  O  O15  1  0.77516874  0.48090040  0.25046855  1
  O  O16  1  0.24726181  0.40355805  0.10502245  1
  O  O17  1  0.75273819  0.59644195  0.89497755  1
  O  O18  1  0.63497435  0.76181880  0.57194430  1
  O  O19  1  0.36502565  0.23818120  0.42805570  1
