# generated using pymatgen
data_CdI2
_symmetry_space_group_name_H-M   'P 1'
_cell_length_a   4.34505880
_cell_length_b   4.34505907
_cell_length_c   80.92837923
_cell_angle_alpha   90.00000000
_cell_angle_beta   90.00000000
_cell_angle_gamma   119.99999797
_symmetry_Int_Tables_number   1
_chemical_formula_structural   CdI2
_chemical_formula_sum   'Cd11 I22'
_cell_volume   1323.19187659
_cell_formula_units_Z   11
loop_
 _symmetry_equiv_pos_site_id
 _symmetry_equiv_pos_as_xyz
  1  'x, y, z'
loop_
 _atom_site_type_symbol
 _atom_site_label
 _atom_site_symmetry_multiplicity
 _atom_site_fract_x
 _atom_site_fract_y
 _atom_site_fract_z
 _atom_site_occupancy
  Cd  Cd0  1  0.33333300  0.66666700  0.84089650  1
  Cd  Cd1  1  0.66666700  0.33333300  0.20454040  1
  Cd  Cd2  1  0.66666700  0.33333300  0.02273331  1
  Cd  Cd3  1  0.33333300  0.66666700  0.11365861  1
  Cd  Cd4  1  0.66666700  0.33333300  0.38639196  1
  Cd  Cd5  1  0.33333300  0.66666700  0.29545890  1
  Cd  Cd6  1  0.33333300  0.66666700  0.56817928  1
  Cd  Cd7  1  0.66666700  0.33333300  0.47727741  1
  Cd  Cd8  1  0.33333300  0.66666700  0.93180766  1
  Cd  Cd9  1  0.66666700  0.33333300  0.74999225  1
  Cd  Cd10  1  0.33333300  0.66666700  0.65906523  1
  I  I11  1  0.00000000  0.00000000  0.09226941  1
  I  I12  1  0.66666700  0.33333300  0.86227983  1
  I  I13  1  0.66666700  0.33333300  0.68044556  1
  I  I14  1  0.00000000  0.00000000  0.45589081  1
  I  I15  1  0.33333300  0.66666700  0.40776892  1
  I  I16  1  0.00000000  0.00000000  0.18316535  1
  I  I17  1  0.00000000  0.00000000  0.63769662  1
  I  I18  1  0.66666700  0.33333300  0.95317556  1
  I  I19  1  0.00000000  0.00000000  0.72860484  1
  I  I20  1  0.00000000  0.00000000  0.54681012  1
  I  I21  1  0.33333300  0.66666700  0.77136488  1
  I  I22  1  0.00000000  0.00000000  0.81953029  1
  I  I23  1  0.33333300  0.66666700  0.04411191  1
  I  I24  1  0.66666700  0.33333300  0.58953868  1
  I  I25  1  0.33333300  0.66666700  0.22590914  1
  I  I26  1  0.00000000  0.00000000  0.91040226  1
  I  I27  1  0.00000000  0.00000000  0.27409286  1
  I  I28  1  0.00000000  0.00000000  0.00138941  1
  I  I29  1  0.00000000  0.00000000  0.36502064  1
  I  I30  1  0.66666700  0.33333300  0.13503238  1
  I  I31  1  0.66666700  0.33333300  0.31684726  1
  I  I32  1  0.33333300  0.66666700  0.49865175  1
