# generated using pymatgen
data_Sr(HO)2
_symmetry_space_group_name_H-M   'P 1'
_cell_length_a   10.07212428
_cell_length_b   6.07787963
_cell_length_c   3.99687089
_cell_angle_alpha   90.00000000
_cell_angle_beta   90.00000000
_cell_angle_gamma   90.00000000
_symmetry_Int_Tables_number   1
_chemical_formula_structural   Sr(HO)2
_chemical_formula_sum   'Sr4 H8 O8'
_cell_volume   244.67708074
_cell_formula_units_Z   4
loop_
 _symmetry_equiv_pos_site_id
 _symmetry_equiv_pos_as_xyz
  1  'x, y, z'
loop_
 _atom_site_type_symbol
 _atom_site_label
 _atom_site_symmetry_multiplicity
 _atom_site_fract_x
 _atom_site_fract_y
 _atom_site_fract_z
 _atom_site_occupancy
  Sr  Sr0  1  0.65878206  0.40348235  0.25000000  1
  Sr  Sr1  1  0.15878206  0.09651765  0.25000000  1
  Sr  Sr2  1  0.33952762  0.58982997  0.75000000  1
  Sr  Sr3  1  0.83952762  0.91017003  0.75000000  1
  H  H4  1  0.90895970  0.32393886  0.25000000  1
  H  H5  1  0.40895970  0.17606114  0.25000000  1
  H  H6  1  0.09190471  0.68556348  0.75000000  1
  H  H7  1  0.59190471  0.81443652  0.75000000  1
  H  H8  1  0.96130585  0.66113368  0.25000000  1
  H  H9  1  0.46130585  0.83886632  0.25000000  1
  H  H10  1  0.03340399  0.37612374  0.75000000  1
  H  H11  1  0.53340399  0.12387626  0.75000000  1
  O  O12  1  0.89542169  0.16376407  0.25000000  1
  O  O13  1  0.39542169  0.33623593  0.25000000  1
  O  O14  1  0.09929263  0.84707274  0.75000000  1
  O  O15  1  0.59929263  0.65292726  0.75000000  1
  O  O16  1  0.86463974  0.64487055  0.25000000  1
  O  O17  1  0.36463974  0.85512945  0.25000000  1
  O  O18  1  0.13057201  0.36665331  0.75000000  1
  O  O19  1  0.63057201  0.13334669  0.75000000  1
