# generated using pymatgen
data_CdI2
_symmetry_space_group_name_H-M   'P 1'
_cell_length_a   4.34475138
_cell_length_b   4.34475165
_cell_length_c   80.96423967
_cell_angle_alpha   90.00000000
_cell_angle_beta   90.00000000
_cell_angle_gamma   119.99999794
_symmetry_Int_Tables_number   1
_chemical_formula_structural   CdI2
_chemical_formula_sum   'Cd11 I22'
_cell_volume   1323.59088943
_cell_formula_units_Z   11
loop_
 _symmetry_equiv_pos_site_id
 _symmetry_equiv_pos_as_xyz
  1  'x, y, z'
loop_
 _atom_site_type_symbol
 _atom_site_label
 _atom_site_symmetry_multiplicity
 _atom_site_fract_x
 _atom_site_fract_y
 _atom_site_fract_z
 _atom_site_occupancy
  Cd  Cd0  1  0.66666700  0.33333300  0.20454072  1
  Cd  Cd1  1  0.33333300  0.66666700  0.84089512  1
  Cd  Cd2  1  0.66666700  0.33333300  0.02273276  1
  Cd  Cd3  1  0.33333300  0.66666700  0.11365872  1
  Cd  Cd4  1  0.66666700  0.33333300  0.38639112  1
  Cd  Cd5  1  0.33333300  0.66666700  0.29545981  1
  Cd  Cd6  1  0.66666700  0.33333300  0.74998847  1
  Cd  Cd7  1  0.33333300  0.66666700  0.47728103  1
  Cd  Cd8  1  0.33333300  0.66666700  0.93180715  1
  Cd  Cd9  1  0.66666700  0.33333300  0.56817346  1
  Cd  Cd10  1  0.33333300  0.66666700  0.65906588  1
  I  I11  1  0.00000000  0.00000000  0.09227363  1
  I  I12  1  0.33333300  0.66666700  0.58953072  1
  I  I13  1  0.66666700  0.33333300  0.86227469  1
  I  I14  1  0.66666700  0.33333300  0.68044117  1
  I  I15  1  0.00000000  0.00000000  0.45589713  1
  I  I16  1  0.33333300  0.66666700  0.40776345  1
  I  I17  1  0.00000000  0.00000000  0.18316931  1
  I  I18  1  0.00000000  0.00000000  0.63770299  1
  I  I19  1  0.66666700  0.33333300  0.95317037  1
  I  I20  1  0.00000000  0.00000000  0.72860644  1
  I  I21  1  0.00000000  0.00000000  0.54680986  1
  I  I22  1  0.33333300  0.66666700  0.77135815  1
  I  I23  1  0.00000000  0.00000000  0.81953324  1
  I  I24  1  0.33333300  0.66666700  0.04410720  1
  I  I25  1  0.33333300  0.66666700  0.22591116  1
  I  I26  1  0.00000000  0.00000000  0.91041845  1
  I  I27  1  0.00000000  0.00000000  0.27410148  1
  I  I28  1  0.00000000  0.00000000  0.00139447  1
  I  I29  1  0.00000000  0.00000000  0.36502253  1
  I  I30  1  0.66666700  0.33333300  0.49864722  1
  I  I31  1  0.66666700  0.33333300  0.31684407  1
  I  I32  1  0.66666700  0.33333300  0.13502804  1
