# generated using pymatgen
data_Nb5As3
_symmetry_space_group_name_H-M   'P 1'
_cell_length_a   3.54066113
_cell_length_b   11.88626493
_cell_length_c   26.33092940
_cell_angle_alpha   89.99980299
_cell_angle_beta   90.00022118
_cell_angle_gamma   89.86708650
_symmetry_Int_Tables_number   1
_chemical_formula_structural   Nb5As3
_chemical_formula_sum   'Nb40 As24'
_cell_volume   1108.14040303
_cell_formula_units_Z   8
loop_
 _symmetry_equiv_pos_site_id
 _symmetry_equiv_pos_as_xyz
  1  'x, y, z'
loop_
 _atom_site_type_symbol
 _atom_site_label
 _atom_site_symmetry_multiplicity
 _atom_site_fract_x
 _atom_site_fract_y
 _atom_site_fract_z
 _atom_site_occupancy
  Nb  Nb0  1  0.75045085  0.91663201  0.03308836  1
  Nb  Nb1  1  0.74995756  0.43274037  0.89736204  1
  Nb  Nb2  1  0.74963494  0.78902020  0.37652018  1
  Nb  Nb3  1  0.24963479  0.28901972  0.12348188  1
  Nb  Nb4  1  0.24952162  0.55575004  0.34905270  1
  Nb  Nb5  1  0.74952068  0.05574933  0.15094626  1
  Nb  Nb6  1  0.24976341  0.88106921  0.72408413  1
  Nb  Nb7  1  0.24986152  0.64763682  0.63671781  1
  Nb  Nb8  1  0.24970771  0.80331041  0.95381697  1
  Nb  Nb9  1  0.25047932  0.94425067  0.84905374  1
  Nb  Nb10  1  0.75047838  0.44424996  0.65094730  1
  Nb  Nb11  1  0.25002504  0.39441133  0.99833827  1
  Nb  Nb12  1  0.24995829  0.53953813  0.82311728  1
  Nb  Nb13  1  0.74992831  0.84493690  0.23877863  1
  Nb  Nb14  1  0.25029413  0.69669115  0.45381295  1
  Nb  Nb15  1  0.24995703  0.93274026  0.60264646  1
  Nb  Nb16  1  0.74976344  0.38106715  0.77590949  1
  Nb  Nb17  1  0.75007077  0.65506319  0.73878326  1
  Nb  Nb18  1  0.25044892  0.41663219  0.46690211  1
  Nb  Nb19  1  0.74970587  0.30330885  0.54618705  1
  Nb  Nb20  1  0.75013848  0.35236318  0.36328219  1
  Nb  Nb21  1  0.75004171  0.46046187  0.17688272  1
  Nb  Nb22  1  0.25013894  0.85236263  0.13672183  1
  Nb  Nb23  1  0.74955108  0.58336781  0.53309789  1
  Nb  Nb24  1  0.25036506  0.21097980  0.62347982  1
  Nb  Nb25  1  0.25023656  0.61893285  0.22409051  1
  Nb  Nb26  1  0.25004280  0.96046001  0.32311453  1
  Nb  Nb27  1  0.24992923  0.34493681  0.26121674  1
  Nb  Nb28  1  0.25007169  0.15506310  0.76122137  1
  Nb  Nb29  1  0.75023659  0.11893079  0.27591587  1
  Nb  Nb30  1  0.24997634  0.10558849  0.49832881  1
  Nb  Nb31  1  0.24954915  0.08336799  0.96691164  1
  Nb  Nb32  1  0.25004244  0.56725963  0.10263796  1
  Nb  Nb33  1  0.74995720  0.03953999  0.67688547  1
  Nb  Nb34  1  0.75002366  0.89441151  0.50167119  1
  Nb  Nb35  1  0.75004297  0.06725974  0.39735354  1
  Nb  Nb36  1  0.74986106  0.14763737  0.86327817  1
  Nb  Nb37  1  0.74997496  0.60558867  0.00166173  1
  Nb  Nb38  1  0.75029229  0.19668959  0.04618303  1
  Nb  Nb39  1  0.75036521  0.71098028  0.87651812  1
  As  As40  1  0.74975844  0.55185128  0.42360867  1
  As  As41  1  0.25001483  0.30768478  0.84326759  1
  As  As42  1  0.24998603  0.19231433  0.34326828  1
  As  As43  1  0.25006077  0.74695949  0.30238042  1
  As  As44  1  0.25002775  0.00345765  0.22016992  1
  As  As45  1  0.24981548  0.58039892  0.92750122  1
  As  As46  1  0.75002607  0.50345872  0.27983640  1
  As  As47  1  0.75005902  0.24695884  0.19761591  1
  As  As48  1  0.75018452  0.41960108  0.07249878  1
  As  As49  1  0.25024156  0.44814872  0.57639133  1
  As  As50  1  0.25018637  0.91960156  0.42751231  1
  As  As51  1  0.25018536  0.74908644  0.04913718  1
  As  As52  1  0.24981104  0.75091478  0.54913458  1
  As  As53  1  0.24997393  0.49654128  0.72016360  1
  As  As54  1  0.75018896  0.24908522  0.45086542  1
  As  As55  1  0.24976076  0.05185144  0.07637713  1
  As  As56  1  0.74993923  0.25304051  0.69761958  1
  As  As57  1  0.74981363  0.08039844  0.57248769  1
  As  As58  1  0.75023924  0.94814856  0.92362287  1
  As  As59  1  0.74981464  0.25091356  0.95086282  1
  As  As60  1  0.74998517  0.69231522  0.15673241  1
  As  As61  1  0.75001397  0.80768567  0.65673172  1
  As  As62  1  0.24994098  0.75304116  0.80238409  1
  As  As63  1  0.74997225  0.99654235  0.77983008  1
