# generated using pymatgen
data_Gd2Br3
_symmetry_space_group_name_H-M   'P 1'
_cell_length_a   4.01327301
_cell_length_b   8.64166999
_cell_length_c   10.26559888
_cell_angle_alpha   70.75430917
_cell_angle_beta   78.58687331
_cell_angle_gamma   76.65858082
_symmetry_Int_Tables_number   1
_chemical_formula_structural   Gd2Br3
_chemical_formula_sum   'Gd4 Br6'
_cell_volume   324.16841423
_cell_formula_units_Z   2
loop_
 _symmetry_equiv_pos_site_id
 _symmetry_equiv_pos_as_xyz
  1  'x, y, z'
loop_
 _atom_site_type_symbol
 _atom_site_label
 _atom_site_symmetry_multiplicity
 _atom_site_fract_x
 _atom_site_fract_y
 _atom_site_fract_z
 _atom_site_occupancy
  Gd  Gd0  1  0.86184246  0.98206748  0.29040288  1
  Gd  Gd1  1  0.58237769  0.78936339  0.04761427  1
  Gd  Gd2  1  0.41762331  0.21063661  0.95238573  1
  Gd  Gd3  1  0.13815754  0.01793252  0.70959712  1
  Br  Br4  1  0.04497936  0.64446721  0.26413009  1
  Br  Br5  1  0.95502064  0.35553279  0.73586991  1
  Br  Br6  1  0.22615864  0.67224266  0.88051166  1
  Br  Br7  1  0.77384136  0.32775734  0.11948834  1
  Br  Br8  1  0.66190814  0.19023303  0.49231279  1
  Br  Br9  1  0.33809186  0.80976697  0.50768721  1
