# generated using pymatgen
data_CdI2
_symmetry_space_group_name_H-M   'P 1'
_cell_length_a   4.34408906
_cell_length_b   4.34408933
_cell_length_c   73.64844629
_cell_angle_alpha   90.00000000
_cell_angle_beta   90.00000000
_cell_angle_gamma   119.99999797
_symmetry_Int_Tables_number   1
_chemical_formula_structural   CdI2
_chemical_formula_sum   'Cd10 I20'
_cell_volume   1203.62637859
_cell_formula_units_Z   10
loop_
 _symmetry_equiv_pos_site_id
 _symmetry_equiv_pos_as_xyz
  1  'x, y, z'
loop_
 _atom_site_type_symbol
 _atom_site_label
 _atom_site_symmetry_multiplicity
 _atom_site_fract_x
 _atom_site_fract_y
 _atom_site_fract_z
 _atom_site_occupancy
  Cd  Cd0  1  0.66666700  0.33333300  0.52499918  1
  Cd  Cd1  1  0.66666700  0.33333300  0.22499632  1
  Cd  Cd2  1  0.66666700  0.33333300  0.72499638  1
  Cd  Cd3  1  0.00000000  0.00000000  0.82500344  1
  Cd  Cd4  1  0.66666700  0.33333300  0.42500815  1
  Cd  Cd5  1  0.00000000  0.00000000  0.92498839  1
  Cd  Cd6  1  0.66666700  0.33333300  0.02499965  1
  Cd  Cd7  1  0.00000000  0.00000000  0.32499833  1
  Cd  Cd8  1  0.00000000  0.00000000  0.12498812  1
  Cd  Cd9  1  0.00000000  0.00000000  0.62498746  1
  I  I10  1  0.00000000  0.00000000  0.20149911  1
  I  I11  1  0.33333300  0.66666700  0.44852477  1
  I  I12  1  0.33333300  0.66666700  0.94850167  1
  I  I13  1  0.66666700  0.33333300  0.10148057  1
  I  I14  1  0.66666700  0.33333300  0.90146989  1
  I  I15  1  0.33333300  0.66666700  0.34851826  1
  I  I16  1  0.00000000  0.00000000  0.40149960  1
  I  I17  1  0.33333300  0.66666700  0.04851807  1
  I  I18  1  0.66666700  0.33333300  0.30148564  1
  I  I19  1  0.33333300  0.66666700  0.54851771  1
  I  I20  1  0.66666700  0.33333300  0.60147883  1
  I  I21  1  0.33333300  0.66666700  0.14850416  1
  I  I22  1  0.33333300  0.66666700  0.24851622  1
  I  I23  1  0.00000000  0.00000000  0.00149640  1
  I  I24  1  0.00000000  0.00000000  0.70149932  1
  I  I25  1  0.33333300  0.66666700  0.84852061  1
  I  I26  1  0.33333300  0.66666700  0.64850415  1
  I  I27  1  0.66666700  0.33333300  0.80148724  1
  I  I28  1  0.33333300  0.66666700  0.74851604  1
  I  I29  1  0.00000000  0.00000000  0.50149632  1
