# generated using pymatgen
data_CdI2
_symmetry_space_group_name_H-M   'P 1'
_cell_length_a   4.34502257
_cell_length_b   4.34502284
_cell_length_c   73.61374559
_cell_angle_alpha   90.00000000
_cell_angle_beta   90.00000000
_cell_angle_gamma   119.99999798
_symmetry_Int_Tables_number   1
_chemical_formula_structural   CdI2
_chemical_formula_sum   'Cd10 I20'
_cell_volume   1203.57638314
_cell_formula_units_Z   10
loop_
 _symmetry_equiv_pos_site_id
 _symmetry_equiv_pos_as_xyz
  1  'x, y, z'
loop_
 _atom_site_type_symbol
 _atom_site_label
 _atom_site_symmetry_multiplicity
 _atom_site_fract_x
 _atom_site_fract_y
 _atom_site_fract_z
 _atom_site_occupancy
  Cd  Cd0  1  0.33333300  0.66666700  0.62498678  1
  Cd  Cd1  1  0.66666700  0.33333300  0.22499798  1
  Cd  Cd2  1  0.00000000  0.00000000  0.92498716  1
  Cd  Cd3  1  0.00000000  0.00000000  0.82500124  1
  Cd  Cd4  1  0.66666700  0.33333300  0.72500048  1
  Cd  Cd5  1  0.66666700  0.33333300  0.02499603  1
  Cd  Cd6  1  0.00000000  0.00000000  0.32499863  1
  Cd  Cd7  1  0.00000000  0.00000000  0.12499331  1
  Cd  Cd8  1  0.66666700  0.33333300  0.42500443  1
  Cd  Cd9  1  0.33333300  0.66666700  0.52500235  1
  I  I10  1  0.66666700  0.33333300  0.64850046  1
  I  I11  1  0.33333300  0.66666700  0.44852962  1
  I  I12  1  0.33333300  0.66666700  0.94850757  1
  I  I13  1  0.66666700  0.33333300  0.10146951  1
  I  I14  1  0.66666700  0.33333300  0.90146169  1
  I  I15  1  0.33333300  0.66666700  0.34852517  1
  I  I16  1  0.00000000  0.00000000  0.60147281  1
  I  I17  1  0.00000000  0.00000000  0.20149308  1
  I  I18  1  0.00000000  0.00000000  0.40149040  1
  I  I19  1  0.66666700  0.33333300  0.80147735  1
  I  I20  1  0.33333300  0.66666700  0.04852312  1
  I  I21  1  0.66666700  0.33333300  0.30147946  1
  I  I22  1  0.33333300  0.66666700  0.14852099  1
  I  I23  1  0.33333300  0.66666700  0.24852482  1
  I  I24  1  0.00000000  0.00000000  0.00148981  1
  I  I25  1  0.00000000  0.00000000  0.70149556  1
  I  I26  1  0.33333300  0.66666700  0.84852644  1
  I  I27  1  0.66666700  0.33333300  0.54852584  1
  I  I28  1  0.33333300  0.66666700  0.74852453  1
  I  I29  1  0.00000000  0.00000000  0.50149337  1
