# generated using pymatgen
data_BaLi2P2O7
_symmetry_space_group_name_H-M   'P 1'
_cell_length_a   7.15397912
_cell_length_b   7.15397913
_cell_length_c   13.99632207
_cell_angle_alpha   90.33502423
_cell_angle_beta   90.33502425
_cell_angle_gamma   119.34855317
_symmetry_Int_Tables_number   1
_chemical_formula_structural   BaLi2P2O7
_chemical_formula_sum   'Ba4 Li8 P8 O28'
_cell_volume   624.34464844
_cell_formula_units_Z   4
loop_
 _symmetry_equiv_pos_site_id
 _symmetry_equiv_pos_as_xyz
  1  'x, y, z'
loop_
 _atom_site_type_symbol
 _atom_site_label
 _atom_site_symmetry_multiplicity
 _atom_site_fract_x
 _atom_site_fract_y
 _atom_site_fract_z
 _atom_site_occupancy
  Li  Li0  1  0.23411063  0.76588937  0.25000000  1
  Li  Li1  1  0.76588937  0.23411063  0.75000000  1
  Li  Li2  1  0.76743412  0.23256588  0.25000000  1
  Li  Li3  1  0.23256588  0.76743412  0.75000000  1
  Li  Li4  1  0.19944237  0.73073847  0.49121262  1
  Li  Li5  1  0.26926153  0.80055763  0.00878738  1
  Li  Li6  1  0.80055763  0.26926153  0.50878738  1
  Li  Li7  1  0.73073847  0.19944237  0.99121262  1
  O  O8  1  0.23667802  0.00910575  0.43724668  1
  O  O9  1  0.99089425  0.76332198  0.06275332  1
  O  O10  1  0.76332198  0.99089425  0.56275332  1
  O  O11  1  0.00910575  0.23667802  0.93724668  1
  O  O12  1  0.28315036  0.06060121  0.80114661  1
  O  O13  1  0.93939879  0.71684964  0.69885339  1
  O  O14  1  0.71684964  0.93939879  0.19885339  1
  O  O15  1  0.06060121  0.28315036  0.30114661  1
  O  O16  1  0.36429350  0.11288358  0.97958769  1
  O  O17  1  0.88711642  0.63570650  0.52041231  1
  O  O18  1  0.63570650  0.88711642  0.02041231  1
  O  O19  1  0.11288358  0.36429350  0.47958769  1
  O  O20  1  0.66685798  0.31934706  0.86547273  1
  O  O21  1  0.68065294  0.33314202  0.63452727  1
  O  O22  1  0.33314202  0.68065294  0.13452727  1
  O  O23  1  0.31934706  0.66685798  0.36547273  1
  O  O24  1  0.38853058  0.42579960  0.87801060  1
  O  O25  1  0.57420040  0.61146942  0.62198940  1
  O  O26  1  0.61146942  0.57420040  0.12198940  1
  O  O27  1  0.42579960  0.38853058  0.37801060  1
  O  O28  1  0.18975882  0.63594899  0.88696980  1
  O  O29  1  0.36405101  0.81024118  0.61303020  1
  O  O30  1  0.81024118  0.36405101  0.11303020  1
  O  O31  1  0.63594899  0.18975882  0.38696980  1
  O  O32  1  0.08051282  0.34709920  0.76094185  1
  O  O33  1  0.65290080  0.91948718  0.73905815  1
  O  O34  1  0.91948718  0.65290080  0.23905815  1
  O  O35  1  0.34709920  0.08051282  0.26094185  1
  P  P36  1  0.40945280  0.14966368  0.36528525  1
  P  P37  1  0.85033632  0.59054720  0.13471475  1
  P  P38  1  0.59054720  0.85033632  0.63471475  1
  P  P39  1  0.14966368  0.40945280  0.86528525  1
  P  P40  1  0.21391087  0.42425893  0.38053469  1
  P  P41  1  0.57574107  0.78608913  0.11946531  1
  P  P42  1  0.78608913  0.57574107  0.61946531  1
  P  P43  1  0.42425893  0.21391087  0.88053469  1
  Ba  Ba44  1  0.78828312  0.83939160  0.37859375  1
  Ba  Ba45  1  0.16060840  0.21171688  0.12140625  1
  Ba  Ba46  1  0.21171688  0.16060840  0.62140625  1
  Ba  Ba47  1  0.83939160  0.78828312  0.87859375  1
