# generated using pymatgen
data_Zn(HO)2
_symmetry_space_group_name_H-M   'P 1'
_cell_length_a   4.79899759
_cell_length_b   8.80524970
_cell_length_c   5.05596163
_cell_angle_alpha   90.00000000
_cell_angle_beta   89.62375012
_cell_angle_gamma   90.00000000
_symmetry_Int_Tables_number   1
_chemical_formula_structural   Zn(HO)2
_chemical_formula_sum   'Zn4 H8 O8'
_cell_volume   213.64198954
_cell_formula_units_Z   4
loop_
 _symmetry_equiv_pos_site_id
 _symmetry_equiv_pos_as_xyz
  1  'x, y, z'
loop_
 _atom_site_type_symbol
 _atom_site_label
 _atom_site_symmetry_multiplicity
 _atom_site_fract_x
 _atom_site_fract_y
 _atom_site_fract_z
 _atom_site_occupancy
  Zn  Zn0  1  0.68011901  0.63350206  0.11003096  1
  Zn  Zn1  1  0.81381205  0.38179315  0.60500959  1
  Zn  Zn2  1  0.18618795  0.88179315  0.89499041  1
  Zn  Zn3  1  0.31988099  0.13350206  0.38996904  1
  H  H4  1  0.48068542  0.59752590  0.57718011  1
  H  H5  1  0.00537809  0.41365193  0.07103326  1
  H  H6  1  0.99462191  0.91365193  0.42896674  1
  H  H7  1  0.51931458  0.09752590  0.92281989  1
  H  H8  1  0.72196300  0.90910253  0.12263706  1
  H  H9  1  0.78625747  0.10480107  0.61179294  1
  H  H10  1  0.21374253  0.60480107  0.88820706  1
  H  H11  1  0.27803700  0.40910253  0.37736294  1
  O  O12  1  0.54950018  0.52749037  0.43308112  1
  O  O13  1  0.93782242  0.48568214  0.93065759  1
  O  O14  1  0.06217758  0.98568214  0.56934241  1
  O  O15  1  0.45049982  0.02749037  0.06691888  1
  O  O16  1  0.87394431  0.83202725  0.15031128  1
  O  O17  1  0.63144015  0.18008460  0.64200874  1
  O  O18  1  0.36855985  0.68008460  0.85799126  1
  O  O19  1  0.12605569  0.33202725  0.34968872  1
