# generated using pymatgen
data_La(HO)3
_symmetry_space_group_name_H-M   'P 1'
_cell_length_a   6.52606016
_cell_length_b   6.52600513
_cell_length_c   3.87328767
_cell_angle_alpha   90.00000000
_cell_angle_beta   90.00000000
_cell_angle_gamma   119.99776313
_symmetry_Int_Tables_number   1
_chemical_formula_structural   La(HO)3
_chemical_formula_sum   'La2 H6 O6'
_cell_volume   142.86263555
_cell_formula_units_Z   2
loop_
 _symmetry_equiv_pos_site_id
 _symmetry_equiv_pos_as_xyz
  1  'x, y, z'
loop_
 _atom_site_type_symbol
 _atom_site_label
 _atom_site_symmetry_multiplicity
 _atom_site_fract_x
 _atom_site_fract_y
 _atom_site_fract_z
 _atom_site_occupancy
  La  La0  1  0.33335619  0.66671511  0.30908717  1
  La  La1  1  0.66664381  0.33328489  0.80908717  1
  H  H2  1  0.87258547  0.72476829  0.37124530  1
  H  H3  1  0.85219398  0.12742891  0.37126379  1
  H  H4  1  0.27523187  0.14782913  0.37123362  1
  H  H5  1  0.12741453  0.27523171  0.87124530  1
  H  H6  1  0.14780602  0.87257109  0.87126379  1
  H  H7  1  0.72476813  0.85217087  0.87123362  1
  O  O8  1  0.92219028  0.61490838  0.28690349  1
  O  O9  1  0.69273183  0.07781416  0.28692986  1
  O  O10  1  0.38509429  0.30728139  0.28691077  1
  O  O11  1  0.07780972  0.38509162  0.78690349  1
  O  O12  1  0.30726817  0.92218584  0.78692986  1
  O  O13  1  0.61490571  0.69271861  0.78691077  1
