# generated using pymatgen
data_CdI2
_symmetry_space_group_name_H-M   'P 1'
_cell_length_a   4.34614625
_cell_length_b   4.34614652
_cell_length_c   66.13781235
_cell_angle_alpha   90.00000000
_cell_angle_beta   90.00000000
_cell_angle_gamma   119.99999791
_symmetry_Int_Tables_number   1
_chemical_formula_structural   CdI2
_chemical_formula_sum   'Cd9 I18'
_cell_volume   1081.90509459
_cell_formula_units_Z   9
loop_
 _symmetry_equiv_pos_site_id
 _symmetry_equiv_pos_as_xyz
  1  'x, y, z'
loop_
 _atom_site_type_symbol
 _atom_site_label
 _atom_site_symmetry_multiplicity
 _atom_site_fract_x
 _atom_site_fract_y
 _atom_site_fract_z
 _atom_site_occupancy
  Cd  Cd0  1  0.66666700  0.33333300  0.58332009  1
  Cd  Cd1  1  0.66666700  0.33333300  0.80557630  1
  Cd  Cd2  1  0.00000000  0.00000000  0.47223848  1
  Cd  Cd3  1  0.66666700  0.33333300  0.02777850  1
  Cd  Cd4  1  0.00000000  0.00000000  0.13890637  1
  Cd  Cd5  1  0.00000000  0.00000000  0.36108104  1
  Cd  Cd6  1  0.66666700  0.33333300  0.69443451  1
  Cd  Cd7  1  0.66666700  0.33333300  0.91665793  1
  Cd  Cd8  1  0.66666700  0.33333300  0.24998522  1
  I  I9  1  0.66666700  0.33333300  0.33498581  1
  I  I10  1  0.33333300  0.66666700  0.72054456  1
  I  I11  1  0.00000000  0.00000000  0.55722077  1
  I  I12  1  0.00000000  0.00000000  0.77947443  1
  I  I13  1  0.00000000  0.00000000  0.22388711  1
  I  I14  1  0.33333300  0.66666700  0.27609107  1
  I  I15  1  0.00000000  0.00000000  0.66834473  1
  I  I16  1  0.33333300  0.66666700  0.05388398  1
  I  I17  1  0.33333300  0.66666700  0.60941751  1
  I  I18  1  0.33333300  0.66666700  0.94275315  1
  I  I19  1  0.66666700  0.33333300  0.11282035  1
  I  I20  1  0.00000000  0.00000000  0.00169953  1
  I  I21  1  0.66666700  0.33333300  0.44613342  1
  I  I22  1  0.33333300  0.66666700  0.16500058  1
  I  I23  1  0.33333300  0.66666700  0.38717022  1
  I  I24  1  0.33333300  0.66666700  0.83168636  1
  I  I25  1  0.33333300  0.66666700  0.49835158  1
  I  I26  1  0.00000000  0.00000000  0.89055640  1
