# generated using pymatgen
data_SeO2
_symmetry_space_group_name_H-M   'P 1'
_cell_length_a   5.20778980
_cell_length_b   8.67629218
_cell_length_c   8.77264948
_cell_angle_alpha   90.00000000
_cell_angle_beta   90.00000000
_cell_angle_gamma   90.00000000
_symmetry_Int_Tables_number   1
_chemical_formula_structural   SeO2
_chemical_formula_sum   'Se8 O16'
_cell_volume   396.38607781
_cell_formula_units_Z   8
loop_
 _symmetry_equiv_pos_site_id
 _symmetry_equiv_pos_as_xyz
  1  'x, y, z'
loop_
 _atom_site_type_symbol
 _atom_site_label
 _atom_site_symmetry_multiplicity
 _atom_site_fract_x
 _atom_site_fract_y
 _atom_site_fract_z
 _atom_site_occupancy
  Se  Se0  1  -0.00000000  0.78123647  0.86436091  1
  Se  Se1  1  -0.00000000  0.71876353  0.36436091  1
  Se  Se2  1  0.50000000  0.87731726  0.21332393  1
  Se  Se3  1  0.50000000  0.62268274  0.71332393  1
  Se  Se4  1  0.50000000  0.12268274  0.78667607  1
  Se  Se5  1  -0.00000000  0.28123647  0.63563909  1
  Se  Se6  1  -0.00000000  0.21876353  0.13563909  1
  Se  Se7  1  0.50000000  0.37731726  0.28667607  1
  O  O8  1  0.50000000  0.06514555  0.18285722  1
  O  O9  1  -0.00000000  0.67913310  0.54767528  1
  O  O10  1  0.24976393  0.86985053  0.36053263  1
  O  O11  1  0.75023607  0.86985053  0.36053263  1
  O  O12  1  0.50000000  0.43485445  0.68285722  1
  O  O13  1  0.75023607  0.36985053  0.13946737  1
  O  O14  1  0.24976393  0.36985053  0.13946737  1
  O  O15  1  -0.00000000  0.32086690  0.45232472  1
  O  O16  1  0.50000000  0.56514555  0.31714278  1
  O  O17  1  0.50000000  0.93485445  0.81714278  1
  O  O18  1  0.75023607  0.13014947  0.63946737  1
  O  O19  1  0.24976393  0.63014947  0.86053263  1
  O  O20  1  -0.00000000  0.17913310  0.95232472  1
  O  O21  1  0.24976393  0.13014947  0.63946737  1
  O  O22  1  0.75023607  0.63014947  0.86053263  1
  O  O23  1  -0.00000000  0.82086690  0.04767528  1
