# generated using pymatgen
data_Rb2ZnBr4
_symmetry_space_group_name_H-M   'P 1'
_cell_length_a   7.78697986
_cell_length_b   9.92611177
_cell_length_c   13.70025113
_cell_angle_alpha   90.00000000
_cell_angle_beta   89.74483928
_cell_angle_gamma   90.00000000
_symmetry_Int_Tables_number   1
_chemical_formula_structural   Rb2ZnBr4
_chemical_formula_sum   'Rb8 Zn4 Br16'
_cell_volume   1058.94263427
_cell_formula_units_Z   4
loop_
 _symmetry_equiv_pos_site_id
 _symmetry_equiv_pos_as_xyz
  1  'x, y, z'
loop_
 _atom_site_type_symbol
 _atom_site_label
 _atom_site_symmetry_multiplicity
 _atom_site_fract_x
 _atom_site_fract_y
 _atom_site_fract_z
 _atom_site_occupancy
  Rb  Rb0  1  0.76199632  0.87716712  0.89685611  1
  Rb  Rb1  1  0.25383479  0.48540965  0.82784112  1
  Rb  Rb2  1  0.24616521  0.98540965  0.67215888  1
  Rb  Rb3  1  0.75383479  0.01459035  0.32784112  1
  Rb  Rb4  1  0.26199632  0.62283288  0.39685611  1
  Rb  Rb5  1  0.74616521  0.51459035  0.17215888  1
  Rb  Rb6  1  0.73800368  0.37716712  0.60314389  1
  Rb  Rb7  1  0.23800368  0.12283288  0.10314389  1
  Zn  Zn8  1  0.74920810  0.77382936  0.57673569  1
  Zn  Zn9  1  0.25079190  0.22617064  0.42326431  1
  Zn  Zn10  1  0.24920810  0.72617064  0.07673569  1
  Zn  Zn11  1  0.75079190  0.27382936  0.92326431  1
  Br  Br12  1  0.24133669  0.48259007  0.08384861  1
  Br  Br13  1  0.25866331  0.98259007  0.41615139  1
  Br  Br14  1  0.29892741  0.82028308  0.91407873  1
  Br  Br15  1  0.20107259  0.32028308  0.58592127  1
  Br  Br16  1  0.97839064  0.82212255  0.13484455  1
  Br  Br17  1  0.47839064  0.67787745  0.63484455  1
  Br  Br18  1  0.75866331  0.51740993  0.91615139  1
  Br  Br19  1  0.74133669  0.01740993  0.58384861  1
  Br  Br20  1  0.02160936  0.17787745  0.86515545  1
  Br  Br21  1  0.79892741  0.67971692  0.41407873  1
  Br  Br22  1  0.97869223  0.69546449  0.68269583  1
  Br  Br23  1  0.52160936  0.32212255  0.36515545  1
  Br  Br24  1  0.52130777  0.19546449  0.81730417  1
  Br  Br25  1  0.70107259  0.17971692  0.08592127  1
  Br  Br26  1  0.02130777  0.30453551  0.31730417  1
  Br  Br27  1  0.47869223  0.80453551  0.18269583  1
