# generated using pymatgen
data_La(HO)3
_symmetry_space_group_name_H-M   'P 1'
_cell_length_a   6.70775452
_cell_length_b   6.66465269
_cell_length_c   3.83223213
_cell_angle_alpha   90.00000000
_cell_angle_beta   90.00000000
_cell_angle_gamma   120.68617606
_symmetry_Int_Tables_number   1
_chemical_formula_structural   La(HO)3
_chemical_formula_sum   'La2 H6 O6'
_cell_volume   147.33045579
_cell_formula_units_Z   2
loop_
 _symmetry_equiv_pos_site_id
 _symmetry_equiv_pos_as_xyz
  1  'x, y, z'
loop_
 _atom_site_type_symbol
 _atom_site_label
 _atom_site_symmetry_multiplicity
 _atom_site_fract_x
 _atom_site_fract_y
 _atom_site_fract_z
 _atom_site_occupancy
  La  La0  1  0.33371034  0.66933721  0.25000000  1
  La  La1  1  0.66088868  0.33649431  0.75000000  1
  H  H2  1  0.86183277  0.71880398  0.25000000  1
  H  H3  1  0.85739318  0.16446022  0.25000000  1
  H  H4  1  0.28124467  0.14296961  0.25000000  1
  H  H5  1  0.13360425  0.28229554  0.75000000  1
  H  H6  1  0.14177255  0.85670338  0.75000000  1
  H  H7  1  0.72060723  0.86148577  0.75000000  1
  O  O8  1  0.91147200  0.60456495  0.25000000  1
  O  O9  1  0.69056853  0.09771229  0.25000000  1
  O  O10  1  0.39209852  0.31043542  0.25000000  1
  O  O11  1  0.08815333  0.39960425  0.75000000  1
  O  O12  1  0.30772777  0.91345793  0.75000000  1
  O  O13  1  0.60386819  0.69565115  0.75000000  1
