# generated using pymatgen
data_H4SO5
_symmetry_space_group_name_H-M   'P 1'
_cell_length_a   7.35282259
_cell_length_b   7.04972954
_cell_length_c   8.25968897
_cell_angle_alpha   90.00000000
_cell_angle_beta   107.36692751
_cell_angle_gamma   90.00000000
_symmetry_Int_Tables_number   1
_chemical_formula_structural   H4SO5
_chemical_formula_sum   'H16 S4 O20'
_cell_volume   408.62645939
_cell_formula_units_Z   4
loop_
 _symmetry_equiv_pos_site_id
 _symmetry_equiv_pos_as_xyz
  1  'x, y, z'
loop_
 _atom_site_type_symbol
 _atom_site_label
 _atom_site_symmetry_multiplicity
 _atom_site_fract_x
 _atom_site_fract_y
 _atom_site_fract_z
 _atom_site_occupancy
  H  H0  1  0.77641919  0.38431467  0.71838428  1
  H  H1  1  0.77641919  0.11568533  0.21838428  1
  H  H2  1  0.38753926  0.18459670  0.38825453  1
  H  H3  1  0.58628397  0.68197937  0.08592950  1
  H  H4  1  0.58628397  0.81802063  0.58592950  1
  H  H5  1  0.38753926  0.31540330  0.88825453  1
  H  H6  1  0.06830924  0.69737028  0.07916064  1
  H  H7  1  0.06830924  0.80262972  0.57916064  1
  H  H8  1  0.91484228  0.30309555  0.90651520  1
  H  H9  1  0.73734047  0.16658489  0.78844165  1
  H  H10  1  0.25036326  0.66688182  0.69364616  1
  H  H11  1  0.20813087  0.88115663  0.76758765  1
  H  H12  1  0.20813087  0.61884337  0.26758765  1
  H  H13  1  0.25036326  0.83311818  0.19364616  1
  H  H14  1  0.91484228  0.19690445  0.40651520  1
  H  H15  1  0.73734047  0.33341511  0.28844165  1
  S  S16  1  0.24367992  0.34628548  0.53311931  1
  S  S17  1  0.74019251  0.84415385  0.95136241  1
  S  S18  1  0.74019251  0.65584615  0.45136241  1
  S  S19  1  0.24367992  0.15371452  0.03311931  1
  O  O20  1  0.16431433  0.01293191  0.90067729  1
  O  O21  1  0.81757262  0.51862358  0.58721187  1
  O  O22  1  0.81757262  0.98137642  0.08721187  1
  O  O23  1  0.16431433  0.48706809  0.40067729  1
  O  O24  1  0.32086304  0.43508938  0.70206337  1
  O  O25  1  0.67064826  0.93509993  0.78294606  1
  O  O26  1  0.67064826  0.56490007  0.28294606  1
  O  O27  1  0.32086304  0.06491062  0.20206337  1
  O  O28  1  0.42529051  0.25218668  0.50158211  1
  O  O29  1  0.55268458  0.75246880  0.97502687  1
  O  O30  1  0.55268458  0.74753120  0.47502687  1
  O  O31  1  0.42529051  0.24781332  0.00158211  1
  O  O32  1  0.10701728  0.19377845  0.53166969  1
  O  O33  1  0.87494009  0.68859505  0.95699343  1
  O  O34  1  0.87494009  0.81140495  0.45699343  1
  O  O35  1  0.10701728  0.30622155  0.03166969  1
  O  O36  1  0.77840598  0.30130319  0.82005873  1
  O  O37  1  0.20594836  0.80113759  0.66421223  1
  O  O38  1  0.20594836  0.69886241  0.16421223  1
  O  O39  1  0.77840598  0.19869681  0.32005873  1
