# generated using pymatgen
data_Cu6PbSe2Cl5O8
_symmetry_space_group_name_H-M   'P 1'
_cell_length_a   6.26914622
_cell_length_b   9.86081292
_cell_length_c   14.07210443
_cell_angle_alpha   78.50995574
_cell_angle_beta   77.12934197
_cell_angle_gamma   71.46512543
_symmetry_Int_Tables_number   1
_chemical_formula_structural   Cu6PbSe2Cl5O8
_chemical_formula_sum   'Cu12 Pb2 Se4 Cl10 O16'
_cell_volume   796.28170170
_cell_formula_units_Z   2
loop_
 _symmetry_equiv_pos_site_id
 _symmetry_equiv_pos_as_xyz
  1  'x, y, z'
loop_
 _atom_site_type_symbol
 _atom_site_label
 _atom_site_symmetry_multiplicity
 _atom_site_fract_x
 _atom_site_fract_y
 _atom_site_fract_z
 _atom_site_occupancy
  Cu  Cu0  1  0.65185999  0.53038018  0.16589984  1
  Cu  Cu1  1  0.06924333  0.32695696  0.53455638  1
  Cu  Cu2  1  0.93075667  0.67304304  0.46544362  1
  Cu  Cu3  1  0.43963240  0.16805910  0.95267609  1
  Cu  Cu4  1  0.73900656  0.77209661  0.25678007  1
  Cu  Cu5  1  0.56036760  0.83194090  0.04732391  1
  Cu  Cu6  1  0.26099344  0.22790339  0.74321993  1
  Cu  Cu7  1  0.50000000  0.50000000  0.50000000  1
  Cu  Cu8  1  0.34814001  0.46961982  0.83410016  1
  Cu  Cu9  1  0.23211676  0.77209661  0.25678007  1
  Cu  Cu10  1  0.00000000  0.00000000  0.00000000  1
  Cu  Cu11  1  0.76788324  0.22790339  0.74321993  1
  Pb  Pb12  1  0.20613420  0.94836360  0.63936800  1
  Pb  Pb13  1  0.79386580  0.05163640  0.36063200  1
  Se  Se14  1  0.87339343  0.54424520  0.70896793  1
  Se  Se15  1  0.12660657  0.45575480  0.29103207  1
  Se  Se16  1  0.35768658  0.08494245  0.19968439  1
  Se  Se17  1  0.64231342  0.91505755  0.80031561  1
  Cl  Cl18  1  0.69521118  0.61481707  0.99476056  1
  Cl  Cl19  1  0.41372481  0.72340886  0.44914152  1
  Cl  Cl20  1  0.06310110  0.79357065  0.08022714  1
  Cl  Cl21  1  0.93689890  0.20642935  0.91977286  1
  Cl  Cl22  1  0.21000743  0.13940313  0.44058201  1
  Cl  Cl23  1  0.78999257  0.86059687  0.55941799  1
  Cl  Cl24  1  0.76202710  0.28843992  0.18750588  1
  Cl  Cl25  1  0.23797290  0.71156008  0.81249412  1
  Cl  Cl26  1  0.30478882  0.38518293  0.00523944  1
  Cl  Cl27  1  0.58627519  0.27659114  0.55085848  1
  O  O28  1  0.16818391  0.98392504  0.25049934  1
  O  O29  1  0.87487165  0.56150683  0.25244553  1
  O  O30  1  0.05234370  0.47803432  0.41727827  1
  O  O31  1  0.31117598  0.56150683  0.25244553  1
  O  O32  1  0.12512835  0.43849317  0.74755447  1
  O  O33  1  0.59739171  0.98392504  0.25049934  1
  O  O34  1  0.68882402  0.43849317  0.74755447  1
  O  O35  1  0.83181609  0.01607496  0.74950066  1
  O  O36  1  0.40260829  0.01607496  0.74950066  1
  O  O37  1  0.44160658  0.03694942  0.07983742  1
  O  O38  1  0.06710260  0.20532211  0.66047269  1
  O  O39  1  0.94765630  0.52196568  0.58272173  1
  O  O40  1  0.55839342  0.96305058  0.92016258  1
  O  O41  1  0.45997712  0.26086192  0.81918384  1
  O  O42  1  0.54002288  0.73913808  0.18081616  1
  O  O43  1  0.93289740  0.79467789  0.33952731  1
