# generated using pymatgen
data_SnSO4
_symmetry_space_group_name_H-M   'P 1'
_cell_length_a   5.45829205
_cell_length_b   7.25298688
_cell_length_c   9.14395055
_cell_angle_alpha   89.91547638
_cell_angle_beta   88.96872300
_cell_angle_gamma   91.24934921
_symmetry_Int_Tables_number   1
_chemical_formula_structural   SnSO4
_chemical_formula_sum   'Sn4 S4 O16'
_cell_volume   361.85382171
_cell_formula_units_Z   4
loop_
 _symmetry_equiv_pos_site_id
 _symmetry_equiv_pos_as_xyz
  1  'x, y, z'
loop_
 _atom_site_type_symbol
 _atom_site_label
 _atom_site_symmetry_multiplicity
 _atom_site_fract_x
 _atom_site_fract_y
 _atom_site_fract_z
 _atom_site_occupancy
  Sn  Sn0  1  0.30203897  0.71525271  0.71577711  1
  Sn  Sn1  1  0.69796103  0.28474729  0.28422289  1
  Sn  Sn2  1  0.78947607  0.21964584  0.78529844  1
  Sn  Sn3  1  0.21052393  0.78035416  0.21470156  1
  S  S4  1  0.77001597  0.68180111  0.92461571  1
  S  S5  1  0.73129110  0.81733404  0.42555414  1
  S  S6  1  0.26870890  0.18266596  0.57444586  1
  S  S7  1  0.22998403  0.31819889  0.07538429  1
  O  O8  1  0.23067585  0.02106920  0.67517788  1
  O  O9  1  0.49192234  0.29196030  0.61788639  1
  O  O10  1  0.25150594  0.47232797  0.18480897  1
  O  O11  1  0.95329246  0.69922842  0.40404924  1
  O  O12  1  0.04670754  0.30077158  0.59595076  1
  O  O13  1  0.00243707  0.20637398  0.10929835  1
  O  O14  1  0.74849406  0.52767203  0.81519103  1
  O  O15  1  0.70590961  0.87011543  0.58011459  1
  O  O16  1  0.76932415  0.97893080  0.32482212  1
  O  O17  1  0.50807766  0.70803970  0.38211361  1
  O  O18  1  0.99756293  0.79362602  0.89070165  1
  O  O19  1  0.22747630  0.38238522  0.92353813  1
  O  O20  1  0.54964960  0.80077692  0.90148064  1
  O  O21  1  0.45035040  0.19922308  0.09851936  1
  O  O22  1  0.77252370  0.61761478  0.07646187  1
  O  O23  1  0.29409039  0.12988457  0.41988541  1
