# generated using pymatgen
data_Ce10S19
_symmetry_space_group_name_H-M   'P 1'
_cell_length_a   8.93011840
_cell_length_b   8.93011840
_cell_length_c   15.99080895
_cell_angle_alpha   90.00000000
_cell_angle_beta   90.00000000
_cell_angle_gamma   90.00000000
_symmetry_Int_Tables_number   1
_chemical_formula_structural   Ce10S19
_chemical_formula_sum   'Ce20 S38'
_cell_volume   1275.21927541
_cell_formula_units_Z   2
loop_
 _symmetry_equiv_pos_site_id
 _symmetry_equiv_pos_as_xyz
  1  'x, y, z'
loop_
 _atom_site_type_symbol
 _atom_site_label
 _atom_site_symmetry_multiplicity
 _atom_site_fract_x
 _atom_site_fract_y
 _atom_site_fract_z
 _atom_site_occupancy
  Ce  Ce0  1  0.75000000  0.25000000  0.38684499  1
  Ce  Ce1  1  0.84865367  0.95917155  0.62203967  1
  Ce  Ce2  1  0.65134633  0.54082845  0.62203967  1
  Ce  Ce3  1  0.44458385  0.14641268  0.60184186  1
  Ce  Ce4  1  0.45917155  0.15134633  0.12203967  1
  Ce  Ce5  1  0.25000000  0.75000000  0.11315501  1
  Ce  Ce6  1  0.04082845  0.34865367  0.12203967  1
  Ce  Ce7  1  0.25000000  0.75000000  0.61315501  1
  Ce  Ce8  1  0.15134633  0.04082845  0.37796033  1
  Ce  Ce9  1  0.14641268  0.05541615  0.89815814  1
  Ce  Ce10  1  0.55541615  0.85358732  0.39815814  1
  Ce  Ce11  1  0.54082845  0.84865367  0.87796033  1
  Ce  Ce12  1  0.94458385  0.64641268  0.39815814  1
  Ce  Ce13  1  0.75000000  0.25000000  0.88684499  1
  Ce  Ce14  1  0.05541615  0.35358732  0.60184186  1
  Ce  Ce15  1  0.85358732  0.94458385  0.10184186  1
  Ce  Ce16  1  0.95917155  0.65134633  0.87796033  1
  Ce  Ce17  1  0.34865367  0.45917155  0.37796033  1
  Ce  Ce18  1  0.35358732  0.44458385  0.89815814  1
  Ce  Ce19  1  0.64641268  0.55541615  0.10184186  1
  S  S20  1  0.04868241  0.34844917  0.42449484  1
  S  S21  1  0.55360607  0.85203804  0.06278227  1
  S  S22  1  0.35203804  0.44639393  0.56278227  1
  S  S23  1  0.19424126  0.52841792  0.74918334  1
  S  S24  1  0.47158208  0.69424126  0.24918334  1
  S  S25  1  0.30575874  0.97158208  0.74918334  1
  S  S26  1  0.80575874  0.47158208  0.25081666  1
  S  S27  1  0.75000000  0.25000000  0.06734438  1
  S  S28  1  0.45131759  0.15155083  0.42449484  1
  S  S29  1  0.14796196  0.05360607  0.56278227  1
  S  S30  1  0.64796196  0.55360607  0.43721773  1
  S  S31  1  0.61363517  0.07741383  0.75006861  1
  S  S32  1  0.07741383  0.88636483  0.74993139  1
  S  S33  1  0.42258617  0.61363517  0.74993139  1
  S  S34  1  0.02841792  0.80575874  0.24918334  1
  S  S35  1  0.57741383  0.38636483  0.25006861  1
  S  S36  1  0.95131759  0.65155083  0.57550516  1
  S  S37  1  0.88636483  0.42258617  0.75006861  1
  S  S38  1  0.69424126  0.02841792  0.25081666  1
  S  S39  1  0.25000000  0.75000000  0.43265562  1
  S  S40  1  0.34844917  0.45131759  0.07550516  1
  S  S41  1  0.38636483  0.92258617  0.24993139  1
  S  S42  1  0.75000000  0.75000000  0.75000000  1
  S  S43  1  0.54868241  0.84844917  0.57550516  1
  S  S44  1  0.52841792  0.30575874  0.75081666  1
  S  S45  1  0.92258617  0.11363517  0.25006861  1
  S  S46  1  0.65155083  0.54868241  0.92449484  1
  S  S47  1  0.44639393  0.14796196  0.93721773  1
  S  S48  1  0.94639393  0.64796196  0.06278227  1
  S  S49  1  0.05360607  0.35203804  0.93721773  1
  S  S50  1  0.84844917  0.95131759  0.92449484  1
  S  S51  1  0.25000000  0.25000000  0.25000000  1
  S  S52  1  0.97158208  0.19424126  0.75081666  1
  S  S53  1  0.85203804  0.94639393  0.43721773  1
  S  S54  1  0.11363517  0.57741383  0.24993139  1
  S  S55  1  0.15155083  0.04868241  0.07550516  1
  S  S56  1  0.25000000  0.75000000  0.93265562  1
  S  S57  1  0.75000000  0.25000000  0.56734438  1
