# generated using pymatgen
data_Cs2MgH4
_symmetry_space_group_name_H-M   'P 1'
_cell_length_a   8.65690776
_cell_length_b   11.70448524
_cell_length_c   6.63419727
_cell_angle_alpha   90.00000000
_cell_angle_beta   90.00000000
_cell_angle_gamma   90.00000000
_symmetry_Int_Tables_number   1
_chemical_formula_structural   Cs2MgH4
_chemical_formula_sum   'Cs8 Mg4 H16'
_cell_volume   672.20771045
_cell_formula_units_Z   4
loop_
 _symmetry_equiv_pos_site_id
 _symmetry_equiv_pos_as_xyz
  1  'x, y, z'
loop_
 _atom_site_type_symbol
 _atom_site_label
 _atom_site_symmetry_multiplicity
 _atom_site_fract_x
 _atom_site_fract_y
 _atom_site_fract_z
 _atom_site_occupancy
  Cs  Cs0  1  0.15888373  0.08190576  0.25000000  1
  Cs  Cs1  1  0.65888373  0.41809424  0.25000000  1
  Cs  Cs2  1  0.84111627  0.91809424  0.75000000  1
  Cs  Cs3  1  0.34111627  0.58190576  0.75000000  1
  Cs  Cs4  1  0.49162400  0.80940100  0.25000000  1
  Cs  Cs5  1  0.99162400  0.69059900  0.25000000  1
  Cs  Cs6  1  0.50837600  0.19059900  0.75000000  1
  Cs  Cs7  1  0.00837600  0.30940100  0.75000000  1
  Mg  Mg8  1  0.73580988  0.08849054  0.25000000  1
  Mg  Mg9  1  0.23580988  0.41150946  0.25000000  1
  Mg  Mg10  1  0.26419012  0.91150946  0.75000000  1
  Mg  Mg11  1  0.76419012  0.58849054  0.75000000  1
  H  H12  1  0.52185327  0.08728713  0.25000000  1
  H  H13  1  0.02185327  0.41271287  0.25000000  1
  H  H14  1  0.47814673  0.91271287  0.75000000  1
  H  H15  1  0.97814673  0.58728713  0.75000000  1
  H  H16  1  0.81815051  0.94035289  0.25000000  1
  H  H17  1  0.31815051  0.55964711  0.25000000  1
  H  H18  1  0.18184949  0.05964711  0.75000000  1
  H  H19  1  0.68184949  0.44035289  0.75000000  1
  H  H20  1  0.81280850  0.15937228  0.02053368  1
  H  H21  1  0.31280850  0.34062772  0.47946632  1
  H  H22  1  0.18719150  0.84062772  0.52053368  1
  H  H23  1  0.68719150  0.65937228  0.97946632  1
  H  H24  1  0.18719150  0.84062772  0.97946632  1
  H  H25  1  0.68719150  0.65937228  0.52053368  1
  H  H26  1  0.81280850  0.15937228  0.47946632  1
  H  H27  1  0.31280850  0.34062772  0.02053368  1
