# generated using pymatgen
data_Na5Co2O5
_symmetry_space_group_name_H-M   'P 1'
_cell_length_a   8.17064143
_cell_length_b   8.55517788
_cell_length_c   11.50046471
_cell_angle_alpha   102.89822573
_cell_angle_beta   90.00000000
_cell_angle_gamma   118.52395183
_symmetry_Int_Tables_number   1
_chemical_formula_structural   Na5Co2O5
_chemical_formula_sum   'Na20 Co8 O20'
_cell_volume   683.14326998
_cell_formula_units_Z   4
loop_
 _symmetry_equiv_pos_site_id
 _symmetry_equiv_pos_as_xyz
  1  'x, y, z'
loop_
 _atom_site_type_symbol
 _atom_site_label
 _atom_site_symmetry_multiplicity
 _atom_site_fract_x
 _atom_site_fract_y
 _atom_site_fract_z
 _atom_site_occupancy
  Na  Na0  1  0.00046151  0.67184485  0.96011335  1
  Na  Na1  1  0.59697866  0.97564258  0.37673896  1
  Na  Na2  1  0.67138334  0.67184485  0.46011335  1
  Na  Na3  1  0.62133608  0.02435742  0.12326104  1
  Na  Na4  1  0.37866392  0.97564258  0.87673896  1
  Na  Na5  1  0.20174280  0.21303003  0.81000554  1
  Na  Na6  1  0.40302134  0.02435742  0.62326104  1
  Na  Na7  1  0.01128724  0.21303003  0.31000554  1
  Na  Na8  1  0.20635435  0.60313584  0.48310592  1
  Na  Na9  1  0.99953849  0.32815515  0.03988665  1
  Na  Na10  1  0.22217211  0.78807911  0.21186124  1
  Na  Na11  1  0.79364565  0.39686416  0.51689408  1
  Na  Na12  1  0.98871276  0.78696997  0.68999446  1
  Na  Na13  1  0.60321850  0.39686416  0.01689408  1
  Na  Na14  1  0.43409300  0.21192089  0.28813876  1
  Na  Na15  1  0.39678150  0.60313584  0.98310592  1
  Na  Na16  1  0.32861666  0.32815515  0.53988665  1
  Na  Na17  1  0.77782789  0.21192089  0.78813876  1
  Na  Na18  1  0.79825720  0.78696997  0.18999446  1
  Na  Na19  1  0.56590700  0.78807911  0.71186124  1
  Co  Co20  1  0.08454979  0.90069587  0.44308068  1
  Co  Co21  1  0.85556008  0.46954898  0.26807443  1
  Co  Co22  1  0.18385392  0.09930413  0.05691932  1
  Co  Co23  1  0.38601110  0.53045102  0.23192557  1
  Co  Co24  1  0.91545021  0.09930413  0.55691932  1
  Co  Co25  1  0.81614608  0.90069587  0.94308068  1
  Co  Co26  1  0.61398890  0.46954898  0.76807443  1
  Co  Co27  1  0.14443992  0.53045102  0.73192557  1
  O  O28  1  0.31576975  0.99301885  0.08994271  1
  O  O29  1  0.95714417  0.65002688  0.42882969  1
  O  O30  1  0.32275090  0.00698115  0.41005729  1
  O  O31  1  0.35171768  0.44630666  0.36618850  1
  O  O32  1  0.64828232  0.55369334  0.63381150  1
  O  O33  1  0.09458898  0.44630666  0.86618850  1
  O  O34  1  0.51470445  0.25078305  0.80745802  1
  O  O35  1  0.69288272  0.65002688  0.92882969  1
  O  O36  1  0.48529555  0.74921695  0.19254198  1
  O  O37  1  0.73607860  0.25078305  0.30745802  1
  O  O38  1  0.06034670  0.95774449  0.89230992  1
  O  O39  1  0.30711728  0.34997312  0.07117031  1
  O  O40  1  0.26392140  0.74921695  0.69254198  1
  O  O41  1  0.93965330  0.04225551  0.10769008  1
  O  O42  1  0.67724910  0.99301885  0.58994271  1
  O  O43  1  0.10260221  0.04225551  0.60769008  1
  O  O44  1  0.90541102  0.55369334  0.13381150  1
  O  O45  1  0.89739779  0.95774449  0.39230992  1
  O  O46  1  0.68423025  0.00698115  0.91005729  1
  O  O47  1  0.04285583  0.34997312  0.57117031  1
