# generated using pymatgen
data_KMnF3
_symmetry_space_group_name_H-M   'P 1'
_cell_length_a   6.04495368
_cell_length_b   8.54043379
_cell_length_c   6.01210997
_cell_angle_alpha   90.00000000
_cell_angle_beta   89.97188926
_cell_angle_gamma   90.00000000
_symmetry_Int_Tables_number   1
_chemical_formula_structural   KMnF3
_chemical_formula_sum   'K4 Mn4 F12'
_cell_volume   310.38431833
_cell_formula_units_Z   4
loop_
 _symmetry_equiv_pos_site_id
 _symmetry_equiv_pos_as_xyz
  1  'x, y, z'
loop_
 _atom_site_type_symbol
 _atom_site_label
 _atom_site_symmetry_multiplicity
 _atom_site_fract_x
 _atom_site_fract_y
 _atom_site_fract_z
 _atom_site_occupancy
  K  K0  1  0.50413219  0.25000000  0.99567695  1
  K  K1  1  0.49586781  0.75000000  0.00432305  1
  K  K2  1  0.00783969  0.25000000  0.49698195  1
  K  K3  1  0.99216031  0.75000000  0.50301805  1
  Mn  Mn4  1  0.00000000  0.50000000  0.00000000  1
  Mn  Mn5  1  0.00000000  0.00000000  0.00000000  1
  Mn  Mn6  1  0.50000000  0.50000000  0.50000000  1
  Mn  Mn7  1  0.50000000  0.00000000  0.50000000  1
  F  F8  1  0.98890078  0.25000000  0.00313927  1
  F  F9  1  0.01109922  0.75000000  0.99686073  1
  F  F10  1  0.50269267  0.25000000  0.49878730  1
  F  F11  1  0.49730733  0.75000000  0.50121270  1
  F  F12  1  0.23617899  0.49349259  0.73565387  1
  F  F13  1  0.76382101  0.50650741  0.26434613  1
  F  F14  1  0.76382101  0.99349259  0.26434613  1
  F  F15  1  0.23617899  0.00650741  0.73565387  1
  F  F16  1  0.26421788  0.49729450  0.23517994  1
  F  F17  1  0.73578212  0.50270550  0.76482006  1
  F  F18  1  0.73578212  0.99729450  0.76482006  1
  F  F19  1  0.26421788  0.00270550  0.23517994  1
