# generated using pymatgen
data_Pr7FeI12
_symmetry_space_group_name_H-M   'P 1'
_cell_length_a   10.02342229
_cell_length_b   10.02352550
_cell_length_c   10.02339971
_cell_angle_alpha   107.26693483
_cell_angle_beta   107.26672957
_cell_angle_gamma   107.26703744
_symmetry_Int_Tables_number   1
_chemical_formula_structural   Pr7FeI12
_chemical_formula_sum   'Pr7 Fe1 I12'
_cell_volume   832.50021686
_cell_formula_units_Z   1
loop_
 _symmetry_equiv_pos_site_id
 _symmetry_equiv_pos_as_xyz
  1  'x, y, z'
loop_
 _atom_site_type_symbol
 _atom_site_label
 _atom_site_symmetry_multiplicity
 _atom_site_fract_x
 _atom_site_fract_y
 _atom_site_fract_z
 _atom_site_occupancy
  Pr  Pr0  1  0.52981881  0.80082507  0.59893591  1
  Pr  Pr1  1  0.59893083  0.52981510  0.80081771  1
  Pr  Pr2  1  0.47017903  0.19917679  0.40106814  1
  Pr  Pr3  1  0.40107260  0.47018722  0.19918563  1
  Pr  Pr4  1  0.00000210  0.99999633  0.00000009  1
  Pr  Pr5  1  0.80082581  0.59893290  0.52981849  1
  Pr  Pr6  1  0.19917973  0.40107022  0.47018135  1
  Fe  Fe7  1  0.50000581  0.50000413  0.50000090  1
  I  I8  1  0.18497231  0.72961972  0.57562071  1
  I  I9  1  0.89162576  0.97204259  0.65667211  1
  I  I10  1  0.72961686  0.57562132  0.18497186  1
  I  I11  1  0.34332799  0.10837473  0.02795840  1
  I  I12  1  0.97204249  0.65667052  0.89162552  1
  I  I13  1  0.65667019  0.89162608  0.97204138  1
  I  I14  1  0.10837246  0.02795780  0.34332950  1
  I  I15  1  0.42437692  0.81502603  0.27037997  1
  I  I16  1  0.02795701  0.34332625  0.10837232  1
  I  I17  1  0.81502627  0.27037864  0.42437756  1
  I  I18  1  0.57562023  0.18497139  0.72961793  1
  I  I19  1  0.27037677  0.42437718  0.81502452  1
