# generated using pymatgen
data_AgNO3
_symmetry_space_group_name_H-M   'P 1'
_cell_length_a   7.08627881
_cell_length_b   7.44728288
_cell_length_c   10.29958040
_cell_angle_alpha   90.00000000
_cell_angle_beta   90.00000000
_cell_angle_gamma   90.00000000
_symmetry_Int_Tables_number   1
_chemical_formula_structural   AgNO3
_chemical_formula_sum   'Ag8 N8 O24'
_cell_volume   543.54514174
_cell_formula_units_Z   8
loop_
 _symmetry_equiv_pos_site_id
 _symmetry_equiv_pos_as_xyz
  1  'x, y, z'
loop_
 _atom_site_type_symbol
 _atom_site_label
 _atom_site_symmetry_multiplicity
 _atom_site_fract_x
 _atom_site_fract_y
 _atom_site_fract_z
 _atom_site_occupancy
  Ag  Ag0  1  0.86763323  0.48697163  0.37082819  1
  Ag  Ag1  1  0.13236677  0.98697163  0.12917181  1
  Ag  Ag2  1  0.63236677  0.98697163  0.37082819  1
  Ag  Ag3  1  0.86763323  0.01302837  0.87082819  1
  Ag  Ag4  1  0.36763323  0.48697163  0.12917181  1
  Ag  Ag5  1  0.13236677  0.51302837  0.62917181  1
  Ag  Ag6  1  0.63236677  0.51302837  0.87082819  1
  Ag  Ag7  1  0.36763323  0.01302837  0.62917181  1
  N  N8  1  0.12772769  0.86171368  0.40725887  1
  N  N9  1  0.87227231  0.13828632  0.59274113  1
  N  N10  1  0.62772769  0.63828632  0.59274113  1
  N  N11  1  0.87227231  0.36171368  0.09274113  1
  N  N12  1  0.37227231  0.36171368  0.40725887  1
  N  N13  1  0.12772769  0.63828632  0.90725887  1
  N  N14  1  0.62772769  0.86171368  0.09274113  1
  N  N15  1  0.37227231  0.13828632  0.90725887  1
  O  O16  1  0.25049409  0.97321266  0.36822326  1
  O  O17  1  0.98630892  0.20643458  0.67423428  1
  O  O18  1  0.51369108  0.70643458  0.67423428  1
  O  O19  1  0.74950591  0.02678734  0.63177674  1
  O  O20  1  0.51369108  0.79356542  0.17423428  1
  O  O21  1  0.01369108  0.70643458  0.82576572  1
  O  O22  1  0.38235552  0.17756296  0.02724034  1
  O  O23  1  0.01369108  0.79356542  0.32576572  1
  O  O24  1  0.48630892  0.20643458  0.82576572  1
  O  O25  1  0.61764448  0.82243704  0.97275966  1
  O  O26  1  0.25049409  0.52678734  0.86822326  1
  O  O27  1  0.24950591  0.47321266  0.36822326  1
  O  O28  1  0.75049409  0.97321266  0.13177674  1
  O  O29  1  0.48630892  0.29356542  0.32576572  1
  O  O30  1  0.98630892  0.29356542  0.17423428  1
  O  O31  1  0.75049409  0.52678734  0.63177674  1
  O  O32  1  0.38235552  0.32243704  0.52724034  1
  O  O33  1  0.24950591  0.02678734  0.86822326  1
  O  O34  1  0.88235552  0.17756296  0.47275966  1
  O  O35  1  0.11764448  0.82243704  0.52724034  1
  O  O36  1  0.74950591  0.47321266  0.13177674  1
  O  O37  1  0.61764448  0.67756296  0.47275966  1
  O  O38  1  0.88235552  0.32243704  0.97275966  1
  O  O39  1  0.11764448  0.67756296  0.02724034  1
