# generated using pymatgen
data_Cs3HgI5
_symmetry_space_group_name_H-M   'P 1'
_cell_length_a   10.40034782
_cell_length_b   18.93609719
_cell_length_c   19.33909443
_cell_angle_alpha   90.00000000
_cell_angle_beta   90.00000000
_cell_angle_gamma   90.00000000
_symmetry_Int_Tables_number   1
_chemical_formula_structural   Cs3HgI5
_chemical_formula_sum   'Cs24 Hg8 I40'
_cell_volume   3808.67987972
_cell_formula_units_Z   8
loop_
 _symmetry_equiv_pos_site_id
 _symmetry_equiv_pos_as_xyz
  1  'x, y, z'
loop_
 _atom_site_type_symbol
 _atom_site_label
 _atom_site_symmetry_multiplicity
 _atom_site_fract_x
 _atom_site_fract_y
 _atom_site_fract_z
 _atom_site_occupancy
  Cs  Cs0  1  0.91372893  0.59502680  0.89828953  1
  Cs  Cs1  1  0.92768416  0.35575725  0.68897381  1
  Cs  Cs2  1  0.91372893  0.09502680  0.60171047  1
  Cs  Cs3  1  0.41372893  0.40497320  0.60171047  1
  Cs  Cs4  1  0.58627107  0.59502680  0.39828953  1
  Cs  Cs5  1  0.42768416  0.64424275  0.81102619  1
  Cs  Cs6  1  0.42768416  0.14424275  0.68897381  1
  Cs  Cs7  1  0.08343255  0.68018536  0.57186167  1
  Cs  Cs8  1  0.58343255  0.81981464  0.57186167  1
  Cs  Cs9  1  0.08627107  0.40497320  0.10171047  1
  Cs  Cs10  1  0.58343255  0.31981464  0.92813833  1
  Cs  Cs11  1  0.91656745  0.81981464  0.07186167  1
  Cs  Cs12  1  0.07231584  0.14424275  0.18897381  1
  Cs  Cs13  1  0.08343255  0.18018536  0.92813833  1
  Cs  Cs14  1  0.41656745  0.68018536  0.07186167  1
  Cs  Cs15  1  0.07231584  0.64424275  0.31102619  1
  Cs  Cs16  1  0.57231584  0.35575725  0.18897381  1
  Cs  Cs17  1  0.58627107  0.09502680  0.10171047  1
  Cs  Cs18  1  0.08627107  0.90497320  0.39828953  1
  Cs  Cs19  1  0.92768416  0.85575725  0.81102619  1
  Cs  Cs20  1  0.57231584  0.85575725  0.31102619  1
  Cs  Cs21  1  0.41656745  0.18018536  0.42813833  1
  Cs  Cs22  1  0.41372893  0.90497320  0.89828953  1
  Cs  Cs23  1  0.91656745  0.31981464  0.42813833  1
  Hg  Hg24  1  0.80874992  0.56615718  0.15641016  1
  Hg  Hg25  1  0.80874992  0.06615718  0.34358984  1
  Hg  Hg26  1  0.69125008  0.06615718  0.84358984  1
  Hg  Hg27  1  0.69125008  0.56615718  0.65641016  1
  Hg  Hg28  1  0.19125008  0.43384282  0.84358984  1
  Hg  Hg29  1  0.30874992  0.43384282  0.34358984  1
  Hg  Hg30  1  0.19125008  0.93384282  0.65641016  1
  Hg  Hg31  1  0.30874992  0.93384282  0.15641016  1
  I  I32  1  0.32985572  0.75178594  0.42905625  1
  I  I33  1  0.33213148  0.99672787  0.54798117  1
  I  I34  1  0.36350722  0.52792001  0.23099648  1
  I  I35  1  0.45299343  0.61510662  0.59665660  1
  I  I36  1  0.63649278  0.97207999  0.73099648  1
  I  I37  1  0.33213148  0.49672787  0.95201883  1
  I  I38  1  0.86350722  0.97207999  0.23099648  1
  I  I39  1  0.67014428  0.74821406  0.92905625  1
  I  I40  1  0.45299343  0.11510662  0.90334340  1
  I  I41  1  0.17014428  0.25178594  0.57094375  1
  I  I42  1  0.66786852  0.50327213  0.04798117  1
  I  I43  1  0.86350722  0.47207999  0.26900352  1
  I  I44  1  0.66786852  0.00327213  0.45201883  1
  I  I45  1  0.95299343  0.88489338  0.59665660  1
  I  I46  1  0.13649278  0.02792001  0.76900352  1
  I  I47  1  0.36350722  0.02792001  0.26900352  1
  I  I48  1  0.83213148  0.00327213  0.95201883  1
  I  I49  1  0.04700657  0.11510662  0.40334340  1
  I  I50  1  0.79971801  0.69313968  0.71171212  1
  I  I51  1  0.13649278  0.52792001  0.73099648  1
  I  I52  1  0.82985572  0.74821406  0.42905625  1
  I  I53  1  0.95299343  0.38489338  0.90334340  1
  I  I54  1  0.67014428  0.24821406  0.57094375  1
  I  I55  1  0.79971801  0.19313968  0.78828788  1
  I  I56  1  0.20028199  0.80686032  0.21171212  1
  I  I57  1  0.16786852  0.99672787  0.04798117  1
  I  I58  1  0.04700657  0.61510662  0.09665660  1
  I  I59  1  0.16786852  0.49672787  0.45201883  1
  I  I60  1  0.29971801  0.80686032  0.71171212  1
  I  I61  1  0.29971801  0.30686032  0.78828788  1
  I  I62  1  0.83213148  0.50327213  0.54798117  1
  I  I63  1  0.32985572  0.25178594  0.07094375  1
  I  I64  1  0.63649278  0.47207999  0.76900352  1
  I  I65  1  0.82985572  0.24821406  0.07094375  1
  I  I66  1  0.54700657  0.88489338  0.09665660  1
  I  I67  1  0.17014428  0.75178594  0.92905625  1
  I  I68  1  0.54700657  0.38489338  0.40334340  1
  I  I69  1  0.70028199  0.69313968  0.21171212  1
  I  I70  1  0.20028199  0.30686032  0.28828788  1
  I  I71  1  0.70028199  0.19313968  0.28828788  1
