# generated using pymatgen
data_KCuPO4
_symmetry_space_group_name_H-M   'P 1'
_cell_length_a   6.79977287
_cell_length_b   6.84221587
_cell_length_c   18.06872568
_cell_angle_alpha   90.00702405
_cell_angle_beta   89.97779288
_cell_angle_gamma   89.99924311
_symmetry_Int_Tables_number   1
_chemical_formula_structural   KCuPO4
_chemical_formula_sum   'K8 Cu8 P8 O32'
_cell_volume   840.65667748
_cell_formula_units_Z   8
loop_
 _symmetry_equiv_pos_site_id
 _symmetry_equiv_pos_as_xyz
  1  'x, y, z'
loop_
 _atom_site_type_symbol
 _atom_site_label
 _atom_site_symmetry_multiplicity
 _atom_site_fract_x
 _atom_site_fract_y
 _atom_site_fract_z
 _atom_site_occupancy
  K  K0  1  0.52915293  0.98816758  0.67645723  1
  K  K1  1  0.47075890  0.01186790  0.32355254  1
  K  K2  1  0.52921378  0.51183099  0.17646448  1
  K  K3  1  0.47082746  0.48813587  0.82353636  1
  K  K4  1  0.97080660  0.01184816  0.17645278  1
  K  K5  1  0.02924367  0.51179326  0.32356193  1
  K  K6  1  0.97087018  0.48814268  0.67644360  1
  K  K7  1  0.02918186  0.98818804  0.82353699  1
  Cu  Cu8  1  0.20177839  0.22485385  0.99334058  1
  Cu  Cu9  1  0.70158414  0.22460906  0.50667422  1
  Cu  Cu10  1  0.79842388  0.77525654  0.00665108  1
  Cu  Cu11  1  0.70163314  0.27508226  0.00663356  1
  Cu  Cu12  1  0.29844307  0.77534590  0.49333242  1
  Cu  Cu13  1  0.79846939  0.72461667  0.50665566  1
  Cu  Cu14  1  0.20149635  0.27526873  0.49334679  1
  Cu  Cu15  1  0.29847294  0.72468619  0.99337871  1
  P  P16  1  0.96081015  0.98065895  0.39658689  1
  P  P17  1  0.53907898  0.01913330  0.89659347  1
  P  P18  1  0.53919275  0.48077196  0.39660001  1
  P  P19  1  0.46103329  0.51931407  0.60341020  1
  P  P20  1  0.03898365  0.01923036  0.60340689  1
  P  P21  1  0.03907358  0.48085234  0.10340374  1
  P  P22  1  0.96100972  0.51931683  0.89657431  1
  P  P23  1  0.46082908  0.98069522  0.10342208  1
  O  O24  1  0.38938014  0.65243862  0.40196277  1
  O  O25  1  0.25487502  0.03269425  0.07018794  1
  O  O26  1  0.88937096  0.65264983  0.09806572  1
  O  O27  1  0.96320239  0.30550118  0.05170787  1
  O  O28  1  0.03691302  0.69440907  0.94854951  1
  O  O29  1  0.11056567  0.15249476  0.40189679  1
  O  O30  1  0.61050645  0.15248241  0.09803805  1
  O  O31  1  0.24503487  0.53278485  0.07002598  1
  O  O32  1  0.55864438  0.08886744  0.81692467  1
  O  O33  1  0.46365098  0.30554915  0.44855862  1
  O  O34  1  0.75484726  0.03283154  0.42984607  1
  O  O35  1  0.61061259  0.34747225  0.59802213  1
  O  O36  1  0.38933737  0.84739369  0.90199864  1
  O  O37  1  0.05868258  0.08895005  0.68311993  1
  O  O38  1  0.94137654  0.58897725  0.81684688  1
  O  O39  1  0.05874010  0.41110497  0.18308714  1
  O  O40  1  0.25493374  0.46748637  0.57016643  1
  O  O41  1  0.96299253  0.19429134  0.55151321  1
  O  O42  1  0.94125065  0.91096302  0.31687264  1
  O  O43  1  0.44135811  0.58895724  0.68314050  1
  O  O44  1  0.75504535  0.46755404  0.92994609  1
  O  O45  1  0.74515493  0.96728153  0.92986386  1
  O  O46  1  0.88933965  0.84739291  0.59803838  1
  O  O47  1  0.03659809  0.80559232  0.44854526  1
  O  O48  1  0.74516511  0.53283680  0.42984307  1
  O  O49  1  0.55874141  0.41105141  0.31686112  1
  O  O50  1  0.44131722  0.91100477  0.18313573  1
  O  O51  1  0.46326984  0.19457690  0.94829348  1
  O  O52  1  0.53641066  0.80546388  0.05139764  1
  O  O53  1  0.11047936  0.34742174  0.90194487  1
  O  O54  1  0.53677045  0.69444788  0.55145194  1
  O  O55  1  0.24506472  0.96740986  0.57013056  1
