# generated using pymatgen
data_P6N7Cl9
_symmetry_space_group_name_H-M   'P 1'
_cell_length_a   6.59397065
_cell_length_b   10.67786900
_cell_length_c   30.65109853
_cell_angle_alpha   98.91425316
_cell_angle_beta   90.00000000
_cell_angle_gamma   107.98500856
_symmetry_Int_Tables_number   1
_chemical_formula_structural   P6N7Cl9
_chemical_formula_sum   'P24 N28 Cl36'
_cell_volume   2025.25408219
_cell_formula_units_Z   4
loop_
 _symmetry_equiv_pos_site_id
 _symmetry_equiv_pos_as_xyz
  1  'x, y, z'
loop_
 _atom_site_type_symbol
 _atom_site_label
 _atom_site_symmetry_multiplicity
 _atom_site_fract_x
 _atom_site_fract_y
 _atom_site_fract_z
 _atom_site_occupancy
  P  P0  1  0.51678918  0.18807236  0.88816373  1
  P  P1  1  0.52174670  0.95855960  0.92344682  1
  P  P2  1  0.64380773  0.29684864  0.64166709  1
  P  P3  1  0.73917907  0.27964093  0.05159274  1
  P  P4  1  0.48321082  0.81192764  0.11183627  1
  P  P5  1  0.26081176  0.73120872  0.77157089  1
  P  P6  1  0.35619227  0.70315136  0.35833291  1
  P  P7  1  0.55391837  0.03305649  0.67405773  1
  P  P8  1  0.47913811  0.03305649  0.17405773  1
  P  P9  1  0.44608163  0.96694351  0.32594227  1
  P  P10  1  0.26082093  0.72035907  0.94840726  1
  P  P11  1  0.52086189  0.96694351  0.82594227  1
  P  P12  1  0.47825330  0.04144040  0.07655318  1
  P  P13  1  0.67128318  0.18807236  0.38816373  1
  P  P14  1  0.65304091  0.29684864  0.14166709  1
  P  P15  1  0.52960304  0.26879128  0.72842911  1
  P  P16  1  0.45953814  0.72035907  0.44840726  1
  P  P17  1  0.32871682  0.81192764  0.61183627  1
  P  P18  1  0.47039696  0.73120872  0.27157089  1
  P  P19  1  0.73918824  0.26879128  0.22842911  1
  P  P20  1  0.34695909  0.70315136  0.85833291  1
  P  P21  1  0.54046186  0.27964093  0.55159274  1
  P  P22  1  0.56318710  0.04144040  0.57655318  1
  P  P23  1  0.43681290  0.95855960  0.42344682  1
  N  N24  1  0.56886258  0.35167441  0.60158334  1
  N  N25  1  0.51695549  0.10676036  0.92711795  1
  N  N26  1  0.48304451  0.89323964  0.07288205  1
  N  N27  1  0.41019513  0.89323964  0.57288205  1
  N  N28  1  0.20790706  0.65658647  0.81317007  1
  N  N29  1  0.58980487  0.10676036  0.42711795  1
  N  N30  1  0.21718817  0.64832559  0.89841666  1
  N  N31  1  0.79209294  0.34341353  0.18682993  1
  N  N32  1  0.62516156  0.12345297  0.04345421  1
  N  N33  1  0.37755814  0.89219755  0.66077870  1
  N  N34  1  0.41853301  0.87604038  0.36930113  1
  N  N35  1  0.51567199  0.11647973  0.71838743  1
  N  N36  1  0.39919226  0.88352027  0.78161257  1
  N  N37  1  0.55132059  0.34341353  0.68682993  1
  N  N38  1  0.44867941  0.65658647  0.31317007  1
  N  N39  1  0.48536059  0.10780245  0.83922130  1
  N  N40  1  0.49829141  0.12345297  0.54345421  1
  N  N41  1  0.58146699  0.12395962  0.63069887  1
  N  N42  1  0.62244186  0.10780245  0.33922130  1
  N  N43  1  0.37483844  0.87654703  0.95654579  1
  N  N44  1  0.51463941  0.89219755  0.16077870  1
  N  N45  1  0.50170859  0.87654703  0.45654579  1
  N  N46  1  0.43113742  0.64832559  0.39841666  1
  N  N47  1  0.48432801  0.88352027  0.28161257  1
  N  N48  1  0.45750737  0.87604038  0.86930113  1
  N  N49  1  0.78281183  0.35167441  0.10158334  1
  N  N50  1  0.54249263  0.12395962  0.13069887  1
  N  N51  1  0.60080774  0.11647973  0.21838743  1
  Cl  Cl52  1  0.16158848  0.00305554  0.18144110  1
  Cl  Cl53  1  0.01543300  0.31863944  0.02116076  1
  Cl  Cl54  1  0.17276327  0.03636916  0.06360237  1
  Cl  Cl55  1  0.42027154  0.62774453  0.98214866  1
  Cl  Cl56  1  0.28911486  0.27761598  0.89712197  1
  Cl  Cl57  1  0.43235142  0.65044222  0.60532216  1
  Cl  Cl58  1  0.39849313  0.63138681  0.72571625  1
  Cl  Cl59  1  0.15853294  0.99694446  0.31855890  1
  Cl  Cl60  1  0.23289369  0.63138681  0.22571625  1
  Cl  Cl61  1  0.39233277  0.36163323  0.14768229  1
  Cl  Cl62  1  0.30320645  0.31863944  0.52116076  1
  Cl  Cl63  1  0.21809080  0.65044222  0.10532216  1
  Cl  Cl64  1  0.27434508  0.28877737  0.76085421  1
  Cl  Cl65  1  0.98456700  0.68136056  0.97883924  1
  Cl  Cl66  1  0.60150687  0.36861319  0.27428375  1
  Cl  Cl67  1  0.72565492  0.71122263  0.23914579  1
  Cl  Cl68  1  0.84146706  0.00305554  0.68144110  1
  Cl  Cl69  1  0.79252701  0.37225547  0.51785134  1
  Cl  Cl70  1  0.98556771  0.71122263  0.73914579  1
  Cl  Cl71  1  0.78190920  0.34955778  0.89467784  1
  Cl  Cl72  1  0.76710631  0.36861319  0.77428375  1
  Cl  Cl73  1  0.01443229  0.28877737  0.26085421  1
  Cl  Cl74  1  0.86360589  0.03636916  0.56360237  1
  Cl  Cl75  1  0.71088514  0.72238402  0.10287803  1
  Cl  Cl76  1  0.01149888  0.72238402  0.60287803  1
  Cl  Cl77  1  0.96930046  0.36163323  0.64768229  1
  Cl  Cl78  1  0.57972846  0.37225547  0.01785134  1
  Cl  Cl79  1  0.13639411  0.96363084  0.43639763  1
  Cl  Cl80  1  0.83841152  0.99694446  0.81855890  1
  Cl  Cl81  1  0.03069954  0.63836677  0.35231771  1
  Cl  Cl82  1  0.82723673  0.96363084  0.93639763  1
  Cl  Cl83  1  0.60766723  0.63836677  0.85231771  1
  Cl  Cl84  1  0.56764858  0.34955778  0.39467784  1
  Cl  Cl85  1  0.69679355  0.68136056  0.47883924  1
  Cl  Cl86  1  0.98850112  0.27761598  0.39712197  1
  Cl  Cl87  1  0.20747299  0.62774453  0.48214866  1
