# generated using pymatgen
data_Al3Bi5Cl12
_symmetry_space_group_name_H-M   'P 1'
_cell_length_a   12.39868595
_cell_length_b   12.39868551
_cell_length_c   12.39868541
_cell_angle_alpha   58.10472044
_cell_angle_beta   58.10472164
_cell_angle_gamma   58.10471955
_symmetry_Int_Tables_number   1
_chemical_formula_structural   Al3Bi5Cl12
_chemical_formula_sum   'Al6 Bi10 Cl24'
_cell_volume   1289.19677090
_cell_formula_units_Z   2
loop_
 _symmetry_equiv_pos_site_id
 _symmetry_equiv_pos_as_xyz
  1  'x, y, z'
loop_
 _atom_site_type_symbol
 _atom_site_label
 _atom_site_symmetry_multiplicity
 _atom_site_fract_x
 _atom_site_fract_y
 _atom_site_fract_z
 _atom_site_occupancy
  Al  Al0  1  0.75000000  0.22862806  0.27137194  1
  Al  Al1  1  0.25000000  0.77137194  0.72862806  1
  Al  Al2  1  0.77137194  0.72862806  0.25000000  1
  Al  Al3  1  0.22862806  0.27137194  0.75000000  1
  Al  Al4  1  0.72862806  0.25000000  0.77137194  1
  Al  Al5  1  0.27137194  0.75000000  0.22862806  1
  Bi  Bi6  1  0.59182755  0.90817245  0.75000000  1
  Bi  Bi7  1  0.67216239  0.67216239  0.67216239  1
  Bi  Bi8  1  0.17216239  0.17216239  0.17216239  1
  Bi  Bi9  1  0.25000000  0.40817245  0.09182755  1
  Bi  Bi10  1  0.32783761  0.32783761  0.32783761  1
  Bi  Bi11  1  0.40817245  0.09182755  0.25000000  1
  Bi  Bi12  1  0.82783761  0.82783761  0.82783761  1
  Bi  Bi13  1  0.75000000  0.59182755  0.90817245  1
  Bi  Bi14  1  0.90817245  0.75000000  0.59182755  1
  Bi  Bi15  1  0.09182755  0.25000000  0.40817245  1
  Cl  Cl16  1  0.69604950  0.07571000  0.95424963  1
  Cl  Cl17  1  0.27182998  0.10697846  0.70075750  1
  Cl  Cl18  1  0.19604950  0.45424963  0.57571000  1
  Cl  Cl19  1  0.10697846  0.70075750  0.27182998  1
  Cl  Cl20  1  0.95424963  0.69604950  0.07571000  1
  Cl  Cl21  1  0.04575037  0.30395050  0.92429000  1
  Cl  Cl22  1  0.29924250  0.72817002  0.89302154  1
  Cl  Cl23  1  0.72817002  0.89302154  0.29924250  1
  Cl  Cl24  1  0.45424963  0.57571000  0.19604950  1
  Cl  Cl25  1  0.77182998  0.20075750  0.60697846  1
  Cl  Cl26  1  0.07571000  0.95424963  0.69604950  1
  Cl  Cl27  1  0.92429000  0.04575037  0.30395050  1
  Cl  Cl28  1  0.70075750  0.27182998  0.10697846  1
  Cl  Cl29  1  0.80395050  0.54575037  0.42429000  1
  Cl  Cl30  1  0.42429000  0.80395050  0.54575037  1
  Cl  Cl31  1  0.89302154  0.29924250  0.72817002  1
  Cl  Cl32  1  0.60697846  0.77182998  0.20075750  1
  Cl  Cl33  1  0.79924250  0.39302154  0.22817002  1
  Cl  Cl34  1  0.39302154  0.22817002  0.79924250  1
  Cl  Cl35  1  0.30395050  0.92429000  0.04575037  1
  Cl  Cl36  1  0.22817002  0.79924250  0.39302154  1
  Cl  Cl37  1  0.57571000  0.19604950  0.45424963  1
  Cl  Cl38  1  0.20075750  0.60697846  0.77182998  1
  Cl  Cl39  1  0.54575037  0.42429000  0.80395050  1
