# generated using pymatgen
data_K2ZnCl4
_symmetry_space_group_name_H-M   'P 1'
_cell_length_a   7.36471474
_cell_length_b   12.55918611
_cell_length_c   27.09253546
_cell_angle_alpha   90.00000000
_cell_angle_beta   90.00000000
_cell_angle_gamma   90.00000000
_symmetry_Int_Tables_number   1
_chemical_formula_structural   K2ZnCl4
_chemical_formula_sum   'K24 Zn12 Cl48'
_cell_volume   2505.91927380
_cell_formula_units_Z   12
loop_
 _symmetry_equiv_pos_site_id
 _symmetry_equiv_pos_as_xyz
  1  'x, y, z'
loop_
 _atom_site_type_symbol
 _atom_site_label
 _atom_site_symmetry_multiplicity
 _atom_site_fract_x
 _atom_site_fract_y
 _atom_site_fract_z
 _atom_site_occupancy
  K  K0  1  0.27794400  0.18678219  0.16820488  1
  K  K1  1  0.21335392  0.91881643  0.95694894  1
  K  K2  1  0.77794400  0.68678219  0.33179512  1
  K  K3  1  0.27804214  0.58318800  0.78974183  1
  K  K4  1  0.26178753  0.31419005  0.33415339  1
  K  K5  1  0.73564456  0.41460311  0.87971960  1
  K  K6  1  0.27794400  0.31321781  0.66820488  1
  K  K7  1  0.77794400  0.81321781  0.83179512  1
  K  K8  1  0.23564456  0.58539689  0.12028040  1
  K  K9  1  0.70645447  0.68692326  0.99838882  1
  K  K10  1  0.70645447  0.81307674  0.49838882  1
  K  K11  1  0.20645447  0.31307674  0.00161118  1
  K  K12  1  0.20645447  0.18692326  0.50161118  1
  K  K13  1  0.26178753  0.18580995  0.83415339  1
  K  K14  1  0.73564456  0.08539689  0.37971960  1
  K  K15  1  0.71335392  0.08118357  0.04305106  1
  K  K16  1  0.76178753  0.81419005  0.16584661  1
  K  K17  1  0.76178753  0.68580995  0.66584661  1
  K  K18  1  0.21335392  0.58118357  0.45694894  1
  K  K19  1  0.77804214  0.41681200  0.21025817  1
  K  K20  1  0.71335392  0.41881643  0.54305106  1
  K  K21  1  0.23564456  0.91460311  0.62028040  1
  K  K22  1  0.27804214  0.91681200  0.28974183  1
  K  K23  1  0.77804214  0.08318800  0.71025817  1
  Zn  Zn24  1  0.76352514  0.41796740  0.74036038  1
  Zn  Zn25  1  0.25011761  0.91926663  0.42789272  1
  Zn  Zn26  1  0.25011761  0.58073337  0.92789272  1
  Zn  Zn27  1  0.22045511  0.91768416  0.09511968  1
  Zn  Zn28  1  0.72045511  0.41768416  0.40488032  1
  Zn  Zn29  1  0.76352514  0.08203260  0.24036038  1
  Zn  Zn30  1  0.26352514  0.58203260  0.25963962  1
  Zn  Zn31  1  0.75011761  0.41926663  0.07210728  1
  Zn  Zn32  1  0.75011761  0.08073337  0.57210728  1
  Zn  Zn33  1  0.22045511  0.58231584  0.59511968  1
  Zn  Zn34  1  0.72045511  0.08231584  0.90488032  1
  Zn  Zn35  1  0.26352514  0.91796740  0.75963962  1
  Cl  Cl36  1  0.68681346  0.06337285  0.82290391  1
  Cl  Cl37  1  0.32629656  0.55640787  0.00795802  1
  Cl  Cl38  1  0.49814234  0.13758741  0.27802545  1
  Cl  Cl39  1  0.18488882  0.42131099  0.55565395  1
  Cl  Cl40  1  0.50881488  0.64301987  0.88883308  1
  Cl  Cl41  1  0.99081321  0.34905945  0.43029191  1
  Cl  Cl42  1  0.18324161  0.42480241  0.88755705  1
  Cl  Cl43  1  0.49814234  0.36241259  0.77802545  1
  Cl  Cl44  1  0.00881488  0.35698013  0.11116692  1
  Cl  Cl45  1  0.68324161  0.92480241  0.61244295  1
  Cl  Cl46  1  0.99814234  0.63758741  0.22197455  1
  Cl  Cl47  1  0.83458335  0.92541809  0.27935889  1
  Cl  Cl48  1  0.00107016  0.69383607  0.56485912  1
  Cl  Cl49  1  0.48138421  0.79373359  0.74428898  1
  Cl  Cl50  1  0.52228269  0.30047478  0.08403164  1
  Cl  Cl51  1  0.19554423  0.56411888  0.34057243  1
  Cl  Cl52  1  0.68324161  0.57519759  0.11244295  1
  Cl  Cl53  1  0.82629656  0.44359213  0.99204198  1
  Cl  Cl54  1  0.18488882  0.07868901  0.05565395  1
  Cl  Cl55  1  0.52228269  0.19952522  0.58403164  1
  Cl  Cl56  1  0.00881488  0.14301987  0.61116692  1
  Cl  Cl57  1  0.69554423  0.43588112  0.65942757  1
  Cl  Cl58  1  0.49081321  0.84905945  0.06970809  1
  Cl  Cl59  1  0.18681346  0.93662715  0.17709609  1
  Cl  Cl60  1  0.00107016  0.80616393  0.06485912  1
  Cl  Cl61  1  0.33458335  0.42541809  0.22064111  1
  Cl  Cl62  1  0.68681346  0.43662715  0.32290391  1
  Cl  Cl63  1  0.68488882  0.92131099  0.94434605  1
  Cl  Cl64  1  0.50107016  0.30616393  0.43514088  1
  Cl  Cl65  1  0.48138421  0.70626641  0.24428898  1
  Cl  Cl66  1  0.68488882  0.57868901  0.44434605  1
  Cl  Cl67  1  0.98138421  0.20626641  0.25571102  1
  Cl  Cl68  1  0.19554423  0.93588112  0.84057243  1
  Cl  Cl69  1  0.83458335  0.57458191  0.77935889  1
  Cl  Cl70  1  0.98138421  0.29373359  0.75571102  1
  Cl  Cl71  1  0.99081321  0.15094055  0.93029191  1
  Cl  Cl72  1  0.02228269  0.80047478  0.41596836  1
  Cl  Cl73  1  0.99814234  0.86241259  0.72197455  1
  Cl  Cl74  1  0.50881488  0.85698013  0.38883308  1
  Cl  Cl75  1  0.82629656  0.05640787  0.49204198  1
  Cl  Cl76  1  0.33458335  0.07458191  0.72064111  1
  Cl  Cl77  1  0.18324161  0.07519759  0.38755705  1
  Cl  Cl78  1  0.69554423  0.06411888  0.15942757  1
  Cl  Cl79  1  0.18681346  0.56337285  0.67709609  1
  Cl  Cl80  1  0.02228269  0.69952522  0.91596836  1
  Cl  Cl81  1  0.32629656  0.94359213  0.50795802  1
  Cl  Cl82  1  0.49081321  0.65094055  0.56970809  1
  Cl  Cl83  1  0.50107016  0.19383607  0.93514088  1
