# generated using pymatgen
data_In7Cu10
_symmetry_space_group_name_H-M   'P 1'
_cell_length_a   6.78188226
_cell_length_b   9.20080025
_cell_length_c   9.20080106
_cell_angle_alpha   81.24171041
_cell_angle_beta   89.21138382
_cell_angle_gamma   89.21138803
_symmetry_Int_Tables_number   1
_chemical_formula_structural   In7Cu10
_chemical_formula_sum   'In14 Cu20'
_cell_volume   567.33062480
_cell_formula_units_Z   2
loop_
 _symmetry_equiv_pos_site_id
 _symmetry_equiv_pos_as_xyz
  1  'x, y, z'
loop_
 _atom_site_type_symbol
 _atom_site_label
 _atom_site_symmetry_multiplicity
 _atom_site_fract_x
 _atom_site_fract_y
 _atom_site_fract_z
 _atom_site_occupancy
  In  In0  1  0.38702798  0.87995306  0.43146765  1
  In  In1  1  0.28397222  0.46516593  0.46516593  1
  In  In2  1  0.19835235  0.15739174  0.70520120  1
  In  In3  1  0.61297202  0.12004694  0.56853235  1
  In  In4  1  0.06675249  0.76307887  0.76307887  1
  In  In5  1  0.80164765  0.29479880  0.84260826  1
  In  In6  1  0.49715974  0.83351749  0.83351749  1
  In  In7  1  0.80164765  0.84260826  0.29479880  1
  In  In8  1  0.61297202  0.56853235  0.12004694  1
  In  In9  1  0.50284026  0.16648251  0.16648251  1
  In  In10  1  0.19835235  0.70520120  0.15739174  1
  In  In11  1  0.71602778  0.53483407  0.53483407  1
  In  In12  1  0.93324751  0.23692113  0.23692113  1
  In  In13  1  0.38702798  0.43146765  0.87995306  1
  Cu  Cu14  1  0.84717651  0.78179540  0.00413858  1
  Cu  Cu15  1  0.93907425  0.29242525  0.51893318  1
  Cu  Cu16  1  0.50000000  0.88875843  0.11124157  1
  Cu  Cu17  1  0.27448599  0.18246388  0.40816513  1
  Cu  Cu18  1  0.15282349  0.21820460  0.99586142  1
  Cu  Cu19  1  0.93907425  0.51893318  0.29242525  1
  Cu  Cu20  1  0.72551401  0.59183487  0.81753612  1
  Cu  Cu21  1  0.50000000  0.11124157  0.88875843  1
  Cu  Cu22  1  0.06092575  0.70757475  0.48106682  1
  Cu  Cu23  1  0.15282349  0.99586142  0.21820460  1
  Cu  Cu24  1  0.72551401  0.81753612  0.59183487  1
  Cu  Cu25  1  0.83332730  0.04876814  0.04876814  1
  Cu  Cu26  1  0.00000000  0.00000000  0.50000000  1
  Cu  Cu27  1  0.60757126  0.35125772  0.35125772  1
  Cu  Cu28  1  0.27448599  0.40816513  0.18246388  1
  Cu  Cu29  1  0.84717651  0.00413858  0.78179540  1
  Cu  Cu30  1  0.06092575  0.48106682  0.70757475  1
  Cu  Cu31  1  0.16667270  0.95123186  0.95123186  1
  Cu  Cu32  1  0.00000000  0.50000000  0.00000000  1
  Cu  Cu33  1  0.39242874  0.64874228  0.64874228  1
