# generated using pymatgen
data_Ca5MnSi9(Pb3O11)3
_symmetry_space_group_name_H-M   'P 1'
_cell_length_a   9.96567326
_cell_length_b   9.96567306
_cell_length_c   10.28138304
_cell_angle_alpha   90.00000000
_cell_angle_beta   90.00000000
_cell_angle_gamma   120.00000066
_symmetry_Int_Tables_number   1
_chemical_formula_structural   Ca5MnSi9(Pb3O11)3
_chemical_formula_sum   'Ca5 Mn1 Si9 Pb9 O33'
_cell_volume   884.29149423
_cell_formula_units_Z   1
loop_
 _symmetry_equiv_pos_site_id
 _symmetry_equiv_pos_as_xyz
  1  'x, y, z'
loop_
 _atom_site_type_symbol
 _atom_site_label
 _atom_site_symmetry_multiplicity
 _atom_site_fract_x
 _atom_site_fract_y
 _atom_site_fract_z
 _atom_site_occupancy
  Ca  Ca0  1  0.33333300  0.66666700  0.66038653  1
  Ca  Ca1  1  0.66666700  0.33333300  0.67809207  1
  Ca  Ca2  1  0.33333300  0.66666700  0.33961347  1
  Ca  Ca3  1  0.66666700  0.33333300  0.32190793  1
  Ca  Ca4  1  0.33333300  0.66666700  0.00000000  1
  Mn  Mn5  1  0.66666700  0.33333300  0.00000000  1
  Si  Si6  1  0.59415133  0.61622088  0.85141976  1
  Si  Si7  1  0.38377912  0.97793046  0.85141976  1
  Si  Si8  1  0.97474976  0.58966773  0.50000000  1
  Si  Si9  1  0.02206954  0.40584867  0.14858024  1
  Si  Si10  1  0.61491798  0.02525024  0.50000000  1
  Si  Si11  1  0.59415133  0.61622088  0.14858024  1
  Si  Si12  1  0.41033227  0.38508202  0.50000000  1
  Si  Si13  1  0.38377912  0.97793046  0.14858024  1
  Si  Si14  1  0.02206954  0.40584867  0.85141976  1
  Pb  Pb15  1  0.27237885  0.27214951  0.17645201  1
  Pb  Pb16  1  0.72785049  0.00022934  0.82354799  1
  Pb  Pb17  1  0.98800686  0.25197340  0.50000000  1
  Pb  Pb18  1  0.26396655  0.01199314  0.50000000  1
  Pb  Pb19  1  -0.00022934  0.72762115  0.17645201  1
  Pb  Pb20  1  0.74802660  0.73603345  0.50000000  1
  Pb  Pb21  1  0.27237885  0.27214951  0.82354799  1
  Pb  Pb22  1  0.72785049  0.00022934  0.17645201  1
  Pb  Pb23  1  -0.00022934  0.72762115  0.82354799  1
  O  O24  1  0.49787953  0.84084461  0.50000000  1
  O  O25  1  0.62759355  0.70078947  0.00000000  1
  O  O26  1  0.29921053  0.92680407  0.00000000  1
  O  O27  1  0.73728436  0.08973790  0.62463146  1
  O  O28  1  0.45885687  0.86309657  0.83029660  1
  O  O29  1  0.68997125  0.75910335  0.25145095  1
  O  O30  1  0.52042364  0.15705059  0.15134625  1
  O  O31  1  0.35245354  0.26271564  0.62463146  1
  O  O32  1  0.63662695  0.47957636  0.84865375  1
  O  O33  1  0.52042364  0.15705059  0.84865375  1
  O  O34  1  0.13690343  0.59576029  0.83029660  1
  O  O35  1  0.63662695  0.47957636  0.15134625  1
  O  O36  1  0.24089665  0.93086790  0.25145095  1
  O  O37  1  0.68997125  0.75910335  0.74854905  1
  O  O38  1  0.34296508  0.50212047  0.50000000  1
  O  O39  1  0.06913210  0.31002875  0.25145095  1
  O  O40  1  0.06913210  0.31002875  0.74854905  1
  O  O41  1  0.07319593  0.37240645  0.00000000  1
  O  O42  1  0.87189477  0.39776180  0.50000000  1
  O  O43  1  0.45885687  0.86309657  0.16970340  1
  O  O44  1  0.91026210  0.64754646  0.37536854  1
  O  O45  1  0.40423971  0.54114313  0.83029660  1
  O  O46  1  0.24089665  0.93086790  0.74854905  1
  O  O47  1  0.84294941  0.36337305  0.15134625  1
  O  O48  1  0.40423971  0.54114313  0.16970340  1
  O  O49  1  0.91026210  0.64754646  0.62463146  1
  O  O50  1  0.60223820  0.47413297  0.50000000  1
  O  O51  1  0.52586703  0.12810523  0.50000000  1
  O  O52  1  0.84294941  0.36337305  0.84865375  1
  O  O53  1  0.13690343  0.59576029  0.16970340  1
  O  O54  1  0.15915539  0.65703492  0.50000000  1
  O  O55  1  0.35245354  0.26271564  0.37536854  1
  O  O56  1  0.73728436  0.08973790  0.37536854  1
