# generated using pymatgen
data_Sm10Pd21
_symmetry_space_group_name_H-M   'P 1'
_cell_length_a   5.84901243
_cell_length_b   12.92099530
_cell_length_c   16.73859813
_cell_angle_alpha   90.86754586
_cell_angle_beta   89.97209992
_cell_angle_gamma   103.07655651
_symmetry_Int_Tables_number   1
_chemical_formula_structural   Sm10Pd21
_chemical_formula_sum   'Sm20 Pd42'
_cell_volume   1232.07001043
_cell_formula_units_Z   2
loop_
 _symmetry_equiv_pos_site_id
 _symmetry_equiv_pos_as_xyz
  1  'x, y, z'
loop_
 _atom_site_type_symbol
 _atom_site_label
 _atom_site_symmetry_multiplicity
 _atom_site_fract_x
 _atom_site_fract_y
 _atom_site_fract_z
 _atom_site_occupancy
  Sm  Sm0  1  0.53803852  0.06879089  0.27965082  1
  Sm  Sm1  1  0.31570672  0.62897326  0.19821738  1
  Sm  Sm2  1  0.46345312  0.93165768  0.71961757  1
  Sm  Sm3  1  0.42887063  0.85765458  0.01924874  1
  Sm  Sm4  1  0.72185119  0.44831714  0.07894294  1
  Sm  Sm5  1  0.23759427  0.47349450  0.64809028  1
  Sm  Sm6  1  0.27548762  0.55223508  0.92199672  1
  Sm  Sm7  1  0.14491000  0.29091515  0.35572814  1
  Sm  Sm8  1  0.64967319  0.29720546  0.51909882  1
  Sm  Sm9  1  0.88127319  0.76156128  0.86943525  1
  Sm  Sm10  1  0.04259666  0.08492773  0.59386448  1
  Sm  Sm11  1  0.35062705  0.70396050  0.48223715  1
  Sm  Sm12  1  0.92463930  0.85166554  0.18686629  1
  Sm  Sm13  1  0.56923997  0.14166253  0.98011481  1
  Sm  Sm14  1  0.07251877  0.14894153  0.81422066  1
  Sm  Sm15  1  0.95685247  0.91615611  0.40633880  1
  Sm  Sm16  1  0.11959377  0.23747292  0.13018536  1
  Sm  Sm17  1  0.76484380  0.52550826  0.35251768  1
  Sm  Sm18  1  0.68268576  0.37063691  0.80302005  1
  Sm  Sm19  1  0.85405236  0.71060841  0.64449027  1
  Pd  Pd20  1  0.06931803  0.66888694  0.04754373  1
  Pd  Pd21  1  0.15280232  0.30242569  0.52458246  1
  Pd  Pd22  1  0.38337557  0.76668309  0.83929130  1
  Pd  Pd23  1  0.04245292  0.07670492  0.27311418  1
  Pd  Pd24  1  0.31286088  0.11412981  0.43865581  1
  Pd  Pd25  1  0.64019059  0.28241214  0.33593915  1
  Pd  Pd26  1  0.61732126  0.23276021  0.15970138  1
  Pd  Pd27  1  0.73859993  0.47601498  0.64496532  1
  Pd  Pd28  1  0.96026444  0.92499603  0.72716099  1
  Pd  Pd29  1  0.37795057  0.25504123  0.67628641  1
  Pd  Pd30  1  0.26402343  0.52503882  0.35627491  1
  Pd  Pd31  1  0.05643313  0.11582288  0.98341494  1
  Pd  Pd32  1  0.81391209  0.62492780  0.19775388  1
  Pd  Pd33  1  0.84793984  0.69828177  0.47578706  1
  Pd  Pd34  1  0.76867394  0.53876705  0.92182265  1
  Pd  Pd35  1  0.27133200  0.03150804  0.11750421  1
  Pd  Pd36  1  0.60080230  0.66908121  0.04704103  1
  Pd  Pd37  1  0.44913469  0.40709126  0.22668110  1
  Pd  Pd38  1  0.35723197  0.71715968  0.66462546  1
  Pd  Pd39  1  0.76083612  0.03192170  0.11752132  1
  Pd  Pd40  1  0.56559383  0.13435816  0.79023315  1
  Pd  Pd41  1  0.54478084  0.08858698  0.59115195  1
  Pd  Pd42  1  0.18493769  0.37522910  0.80312931  1
  Pd  Pd43  1  0.87629966  0.25516020  0.67661005  1
  Pd  Pd44  1  0.23610590  0.96727309  0.88175779  1
  Pd  Pd45  1  0.00130994  0.50045644  0.50067465  1
  Pd  Pd46  1  0.19745610  0.88759345  0.56067389  1
  Pd  Pd47  1  0.62092207  0.74487918  0.32451078  1
  Pd  Pd48  1  0.95819242  0.40689163  0.22650822  1
  Pd  Pd49  1  0.39617603  0.33043833  0.95394877  1
  Pd  Pd50  1  0.22869737  0.46134468  0.07908442  1
  Pd  Pd51  1  0.94063951  0.88108008  0.01727057  1
  Pd  Pd52  1  0.43160608  0.86507101  0.21068454  1
  Pd  Pd53  1  0.12218264  0.74462022  0.32456499  1
  Pd  Pd54  1  0.45510052  0.91248689  0.40829364  1
  Pd  Pd55  1  0.80234866  0.11428001  0.43908402  1
  Pd  Pd56  1  0.92805529  0.33092104  0.95368769  1
  Pd  Pd57  1  0.72755895  0.96656419  0.88165775  1
  Pd  Pd58  1  0.50113739  0.50013003  0.50037335  1
  Pd  Pd59  1  0.04156116  0.59195682  0.77357144  1
  Pd  Pd60  1  0.55026859  0.59188059  0.77385542  1
  Pd  Pd61  1  0.68682698  0.88772117  0.56063812  1
