# generated using pymatgen
data_CuAs2Pb8Cl5O9
_symmetry_space_group_name_H-M   'P 1'
_cell_length_a   7.70858124
_cell_length_b   12.22513491
_cell_length_c   12.22513476
_cell_angle_alpha   112.21025042
_cell_angle_beta   98.94648939
_cell_angle_gamma   98.94648763
_symmetry_Int_Tables_number   1
_chemical_formula_structural   CuAs2Pb8Cl5O9
_chemical_formula_sum   'Cu2 As4 Pb16 Cl10 O18'
_cell_volume   1024.28702359
_cell_formula_units_Z   2
loop_
 _symmetry_equiv_pos_site_id
 _symmetry_equiv_pos_as_xyz
  1  'x, y, z'
loop_
 _atom_site_type_symbol
 _atom_site_label
 _atom_site_symmetry_multiplicity
 _atom_site_fract_x
 _atom_site_fract_y
 _atom_site_fract_z
 _atom_site_occupancy
  Cu  Cu0  1  0.50000000  0.57616439  0.42383561  1
  Cu  Cu1  1  0.50000000  0.42383561  0.57616439  1
  As  As2  1  0.41500596  0.44253083  0.21269920  1
  As  As3  1  0.58499404  0.78730080  0.55746917  1
  As  As4  1  0.58499404  0.55746917  0.78730080  1
  As  As5  1  0.41500596  0.21269920  0.44253083  1
  Pb  Pb6  1  0.07851938  0.74649434  0.55333739  1
  Pb  Pb7  1  0.57632205  0.14397925  0.14397925  1
  Pb  Pb8  1  0.42265838  0.65742198  0.05429544  1
  Pb  Pb9  1  0.92772017  0.64424808  0.05567293  1
  Pb  Pb10  1  0.92148062  0.25350566  0.44666261  1
  Pb  Pb11  1  0.42367795  0.85602075  0.85602075  1
  Pb  Pb12  1  0.92958669  0.85523123  0.85523123  1
  Pb  Pb13  1  0.92148062  0.44666261  0.25350566  1
  Pb  Pb14  1  0.07851938  0.55333739  0.74649434  1
  Pb  Pb15  1  0.92772017  0.05567293  0.64424808  1
  Pb  Pb16  1  0.07041331  0.14476877  0.14476877  1
  Pb  Pb17  1  0.57734162  0.34257802  0.94570456  1
  Pb  Pb18  1  0.57734162  0.94570456  0.34257802  1
  Pb  Pb19  1  0.07227983  0.94432707  0.35575192  1
  Pb  Pb20  1  0.07227983  0.35575192  0.94432707  1
  Pb  Pb21  1  0.42265838  0.05429544  0.65742198  1
  Cl  Cl22  1  0.23498973  0.70280159  0.28409373  1
  Cl  Cl23  1  0.23498973  0.28409373  0.70280159  1
  Cl  Cl24  1  0.24715605  0.09618997  0.89841647  1
  Cl  Cl25  1  0.76501027  0.29719841  0.71590627  1
  Cl  Cl26  1  0.76501027  0.71590627  0.29719841  1
  Cl  Cl27  1  0.73918509  0.49774093  0.49774093  1
  Cl  Cl28  1  0.26081491  0.50225907  0.50225907  1
  Cl  Cl29  1  0.75284395  0.90381003  0.10158353  1
  Cl  Cl30  1  0.75284395  0.10158353  0.90381003  1
  Cl  Cl31  1  0.24715605  0.89841647  0.09618997  1
  O  O32  1  0.87040629  0.24077158  0.24077158  1
  O  O33  1  0.19359282  0.17200344  0.34668215  1
  O  O34  1  0.39213989  0.46882224  0.07555780  1
  O  O35  1  0.42809764  0.82782832  0.65318586  1
  O  O36  1  0.87178112  0.06015341  0.44431825  1
  O  O37  1  0.39213989  0.07555780  0.46882224  1
  O  O38  1  0.87178112  0.44431825  0.06015341  1
  O  O39  1  0.57190236  0.17217168  0.34681414  1
  O  O40  1  0.60786011  0.92444220  0.53117776  1
  O  O41  1  0.57190236  0.34681414  0.17217168  1
  O  O42  1  0.19359282  0.34668215  0.17200344  1
  O  O43  1  0.60786011  0.53117776  0.92444220  1
  O  O44  1  0.12821888  0.55568175  0.93984659  1
  O  O45  1  0.80640718  0.82799656  0.65331785  1
  O  O46  1  0.12959371  0.75922842  0.75922842  1
  O  O47  1  0.42809764  0.65318586  0.82782832  1
  O  O48  1  0.12821888  0.93984659  0.55568175  1
  O  O49  1  0.80640718  0.65331785  0.82799656  1
