# generated using pymatgen
data_Zn3FeS4
_symmetry_space_group_name_H-M   'P 1'
_cell_length_a   3.83491313
_cell_length_b   3.83491313
_cell_length_c   12.76113076
_cell_angle_alpha   90.00000000
_cell_angle_beta   81.35814960
_cell_angle_gamma   120.00000000
_symmetry_Int_Tables_number   1
_chemical_formula_structural   Zn3FeS4
_chemical_formula_sum   'Zn3 Fe1 S4'
_cell_volume   160.06398994
_cell_formula_units_Z   1
loop_
 _symmetry_equiv_pos_site_id
 _symmetry_equiv_pos_as_xyz
  1  'x, y, z'
loop_
 _atom_site_type_symbol
 _atom_site_label
 _atom_site_symmetry_multiplicity
 _atom_site_fract_x
 _atom_site_fract_y
 _atom_site_fract_z
 _atom_site_occupancy
  Zn  Zn0  1  0.99992450  0.99996225  0.00011325  1
  Zn  Zn1  1  0.49988905  0.24994452  0.25016643  1
  Zn  Zn2  1  -0.00015371  0.49992315  0.50023056  1
  Fe  Fe3  1  0.49977072  0.74988536  0.75034393  1
  S  S4  1  0.87503817  0.93751909  0.18744274  1
  S  S5  1  0.37507473  0.18753736  0.43738791  1
  S  S6  1  0.87449300  0.43724650  0.68826050  1
  S  S7  1  0.37596354  0.68798177  0.93605469  1
