# generated using pymatgen
data_CdI2
_symmetry_space_group_name_H-M   'P 1'
_cell_length_a   4.34201401
_cell_length_b   4.34201427
_cell_length_c   103.16014525
_cell_angle_alpha   90.00000000
_cell_angle_beta   90.00000000
_cell_angle_gamma   119.99999794
_symmetry_Int_Tables_number   1
_chemical_formula_structural   CdI2
_chemical_formula_sum   'Cd14 I28'
_cell_volume   1684.32173353
_cell_formula_units_Z   14
loop_
 _symmetry_equiv_pos_site_id
 _symmetry_equiv_pos_as_xyz
  1  'x, y, z'
loop_
 _atom_site_type_symbol
 _atom_site_label
 _atom_site_symmetry_multiplicity
 _atom_site_fract_x
 _atom_site_fract_y
 _atom_site_fract_z
 _atom_site_occupancy
  Cd  Cd0  1  0.33333300  0.66666700  0.80357442  1
  Cd  Cd1  1  0.66666700  0.33333300  0.16071327  1
  Cd  Cd2  1  0.33333300  0.66666700  0.94643895  1
  Cd  Cd3  1  0.66666700  0.33333300  0.58928158  1
  Cd  Cd4  1  0.33333300  0.66666700  0.08928197  1
  Cd  Cd5  1  0.00000000  0.00000000  0.73214638  1
  Cd  Cd6  1  0.33333300  0.66666700  0.66071267  1
  Cd  Cd7  1  0.66666700  0.33333300  0.30357511  1
  Cd  Cd8  1  0.66666700  0.33333300  0.01784783  1
  Cd  Cd9  1  0.66666700  0.33333300  0.44644226  1
  Cd  Cd10  1  0.33333300  0.66666700  0.51784776  1
  Cd  Cd11  1  0.33333300  0.66666700  0.37499381  1
  Cd  Cd12  1  0.00000000  0.00000000  0.87499534  1
  Cd  Cd13  1  0.33333300  0.66666700  0.23214489  1
  I  I14  1  0.00000000  0.00000000  0.92967829  1
  I  I15  1  0.00000000  0.00000000  0.64395799  1
  I  I16  1  0.00000000  0.00000000  0.21537961  1
  I  I17  1  0.33333300  0.66666700  0.17746491  1
  I  I18  1  0.66666700  0.33333300  0.39173253  1
  I  I19  1  0.00000000  0.00000000  0.07254461  1
  I  I20  1  0.33333300  0.66666700  0.46318107  1
  I  I21  1  0.66666700  0.33333300  0.82032760  1
  I  I22  1  0.66666700  0.33333300  0.53460438  1
  I  I23  1  0.66666700  0.33333300  0.10604504  1
  I  I24  1  0.66666700  0.33333300  0.89173880  1
  I  I25  1  0.66666700  0.33333300  0.96318121  1
  I  I26  1  0.33333300  0.66666700  0.32033015  1
  I  I27  1  0.66666700  0.33333300  0.24889742  1
  I  I28  1  0.00000000  0.00000000  0.14395553  1
  I  I29  1  0.00000000  0.00000000  0.57254480  1
  I  I30  1  0.00000000  0.00000000  0.35823619  1
  I  I31  1  0.00000000  0.00000000  0.00111795  1
  I  I32  1  0.00000000  0.00000000  0.78680735  1
  I  I33  1  0.00000000  0.00000000  0.28680902  1
  I  I34  1  0.33333300  0.66666700  0.85825440  1
  I  I35  1  0.66666700  0.33333300  0.67746282  1
  I  I36  1  0.33333300  0.66666700  0.03460586  1
  I  I37  1  0.00000000  0.00000000  0.50111779  1
  I  I38  1  0.66666700  0.33333300  0.74890421  1
  I  I39  1  0.33333300  0.66666700  0.71539729  1
  I  I40  1  0.00000000  0.00000000  0.42968240  1
  I  I41  1  0.33333300  0.66666700  0.60604453  1
