# generated using pymatgen
data_CdI2
_symmetry_space_group_name_H-M   'P 1'
_cell_length_a   4.34631274
_cell_length_b   4.34631301
_cell_length_c   66.12582624
_cell_angle_alpha   90.00000000
_cell_angle_beta   90.00000000
_cell_angle_gamma   119.99999793
_symmetry_Int_Tables_number   1
_chemical_formula_structural   CdI2
_chemical_formula_sum   'Cd9 I18'
_cell_volume   1081.79189996
_cell_formula_units_Z   9
loop_
 _symmetry_equiv_pos_site_id
 _symmetry_equiv_pos_as_xyz
  1  'x, y, z'
loop_
 _atom_site_type_symbol
 _atom_site_label
 _atom_site_symmetry_multiplicity
 _atom_site_fract_x
 _atom_site_fract_y
 _atom_site_fract_z
 _atom_site_occupancy
  Cd  Cd0  1  0.33333300  0.66666700  0.91665767  1
  Cd  Cd1  1  0.33333300  0.66666700  0.36110300  1
  Cd  Cd2  1  0.33333300  0.66666700  0.80557608  1
  Cd  Cd3  1  0.33333300  0.66666700  0.02777726  1
  Cd  Cd4  1  0.33333300  0.66666700  0.47224444  1
  Cd  Cd5  1  0.33333300  0.66666700  0.69443382  1
  Cd  Cd6  1  0.00000000  0.00000000  0.13892318  1
  Cd  Cd7  1  0.33333300  0.66666700  0.58331630  1
  Cd  Cd8  1  0.33333300  0.66666700  0.24999018  1
  I  I9  1  0.00000000  0.00000000  0.22388845  1
  I  I10  1  0.66666700  0.33333300  0.27609752  1
  I  I11  1  0.66666700  0.33333300  0.72054658  1
  I  I12  1  0.00000000  0.00000000  0.77946923  1
  I  I13  1  0.00000000  0.00000000  0.44614007  1
  I  I14  1  0.00000000  0.00000000  0.66834230  1
  I  I15  1  0.66666700  0.33333300  0.83168851  1
  I  I16  1  0.66666700  0.33333300  0.16501656  1
  I  I17  1  0.66666700  0.33333300  0.60941521  1
  I  I18  1  0.66666700  0.33333300  0.05388565  1
  I  I19  1  0.33333300  0.66666700  0.11283659  1
  I  I20  1  0.00000000  0.00000000  0.55721688  1
  I  I21  1  0.66666700  0.33333300  0.38718697  1
  I  I22  1  0.66666700  0.33333300  0.94275515  1
  I  I23  1  0.00000000  0.00000000  0.33499929  1
  I  I24  1  0.00000000  0.00000000  0.00169747  1
  I  I25  1  0.66666700  0.33333300  0.49834626  1
  I  I26  1  0.00000000  0.00000000  0.89054939  1
