# generated using pymatgen
data_SrTeO3
_symmetry_space_group_name_H-M   'P 1'
_cell_length_a   5.99365136
_cell_length_b   14.59121106
_cell_length_c   26.71613525
_cell_angle_alpha   83.56626995
_cell_angle_beta   83.43121560
_cell_angle_gamma   78.16214544
_symmetry_Int_Tables_number   1
_chemical_formula_structural   SrTeO3
_chemical_formula_sum   'Sr24 Te24 O72'
_cell_volume   2262.29781776
_cell_formula_units_Z   24
loop_
 _symmetry_equiv_pos_site_id
 _symmetry_equiv_pos_as_xyz
  1  'x, y, z'
loop_
 _atom_site_type_symbol
 _atom_site_label
 _atom_site_symmetry_multiplicity
 _atom_site_fract_x
 _atom_site_fract_y
 _atom_site_fract_z
 _atom_site_occupancy
  Sr  Sr0  1  0.72505257  0.56412963  0.55501809  1
  Sr  Sr1  1  0.84279120  0.93636986  0.94500491  1
  Sr  Sr2  1  0.04761527  0.32762749  0.07640078  1
  Sr  Sr3  1  0.86806738  0.34608348  0.36284443  1
  Sr  Sr4  1  0.08693013  0.53864476  0.78916400  1
  Sr  Sr5  1  0.58063274  0.15291924  0.13870026  1
  Sr  Sr6  1  0.42271507  0.84644048  0.86108684  1
  Sr  Sr7  1  0.66667331  0.44344700  0.69749287  1
  Sr  Sr8  1  0.41601350  0.96271888  0.70999415  1
  Sr  Sr9  1  0.95050798  0.67261590  0.92294310  1
  Sr  Sr10  1  0.13309386  0.65405491  0.63764232  1
  Sr  Sr11  1  0.78288125  0.75053176  0.25018750  1
  Sr  Sr12  1  0.49867508  0.50000147  0.00006945  1
  Sr  Sr13  1  0.33173616  0.55711125  0.30231702  1
  Sr  Sr14  1  0.45424049  0.17100501  0.42322111  1
  Sr  Sr15  1  0.19249638  0.94428501  0.19702582  1
  Sr  Sr16  1  0.54518522  0.82796409  0.57601971  1
  Sr  Sr17  1  0.27406842  0.43559847  0.44486537  1
  Sr  Sr18  1  0.00184013  0.00041788  0.50031856  1
  Sr  Sr19  1  0.91129926  0.46160569  0.21061991  1
  Sr  Sr20  1  0.21608584  0.24902754  0.75029674  1
  Sr  Sr21  1  0.58615685  0.03990992  0.28966914  1
  Sr  Sr22  1  0.80696219  0.05714952  0.80279253  1
  Sr  Sr23  1  0.15775965  0.06427603  0.05521988  1
  Te  Te24  1  0.25491085  0.40536064  0.61572057  1
  Te  Te25  1  0.57033204  0.68603958  0.70721382  1
  Te  Te26  1  0.86077412  0.29705824  0.50038016  1
  Te  Te27  1  0.27618108  0.09431178  0.88482028  1
  Te  Te28  1  0.65786645  0.20353880  0.99960997  1
  Te  Te29  1  0.13756045  0.84299974  0.32696002  1
  Te  Te30  1  0.13898601  0.70363996  0.49952703  1
  Te  Te31  1  0.59499461  0.88441004  0.42640192  1
  Te  Te32  1  0.96457767  0.81514966  0.79166030  1
  Te  Te33  1  0.40675572  0.11593765  0.57394991  1
  Te  Te34  1  0.72616626  0.90572903  0.11504311  1
  Te  Te35  1  0.46373349  0.41300478  0.13929284  1
  Te  Te36  1  0.03812033  0.18596620  0.20762618  1
  Te  Te37  1  0.33960816  0.79690700  0.00022244  1
  Te  Te38  1  0.90425476  0.61441921  0.07323938  1
  Te  Te39  1  0.74602286  0.59433975  0.38414917  1
  Te  Te40  1  0.02139343  0.08531388  0.35965513  1
  Te  Te41  1  0.42889954  0.31392459  0.29218582  1
  Te  Te42  1  0.53700218  0.58677123  0.86054650  1
  Te  Te43  1  0.09273342  0.38402760  0.92635022  1
  Te  Te44  1  0.68753696  0.34170340  0.82668848  1
  Te  Te45  1  0.31355024  0.65850256  0.17271280  1
  Te  Te46  1  0.98119528  0.91343696  0.64040435  1
  Te  Te47  1  0.86253389  0.15849226  0.67309746  1
  O  O48  1  0.17527629  0.89812967  0.78561624  1
  O  O49  1  0.91788717  0.70206616  0.55633322  1
  O  O50  1  0.25420430  0.66441442  0.84448673  1
  O  O51  1  0.28154240  0.89716560  0.44549844  1
  O  O52  1  0.56192241  0.67566148  0.63731869  1
  O  O53  1  0.26440485  0.33664912  0.17336333  1
  O  O54  1  0.86003559  0.60467181  0.71290724  1
  O  O55  1  0.39793583  0.69683137  0.53497388  1
  O  O56  1  0.60012859  0.00148000  0.38777184  1
  O  O57  1  0.76962250  0.07493717  0.99126995  1
  O  O58  1  0.08316978  0.29587370  0.44377428  1
  O  O59  1  0.76370003  0.83391205  0.65556421  1
  O  O60  1  0.53767383  0.99787194  0.88941810  1
  O  O61  1  0.31422336  0.36665921  0.68263367  1
  O  O62  1  0.99173542  0.49822466  0.11244252  1
  O  O63  1  0.84091627  0.21906824  0.81419202  1
  O  O64  1  0.39360559  0.99983298  0.61299079  1
  O  O65  1  0.87263394  0.28098712  0.68725992  1
  O  O66  1  0.96632849  0.48542982  0.62387944  1
  O  O67  1  0.08479664  0.88240528  0.57414374  1
  O  O68  1  0.44207278  0.32297025  0.36209808  1
  O  O69  1  0.46135364  0.00098021  0.11134805  1
  O  O70  1  0.78087904  0.16224801  0.32591224  1
  O  O71  1  0.07563293  0.01502736  0.87600386  1
  O  O72  1  0.70561915  0.90078472  0.48773137  1
  O  O73  1  0.82596950  0.10370768  0.21319516  1
  O  O74  1  0.00559738  0.50094679  0.88770681  1
  O  O75  1  0.08806460  0.59713011  0.01123034  1
  O  O76  1  0.82026993  0.20059299  0.05706199  1
  O  O77  1  0.38279748  0.59350998  0.72566796  1
  O  O78  1  0.91698876  0.11731069  0.42582801  1
  O  O79  1  0.36732062  0.13280072  0.81783441  1
  O  O80  1  0.73300861  0.66449557  0.82627882  1
  O  O81  1  0.72234217  0.10093546  0.55700896  1
  O  O82  1  0.61943316  0.60067953  0.05654856  1
  O  O83  1  0.37460203  0.39772728  0.94468861  1
  O  O84  1  0.87657069  0.82498786  0.86163951  1
  O  O85  1  0.22474808  0.92558382  0.00785087  1
  O  O86  1  0.03425468  0.51328658  0.37581396  1
  O  O87  1  0.13544085  0.39278015  0.28719163  1
  O  O88  1  0.57277028  0.49880578  0.39007142  1
  O  O89  1  0.42911268  0.50026344  0.61087061  1
  O  O90  1  0.63977865  0.86384554  0.18155526  1
  O  O91  1  0.11440545  0.59525965  0.21840644  1
  O  O92  1  0.29823073  0.09391712  0.22695700  1
  O  O93  1  0.45945814  0.38039370  0.07330048  1
  O  O94  1  0.56827202  0.62733610  0.21180795  1
  O  O95  1  0.17668893  0.79758467  0.94327148  1
  O  O96  1  0.90670256  0.40088324  0.98792102  1
  O  O97  1  0.36511429  0.19842749  0.03293270  1
  O  O98  1  0.07761543  0.09675939  0.71918769  1
  O  O99  1  0.43368220  0.37048581  0.78735709  1
  O  O100  1  0.40455730  0.87184295  0.28850789  1
  O  O101  1  0.60342748  0.30162661  0.46490922  1
  O  O102  1  0.61092755  0.40805384  0.27299588  1
  O  O103  1  0.74389242  0.33309679  0.15547560  1
  O  O104  1  0.83886481  0.42615627  0.50674540  1
  O  O105  1  0.68421068  0.63152508  0.31726643  1
  O  O106  1  0.92544535  0.90488439  0.28019095  1
  O  O107  1  0.16081256  0.57538165  0.49085298  1
  O  O108  1  0.54150100  0.62008441  0.92648401  1
  O  O109  1  0.22160289  0.83492168  0.67360364  1
  O  O110  1  0.12246148  0.72017884  0.31444800  1
  O  O111  1  0.88476593  0.40523658  0.78065926  1
  O  O112  1  0.16495771  0.78045772  0.18688587  1
  O  O113  1  0.92396548  0.98667466  0.12372559  1
  O  O114  1  0.59895524  0.12704443  0.71181706  1
  O  O115  1  0.13075621  0.17430758  0.13791213  1
  O  O116  1  0.70056346  0.90591253  0.77340319  1
  O  O117  1  0.23864177  0.16479856  0.34415375  1
  O  O118  1  0.30098184  0.09951473  0.51209853  1
  O  O119  1  0.62963234  0.80240346  0.96558366  1
