# generated using pymatgen
data_La8Al4I7
_symmetry_space_group_name_H-M   'P 1'
_cell_length_a   18.07869215
_cell_length_b   18.07869215
_cell_length_c   27.93061822
_cell_angle_alpha   63.15881575
_cell_angle_beta   116.84118425
_cell_angle_gamma   166.21600029
_symmetry_Int_Tables_number   1
_chemical_formula_structural   La8Al4I7
_chemical_formula_sum   'La24 Al12 I21'
_cell_volume   1937.08213831
_cell_formula_units_Z   3
loop_
 _symmetry_equiv_pos_site_id
 _symmetry_equiv_pos_as_xyz
  1  'x, y, z'
loop_
 _atom_site_type_symbol
 _atom_site_label
 _atom_site_symmetry_multiplicity
 _atom_site_fract_x
 _atom_site_fract_y
 _atom_site_fract_z
 _atom_site_occupancy
  La  La0  1  0.39168060  0.60831940  0.52523925  1
  La  La1  1  0.60831940  0.39168060  0.47476075  1
  La  La2  1  0.00236837  0.99763163  0.57663160  1
  La  La3  1  0.99763163  0.00236837  0.42336840  1
  La  La4  1  0.97677763  0.02322237  0.08111973  1
  La  La5  1  0.02322237  0.97677763  0.91888027  1
  La  La6  1  0.38512968  0.61487032  0.35863045  1
  La  La7  1  0.61487032  0.38512968  0.64136955  1
  La  La8  1  0.80743090  0.19256910  0.39720444  1
  La  La9  1  0.19256910  0.80743090  0.60279556  1
  La  La10  1  0.17174219  0.82825781  0.24705635  1
  La  La11  1  0.82825781  0.17174219  0.75294365  1
  La  La12  1  0.79044615  0.20955385  0.06581933  1
  La  La13  1  0.20955385  0.79044615  0.93418067  1
  La  La14  1  0.58369712  0.41630288  0.12251168  1
  La  La15  1  0.41630288  0.58369712  0.87748832  1
  La  La16  1  0.59775718  0.40224282  0.29770668  1
  La  La17  1  0.40224282  0.59775718  0.70229332  1
  La  La18  1  0.01196252  0.98803748  0.76307335  1
  La  La19  1  0.98803748  0.01196252  0.23692665  1
  La  La20  1  0.37471860  0.62528140  0.18722877  1
  La  La21  1  0.62528140  0.37471860  0.81277123  1
  La  La22  1  0.35935728  0.64064272  0.02103459  1
  La  La23  1  0.64064272  0.35935728  0.97896541  1
  Al  Al24  1  0.91154445  0.08845555  0.45400513  1
  Al  Al25  1  0.08845555  0.91154445  0.54599487  1
  Al  Al26  1  0.06983195  0.93016805  0.19986765  1
  Al  Al27  1  0.93016805  0.06983195  0.80013235  1
  Al  Al28  1  0.45963339  0.54036661  0.47670876  1
  Al  Al29  1  0.54036661  0.45963339  0.52329124  1
  Al  Al30  1  0.89587948  0.10412052  0.11819444  1
  Al  Al31  1  0.10412052  0.89587948  0.88180556  1
  Al  Al32  1  0.44097562  0.55902438  0.13870316  1
  Al  Al33  1  0.55902438  0.44097562  0.86129684  1
  Al  Al34  1  0.52205633  0.47794367  0.17734911  1
  Al  Al35  1  0.47794367  0.52205633  0.82265089  1
  I  I36  1  0.69917451  0.30082549  0.34343109  1
  I  I37  1  0.30082549  0.69917451  0.65656891  1
  I  I38  1  0.68489484  0.31510516  0.17161221  1
  I  I39  1  0.31510516  0.68489484  0.82838779  1
  I  I40  1  0.28254933  0.71745067  0.29969493  1
  I  I41  1  0.71745067  0.28254933  0.70030507  1
  I  I42  1  0.86546753  0.13453247  0.59832309  1
  I  I43  1  0.13453247  0.86546753  0.40167691  1
  I  I44  1  0.47314888  0.52685112  0.65220543  1
  I  I45  1  0.52685112  0.47314888  0.34779457  1
  I  I46  1  0.07903422  0.92096578  0.70640129  1
  I  I47  1  0.92096578  0.07903422  0.29359871  1
  I  I48  1  0.80499555  0.19500445  0.18856468  1
  I  I49  1  0.19500445  0.80499555  0.81143532  1
  I  I50  1  0.21683848  0.78316152  0.05629391  1
  I  I51  1  0.78316152  0.21683848  0.94370609  1
  I  I52  1  0.89551240  0.10448760  0.95977208  1
  I  I53  1  0.10448760  0.89551240  0.04022792  1
  I  I54  1  0.50000000  0.50000000  -0.00000000  1
  I  I55  1  0.29005726  0.70994274  0.46965665  1
  I  I56  1  0.70994274  0.29005726  0.53034335  1
