# generated using pymatgen
data_Ba2Fe6O11
_symmetry_space_group_name_H-M   'P 1'
_cell_length_a   5.26835243
_cell_length_b   9.09608636
_cell_length_c   23.53977788
_cell_angle_alpha   90.00061113
_cell_angle_beta   89.98770931
_cell_angle_gamma   90.00059583
_symmetry_Int_Tables_number   1
_chemical_formula_structural   Ba2Fe6O11
_chemical_formula_sum   'Ba8 Fe24 O44'
_cell_volume   1128.05881844
_cell_formula_units_Z   4
loop_
 _symmetry_equiv_pos_site_id
 _symmetry_equiv_pos_as_xyz
  1  'x, y, z'
loop_
 _atom_site_type_symbol
 _atom_site_label
 _atom_site_symmetry_multiplicity
 _atom_site_fract_x
 _atom_site_fract_y
 _atom_site_fract_z
 _atom_site_occupancy
  Ba  Ba0  1  0.89331965  0.49998695  0.35972924  1
  Ba  Ba1  1  0.02321095  0.00000509  0.65356032  1
  Ba  Ba2  1  0.47642204  0.49997633  0.15367872  1
  Ba  Ba3  1  0.10664292  0.50008470  0.64029205  1
  Ba  Ba4  1  0.97677052  0.99998469  0.34647241  1
  Ba  Ba5  1  0.60648867  0.00011776  0.85970992  1
  Ba  Ba6  1  0.52338507  0.50000960  0.84631663  1
  Ba  Ba7  1  0.39355633  0.00003098  0.14026377  1
  Fe  Fe8  1  0.99998018  0.66642909  0.50000855  1
  Fe  Fe9  1  0.99452000  0.32120019  0.07297264  1
  Fe  Fe10  1  0.49997780  0.50002340  0.50001614  1
  Fe  Fe11  1  0.49464893  0.82122043  0.42714208  1
  Fe  Fe12  1  0.89085859  0.20595414  0.21418559  1
  Fe  Fe13  1  0.99999338  0.33362703  0.50002016  1
  Fe  Fe14  1  0.50000064  0.16642220  0.99999000  1
  Fe  Fe15  1  0.50531506  0.17876536  0.57286538  1
  Fe  Fe16  1  0.49470567  0.17874062  0.42716780  1
  Fe  Fe17  1  0.39080586  0.29408447  0.28592430  1
  Fe  Fe18  1  0.39083969  0.70593359  0.28590251  1
  Fe  Fe19  1  0.89082658  0.79402021  0.21417020  1
  Fe  Fe20  1  0.10919404  0.20596351  0.78579810  1
  Fe  Fe21  1  0.50000990  0.83357481  0.99998270  1
  Fe  Fe22  1  0.10920715  0.79402348  0.78583307  1
  Fe  Fe23  1  0.60923241  0.29409564  0.71407457  1
  Fe  Fe24  1  0.99999607  0.00001004  0.50001595  1
  Fe  Fe25  1  0.99453264  0.67878135  0.07295531  1
  Fe  Fe26  1  0.00544503  0.67877209  0.92701951  1
  Fe  Fe27  1  0.00545507  0.32122994  0.92700388  1
  Fe  Fe28  1  0.60920838  0.70591890  0.71410651  1
  Fe  Fe29  1  0.49996817  0.49997920  0.99999176  1
  Fe  Fe30  1  0.50532041  0.82124583  0.57288368  1
  Fe  Fe31  1  0.00001612  0.00000792  0.99998300  1
  O  O32  1  0.18055348  0.15474619  0.04931213  1
  O  O33  1  0.68057125  0.34532296  0.45073715  1
  O  O34  1  0.46876222  0.76352039  0.78575660  1
  O  O35  1  0.03135561  0.26336046  0.28589550  1
  O  O36  1  0.50863092  0.82353764  0.34659647  1
  O  O37  1  0.49131177  0.82348878  0.65342280  1
  O  O38  1  0.81946731  0.15475950  0.95066564  1
  O  O39  1  0.03134586  0.73661111  0.28587358  1
  O  O40  1  0.68292998  0.99995962  0.44482300  1
  O  O41  1  0.44773364  0.50001275  0.29652913  1
  O  O42  1  0.05220361  0.99999596  0.79651898  1
  O  O43  1  0.17180103  0.50001523  0.45530267  1
  O  O44  1  0.18055532  0.84526123  0.04931000  1
  O  O45  1  0.32821129  0.00000187  0.95529292  1
  O  O46  1  0.55226496  0.50000888  0.70346673  1
  O  O47  1  0.64896339  0.33690331  0.04932424  1
  O  O48  1  0.67181657  0.00000012  0.04467621  1
  O  O49  1  0.35101526  0.33690221  0.95064696  1
  O  O50  1  0.53127250  0.76350212  0.21425158  1
  O  O51  1  0.49145721  0.17641741  0.65340395  1
  O  O52  1  0.96871285  0.26340290  0.71409339  1
  O  O53  1  0.18295671  0.49997713  0.05528350  1
  O  O54  1  0.96867950  0.73658540  0.71412956  1
  O  O55  1  0.85110422  0.83690186  0.54933564  1
  O  O56  1  0.99152199  0.67644136  0.84644469  1
  O  O57  1  0.94777840  0.99999305  0.20343993  1
  O  O58  1  0.53132061  0.23645680  0.21428696  1
  O  O59  1  0.00855816  0.67650491  0.15353418  1
  O  O60  1  0.81698086  0.49998770  0.94469153  1
  O  O61  1  0.64897564  0.66309161  0.04930853  1
  O  O62  1  0.00861256  0.32343040  0.15354858  1
  O  O63  1  0.46872767  0.23647541  0.78571525  1
  O  O64  1  0.85112331  0.16312894  0.54932926  1
  O  O65  1  0.81945274  0.84527931  0.95064840  1
  O  O66  1  0.31939643  0.65470161  0.54929671  1
  O  O67  1  0.31705284  0.99998814  0.55520776  1
  O  O68  1  0.68057990  0.65466550  0.45070805  1
  O  O69  1  0.50868907  0.17653400  0.34662542  1
  O  O70  1  0.35100662  0.66308010  0.95066497  1
  O  O71  1  0.82815390  0.50003796  0.54472453  1
  O  O72  1  0.14887063  0.83689320  0.45068990  1
  O  O73  1  0.14889663  0.16311730  0.45070760  1
  O  O74  1  0.31939689  0.34535432  0.54931381  1
  O  O75  1  0.99137474  0.32342383  0.84642911  1
