# generated using pymatgen
data_CdI2
_symmetry_space_group_name_H-M   'P 1'
_cell_length_a   4.34447696
_cell_length_b   4.34447723
_cell_length_c   110.42495819
_cell_angle_alpha   90.00000000
_cell_angle_beta   90.00000000
_cell_angle_gamma   119.99999798
_symmetry_Int_Tables_number   1
_chemical_formula_structural   CdI2
_chemical_formula_sum   'Cd15 I30'
_cell_volume   1804.98213307
_cell_formula_units_Z   15
loop_
 _symmetry_equiv_pos_site_id
 _symmetry_equiv_pos_as_xyz
  1  'x, y, z'
loop_
 _atom_site_type_symbol
 _atom_site_label
 _atom_site_symmetry_multiplicity
 _atom_site_fract_x
 _atom_site_fract_y
 _atom_site_fract_z
 _atom_site_occupancy
  Cd  Cd0  1  0.33333300  0.66666700  0.21667608  1
  Cd  Cd1  1  0.33333300  0.66666700  0.81666906  1
  Cd  Cd2  1  0.00000000  0.00000000  0.48333949  1
  Cd  Cd3  1  0.33333300  0.66666700  0.01666622  1
  Cd  Cd4  1  0.33333300  0.66666700  0.35000433  1
  Cd  Cd5  1  0.33333300  0.66666700  0.61666496  1
  Cd  Cd6  1  0.33333300  0.66666700  0.88334116  1
  Cd  Cd7  1  0.00000000  0.00000000  0.68331608  1
  Cd  Cd8  1  0.33333300  0.66666700  0.55001227  1
  Cd  Cd9  1  0.33333300  0.66666700  0.41665790  1
  Cd  Cd10  1  0.00000000  0.00000000  0.08332086  1
  Cd  Cd11  1  0.00000000  0.00000000  0.28333156  1
  Cd  Cd12  1  0.33333300  0.66666700  0.14999527  1
  Cd  Cd13  1  0.00000000  0.00000000  0.94999329  1
  Cd  Cd14  1  0.33333300  0.66666700  0.74999235  1
  I  I15  1  0.00000000  0.00000000  0.73432917  1
  I  I16  1  0.66666700  0.33333300  0.43231924  1
  I  I17  1  0.00000000  0.00000000  0.20101530  1
  I  I18  1  0.33333300  0.66666700  0.66764915  1
  I  I19  1  0.33333300  0.66666700  0.26766137  1
  I  I20  1  0.66666700  0.33333300  0.56567602  1
  I  I21  1  0.00000000  0.00000000  0.86768162  1
  I  I22  1  0.66666700  0.33333300  0.23233995  1
  I  I23  1  0.00000000  0.00000000  0.53434883  1
  I  I24  1  0.66666700  0.33333300  0.89900678  1
  I  I25  1  0.00000000  0.00000000  0.60100785  1
  I  I26  1  0.66666700  0.33333300  0.96566003  1
  I  I27  1  0.66666700  0.33333300  0.69898202  1
  I  I28  1  0.00000000  0.00000000  0.40099792  1
  I  I29  1  0.00000000  0.00000000  0.80101264  1
  I  I30  1  0.66666700  0.33333300  0.76565342  1
  I  I31  1  0.33333300  0.66666700  0.06766231  1
  I  I32  1  0.33333300  0.66666700  0.46767395  1
  I  I33  1  0.66666700  0.33333300  0.09899010  1
  I  I34  1  0.66666700  0.33333300  0.63233031  1
  I  I35  1  0.66666700  0.33333300  0.29899648  1
  I  I36  1  0.00000000  0.00000000  0.00100992  1
  I  I37  1  0.00000000  0.00000000  0.13434083  1
  I  I38  1  0.66666700  0.33333300  0.83233736  1
  I  I39  1  0.66666700  0.33333300  0.36566699  1
  I  I40  1  0.66666700  0.33333300  0.03233131  1
  I  I41  1  0.00000000  0.00000000  0.33434294  1
  I  I42  1  0.66666700  0.33333300  0.49900560  1
  I  I43  1  0.33333300  0.66666700  0.93432442  1
  I  I44  1  0.66666700  0.33333300  0.16566531  1
