# generated using pymatgen
data_CaMgB2O5
_symmetry_space_group_name_H-M   'P 1'
_cell_length_a   5.57114029
_cell_length_b   11.21884282
_cell_length_c   12.40379859
_cell_angle_alpha   90.00000000
_cell_angle_beta   101.73650481
_cell_angle_gamma   90.00000000
_symmetry_Int_Tables_number   1
_chemical_formula_structural   CaMgB2O5
_chemical_formula_sum   'Ca8 Mg8 B16 O40'
_cell_volume   759.05106099
_cell_formula_units_Z   8
loop_
 _symmetry_equiv_pos_site_id
 _symmetry_equiv_pos_as_xyz
  1  'x, y, z'
loop_
 _atom_site_type_symbol
 _atom_site_label
 _atom_site_symmetry_multiplicity
 _atom_site_fract_x
 _atom_site_fract_y
 _atom_site_fract_z
 _atom_site_occupancy
  B  B0  1  0.14734139  0.61944535  0.98857061  1
  B  B1  1  0.87145144  0.37585670  0.50941331  1
  B  B2  1  0.62854856  0.87585670  0.49058669  1
  B  B3  1  0.12854856  0.62414330  0.49058669  1
  B  B4  1  0.37145144  0.12414330  0.50941331  1
  B  B5  1  0.35265861  0.11944535  0.01142939  1
  B  B6  1  0.85265861  0.38055465  0.01142939  1
  B  B7  1  0.64734139  0.88055465  0.98857061  1
  B  B8  1  0.20811131  0.38237842  0.67355076  1
  B  B9  1  0.29188869  0.88237842  0.32644924  1
  B  B10  1  0.79188869  0.61762158  0.32644924  1
  B  B11  1  0.70811131  0.11762158  0.67355076  1
  B  B12  1  0.79832043  0.62537424  0.82564605  1
  B  B13  1  0.70167957  0.12537424  0.17435395  1
  B  B14  1  0.20167957  0.37462576  0.17435395  1
  B  B15  1  0.29832043  0.87462576  0.82564605  1
  O  O16  1  0.18757143  0.66881127  0.59511697  1
  O  O17  1  0.68627345  0.41909324  0.07033053  1
  O  O18  1  0.18627345  0.08090676  0.07033053  1
  O  O19  1  0.31372655  0.58090676  0.92966947  1
  O  O20  1  0.19673988  0.09275319  0.56716313  1
  O  O21  1  0.30326012  0.59275319  0.43283687  1
  O  O22  1  0.80326012  0.90724681  0.43283687  1
  O  O23  1  0.69673988  0.40724681  0.56716313  1
  O  O24  1  0.28354640  0.15793250  0.90493908  1
  O  O25  1  0.21645360  0.65793250  0.09506092  1
  O  O26  1  0.71645360  0.84206750  0.09506092  1
  O  O27  1  0.81372655  0.91909324  0.92966947  1
  O  O28  1  0.78354640  0.34206750  0.90493908  1
  O  O29  1  0.68757143  0.83118873  0.59511697  1
  O  O30  1  0.81242857  0.33118873  0.40488303  1
  O  O31  1  0.31242857  0.16881127  0.40488303  1
  O  O32  1  0.10592066  0.80204067  0.78158573  1
  O  O33  1  0.39407934  0.30204067  0.21841427  1
  O  O34  1  0.89407934  0.19795933  0.21841427  1
  O  O35  1  0.60592066  0.69795933  0.78158573  1
  O  O36  1  0.59498907  0.19580194  0.73236184  1
  O  O37  1  0.90501093  0.69580194  0.26763816  1
  O  O38  1  0.40501093  0.80419806  0.26763816  1
  O  O39  1  0.09498907  0.30419806  0.73236184  1
  O  O40  1  0.40094462  0.94913761  0.75952674  1
  O  O41  1  0.09905538  0.44913761  0.24047326  1
  O  O42  1  0.59905538  0.05086239  0.24047326  1
  O  O43  1  0.90094462  0.55086239  0.75952674  1
  O  O44  1  0.89596432  0.04564004  0.72595903  1
  O  O45  1  0.60403568  0.54564004  0.27404097  1
  O  O46  1  0.10403568  0.95435996  0.27404097  1
  O  O47  1  0.39596432  0.45435996  0.72595903  1
  O  O48  1  0.39205128  0.87038994  0.94152218  1
  O  O49  1  0.10794872  0.37038994  0.05847782  1
  O  O50  1  0.60794872  0.12961006  0.05847782  1
  O  O51  1  0.89205128  0.62961006  0.94152218  1
  O  O52  1  0.62643543  0.11180399  0.55762596  1
  O  O53  1  0.87356457  0.61180399  0.44237404  1
  O  O54  1  0.12643543  0.38819601  0.55762596  1
  O  O55  1  0.37356457  0.88819601  0.44237404  1
  Mg  Mg56  1  0.74473005  0.37296885  0.73648543  1
  Mg  Mg57  1  0.75526995  0.87296885  0.26351457  1
  Mg  Mg58  1  0.25526995  0.62703115  0.26351457  1
  Mg  Mg59  1  0.24473005  0.12703115  0.73648543  1
  Mg  Mg60  1  0.25185357  0.62729758  0.76221315  1
  Mg  Mg61  1  0.24814643  0.12729758  0.23778685  1
  Mg  Mg62  1  0.74814643  0.37270242  0.23778685  1
  Mg  Mg63  1  0.75185357  0.87270242  0.76221315  1
  Ca  Ca64  1  0.62950023  0.61942147  0.59205668  1
  Ca  Ca65  1  0.87049977  0.11942147  0.40794332  1
  Ca  Ca66  1  0.37049977  0.38057853  0.40794332  1
  Ca  Ca67  1  0.12950023  0.88057853  0.59205668  1
  Ca  Ca68  1  0.34839228  0.37230624  0.91099421  1
  Ca  Ca69  1  0.15160772  0.87230624  0.08900579  1
  Ca  Ca70  1  0.65160772  0.62769376  0.08900579  1
  Ca  Ca71  1  0.84839228  0.12769376  0.91099421  1
