# generated using pymatgen
data_Yb(NdS2)2
_symmetry_space_group_name_H-M   'P 1'
_cell_length_a   7.41414899
_cell_length_b   7.41414873
_cell_length_c   7.41414856
_cell_angle_alpha   109.56887306
_cell_angle_beta   109.27609795
_cell_angle_gamma   109.56886602
_symmetry_Int_Tables_number   1
_chemical_formula_structural   Yb(NdS2)2
_chemical_formula_sum   'Yb2 Nd4 S8'
_cell_volume   313.73157140
_cell_formula_units_Z   2
loop_
 _symmetry_equiv_pos_site_id
 _symmetry_equiv_pos_as_xyz
  1  'x, y, z'
loop_
 _atom_site_type_symbol
 _atom_site_label
 _atom_site_symmetry_multiplicity
 _atom_site_fract_x
 _atom_site_fract_y
 _atom_site_fract_z
 _atom_site_occupancy
  Yb  Yb0  1  0.12500000  0.75000000  0.87500000  1
  Yb  Yb1  1  0.37500000  0.25000000  0.62500000  1
  Nd  Nd2  1  0.25000000  0.62847591  0.37847591  1
  Nd  Nd3  1  0.62152409  0.37152409  0.25000000  1
  Nd  Nd4  1  0.75000000  0.87152409  0.12152409  1
  Nd  Nd5  1  0.87847591  0.12847591  0.75000000  1
  S  S6  1  0.14760010  0.14659320  0.14540906  1
  S  S7  1  0.50118414  0.00219104  0.35459094  1
  S  S8  1  0.35239990  0.49780896  0.99899310  1
  S  S9  1  0.64540906  0.64659320  0.64760010  1
  S  S10  1  0.49899310  0.99780896  0.85239990  1
  S  S11  1  0.00100690  0.85340680  0.49881586  1
  S  S12  1  0.85459094  0.50219104  0.00118414  1
  S  S13  1  -0.00118414  0.35340680  0.50100690  1
