# generated using pymatgen
data_CdI2
_symmetry_space_group_name_H-M   'P 1'
_cell_length_a   4.34620572
_cell_length_b   4.34620599
_cell_length_c   80.82506042
_cell_angle_alpha   90.00000000
_cell_angle_beta   90.00000000
_cell_angle_gamma   119.99999798
_symmetry_Int_Tables_number   1
_chemical_formula_structural   CdI2
_chemical_formula_sum   'Cd11 I22'
_cell_volume   1322.20033560
_cell_formula_units_Z   11
loop_
 _symmetry_equiv_pos_site_id
 _symmetry_equiv_pos_as_xyz
  1  'x, y, z'
loop_
 _atom_site_type_symbol
 _atom_site_label
 _atom_site_symmetry_multiplicity
 _atom_site_fract_x
 _atom_site_fract_y
 _atom_site_fract_z
 _atom_site_occupancy
  Cd  Cd0  1  0.66666700  0.33333300  0.20453828  1
  Cd  Cd1  1  0.66666700  0.33333300  0.93181050  1
  Cd  Cd2  1  0.66666700  0.33333300  0.02273524  1
  Cd  Cd3  1  0.66666700  0.33333300  0.65907344  1
  Cd  Cd4  1  0.66666700  0.33333300  0.38639365  1
  Cd  Cd5  1  0.66666700  0.33333300  0.74999426  1
  Cd  Cd6  1  0.66666700  0.33333300  0.84090132  1
  Cd  Cd7  1  0.00000000  0.00000000  0.56819077  1
  Cd  Cd8  1  0.00000000  0.00000000  0.11363624  1
  Cd  Cd9  1  0.66666700  0.33333300  0.47727737  1
  Cd  Cd10  1  0.00000000  0.00000000  0.29544972  1
  I  I11  1  0.33333300  0.66666700  0.58956481  1
  I  I12  1  0.00000000  0.00000000  0.45587994  1
  I  I13  1  0.33333300  0.66666700  0.40778678  1
  I  I14  1  0.00000000  0.00000000  0.18314995  1
  I  I15  1  0.00000000  0.00000000  0.63767557  1
  I  I16  1  0.33333300  0.66666700  0.86229705  1
  I  I17  1  0.33333300  0.66666700  0.95320168  1
  I  I18  1  0.00000000  0.00000000  0.72858824  1
  I  I19  1  0.66666700  0.33333300  0.27407225  1
  I  I20  1  0.33333300  0.66666700  0.77138075  1
  I  I21  1  0.00000000  0.00000000  0.81951599  1
  I  I22  1  0.33333300  0.66666700  0.04413014  1
  I  I23  1  0.33333300  0.66666700  0.22592603  1
  I  I24  1  0.66666700  0.33333300  0.09223942  1
  I  I25  1  0.00000000  0.00000000  0.91039162  1
  I  I26  1  0.00000000  0.00000000  0.00136833  1
  I  I27  1  0.33333300  0.66666700  0.31686403  1
  I  I28  1  0.66666700  0.33333300  0.54680686  1
  I  I29  1  0.00000000  0.00000000  0.36499830  1
  I  I30  1  0.33333300  0.66666700  0.68046564  1
  I  I31  1  0.33333300  0.66666700  0.13503471  1
  I  I32  1  0.33333300  0.66666700  0.49866109  1
