# generated using pymatgen
data_CdI2
_symmetry_space_group_name_H-M   'P 1'
_cell_length_a   4.34284316
_cell_length_b   4.34284343
_cell_length_c   88.55334574
_cell_angle_alpha   90.00000000
_cell_angle_beta   90.00000000
_cell_angle_gamma   119.99999796
_symmetry_Int_Tables_number   1
_chemical_formula_structural   CdI2
_chemical_formula_sum   'Cd12 I24'
_cell_volume   1446.38507700
_cell_formula_units_Z   12
loop_
 _symmetry_equiv_pos_site_id
 _symmetry_equiv_pos_as_xyz
  1  'x, y, z'
loop_
 _atom_site_type_symbol
 _atom_site_label
 _atom_site_symmetry_multiplicity
 _atom_site_fract_x
 _atom_site_fract_y
 _atom_site_fract_z
 _atom_site_occupancy
  Cd  Cd0  1  0.00000000  0.00000000  0.27081903  1
  Cd  Cd1  1  0.66666700  0.33333300  0.52084828  1
  Cd  Cd2  1  0.66666700  0.33333300  0.02083623  1
  Cd  Cd3  1  0.00000000  0.00000000  0.43748688  1
  Cd  Cd4  1  0.00000000  0.00000000  0.10415255  1
  Cd  Cd5  1  0.66666700  0.33333300  0.35418284  1
  Cd  Cd6  1  0.66666700  0.33333300  0.18750495  1
  Cd  Cd7  1  0.66666700  0.33333300  0.93748860  1
  Cd  Cd8  1  0.66666700  0.33333300  0.68750962  1
  Cd  Cd9  1  0.66666700  0.33333300  0.77081009  1
  Cd  Cd10  1  0.33333300  0.66666700  0.85417704  1
  Cd  Cd11  1  0.66666700  0.33333300  0.60414461  1
  I  I12  1  0.00000000  0.00000000  0.16798201  1
  I  I13  1  0.33333300  0.66666700  0.79035326  1
  I  I14  1  0.66666700  0.33333300  0.08461111  1
  I  I15  1  0.33333300  0.66666700  0.45702482  1
  I  I16  1  0.33333300  0.66666700  0.20704451  1
  I  I17  1  0.33333300  0.66666700  0.95702570  1
  I  I18  1  0.00000000  0.00000000  0.83465556  1
  I  I19  1  0.00000000  0.00000000  0.66798213  1
  I  I20  1  0.66666700  0.33333300  0.87371550  1
  I  I21  1  0.00000000  0.00000000  0.91796311  1
  I  I22  1  0.00000000  0.00000000  0.58462175  1
  I  I23  1  0.33333300  0.66666700  0.54038480  1
  I  I24  1  0.33333300  0.66666700  0.12369089  1
  I  I25  1  0.33333300  0.66666700  0.04037609  1
  I  I26  1  0.00000000  0.00000000  0.75128687  1
  I  I27  1  0.33333300  0.66666700  0.29035705  1
  I  I28  1  0.00000000  0.00000000  0.33465669  1
  I  I29  1  0.33333300  0.66666700  0.37371814  1
  I  I30  1  0.66666700  0.33333300  0.41794595  1
  I  I31  1  0.33333300  0.66666700  0.70704772  1
  I  I32  1  0.00000000  0.00000000  0.00130646  1
  I  I33  1  0.66666700  0.33333300  0.25127811  1
  I  I34  1  0.33333300  0.66666700  0.62368889  1
  I  I35  1  0.00000000  0.00000000  0.50132215  1
