# generated using pymatgen
data_Li49Cu8N19
_symmetry_space_group_name_H-M   'P 1'
_cell_length_a   3.67743877
_cell_length_b   3.67743877
_cell_length_c   71.35068542
_cell_angle_alpha   90.00000000
_cell_angle_beta   90.00000000
_cell_angle_gamma   120.00000202
_symmetry_Int_Tables_number   1
_chemical_formula_structural   Li49Cu8N19
_chemical_formula_sum   'Li49 Cu8 N19'
_cell_volume   835.64087203
_cell_formula_units_Z   1
loop_
 _symmetry_equiv_pos_site_id
 _symmetry_equiv_pos_as_xyz
  1  'x, y, z'
loop_
 _atom_site_type_symbol
 _atom_site_label
 _atom_site_symmetry_multiplicity
 _atom_site_fract_x
 _atom_site_fract_y
 _atom_site_fract_z
 _atom_site_occupancy
  Li  Li0  1  -0.00000000  -0.00000000  0.68416814  1
  Li  Li1  1  -0.00000000  -0.00000000  0.78906823  1
  Li  Li2  1  0.33333300  0.66666700  0.65646918  1
  Li  Li3  1  -0.00000000  0.00000000  0.84202345  1
  Li  Li4  1  0.33333300  0.66666700  0.71187388  1
  Li  Li5  1  -0.00000000  -0.00000000  0.89460143  1
  Li  Li6  1  0.33333300  0.66666700  0.76181854  1
  Li  Li7  1  -0.00000000  -0.00000000  0.94716066  1
  Li  Li8  1  0.33333300  0.66666700  0.81577023  1
  Li  Li9  1  -0.00000000  -0.00000000  0.00000000  1
  Li  Li10  1  0.33333300  0.66666700  0.86835103  1
  Li  Li11  1  -0.00000000  -0.00000000  0.05283934  1
  Li  Li12  1  -0.00000000  0.00000000  0.10539857  1
  Li  Li13  1  0.33333300  0.66666700  0.92092946  1
  Li  Li14  1  0.33333300  0.66666700  0.97340875  1
  Li  Li15  1  -0.00000000  0.00000000  0.21093177  1
  Li  Li16  1  0.33333300  0.66666700  0.02659125  1
  Li  Li17  1  0.33333300  0.66666700  0.07907054  1
  Li  Li18  1  0.33333300  0.66666700  0.13164897  1
  Li  Li19  1  0.33333300  0.66666700  0.18422977  1
  Li  Li20  1  0.33333300  0.66666700  0.23818146  1
  Li  Li21  1  0.33333300  0.66666700  0.28812612  1
  Li  Li22  1  0.33333300  0.66666700  0.34353082  1
  Li  Li23  1  0.33333300  0.66666700  0.39478812  1
  Li  Li24  1  0.33333300  0.66666700  0.44737825  1
  Li  Li25  1  0.33333300  0.66666700  0.50000000  1
  Li  Li26  1  0.33333300  0.66666700  0.55262175  1
  Li  Li27  1  0.33333300  0.66666700  0.60521188  1
  Li  Li28  1  0.66666700  0.33333300  0.65646918  1
  Li  Li29  1  0.66666700  0.33333300  0.71187388  1
  Li  Li30  1  0.66666700  0.33333300  0.76181854  1
  Li  Li31  1  0.66666700  0.33333300  0.81577023  1
  Li  Li32  1  0.66666700  0.33333300  0.92092946  1
  Li  Li33  1  0.66666700  0.33333300  0.86835103  1
  Li  Li34  1  0.66666700  0.33333300  0.97340875  1
  Li  Li35  1  0.66666700  0.33333300  0.02659125  1
  Li  Li36  1  0.66666700  0.33333300  0.07907054  1
  Li  Li37  1  0.66666700  0.33333300  0.13164897  1
  Li  Li38  1  0.66666700  0.33333300  0.18422977  1
  Li  Li39  1  0.66666700  0.33333300  0.23818146  1
  Li  Li40  1  0.66666700  0.33333300  0.28812612  1
  Li  Li41  1  0.66666700  0.33333300  0.34353082  1
  Li  Li42  1  0.66666700  0.33333300  0.44737825  1
  Li  Li43  1  0.66666700  0.33333300  0.39478812  1
  Li  Li44  1  0.66666700  0.33333300  0.50000000  1
  Li  Li45  1  0.66666700  0.33333300  0.55262175  1
  Li  Li46  1  0.66666700  0.33333300  0.60521188  1
  Li  Li47  1  -0.00000000  -0.00000000  0.15797655  1
  Li  Li48  1  -0.00000000  0.00000000  0.31583186  1
  Cu  Cu49  1  -0.00000000  -0.00000000  0.73680070  1
  Cu  Cu50  1  -0.00000000  -0.00000000  0.26319930  1
  Cu  Cu51  1  -0.00000000  -0.00000000  0.42110029  1
  Cu  Cu52  1  -0.00000000  -0.00000000  0.47369268  1
  Cu  Cu53  1  -0.00000000  -0.00000000  0.52630732  1
  Cu  Cu54  1  -0.00000000  -0.00000000  0.57889971  1
  Cu  Cu55  1  -0.00000000  -0.00000000  0.63143238  1
  Cu  Cu56  1  -0.00000000  -0.00000000  0.36856762  1
  N  N57  1  -0.00000000  -0.00000000  0.65772736  1
  N  N58  1  -0.00000000  -0.00000000  0.71053607  1
  N  N59  1  -0.00000000  -0.00000000  0.76302106  1
  N  N60  1  -0.00000000  -0.00000000  0.86835832  1
  N  N61  1  -0.00000000  -0.00000000  0.02648939  1
  N  N62  1  -0.00000000  -0.00000000  0.07910466  1
  N  N63  1  -0.00000000  0.00000000  0.23697894  1
  N  N64  1  -0.00000000  -0.00000000  0.39488353  1
  N  N65  1  -0.00000000  -0.00000000  0.44740397  1
  N  N66  1  -0.00000000  -0.00000000  0.50000000  1
  N  N67  1  -0.00000000  -0.00000000  0.55259603  1
  N  N68  1  -0.00000000  -0.00000000  0.81569862  1
  N  N69  1  -0.00000000  -0.00000000  0.92089534  1
  N  N70  1  -0.00000000  -0.00000000  0.97351061  1
  N  N71  1  -0.00000000  -0.00000000  0.13164168  1
  N  N72  1  -0.00000000  -0.00000000  0.18430138  1
  N  N73  1  -0.00000000  -0.00000000  0.28946393  1
  N  N74  1  -0.00000000  -0.00000000  0.34227264  1
  N  N75  1  -0.00000000  -0.00000000  0.60511647  1
