# generated using pymatgen
data_Yb2US3O2
_symmetry_space_group_name_H-M   'P 1'
_cell_length_a   3.78164515
_cell_length_b   3.78164515
_cell_length_c   10.58911948
_cell_angle_alpha   79.71394324
_cell_angle_beta   79.71394324
_cell_angle_gamma   90.00000000
_symmetry_Int_Tables_number   1
_chemical_formula_structural   Yb2US3O2
_chemical_formula_sum   'Yb2 U1 S3 O2'
_cell_volume   146.52537096
_cell_formula_units_Z   1
loop_
 _symmetry_equiv_pos_site_id
 _symmetry_equiv_pos_as_xyz
  1  'x, y, z'
loop_
 _atom_site_type_symbol
 _atom_site_label
 _atom_site_symmetry_multiplicity
 _atom_site_fract_x
 _atom_site_fract_y
 _atom_site_fract_z
 _atom_site_occupancy
  Yb  Yb0  1  0.50508171  0.50508171  0.98983658  1
  Yb  Yb1  1  0.18652994  0.18652994  0.62694012  1
  U  U2  1  0.81138178  0.81138178  0.37723644  1
  S  S3  1  0.37203490  0.37203490  0.25593021  1
  S  S4  1  0.63716058  0.63716058  0.72567885  1
  S  S5  1  0.96462066  0.96462066  0.07075868  1
  O  O6  1  0.76159522  0.26159522  0.47680957  1
  O  O7  1  0.26159522  0.76159522  0.47680957  1
