# generated using pymatgen
data_CdI2
_symmetry_space_group_name_H-M   'P 1'
_cell_length_a   4.34616341
_cell_length_b   4.34616368
_cell_length_c   80.83904771
_cell_angle_alpha   90.00000000
_cell_angle_beta   90.00000000
_cell_angle_gamma   119.99999803
_symmetry_Int_Tables_number   1
_chemical_formula_structural   CdI2
_chemical_formula_sum   'Cd11 I22'
_cell_volume   1322.40340393
_cell_formula_units_Z   11
loop_
 _symmetry_equiv_pos_site_id
 _symmetry_equiv_pos_as_xyz
  1  'x, y, z'
loop_
 _atom_site_type_symbol
 _atom_site_label
 _atom_site_symmetry_multiplicity
 _atom_site_fract_x
 _atom_site_fract_y
 _atom_site_fract_z
 _atom_site_occupancy
  Cd  Cd0  1  0.66666700  0.33333300  0.93181220  1
  Cd  Cd1  1  0.66666700  0.33333300  0.02273407  1
  Cd  Cd2  1  0.66666700  0.33333300  0.84090042  1
  Cd  Cd3  1  0.66666700  0.33333300  0.38639368  1
  Cd  Cd4  1  0.66666700  0.33333300  0.74999485  1
  Cd  Cd5  1  0.00000000  0.00000000  0.20454810  1
  Cd  Cd6  1  0.00000000  0.00000000  0.11364009  1
  Cd  Cd7  1  0.66666700  0.33333300  0.47727887  1
  Cd  Cd8  1  0.66666700  0.33333300  0.29546513  1
  Cd  Cd9  1  0.66666700  0.33333300  0.65907070  1
  Cd  Cd10  1  0.66666700  0.33333300  0.56817457  1
  I  I11  1  0.33333300  0.66666700  0.58955001  1
  I  I12  1  0.00000000  0.00000000  0.54678481  1
  I  I13  1  0.00000000  0.00000000  0.45588265  1
  I  I14  1  0.33333300  0.66666700  0.40778256  1
  I  I15  1  0.00000000  0.00000000  0.63768718  1
  I  I16  1  0.33333300  0.66666700  0.86229325  1
  I  I17  1  0.33333300  0.66666700  0.95319946  1
  I  I18  1  0.00000000  0.00000000  0.72859168  1
  I  I19  1  0.33333300  0.66666700  0.77137866  1
  I  I20  1  0.00000000  0.00000000  0.81951885  1
  I  I21  1  0.33333300  0.66666700  0.04412714  1
  I  I22  1  0.66666700  0.33333300  0.18314104  1
  I  I23  1  0.33333300  0.66666700  0.22592444  1
  I  I24  1  0.66666700  0.33333300  0.09224374  1
  I  I25  1  0.00000000  0.00000000  0.91039713  1
  I  I26  1  0.00000000  0.00000000  0.27408132  1
  I  I27  1  0.00000000  0.00000000  0.00137065  1
  I  I28  1  0.33333300  0.66666700  0.31686685  1
  I  I29  1  0.00000000  0.00000000  0.36500821  1
  I  I30  1  0.33333300  0.66666700  0.68046136  1
  I  I31  1  0.33333300  0.66666700  0.13503617  1
  I  I32  1  0.33333300  0.66666700  0.49866015  1
