# generated using pymatgen
data_Lu4Zr3O12
_symmetry_space_group_name_H-M   'P 1'
_cell_length_a   6.34642823
_cell_length_b   6.34368275
_cell_length_c   12.68640705
_cell_angle_alpha   99.42754458
_cell_angle_beta   99.15518353
_cell_angle_gamma   99.42869089
_symmetry_Int_Tables_number   1
_chemical_formula_structural   Lu4Zr3O12
_chemical_formula_sum   'Lu8 Zr6 O24'
_cell_volume   487.88855988
_cell_formula_units_Z   2
loop_
 _symmetry_equiv_pos_site_id
 _symmetry_equiv_pos_as_xyz
  1  'x, y, z'
loop_
 _atom_site_type_symbol
 _atom_site_label
 _atom_site_symmetry_multiplicity
 _atom_site_fract_x
 _atom_site_fract_y
 _atom_site_fract_z
 _atom_site_occupancy
  Lu  Lu0  1  0.13814323  0.60898333  0.65338396  1
  Lu  Lu1  1  0.39101858  0.68786200  0.93026911  1
  Lu  Lu2  1  0.38915786  0.69496746  0.43007152  1
  Lu  Lu3  1  0.31145878  0.14066223  0.30462355  1
  Lu  Lu4  1  0.60898142  0.31213800  0.56973089  1
  Lu  Lu5  1  0.68854122  0.85933777  0.19537645  1
  Lu  Lu6  1  0.86185677  0.39101667  0.84661604  1
  Lu  Lu7  1  0.61084214  0.30503254  0.06992848  1
  Zr  Zr8  1  0.00564571  0.00435331  0.50119823  1
  Zr  Zr9  1  0.14279832  0.61251833  0.15535601  1
  Zr  Zr10  1  0.99435429  0.99564669  0.99880177  1
  Zr  Zr11  1  0.31536807  0.14300097  0.80611449  1
  Zr  Zr12  1  0.68463193  0.85699903  0.69388551  1
  Zr  Zr13  1  0.85720168  0.38748167  0.34464399  1
  O  O14  1  0.05785568  0.67926281  0.96335447  1
  O  O15  1  0.08827716  0.95244161  0.66167585  1
  O  O16  1  0.04537178  0.67887237  0.45522079  1
  O  O17  1  0.08095341  0.93254634  0.15874218  1
  O  O18  1  0.17971499  0.41587114  0.78708790  1
  O  O19  1  0.31497292  0.07923799  0.96403572  1
  O  O20  1  0.42416956  0.82606860  0.78497153  1
  O  O21  1  0.17244105  0.42825982  0.28696756  1
  O  O22  1  0.32066937  0.07824776  0.47204830  1
  O  O23  1  0.43257759  0.58953504  0.59093315  1
  O  O24  1  0.41034314  0.81732786  0.28253837  1
  O  O25  1  0.56742241  0.41046496  0.90906685  1
  O  O26  1  0.42006584  0.57578023  0.09052531  1
  O  O27  1  0.57583044  0.17393140  0.71502847  1
  O  O28  1  0.57993416  0.42421977  0.40947469  1
  O  O29  1  0.68502708  0.92076201  0.53596428  1
  O  O30  1  0.82028501  0.58412886  0.71291210  1
  O  O31  1  0.58965686  0.18267214  0.21746163  1
  O  O32  1  0.67933063  0.92175224  0.02795170  1
  O  O33  1  0.82755895  0.57174018  0.21303244  1
  O  O34  1  0.91172284  0.04755839  0.83832415  1
  O  O35  1  0.94214432  0.32073719  0.53664553  1
  O  O36  1  0.91904659  0.06745366  0.34125782  1
  O  O37  1  0.95462822  0.32112763  0.04477921  1
