# generated using pymatgen
data_In3Ru
_symmetry_space_group_name_H-M   'P 1'
_cell_length_a   7.09124311
_cell_length_b   7.09306421
_cell_length_c   7.35549735
_cell_angle_alpha   90.02956692
_cell_angle_beta   90.01716557
_cell_angle_gamma   90.00445792
_symmetry_Int_Tables_number   1
_chemical_formula_structural   In3Ru
_chemical_formula_sum   'In12 Ru4'
_cell_volume   369.97146605
_cell_formula_units_Z   4
loop_
 _symmetry_equiv_pos_site_id
 _symmetry_equiv_pos_as_xyz
  1  'x, y, z'
loop_
 _atom_site_type_symbol
 _atom_site_label
 _atom_site_symmetry_multiplicity
 _atom_site_fract_x
 _atom_site_fract_y
 _atom_site_fract_z
 _atom_site_occupancy
  In  In0  1  0.49986082  0.50007394  0.25694247  1
  In  In1  1  -0.00004404  0.99996876  0.75734820  1
  In  In2  1  0.84095916  0.65221693  0.98871706  1
  In  In3  1  -0.00002602  0.00003014  0.24284993  1
  In  In4  1  0.65928416  0.15239394  0.48877095  1
  In  In5  1  0.34080660  0.84784835  0.48857068  1
  In  In6  1  0.15919162  0.34767003  0.98861922  1
  In  In7  1  0.34780490  0.84085169  0.01115228  1
  In  In8  1  0.84767995  0.65914360  0.51153667  1
  In  In9  1  0.65219073  0.15935701  0.01153908  1
  In  In10  1  0.15223193  0.34073602  0.51132202  1
  In  In11  1  0.49989312  0.49971352  0.74257371  1
  Ru  Ru12  1  0.34586776  0.15421171  0.25005590  1
  Ru  Ru13  1  0.65417344  0.84579453  0.25002364  1
  Ru  Ru14  1  0.15422926  0.65419588  0.75005556  1
  Ru  Ru15  1  0.84589662  0.34579397  0.74992262  1
