# generated using pymatgen
data_Gd3B2(O2F)3
_symmetry_space_group_name_H-M   'P 1'
_cell_length_a   6.23672812
_cell_length_b   7.14510417
_cell_length_c   8.36450368
_cell_angle_alpha   96.18442852
_cell_angle_beta   90.00000000
_cell_angle_gamma   115.87655587
_symmetry_Int_Tables_number   1
_chemical_formula_structural   Gd3B2(O2F)3
_chemical_formula_sum   'Gd6 B4 O12 F6'
_cell_volume   332.95477677
_cell_formula_units_Z   2
loop_
 _symmetry_equiv_pos_site_id
 _symmetry_equiv_pos_as_xyz
  1  'x, y, z'
loop_
 _atom_site_type_symbol
 _atom_site_label
 _atom_site_symmetry_multiplicity
 _atom_site_fract_x
 _atom_site_fract_y
 _atom_site_fract_z
 _atom_site_occupancy
  Gd  Gd0  1  0.78622165  0.35604926  0.17983513  1
  Gd  Gd1  1  0.21377835  0.64395074  0.82016487  1
  Gd  Gd2  1  0.10367424  0.00000000  0.25000000  1
  Gd  Gd3  1  0.89632576  0.00000000  0.75000000  1
  Gd  Gd4  1  0.43017239  0.64395074  0.32016487  1
  Gd  Gd5  1  0.56982761  0.35604926  0.67983513  1
  B  B6  1  0.27168255  0.36152358  0.02140540  1
  B  B7  1  0.72831745  0.63847642  0.97859460  1
  B  B8  1  0.08984102  0.36152358  0.52140540  1
  B  B9  1  0.91015898  0.63847642  0.47859460  1
  O  O10  1  0.68445133  0.47811251  0.42508064  1
  O  O11  1  0.94873390  0.70097030  0.64317831  1
  O  O12  1  0.20633882  0.52188749  0.07491936  1
  O  O13  1  0.08212581  0.70116794  0.36613536  1
  O  O14  1  0.24776361  0.29902970  0.85682169  1
  O  O15  1  0.38095787  0.29883206  0.13386464  1
  O  O16  1  0.61904213  0.70116794  0.86613536  1
  O  O17  1  0.79366118  0.47811251  0.92508064  1
  O  O18  1  0.31554867  0.52188749  0.57491936  1
  O  O19  1  0.91787419  0.29883206  0.63386464  1
  O  O20  1  0.75223639  0.70097030  0.14317831  1
  O  O21  1  0.05126610  0.29902970  0.35682169  1
  F  F22  1  0.12705612  0.89521943  0.95857934  1
  F  F23  1  0.87294388  0.10478057  0.04142066  1
  F  F24  1  0.76816331  0.89521943  0.45857934  1
  F  F25  1  0.47824032  0.00000000  0.25000000  1
  F  F26  1  0.23183669  0.10478057  0.54142066  1
  F  F27  1  0.52175968  0.00000000  0.75000000  1
