# generated using pymatgen
data_Cu2Bi8Pb6S19
_symmetry_space_group_name_H-M   'P 1'
_cell_length_a   4.06316871
_cell_length_b   14.20571785
_cell_length_c   15.94226993
_cell_angle_alpha   89.35175596
_cell_angle_beta   82.71876532
_cell_angle_gamma   81.80308168
_symmetry_Int_Tables_number   1
_chemical_formula_structural   Cu2Bi8Pb6S19
_chemical_formula_sum   'Cu2 Bi8 Pb6 S19'
_cell_volume   903.42468970
_cell_formula_units_Z   1
loop_
 _symmetry_equiv_pos_site_id
 _symmetry_equiv_pos_as_xyz
  1  'x, y, z'
loop_
 _atom_site_type_symbol
 _atom_site_label
 _atom_site_symmetry_multiplicity
 _atom_site_fract_x
 _atom_site_fract_y
 _atom_site_fract_z
 _atom_site_occupancy
  Cu  Cu0  1  0.54577679  0.01162684  0.90934264  1
  Cu  Cu1  1  0.45695430  0.98780247  0.08991708  1
  Bi  Bi2  1  0.89730429  0.24632244  0.95525619  1
  Bi  Bi3  1  0.29327619  0.86384316  0.53862409  1
  Bi  Bi4  1  0.09086757  0.10307067  0.70669922  1
  Bi  Bi5  1  0.70101874  0.13622549  0.46094584  1
  Bi  Bi6  1  0.90323919  0.89619143  0.29280337  1
  Bi  Bi7  1  0.09668236  0.75306135  0.04367042  1
  Bi  Bi8  1  0.77911695  0.54610345  0.89504180  1
  Bi  Bi9  1  0.21859104  0.45337517  0.10468265  1
  Pb  Pb10  1  0.68423157  0.84001689  0.77870254  1
  Pb  Pb11  1  0.30094629  0.15929314  0.22050208  1
  Pb  Pb12  1  0.09913196  0.39179490  0.40718546  1
  Pb  Pb13  1  0.50788268  0.63621581  0.34577626  1
  Pb  Pb14  1  0.49390193  0.36317407  0.65462009  1
  Pb  Pb15  1  0.90044994  0.60803904  0.59273752  1
  S  S16  1  0.50414905  0.20871605  0.77616969  1
  S  S17  1  0.30392463  0.02298208  0.37525873  1
  S  S18  1  0.09067879  0.98685462  0.83825891  1
  S  S19  1  0.11275536  0.23403847  0.54629764  1
  S  S20  1  0.91029218  0.01271981  0.16122007  1
  S  S21  1  0.88603609  0.76652866  0.45348321  1
  S  S22  1  0.32711233  0.41109312  0.93325260  1
  S  S23  1  0.90397364  0.47355372  0.72695298  1
  S  S24  1  0.09914992  0.52663039  0.27308088  1
  S  S25  1  0.49416909  0.79060927  0.22361644  1
  S  S26  1  0.56774788  0.86676941  0.99332558  1
  S  S27  1  0.21165716  0.68919189  0.88536030  1
  S  S28  1  0.29246724  0.74534270  0.66655451  1
  S  S29  1  0.50014706  0.49973267  0.50004261  1
  S  S30  1  0.42909332  0.13277486  0.00583803  1
  S  S31  1  0.69615439  0.97633837  0.62499441  1
  S  S32  1  0.67300177  0.58850857  0.06678146  1
  S  S33  1  0.70485103  0.25410561  0.33295314  1
  S  S34  1  0.78877627  0.30998037  0.11371057  1
