# generated using pymatgen
data_CdI2
_symmetry_space_group_name_H-M   'P 1'
_cell_length_a   4.34194081
_cell_length_b   4.34194107
_cell_length_c   146.80109079
_cell_angle_alpha   90.00000000
_cell_angle_beta   90.00000000
_cell_angle_gamma   119.99999792
_symmetry_Int_Tables_number   1
_chemical_formula_structural   CdI2
_chemical_formula_sum   'Cd20 I40'
_cell_volume   2396.77765579
_cell_formula_units_Z   20
loop_
 _symmetry_equiv_pos_site_id
 _symmetry_equiv_pos_as_xyz
  1  'x, y, z'
loop_
 _atom_site_type_symbol
 _atom_site_label
 _atom_site_symmetry_multiplicity
 _atom_site_fract_x
 _atom_site_fract_y
 _atom_site_fract_z
 _atom_site_occupancy
  Cd  Cd0  1  0.66666700  0.33333300  0.96250224  1
  Cd  Cd1  1  0.66666700  0.33333300  0.01249800  1
  Cd  Cd2  1  0.00000000  0.00000000  0.76249093  1
  Cd  Cd3  1  0.66666700  0.33333300  0.31249443  1
  Cd  Cd4  1  0.00000000  0.00000000  0.66249477  1
  Cd  Cd5  1  0.66666700  0.33333300  0.86250021  1
  Cd  Cd6  1  0.00000000  0.00000000  0.46250168  1
  Cd  Cd7  1  0.66666700  0.33333300  0.41250734  1
  Cd  Cd8  1  0.00000000  0.00000000  0.36250517  1
  Cd  Cd9  1  0.66666700  0.33333300  0.61250012  1
  Cd  Cd10  1  0.00000000  0.00000000  0.16249459  1
  Cd  Cd11  1  0.66666700  0.33333300  0.51249740  1
  Cd  Cd12  1  0.00000000  0.00000000  0.91249443  1
  Cd  Cd13  1  0.00000000  0.00000000  0.81249826  1
  Cd  Cd14  1  0.00000000  0.00000000  0.26249339  1
  Cd  Cd15  1  0.66666700  0.33333300  0.21250062  1
  Cd  Cd16  1  0.66666700  0.33333300  0.71249962  1
  Cd  Cd17  1  0.66666700  0.33333300  0.11250007  1
  Cd  Cd18  1  0.00000000  0.00000000  0.56249466  1
  Cd  Cd19  1  0.00000000  0.00000000  0.06249783  1
  I  I20  1  0.00000000  0.00000000  0.10072750  1
  I  I21  1  0.33333300  0.66666700  0.62428409  1
  I  I22  1  0.66666700  0.33333300  0.90071291  1
  I  I23  1  0.33333300  0.66666700  0.82427975  1
  I  I24  1  0.66666700  0.33333300  0.65071361  1
  I  I25  1  0.33333300  0.66666700  0.87428435  1
  I  I26  1  0.33333300  0.66666700  0.52428394  1
  I  I27  1  0.33333300  0.66666700  0.17428294  1
  I  I28  1  0.33333300  0.66666700  0.67428245  1
  I  I29  1  0.00000000  0.00000000  0.60072704  1
  I  I30  1  0.66666700  0.33333300  0.55070856  1
  I  I31  1  0.66666700  0.33333300  0.45071421  1
  I  I32  1  0.33333300  0.66666700  0.92428247  1
  I  I33  1  0.33333300  0.66666700  0.47428424  1
  I  I34  1  0.00000000  0.00000000  0.30071800  1
  I  I35  1  0.33333300  0.66666700  0.57427748  1
  I  I36  1  0.66666700  0.33333300  0.35071925  1
  I  I37  1  0.00000000  0.00000000  0.40072931  1
  I  I38  1  0.00000000  0.00000000  0.95072560  1
  I  I39  1  0.00000000  0.00000000  0.20072549  1
  I  I40  1  0.66666700  0.33333300  0.75070593  1
  I  I41  1  0.66666700  0.33333300  0.05071424  1
  I  I42  1  0.33333300  0.66666700  0.97428380  1
  I  I43  1  0.33333300  0.66666700  0.32427532  1
  I  I44  1  0.33333300  0.66666700  0.02428445  1
  I  I45  1  0.66666700  0.33333300  0.15071355  1
  I  I46  1  0.00000000  0.00000000  0.00072617  1
  I  I47  1  0.33333300  0.66666700  0.27427824  1
  I  I48  1  0.00000000  0.00000000  0.85072674  1
  I  I49  1  0.33333300  0.66666700  0.07428384  1
  I  I50  1  0.33333300  0.66666700  0.12428451  1
  I  I51  1  0.33333300  0.66666700  0.77427735  1
  I  I52  1  0.00000000  0.00000000  0.50072462  1
  I  I53  1  0.00000000  0.00000000  0.70072508  1
  I  I54  1  0.66666700  0.33333300  0.25070713  1
  I  I55  1  0.33333300  0.66666700  0.42428840  1
  I  I56  1  0.33333300  0.66666700  0.22428284  1
  I  I57  1  0.66666700  0.33333300  0.80071688  1
  I  I58  1  0.33333300  0.66666700  0.72428203  1
  I  I59  1  0.33333300  0.66666700  0.37428991  1
