# generated using pymatgen
data_Ho10Te7S10
_symmetry_space_group_name_H-M   'P 1'
_cell_length_a   20.89424349
_cell_length_b   9.87866935
_cell_length_c   7.62223977
_cell_angle_alpha   114.50596473
_cell_angle_beta   105.93055553
_cell_angle_gamma   32.30228321
_symmetry_Int_Tables_number   1
_chemical_formula_structural   Ho10Te7S10
_chemical_formula_sum   'Ho10 Te7 S10'
_cell_volume   755.57359328
_cell_formula_units_Z   1
loop_
 _symmetry_equiv_pos_site_id
 _symmetry_equiv_pos_as_xyz
  1  'x, y, z'
loop_
 _atom_site_type_symbol
 _atom_site_label
 _atom_site_symmetry_multiplicity
 _atom_site_fract_x
 _atom_site_fract_y
 _atom_site_fract_z
 _atom_site_occupancy
  Ho  Ho0  1  0.07198066  0.14861363  0.30416806  1
  Ho  Ho1  1  0.26669619  0.15528381  0.31869609  1
  Ho  Ho2  1  0.13437411  0.83735243  0.69354028  1
  Ho  Ho3  1  0.46552859  0.16814133  0.34204806  1
  Ho  Ho4  1  0.33055812  0.83542747  0.68335581  1
  Ho  Ho5  1  0.66744235  0.16688240  0.34056625  1
  Ho  Ho6  1  0.53679417  0.82098332  0.66407664  1
  Ho  Ho7  1  0.87483050  0.15177801  0.31829115  1
  Ho  Ho8  1  0.74101477  0.81446037  0.65897782  1
  Ho  Ho9  1  0.93999429  0.82805164  0.67682597  1
  Te  Te10  1  0.09681992  0.26667749  0.99744857  1
  Te  Te11  1  0.10603046  0.72741888  0.00090398  1
  Te  Te12  1  0.30615123  0.73253373  0.00259823  1
  Te  Te13  1  0.60179578  0.99583698  0.00121748  1
  Te  Te14  1  0.81537842  0.95917589  0.99889611  1
  Te  Te15  1  0.42260797  0.94642982  0.00198119  1
  Te  Te16  1  0.89701035  0.25735258  0.99615837  1
  S  S17  1  0.14389384  0.27567156  0.56555732  1
  S  S18  1  0.06312368  0.70798708  0.43187459  1
  S  S19  1  0.34349047  0.27704739  0.57899503  1
  S  S20  1  0.25806665  0.70670598  0.43312387  1
  S  S21  1  0.54588498  0.28330363  0.58964048  1
  S  S22  1  0.45762849  0.70417631  0.42503225  1
  S  S23  1  0.74797061  0.28152383  0.57577017  1
  S  S24  1  0.66012820  0.70085358  0.41446353  1
  S  S25  1  0.94955676  0.27546278  0.56416292  1
  S  S26  1  0.86180844  0.70846808  0.42162979  1
