# generated using pymatgen
data_NaCa9TaTi9O30
_symmetry_space_group_name_H-M   'P 1'
_cell_length_a   5.42013766
_cell_length_b   5.51951501
_cell_length_c   38.52537062
_cell_angle_alpha   90.00000000
_cell_angle_beta   90.00000000
_cell_angle_gamma   89.97307385
_symmetry_Int_Tables_number   1
_chemical_formula_structural   NaCa9TaTi9O30
_chemical_formula_sum   'Na2 Ca18 Ta2 Ti18 O60'
_cell_volume   1152.54532421
_cell_formula_units_Z   2
loop_
 _symmetry_equiv_pos_site_id
 _symmetry_equiv_pos_as_xyz
  1  'x, y, z'
loop_
 _atom_site_type_symbol
 _atom_site_label
 _atom_site_symmetry_multiplicity
 _atom_site_fract_x
 _atom_site_fract_y
 _atom_site_fract_z
 _atom_site_occupancy
  Na  Na0  1  0.51043567  0.52260189  0.85000000  1
  Na  Na1  1  0.99221115  0.02991728  0.85000000  1
  Ca  Ca2  1  0.01270885  0.95698971  0.15053609  1
  Ca  Ca3  1  0.01109036  0.95749574  0.35000000  1
  Ca  Ca4  1  0.01270885  0.95698971  0.54946391  1
  Ca  Ca5  1  0.00939843  0.95373191  0.74878557  1
  Ca  Ca6  1  0.00939843  0.95373191  0.95121443  1
  Ca  Ca7  1  0.48950695  0.45805141  0.35000000  1
  Ca  Ca8  1  0.49152233  0.45913029  0.15062089  1
  Ca  Ca9  1  0.49152233  0.45913029  0.54937911  1
  Ca  Ca10  1  0.48647347  0.45684179  0.74842973  1
  Ca  Ca11  1  0.48647347  0.45684179  0.95157027  1
  Ca  Ca12  1  0.50931262  0.54356016  0.05096465  1
  Ca  Ca13  1  0.51062079  0.54210317  0.25024846  1
  Ca  Ca14  1  0.50931262  0.54356016  0.64903535  1
  Ca  Ca15  1  0.51062079  0.54210317  0.44975154  1
  Ca  Ca16  1  0.98910889  0.04246604  0.25020204  1
  Ca  Ca17  1  0.98729103  0.04482673  0.05084622  1
  Ca  Ca18  1  0.98729103  0.04482673  0.64915378  1
  Ca  Ca19  1  0.98910889  0.04246604  0.44979796  1
  Ta  Ta20  1  0.50497562  0.99263938  0.90023226  1
  Ta  Ta21  1  0.50497562  0.99263938  0.79976774  1
  Ti  Ti22  1  0.00991629  0.50097022  0.10013250  1
  Ti  Ti23  1  0.00102922  0.49963974  0.19989218  1
  Ti  Ti24  1  0.00080162  0.50016923  0.30001494  1
  Ti  Ti25  1  0.00080162  0.50016923  0.39998506  1
  Ti  Ti26  1  0.00991629  0.50097022  0.59986750  1
  Ti  Ti27  1  0.99896642  0.49041371  0.80169797  1
  Ti  Ti28  1  0.99896642  0.49041371  0.89830203  1
  Ti  Ti29  1  0.50858402  0.00429898  0.10098873  1
  Ti  Ti30  1  0.50068894  0.00043896  0.30018283  1
  Ti  Ti31  1  0.50103925  0.00050023  0.49924804  1
  Ti  Ti32  1  0.48778163  0.99740310  0.69826317  1
  Ti  Ti33  1  0.48778163  0.99740310  0.00173683  1
  Ti  Ti34  1  0.50103925  0.00050023  0.20075196  1
  Ti  Ti35  1  0.50068894  0.00043896  0.39981717  1
  Ti  Ti36  1  0.50858402  0.00429898  0.59901127  1
  Ti  Ti37  1  0.98626092  0.50061049  0.99990598  1
  Ti  Ti38  1  0.00102922  0.49963974  0.50010782  1
  Ti  Ti39  1  0.98626092  0.50061049  0.70009402  1
  O  O40  1  0.08037523  0.47996782  0.05094711  1
  O  O41  1  0.07987520  0.48026217  0.25025856  1
  O  O42  1  0.07987520  0.48026217  0.44974144  1
  O  O43  1  0.08037523  0.47996782  0.64905289  1
  O  O44  1  0.07667301  0.48457661  0.85000000  1
  O  O45  1  0.21006309  0.21214098  0.10916780  1
  O  O46  1  0.21261338  0.21288486  0.30862420  1
  O  O47  1  0.21261338  0.21288486  0.39137580  1
  O  O48  1  0.21006309  0.21214098  0.59083220  1
  O  O49  1  0.21211811  0.21301512  0.50815074  1
  O  O50  1  0.21302923  0.21138754  0.70768006  1
  O  O51  1  0.21211811  0.21301512  0.19184926  1
  O  O52  1  0.21687202  0.22088607  0.78973390  1
  O  O53  1  0.21687202  0.22088607  0.91026610  1
  O  O54  1  0.21302923  0.21138754  0.99231994  1
  O  O55  1  0.28575112  0.71155323  0.10910036  1
  O  O56  1  0.28652058  0.71318306  0.19180899  1
  O  O57  1  0.28712932  0.71300530  0.30859556  1
  O  O58  1  0.28712932  0.71300530  0.39140444  1
  O  O59  1  0.28575112  0.71155323  0.59089964  1
  O  O60  1  0.29140900  0.71413490  0.70777334  1
  O  O61  1  0.28683223  0.71824735  0.91052367  1
  O  O62  1  0.28683223  0.71824735  0.78947633  1
  O  O63  1  0.28652058  0.71318306  0.50819101  1
  O  O64  1  0.29140900  0.71413490  0.99222666  1
  O  O65  1  0.41726018  0.97994752  0.05057776  1
  O  O66  1  0.41861138  0.98029562  0.25018566  1
  O  O67  1  0.41726018  0.97994752  0.64942224  1
  O  O68  1  0.42177025  0.98405882  0.85000000  1
  O  O69  1  0.41861138  0.98029562  0.44981434  1
  O  O70  1  0.58056450  0.01913470  0.35000000  1
  O  O71  1  0.58034381  0.01923041  0.54963371  1
  O  O72  1  0.58034381  0.01923041  0.15036629  1
  O  O73  1  0.58377364  0.02270655  0.95091829  1
  O  O74  1  0.58377364  0.02270655  0.74908171  1
  O  O75  1  0.71165294  0.29013425  0.00950040  1
  O  O76  1  0.70893989  0.28579642  0.09196278  1
  O  O77  1  0.71208683  0.28628382  0.29159489  1
  O  O78  1  0.71132671  0.28640265  0.20880450  1
  O  O79  1  0.70893989  0.28579642  0.60803722  1
  O  O80  1  0.71208683  0.28628382  0.40840511  1
  O  O81  1  0.71132671  0.28640265  0.49119550  1
  O  O82  1  0.71165294  0.29013425  0.69049960  1
  O  O83  1  0.71409450  0.29287205  0.80668655  1
  O  O84  1  0.71409450  0.29287205  0.89331345  1
  O  O85  1  0.79069717  0.78946985  0.00937690  1
  O  O86  1  0.78602070  0.78700949  0.20886268  1
  O  O87  1  0.78470661  0.78732241  0.09206701  1
  O  O88  1  0.78678505  0.78686139  0.40843061  1
  O  O89  1  0.78470661  0.78732241  0.60793299  1
  O  O90  1  0.79069717  0.78946985  0.69062310  1
  O  O91  1  0.78678505  0.78686139  0.29156939  1
  O  O92  1  0.78602070  0.78700949  0.49113732  1
  O  O93  1  0.79588135  0.79165526  0.80620477  1
  O  O94  1  0.79588135  0.79165526  0.89379523  1
  O  O95  1  0.91872023  0.51959596  0.15058609  1
  O  O96  1  0.91928612  0.51947727  0.35000000  1
  O  O97  1  0.91872023  0.51959596  0.54941391  1
  O  O98  1  0.91926215  0.51935777  0.74881013  1
  O  O99  1  0.91926215  0.51935777  0.95118987  1
