# generated using pymatgen
data_CdI2
_symmetry_space_group_name_H-M   'P 1'
_cell_length_a   4.34432819
_cell_length_b   4.34432847
_cell_length_c   80.95696309
_cell_angle_alpha   90.00000000
_cell_angle_beta   90.00000000
_cell_angle_gamma   119.99999798
_symmetry_Int_Tables_number   1
_chemical_formula_structural   CdI2
_chemical_formula_sum   'Cd11 I22'
_cell_volume   1323.21412758
_cell_formula_units_Z   11
loop_
 _symmetry_equiv_pos_site_id
 _symmetry_equiv_pos_as_xyz
  1  'x, y, z'
loop_
 _atom_site_type_symbol
 _atom_site_label
 _atom_site_symmetry_multiplicity
 _atom_site_fract_x
 _atom_site_fract_y
 _atom_site_fract_z
 _atom_site_occupancy
  Cd  Cd0  1  0.66666700  0.33333300  0.20453594  1
  Cd  Cd1  1  0.00000000  0.00000000  0.38636046  1
  Cd  Cd2  1  0.66666700  0.33333300  0.02273055  1
  Cd  Cd3  1  0.66666700  0.33333300  0.65906582  1
  Cd  Cd4  1  0.00000000  0.00000000  0.29544797  1
  Cd  Cd5  1  0.00000000  0.00000000  0.84092485  1
  Cd  Cd6  1  0.00000000  0.00000000  0.93181143  1
  Cd  Cd7  1  0.00000000  0.00000000  0.56818663  1
  Cd  Cd8  1  0.00000000  0.00000000  0.11363484  1
  Cd  Cd9  1  0.66666700  0.33333300  0.47727951  1
  Cd  Cd10  1  0.00000000  0.00000000  0.75000325  1
  I  I11  1  0.33333300  0.66666700  0.58954953  1
  I  I12  1  0.00000000  0.00000000  0.45588612  1
  I  I13  1  0.33333300  0.66666700  0.40774664  1
  I  I14  1  0.00000000  0.00000000  0.63768272  1
  I  I15  1  0.33333300  0.66666700  0.86231022  1
  I  I16  1  0.33333300  0.66666700  0.95317900  1
  I  I17  1  0.66666700  0.33333300  0.27407874  1
  I  I18  1  0.33333300  0.66666700  0.77137645  1
  I  I19  1  0.33333300  0.66666700  0.04411676  1
  I  I20  1  0.66666700  0.33333300  0.09224887  1
  I  I21  1  0.33333300  0.66666700  0.22592133  1
  I  I22  1  0.66666700  0.33333300  0.36497743  1
  I  I23  1  0.00000000  0.00000000  0.00138166  1
  I  I24  1  0.33333300  0.66666700  0.31685443  1
  I  I25  1  0.66666700  0.33333300  0.54681551  1
  I  I26  1  0.66666700  0.33333300  0.72862765  1
  I  I27  1  0.00000000  0.00000000  0.18315798  1
  I  I28  1  0.33333300  0.66666700  0.68044982  1
  I  I29  1  0.66666700  0.33333300  0.91044744  1
  I  I30  1  0.66666700  0.33333300  0.81953776  1
  I  I31  1  0.33333300  0.66666700  0.13501796  1
  I  I32  1  0.33333300  0.66666700  0.49865474  1
