# generated using pymatgen
data_CdI2
_symmetry_space_group_name_H-M   'P 1'
_cell_length_a   4.34519206
_cell_length_b   4.34519232
_cell_length_c   80.91517931
_cell_angle_alpha   90.00000000
_cell_angle_beta   90.00000000
_cell_angle_gamma   119.99999801
_symmetry_Int_Tables_number   1
_chemical_formula_structural   CdI2
_chemical_formula_sum   'Cd11 I22'
_cell_volume   1323.05720429
_cell_formula_units_Z   11
loop_
 _symmetry_equiv_pos_site_id
 _symmetry_equiv_pos_as_xyz
  1  'x, y, z'
loop_
 _atom_site_type_symbol
 _atom_site_label
 _atom_site_symmetry_multiplicity
 _atom_site_fract_x
 _atom_site_fract_y
 _atom_site_fract_z
 _atom_site_occupancy
  Cd  Cd0  1  0.66666700  0.33333300  0.20453645  1
  Cd  Cd1  1  0.66666700  0.33333300  0.93180674  1
  Cd  Cd2  1  0.66666700  0.33333300  0.02272757  1
  Cd  Cd3  1  0.00000000  0.00000000  0.84092193  1
  Cd  Cd4  1  0.66666700  0.33333300  0.38638866  1
  Cd  Cd5  1  0.00000000  0.00000000  0.56818426  1
  Cd  Cd6  1  0.66666700  0.33333300  0.11365205  1
  Cd  Cd7  1  0.66666700  0.33333300  0.74998816  1
  Cd  Cd8  1  0.66666700  0.33333300  0.47727393  1
  Cd  Cd9  1  0.66666700  0.33333300  0.29545632  1
  Cd  Cd10  1  0.66666700  0.33333300  0.65906749  1
  I  I11  1  0.00000000  0.00000000  0.36501448  1
  I  I12  1  0.33333300  0.66666700  0.58954677  1
  I  I13  1  0.00000000  0.00000000  0.45588915  1
  I  I14  1  0.33333300  0.66666700  0.40776753  1
  I  I15  1  0.00000000  0.00000000  0.18316046  1
  I  I16  1  0.00000000  0.00000000  0.63769626  1
  I  I17  1  0.33333300  0.66666700  0.86229504  1
  I  I18  1  0.33333300  0.66666700  0.95317526  1
  I  I19  1  0.00000000  0.00000000  0.72860175  1
  I  I20  1  0.33333300  0.66666700  0.77136093  1
  I  I21  1  0.33333300  0.66666700  0.04410739  1
  I  I22  1  0.33333300  0.66666700  0.22590932  1
  I  I23  1  0.00000000  0.00000000  0.91041410  1
  I  I24  1  0.00000000  0.00000000  0.27408910  1
  I  I25  1  0.00000000  0.00000000  0.00137855  1
  I  I26  1  0.33333300  0.66666700  0.31684724  1
  I  I27  1  0.66666700  0.33333300  0.54682022  1
  I  I28  1  0.00000000  0.00000000  0.09226242  1
  I  I29  1  0.33333300  0.66666700  0.68044878  1
  I  I30  1  0.66666700  0.33333300  0.81954054  1
  I  I31  1  0.33333300  0.66666700  0.13502879  1
  I  I32  1  0.33333300  0.66666700  0.49864236  1
