# generated using pymatgen
data_CdI2
_symmetry_space_group_name_H-M   'P 1'
_cell_length_a   4.34410456
_cell_length_b   4.34410482
_cell_length_c   73.64119325
_cell_angle_alpha   90.00000000
_cell_angle_beta   90.00000000
_cell_angle_gamma   119.99999799
_symmetry_Int_Tables_number   1
_chemical_formula_structural   CdI2
_chemical_formula_sum   'Cd10 I20'
_cell_volume   1203.51643048
_cell_formula_units_Z   10
loop_
 _symmetry_equiv_pos_site_id
 _symmetry_equiv_pos_as_xyz
  1  'x, y, z'
loop_
 _atom_site_type_symbol
 _atom_site_label
 _atom_site_symmetry_multiplicity
 _atom_site_fract_x
 _atom_site_fract_y
 _atom_site_fract_z
 _atom_site_occupancy
  Cd  Cd0  1  0.66666700  0.33333300  0.22499948  1
  Cd  Cd1  1  0.66666700  0.33333300  0.72499887  1
  Cd  Cd2  1  0.00000000  0.00000000  0.82500524  1
  Cd  Cd3  1  0.66666700  0.33333300  0.42500553  1
  Cd  Cd4  1  0.00000000  0.00000000  0.92499198  1
  Cd  Cd5  1  0.66666700  0.33333300  0.02500242  1
  Cd  Cd6  1  0.00000000  0.00000000  0.32500084  1
  Cd  Cd7  1  0.00000000  0.00000000  0.52498374  1
  Cd  Cd8  1  0.00000000  0.00000000  0.12499174  1
  Cd  Cd9  1  0.00000000  0.00000000  0.62499011  1
  I  I10  1  0.00000000  0.00000000  0.20150164  1
  I  I11  1  0.33333300  0.66666700  0.44851696  1
  I  I12  1  0.33333300  0.66666700  0.34852209  1
  I  I13  1  0.66666700  0.33333300  0.10148290  1
  I  I14  1  0.66666700  0.33333300  0.90147306  1
  I  I15  1  0.33333300  0.66666700  0.94850646  1
  I  I16  1  0.00000000  0.00000000  0.40149794  1
  I  I17  1  0.33333300  0.66666700  0.04852138  1
  I  I18  1  0.66666700  0.33333300  0.30148745  1
  I  I19  1  0.00000000  0.00000000  0.00149770  1
  I  I20  1  0.33333300  0.66666700  0.54850477  1
  I  I21  1  0.66666700  0.33333300  0.60148045  1
  I  I22  1  0.33333300  0.66666700  0.14850935  1
  I  I23  1  0.33333300  0.66666700  0.24852009  1
  I  I24  1  0.00000000  0.00000000  0.70150008  1
  I  I25  1  0.66666700  0.33333300  0.50146715  1
  I  I26  1  0.33333300  0.66666700  0.84852359  1
  I  I27  1  0.33333300  0.66666700  0.64850856  1
  I  I28  1  0.66666700  0.33333300  0.80148874  1
  I  I29  1  0.33333300  0.66666700  0.74851969  1
