# generated using pymatgen
data_Y6Ge2O13F3
_symmetry_space_group_name_H-M   'P 1'
_cell_length_a   5.45092080
_cell_length_b   6.01683002
_cell_length_c   10.35552715
_cell_angle_alpha   90.95168193
_cell_angle_beta   89.54984730
_cell_angle_gamma   105.70001989
_symmetry_Int_Tables_number   1
_chemical_formula_structural   Y6Ge2O13F3
_chemical_formula_sum   'Y6 Ge2 O13 F3'
_cell_volume   326.91471632
_cell_formula_units_Z   1
loop_
 _symmetry_equiv_pos_site_id
 _symmetry_equiv_pos_as_xyz
  1  'x, y, z'
loop_
 _atom_site_type_symbol
 _atom_site_label
 _atom_site_symmetry_multiplicity
 _atom_site_fract_x
 _atom_site_fract_y
 _atom_site_fract_z
 _atom_site_occupancy
  Y  Y0  1  0.28737888  0.80728964  0.24808835  1
  Y  Y1  1  0.71731077  0.18911012  0.74823663  1
  Y  Y2  1  0.18815199  0.30420510  0.03979260  1
  Y  Y3  1  0.81587766  0.70132099  0.54822103  1
  Y  Y4  1  0.81958727  0.70933519  0.95584720  1
  Y  Y5  1  0.19268589  0.29918422  0.45044803  1
  Ge  Ge6  1  0.30729288  0.51723860  0.74791787  1
  Ge  Ge7  1  0.69606816  0.48144955  0.25155168  1
  O  O8  1  0.48981372  0.39538572  0.87103605  1
  O  O9  1  0.51545327  0.61066166  0.37536869  1
  O  O10  1  0.51225142  0.60209785  0.12578303  1
  O  O11  1  0.49152595  0.39224109  0.62229216  1
  O  O12  1  0.04158170  0.46370297  0.86793190  1
  O  O13  1  0.96229501  0.53587802  0.37066609  1
  O  O14  1  0.95266886  0.52974401  0.12994965  1
  O  O15  1  0.04536482  0.45875608  0.62723066  1
  O  O16  1  0.47088117  0.81809222  0.74935588  1
  O  O17  1  0.52110614  0.18414491  0.26609667  1
  O  O18  1  0.09699413  0.11452041  0.23875523  1
  O  O19  1  0.89686402  0.87389783  0.75088466  1
  O  O20  1  0.20478066  0.93837054  0.04274158  1
  F  F21  1  0.78810052  0.06634970  0.52222402  1
  F  F22  1  0.77654600  0.07291525  0.97420216  1
  F  F23  1  0.20941912  0.93410832  0.47537818  1
