# generated using pymatgen
data_CdI2
_symmetry_space_group_name_H-M   'P 1'
_cell_length_a   4.34470065
_cell_length_b   4.34470093
_cell_length_c   80.91313430
_cell_angle_alpha   90.00000000
_cell_angle_beta   90.00000000
_cell_angle_gamma   119.99999798
_symmetry_Int_Tables_number   1
_chemical_formula_structural   CdI2
_chemical_formula_sum   'Cd11 I22'
_cell_volume   1322.72453873
_cell_formula_units_Z   11
loop_
 _symmetry_equiv_pos_site_id
 _symmetry_equiv_pos_as_xyz
  1  'x, y, z'
loop_
 _atom_site_type_symbol
 _atom_site_label
 _atom_site_symmetry_multiplicity
 _atom_site_fract_x
 _atom_site_fract_y
 _atom_site_fract_z
 _atom_site_occupancy
  Cd  Cd0  1  0.66666700  0.33333300  0.20453393  1
  Cd  Cd1  1  0.00000000  0.00000000  0.84091820  1
  Cd  Cd2  1  0.66666700  0.33333300  0.02272930  1
  Cd  Cd3  1  0.00000000  0.00000000  0.93181057  1
  Cd  Cd4  1  0.00000000  0.00000000  0.29544299  1
  Cd  Cd5  1  0.66666700  0.33333300  0.38638951  1
  Cd  Cd6  1  0.00000000  0.00000000  0.56818457  1
  Cd  Cd7  1  0.00000000  0.00000000  0.11363245  1
  Cd  Cd8  1  0.66666700  0.33333300  0.47727480  1
  Cd  Cd9  1  0.00000000  0.00000000  0.65906862  1
  Cd  Cd10  1  0.00000000  0.00000000  0.74999409  1
  I  I11  1  0.33333300  0.66666700  0.58955264  1
  I  I12  1  0.00000000  0.00000000  0.45588207  1
  I  I13  1  0.33333300  0.66666700  0.40777832  1
  I  I14  1  0.00000000  0.00000000  0.18315383  1
  I  I15  1  0.33333300  0.66666700  0.86230846  1
  I  I16  1  0.33333300  0.66666700  0.95318120  1
  I  I17  1  0.66666700  0.33333300  0.27406928  1
  I  I18  1  0.33333300  0.66666700  0.77137195  1
  I  I19  1  0.33333300  0.66666700  0.04411898  1
  I  I20  1  0.33333300  0.66666700  0.22591855  1
  I  I21  1  0.66666700  0.33333300  0.09224585  1
  I  I22  1  0.00000000  0.00000000  0.00137577  1
  I  I23  1  0.33333300  0.66666700  0.31685372  1
  I  I24  1  0.66666700  0.33333300  0.54680257  1
  I  I25  1  0.66666700  0.33333300  0.72861774  1
  I  I26  1  0.00000000  0.00000000  0.36500096  1
  I  I27  1  0.33333300  0.66666700  0.68045722  1
  I  I28  1  0.66666700  0.33333300  0.91044330  1
  I  I29  1  0.66666700  0.33333300  0.81953269  1
  I  I30  1  0.33333300  0.66666700  0.13502005  1
  I  I31  1  0.66666700  0.33333300  0.63768253  1
  I  I32  1  0.33333300  0.66666700  0.49865329  1
