# generated using pymatgen
data_CdI2
_symmetry_space_group_name_H-M   'P 1'
_cell_length_a   4.34172408
_cell_length_b   4.34172435
_cell_length_c   103.19125472
_cell_angle_alpha   90.00000000
_cell_angle_beta   90.00000000
_cell_angle_gamma   119.99999795
_symmetry_Int_Tables_number   1
_chemical_formula_structural   CdI2
_chemical_formula_sum   'Cd14 I28'
_cell_volume   1684.60467344
_cell_formula_units_Z   14
loop_
 _symmetry_equiv_pos_site_id
 _symmetry_equiv_pos_as_xyz
  1  'x, y, z'
loop_
 _atom_site_type_symbol
 _atom_site_label
 _atom_site_symmetry_multiplicity
 _atom_site_fract_x
 _atom_site_fract_y
 _atom_site_fract_z
 _atom_site_occupancy
  Cd  Cd0  1  0.66666700  0.33333300  0.30357730  1
  Cd  Cd1  1  0.66666700  0.33333300  0.94644254  1
  Cd  Cd2  1  0.66666700  0.33333300  0.16070991  1
  Cd  Cd3  1  0.66666700  0.33333300  0.66070784  1
  Cd  Cd4  1  0.66666700  0.33333300  0.44643912  1
  Cd  Cd5  1  0.66666700  0.33333300  0.58928668  1
  Cd  Cd6  1  0.00000000  0.00000000  0.23214771  1
  Cd  Cd7  1  0.00000000  0.00000000  0.73214645  1
  Cd  Cd8  1  0.66666700  0.33333300  0.01784918  1
  Cd  Cd9  1  0.00000000  0.00000000  0.51784453  1
  Cd  Cd10  1  0.66666700  0.33333300  0.80357718  1
  Cd  Cd11  1  0.00000000  0.00000000  0.08928495  1
  Cd  Cd12  1  0.00000000  0.00000000  0.37499698  1
  Cd  Cd13  1  0.00000000  0.00000000  0.87499598  1
  I  I14  1  0.66666700  0.33333300  0.07254578  1
  I  I15  1  0.00000000  0.00000000  0.92968764  1
  I  I16  1  0.00000000  0.00000000  0.64395893  1
  I  I17  1  0.33333300  0.66666700  0.53458407  1
  I  I18  1  0.33333300  0.66666700  0.17745347  1
  I  I19  1  0.33333300  0.66666700  0.10603912  1
  I  I20  1  0.33333300  0.66666700  0.46317352  1
  I  I21  1  0.33333300  0.66666700  0.82032193  1
  I  I22  1  0.00000000  0.00000000  0.28681758  1
  I  I23  1  0.00000000  0.00000000  0.78681757  1
  I  I24  1  0.33333300  0.66666700  0.32032171  1
  I  I25  1  0.33333300  0.66666700  0.60604184  1
  I  I26  1  0.00000000  0.00000000  0.14395743  1
  I  I27  1  0.33333300  0.66666700  0.96317600  1
  I  I28  1  0.00000000  0.00000000  0.00112657  1
  I  I29  1  0.66666700  0.33333300  0.85826026  1
  I  I30  1  0.33333300  0.66666700  0.67745032  1
  I  I31  1  0.66666700  0.33333300  0.71540205  1
  I  I32  1  0.66666700  0.33333300  0.21540908  1
  I  I33  1  0.33333300  0.66666700  0.03459251  1
  I  I34  1  0.33333300  0.66666700  0.89173061  1
  I  I35  1  0.33333300  0.66666700  0.24890076  1
  I  I36  1  0.66666700  0.33333300  0.35826027  1
  I  I37  1  0.33333300  0.66666700  0.39173482  1
  I  I38  1  0.66666700  0.33333300  0.50109460  1
  I  I39  1  0.00000000  0.00000000  0.57254881  1
  I  I40  1  0.00000000  0.00000000  0.42968634  1
  I  I41  1  0.33333300  0.66666700  0.74890003  1
