# generated using pymatgen
data_CdI2
_symmetry_space_group_name_H-M   'P 1'
_cell_length_a   4.34195482
_cell_length_b   4.34195509
_cell_length_c   110.42731157
_cell_angle_alpha   90.00000000
_cell_angle_beta   90.00000000
_cell_angle_gamma   119.99999793
_symmetry_Int_Tables_number   1
_chemical_formula_structural   CdI2
_chemical_formula_sum   'Cd15 I30'
_cell_volume   1802.92544172
_cell_formula_units_Z   15
loop_
 _symmetry_equiv_pos_site_id
 _symmetry_equiv_pos_as_xyz
  1  'x, y, z'
loop_
 _atom_site_type_symbol
 _atom_site_label
 _atom_site_symmetry_multiplicity
 _atom_site_fract_x
 _atom_site_fract_y
 _atom_site_fract_z
 _atom_site_occupancy
  Cd  Cd0  1  0.66666700  0.33333300  0.01666770  1
  Cd  Cd1  1  0.66666700  0.33333300  0.81666541  1
  Cd  Cd2  1  0.00000000  0.00000000  0.41666952  1
  Cd  Cd3  1  0.66666700  0.33333300  0.61666666  1
  Cd  Cd4  1  0.66666700  0.33333300  0.34999838  1
  Cd  Cd5  1  0.00000000  0.00000000  0.54999821  1
  Cd  Cd6  1  0.00000000  0.00000000  0.94999441  1
  Cd  Cd7  1  0.66666700  0.33333300  0.28333941  1
  Cd  Cd8  1  0.00000000  0.00000000  0.21665974  1
  Cd  Cd9  1  0.00000000  0.00000000  0.68332405  1
  Cd  Cd10  1  0.66666700  0.33333300  0.14999913  1
  Cd  Cd11  1  0.66666700  0.33333300  0.48333348  1
  Cd  Cd12  1  0.00000000  0.00000000  0.08332711  1
  Cd  Cd13  1  0.00000000  0.00000000  0.88333421  1
  Cd  Cd14  1  0.00000000  0.00000000  0.74999579  1
  I  I15  1  0.33333300  0.66666700  0.56565128  1
  I  I16  1  0.00000000  0.00000000  0.80102541  1
  I  I17  1  0.33333300  0.66666700  0.16564913  1
  I  I18  1  0.33333300  0.66666700  0.36564955  1
  I  I19  1  0.33333300  0.66666700  0.89898440  1
  I  I20  1  0.00000000  0.00000000  0.46769476  1
  I  I21  1  0.33333300  0.66666700  0.96563887  1
  I  I22  1  0.33333300  0.66666700  0.23231554  1
  I  I23  1  0.66666700  0.33333300  0.40101654  1
  I  I24  1  0.33333300  0.66666700  0.69897080  1
  I  I25  1  0.00000000  0.00000000  0.60102625  1
  I  I26  1  0.66666700  0.33333300  0.86768854  1
  I  I27  1  0.33333300  0.66666700  0.76564508  1
  I  I28  1  0.66666700  0.33333300  0.73434765  1
  I  I29  1  0.33333300  0.66666700  0.63231334  1
  I  I30  1  0.66666700  0.33333300  0.20101929  1
  I  I31  1  0.66666700  0.33333300  0.53435542  1
  I  I32  1  0.33333300  0.66666700  0.09897827  1
  I  I33  1  0.00000000  0.00000000  0.00102817  1
  I  I34  1  0.00000000  0.00000000  0.13436134  1
  I  I35  1  0.66666700  0.33333300  0.06767899  1
  I  I36  1  0.33333300  0.66666700  0.03231808  1
  I  I37  1  0.00000000  0.00000000  0.26769461  1
  I  I38  1  0.33333300  0.66666700  0.29898590  1
  I  I39  1  0.00000000  0.00000000  0.33435996  1
  I  I40  1  0.66666700  0.33333300  0.93434420  1
  I  I41  1  0.33333300  0.66666700  0.83231611  1
  I  I42  1  0.66666700  0.33333300  0.66767022  1
  I  I43  1  0.33333300  0.66666700  0.43231701  1
  I  I44  1  0.33333300  0.66666700  0.49898207  1
