# generated using pymatgen
data_CdI2
_symmetry_space_group_name_H-M   'P 1'
_cell_length_a   4.34597551
_cell_length_b   4.34597578
_cell_length_c   80.82293356
_cell_angle_alpha   90.00000000
_cell_angle_beta   90.00000000
_cell_angle_gamma   119.99999787
_symmetry_Int_Tables_number   1
_chemical_formula_structural   CdI2
_chemical_formula_sum   'Cd11 I22'
_cell_volume   1322.02548413
_cell_formula_units_Z   11
loop_
 _symmetry_equiv_pos_site_id
 _symmetry_equiv_pos_as_xyz
  1  'x, y, z'
loop_
 _atom_site_type_symbol
 _atom_site_label
 _atom_site_symmetry_multiplicity
 _atom_site_fract_x
 _atom_site_fract_y
 _atom_site_fract_z
 _atom_site_occupancy
  Cd  Cd0  1  0.00000000  0.00000000  0.29544880  1
  Cd  Cd1  1  0.33333300  0.66666700  0.56818493  1
  Cd  Cd2  1  0.66666700  0.33333300  0.02273458  1
  Cd  Cd3  1  0.00000000  0.00000000  0.93180825  1
  Cd  Cd4  1  0.00000000  0.00000000  0.84092530  1
  Cd  Cd5  1  0.00000000  0.00000000  0.20454840  1
  Cd  Cd6  1  0.00000000  0.00000000  0.11363729  1
  Cd  Cd7  1  0.00000000  0.00000000  0.65907280  1
  Cd  Cd8  1  0.33333300  0.66666700  0.47726328  1
  Cd  Cd9  1  0.00000000  0.00000000  0.38635778  1
  Cd  Cd10  1  0.33333300  0.66666700  0.74999951  1
  I  I11  1  0.33333300  0.66666700  0.40776210  1
  I  I12  1  0.00000000  0.00000000  0.58960981  1
  I  I13  1  0.33333300  0.66666700  0.86232335  1
  I  I14  1  0.33333300  0.66666700  0.95319892  1
  I  I15  1  0.66666700  0.33333300  0.45586162  1
  I  I16  1  0.66666700  0.33333300  0.27405775  1
  I  I17  1  0.66666700  0.33333300  0.36495702  1
  I  I18  1  0.33333300  0.66666700  0.04413633  1
  I  I19  1  0.66666700  0.33333300  0.18313218  1
  I  I20  1  0.33333300  0.66666700  0.22593197  1
  I  I21  1  0.66666700  0.33333300  0.09223475  1
  I  I22  1  0.00000000  0.00000000  0.00136377  1
  I  I23  1  0.00000000  0.00000000  0.77141124  1
  I  I24  1  0.33333300  0.66666700  0.31686482  1
  I  I25  1  0.66666700  0.33333300  0.54678835  1
  I  I26  1  0.66666700  0.33333300  0.72861127  1
  I  I27  1  0.33333300  0.66666700  0.68047048  1
  I  I28  1  0.66666700  0.33333300  0.91042730  1
  I  I29  1  0.00000000  0.00000000  0.49863386  1
  I  I30  1  0.66666700  0.33333300  0.81952872  1
  I  I31  1  0.33333300  0.66666700  0.13503898  1
  I  I32  1  0.66666700  0.33333300  0.63767447  1
