# generated using pymatgen
data_CdI2
_symmetry_space_group_name_H-M   'P 1'
_cell_length_a   4.34311885
_cell_length_b   4.34311912
_cell_length_c   110.40329062
_cell_angle_alpha   90.00000000
_cell_angle_beta   90.00000000
_cell_angle_gamma   119.99999798
_symmetry_Int_Tables_number   1
_chemical_formula_structural   CdI2
_chemical_formula_sum   'Cd15 I30'
_cell_volume   1803.49986442
_cell_formula_units_Z   15
loop_
 _symmetry_equiv_pos_site_id
 _symmetry_equiv_pos_as_xyz
  1  'x, y, z'
loop_
 _atom_site_type_symbol
 _atom_site_label
 _atom_site_symmetry_multiplicity
 _atom_site_fract_x
 _atom_site_fract_y
 _atom_site_fract_z
 _atom_site_occupancy
  Cd  Cd0  1  0.66666700  0.33333300  0.01666881  1
  Cd  Cd1  1  0.66666700  0.33333300  0.81666306  1
  Cd  Cd2  1  0.00000000  0.00000000  0.61666224  1
  Cd  Cd3  1  0.66666700  0.33333300  0.68333390  1
  Cd  Cd4  1  0.00000000  0.00000000  0.48334149  1
  Cd  Cd5  1  0.00000000  0.00000000  0.94999373  1
  Cd  Cd6  1  0.66666700  0.33333300  0.55001100  1
  Cd  Cd7  1  0.66666700  0.33333300  0.28333585  1
  Cd  Cd8  1  0.00000000  0.00000000  0.21666149  1
  Cd  Cd9  1  0.00000000  0.00000000  0.08333125  1
  Cd  Cd10  1  0.66666700  0.33333300  0.14999507  1
  Cd  Cd11  1  0.00000000  0.00000000  0.88333281  1
  Cd  Cd12  1  0.66666700  0.33333300  0.41666397  1
  Cd  Cd13  1  0.00000000  0.00000000  0.74999718  1
  Cd  Cd14  1  0.00000000  0.00000000  0.34998749  1
  I  I15  1  0.33333300  0.66666700  0.56566435  1
  I  I16  1  0.00000000  0.00000000  0.40100611  1
  I  I17  1  0.33333300  0.66666700  0.43231672  1
  I  I18  1  0.66666700  0.33333300  0.33433124  1
  I  I19  1  0.33333300  0.66666700  0.36564591  1
  I  I20  1  0.33333300  0.66666700  0.89899545  1
  I  I21  1  0.33333300  0.66666700  0.96564874  1
  I  I22  1  0.33333300  0.66666700  0.23232438  1
  I  I23  1  0.00000000  0.00000000  0.53435772  1
  I  I24  1  0.33333300  0.66666700  0.69899073  1
  I  I25  1  0.66666700  0.33333300  0.86767943  1
  I  I26  1  0.33333300  0.66666700  0.76565424  1
  I  I27  1  0.00000000  0.00000000  0.66768239  1
  I  I28  1  0.00000000  0.00000000  0.80101679  1
  I  I29  1  0.66666700  0.33333300  0.46768447  1
  I  I30  1  0.66666700  0.33333300  0.73434130  1
  I  I31  1  0.33333300  0.66666700  0.63231655  1
  I  I32  1  0.66666700  0.33333300  0.20100909  1
  I  I33  1  0.33333300  0.66666700  0.09898751  1
  I  I34  1  0.66666700  0.33333300  0.60100132  1
  I  I35  1  0.00000000  0.00000000  0.00101725  1
  I  I36  1  0.00000000  0.00000000  0.13434810  1
  I  I37  1  0.66666700  0.33333300  0.06767316  1
  I  I38  1  0.33333300  0.66666700  0.03232743  1
  I  I39  1  0.00000000  0.00000000  0.26768186  1
  I  I40  1  0.33333300  0.66666700  0.29899776  1
  I  I41  1  0.66666700  0.33333300  0.93433651  1
  I  I42  1  0.33333300  0.66666700  0.83232344  1
  I  I43  1  0.33333300  0.66666700  0.16565524  1
  I  I44  1  0.33333300  0.66666700  0.49900548  1
