# generated using pymatgen
data_CdI2
_symmetry_space_group_name_H-M   'P 1'
_cell_length_a   4.34280340
_cell_length_b   4.34280366
_cell_length_c   110.42134661
_cell_angle_alpha   90.00000000
_cell_angle_beta   90.00000000
_cell_angle_gamma   119.99999801
_symmetry_Int_Tables_number   1
_chemical_formula_structural   CdI2
_chemical_formula_sum   'Cd15 I30'
_cell_volume   1803.53279587
_cell_formula_units_Z   15
loop_
 _symmetry_equiv_pos_site_id
 _symmetry_equiv_pos_as_xyz
  1  'x, y, z'
loop_
 _atom_site_type_symbol
 _atom_site_label
 _atom_site_symmetry_multiplicity
 _atom_site_fract_x
 _atom_site_fract_y
 _atom_site_fract_z
 _atom_site_occupancy
  Cd  Cd0  1  0.66666700  0.33333300  0.01666806  1
  Cd  Cd1  1  0.66666700  0.33333300  0.81666240  1
  Cd  Cd2  1  0.00000000  0.00000000  0.61666181  1
  Cd  Cd3  1  0.00000000  0.00000000  0.41667042  1
  Cd  Cd4  1  0.66666700  0.33333300  0.68332949  1
  Cd  Cd5  1  0.00000000  0.00000000  0.48333748  1
  Cd  Cd6  1  0.66666700  0.33333300  0.28333843  1
  Cd  Cd7  1  0.66666700  0.33333300  0.34999784  1
  Cd  Cd8  1  0.00000000  0.00000000  0.21665971  1
  Cd  Cd9  1  0.00000000  0.00000000  0.08332797  1
  Cd  Cd10  1  0.66666700  0.33333300  0.15000115  1
  Cd  Cd11  1  0.00000000  0.00000000  0.88333279  1
  Cd  Cd12  1  0.00000000  0.00000000  0.74999536  1
  Cd  Cd13  1  0.00000000  0.00000000  0.94999192  1
  Cd  Cd14  1  0.66666700  0.33333300  0.55001139  1
  I  I15  1  0.33333300  0.66666700  0.56565940  1
  I  I16  1  0.00000000  0.00000000  0.80101840  1
  I  I17  1  0.33333300  0.66666700  0.16565496  1
  I  I18  1  0.33333300  0.66666700  0.36565404  1
  I  I19  1  0.33333300  0.66666700  0.89899008  1
  I  I20  1  0.33333300  0.66666700  0.96564344  1
  I  I21  1  0.33333300  0.66666700  0.23231928  1
  I  I22  1  0.00000000  0.00000000  0.53435852  1
  I  I23  1  0.66666700  0.33333300  0.40101151  1
  I  I24  1  0.33333300  0.66666700  0.69898520  1
  I  I25  1  0.66666700  0.33333300  0.86768285  1
  I  I26  1  0.33333300  0.66666700  0.76565050  1
  I  I27  1  0.00000000  0.00000000  0.66768226  1
  I  I28  1  0.66666700  0.33333300  0.46768587  1
  I  I29  1  0.66666700  0.33333300  0.73434215  1
  I  I30  1  0.33333300  0.66666700  0.63231177  1
  I  I31  1  0.66666700  0.33333300  0.20100960  1
  I  I32  1  0.33333300  0.66666700  0.09898445  1
  I  I33  1  0.66666700  0.33333300  0.60100228  1
  I  I34  1  0.00000000  0.00000000  0.00101888  1
  I  I35  1  0.00000000  0.00000000  0.13435311  1
  I  I36  1  0.66666700  0.33333300  0.06767340  1
  I  I37  1  0.33333300  0.66666700  0.03232269  1
  I  I38  1  0.00000000  0.00000000  0.26768529  1
  I  I39  1  0.33333300  0.66666700  0.29899179  1
  I  I40  1  0.00000000  0.00000000  0.33435046  1
  I  I41  1  0.66666700  0.33333300  0.93433425  1
  I  I42  1  0.33333300  0.66666700  0.83231910  1
  I  I43  1  0.33333300  0.66666700  0.43232249  1
  I  I44  1  0.33333300  0.66666700  0.49899577  1
