# generated using pymatgen
data_CdI2
_symmetry_space_group_name_H-M   'P 1'
_cell_length_a   4.34483066
_cell_length_b   4.34483093
_cell_length_c   80.94515234
_cell_angle_alpha   90.00000000
_cell_angle_beta   90.00000000
_cell_angle_gamma   119.99999793
_symmetry_Int_Tables_number   1
_chemical_formula_structural   CdI2
_chemical_formula_sum   'Cd11 I22'
_cell_volume   1323.32714622
_cell_formula_units_Z   11
loop_
 _symmetry_equiv_pos_site_id
 _symmetry_equiv_pos_as_xyz
  1  'x, y, z'
loop_
 _atom_site_type_symbol
 _atom_site_label
 _atom_site_symmetry_multiplicity
 _atom_site_fract_x
 _atom_site_fract_y
 _atom_site_fract_z
 _atom_site_occupancy
  Cd  Cd0  1  0.66666700  0.33333300  0.20453647  1
  Cd  Cd1  1  0.66666700  0.33333300  0.02273099  1
  Cd  Cd2  1  0.33333300  0.66666700  0.11365585  1
  Cd  Cd3  1  0.00000000  0.00000000  0.84092056  1
  Cd  Cd4  1  0.66666700  0.33333300  0.38638596  1
  Cd  Cd5  1  0.33333300  0.66666700  0.29545761  1
  Cd  Cd6  1  0.33333300  0.66666700  0.47727838  1
  Cd  Cd7  1  0.33333300  0.66666700  0.74999549  1
  Cd  Cd8  1  0.33333300  0.66666700  0.93180985  1
  Cd  Cd9  1  0.66666700  0.33333300  0.56817020  1
  Cd  Cd10  1  0.33333300  0.66666700  0.65906719  1
  I  I11  1  0.00000000  0.00000000  0.09226595  1
  I  I12  1  0.33333300  0.66666700  0.58953244  1
  I  I13  1  0.66666700  0.33333300  0.86229534  1
  I  I14  1  0.66666700  0.33333300  0.68044642  1
  I  I15  1  0.00000000  0.00000000  0.45589116  1
  I  I16  1  0.33333300  0.66666700  0.40776613  1
  I  I17  1  0.00000000  0.00000000  0.18316208  1
  I  I18  1  0.00000000  0.00000000  0.63769919  1
  I  I19  1  0.66666700  0.33333300  0.77136618  1
  I  I20  1  0.66666700  0.33333300  0.95318052  1
  I  I21  1  0.00000000  0.00000000  0.72860557  1
  I  I22  1  0.00000000  0.00000000  0.54680356  1
  I  I23  1  0.33333300  0.66666700  0.04411049  1
  I  I24  1  0.33333300  0.66666700  0.81954089  1
  I  I25  1  0.33333300  0.66666700  0.22590750  1
  I  I26  1  0.00000000  0.00000000  0.91040173  1
  I  I27  1  0.00000000  0.00000000  0.27409052  1
  I  I28  1  0.00000000  0.00000000  0.00138940  1
  I  I29  1  0.00000000  0.00000000  0.36501500  1
  I  I30  1  0.66666700  0.33333300  0.49864462  1
  I  I31  1  0.66666700  0.33333300  0.31684628  1
  I  I32  1  0.66666700  0.33333300  0.13503046  1
