# generated using pymatgen
data_CdI2
_symmetry_space_group_name_H-M   'P 1'
_cell_length_a   4.34203692
_cell_length_b   4.34203718
_cell_length_c   139.58235418
_cell_angle_alpha   90.00000000
_cell_angle_beta   90.00000000
_cell_angle_gamma   119.99999800
_symmetry_Int_Tables_number   1
_chemical_formula_structural   CdI2
_chemical_formula_sum   'Cd19 I38'
_cell_volume   2279.02038251
_cell_formula_units_Z   19
loop_
 _symmetry_equiv_pos_site_id
 _symmetry_equiv_pos_as_xyz
  1  'x, y, z'
loop_
 _atom_site_type_symbol
 _atom_site_label
 _atom_site_symmetry_multiplicity
 _atom_site_fract_x
 _atom_site_fract_y
 _atom_site_fract_z
 _atom_site_occupancy
  Cd  Cd0  1  0.66666700  0.33333300  0.53948677  1
  Cd  Cd1  1  0.33333300  0.66666700  0.96052393  1
  Cd  Cd2  1  0.66666700  0.33333300  0.32895597  1
  Cd  Cd3  1  0.33333300  0.66666700  0.59209460  1
  Cd  Cd4  1  0.66666700  0.33333300  0.43420215  1
  Cd  Cd5  1  0.33333300  0.66666700  0.06576865  1
  Cd  Cd6  1  0.33333300  0.66666700  0.48683577  1
  Cd  Cd7  1  0.66666700  0.33333300  0.64473878  1
  Cd  Cd8  1  0.66666700  0.33333300  0.01316769  1
  Cd  Cd9  1  0.33333300  0.66666700  0.69736291  1
  Cd  Cd10  1  0.66666700  0.33333300  0.11842132  1
  Cd  Cd11  1  0.33333300  0.66666700  0.27632763  1
  Cd  Cd12  1  0.66666700  0.33333300  0.74999805  1
  Cd  Cd13  1  0.33333300  0.66666700  0.17105594  1
  Cd  Cd14  1  0.33333300  0.66666700  0.90790391  1
  Cd  Cd15  1  0.33333300  0.66666700  0.38155938  1
  Cd  Cd16  1  0.66666700  0.33333300  0.22370478  1
  Cd  Cd17  1  0.33333300  0.66666700  0.80261819  1
  Cd  Cd18  1  0.66666700  0.33333300  0.85526854  1
  I  I19  1  0.00000000  0.00000000  0.84287579  1
  I  I20  1  0.00000000  0.00000000  0.73760047  1
  I  I21  1  0.00000000  0.00000000  0.47444446  1
  I  I22  1  0.66666700  0.33333300  0.28872250  1
  I  I23  1  0.33333300  0.66666700  0.02554817  1
  I  I24  1  0.33333300  0.66666700  0.44659056  1
  I  I25  1  0.00000000  0.00000000  0.26391937  1
  I  I26  1  0.33333300  0.66666700  0.65712890  1
  I  I27  1  0.00000000  0.00000000  0.05337242  1
  I  I28  1  0.33333300  0.66666700  0.86766054  1
  I  I29  1  0.66666700  0.33333300  0.92029349  1
  I  I30  1  0.33333300  0.66666700  0.13081154  1
  I  I31  1  0.00000000  0.00000000  0.42182027  1
  I  I32  1  0.66666700  0.33333300  0.97292302  1
  I  I33  1  0.00000000  0.00000000  0.21132314  1
  I  I34  1  0.66666700  0.33333300  0.81500721  1
  I  I35  1  0.00000000  0.00000000  0.68497312  1
  I  I36  1  0.66666700  0.33333300  0.07815570  1
  I  I37  1  0.33333300  0.66666700  0.23609942  1
  I  I38  1  0.00000000  0.00000000  0.89550432  1
  I  I39  1  0.33333300  0.66666700  0.55186929  1
  I  I40  1  0.66666700  0.33333300  0.39395344  1
  I  I41  1  0.33333300  0.66666700  0.76238605  1
  I  I42  1  0.33333300  0.66666700  0.34133917  1
  I  I43  1  0.00000000  0.00000000  0.00078084  1
  I  I44  1  0.66666700  0.33333300  0.60448816  1
  I  I45  1  0.00000000  0.00000000  0.36917931  1
  I  I46  1  0.66666700  0.33333300  0.70975800  1
  I  I47  1  0.00000000  0.00000000  0.52708829  1
  I  I48  1  0.00000000  0.00000000  0.94814214  1
  I  I49  1  0.66666700  0.33333300  0.18344712  1
  I  I50  1  0.00000000  0.00000000  0.79023843  1
  I  I51  1  0.00000000  0.00000000  0.57971562  1
  I  I52  1  0.00000000  0.00000000  0.63235182  1
  I  I53  1  0.66666700  0.33333300  0.49923671  1
  I  I54  1  0.00000000  0.00000000  0.15867460  1
  I  I55  1  0.00000000  0.00000000  0.10602318  1
  I  I56  1  0.00000000  0.00000000  0.31655848  1
