# generated using pymatgen
data_CdI2
_symmetry_space_group_name_H-M   'P 1'
_cell_length_a   4.33968292
_cell_length_b   4.33968319
_cell_length_c   125.10129009
_cell_angle_alpha   90.00000000
_cell_angle_beta   90.00000000
_cell_angle_gamma   119.99999797
_symmetry_Int_Tables_number   1
_chemical_formula_structural   CdI2
_chemical_formula_sum   'Cd17 I34'
_cell_volume   2040.36776265
_cell_formula_units_Z   17
loop_
 _symmetry_equiv_pos_site_id
 _symmetry_equiv_pos_as_xyz
  1  'x, y, z'
loop_
 _atom_site_type_symbol
 _atom_site_label
 _atom_site_symmetry_multiplicity
 _atom_site_fract_x
 _atom_site_fract_y
 _atom_site_fract_z
 _atom_site_occupancy
  Cd  Cd0  1  0.66666700  0.33333300  0.48529192  1
  Cd  Cd1  1  0.66666700  0.33333300  0.77942479  1
  Cd  Cd2  1  0.00000000  0.00000000  0.66175598  1
  Cd  Cd3  1  0.66666700  0.33333300  0.19115519  1
  Cd  Cd4  1  0.00000000  0.00000000  0.54410966  1
  Cd  Cd5  1  0.66666700  0.33333300  0.72060428  1
  Cd  Cd6  1  0.00000000  0.00000000  0.95588315  1
  Cd  Cd7  1  0.66666700  0.33333300  0.89704700  1
  Cd  Cd8  1  0.66666700  0.33333300  0.42647886  1
  Cd  Cd9  1  0.00000000  0.00000000  0.83823679  1
  Cd  Cd10  1  0.66666700  0.33333300  0.13236399  1
  Cd  Cd11  1  0.66666700  0.33333300  0.01472493  1
  Cd  Cd12  1  0.66666700  0.33333300  0.30880993  1
  Cd  Cd13  1  0.00000000  0.00000000  0.07352989  1
  Cd  Cd14  1  0.00000000  0.00000000  0.24999536  1
  Cd  Cd15  1  0.00000000  0.00000000  0.36765906  1
  Cd  Cd16  1  0.66666700  0.33333300  0.60293321  1
  I  I17  1  0.00000000  0.00000000  0.41266744  1
  I  I18  1  0.33333300  0.66666700  0.32261737  1
  I  I19  1  0.33333300  0.66666700  0.44029394  1
  I  I20  1  0.33333300  0.66666700  0.55791767  1
  I  I21  1  0.66666700  0.33333300  0.94207602  1
  I  I22  1  0.00000000  0.00000000  0.70679540  1
  I  I23  1  0.33333300  0.66666700  0.14616936  1
  I  I24  1  0.66666700  0.33333300  0.35384497  1
  I  I25  1  0.66666700  0.33333300  0.64794875  1
  I  I26  1  0.00000000  0.00000000  0.29499621  1
  I  I27  1  0.00000000  0.00000000  0.88323827  1
  I  I28  1  0.33333300  0.66666700  0.96968336  1
  I  I29  1  0.33333300  0.66666700  0.20496065  1
  I  I30  1  0.00000000  0.00000000  0.47148172  1
  I  I31  1  0.33333300  0.66666700  0.67555778  1
  I  I32  1  0.00000000  0.00000000  0.11856776  1
  I  I33  1  0.33333300  0.66666700  0.38146276  1
  I  I34  1  0.66666700  0.33333300  0.05971556  1
  I  I35  1  0.33333300  0.66666700  0.02853310  1
  I  I36  1  0.00000000  0.00000000  0.76562687  1
  I  I37  1  0.00000000  0.00000000  0.00091991  1
  I  I38  1  0.66666700  0.33333300  0.53031034  1
  I  I39  1  0.00000000  0.00000000  0.17734150  1
  I  I40  1  0.33333300  0.66666700  0.61674486  1
  I  I41  1  0.66666700  0.33333300  0.23619014  1
  I  I42  1  0.33333300  0.66666700  0.91085805  1
  I  I43  1  0.33333300  0.66666700  0.08733063  1
  I  I44  1  0.33333300  0.66666700  0.79323146  1
  I  I45  1  0.66666700  0.33333300  0.82443577  1
  I  I46  1  0.00000000  0.00000000  0.58912894  1
  I  I47  1  0.33333300  0.66666700  0.73441432  1
  I  I48  1  0.33333300  0.66666700  0.26380054  1
  I  I49  1  0.33333300  0.66666700  0.85204010  1
  I  I50  1  0.33333300  0.66666700  0.49909447  1
