# generated using pymatgen
data_Y4FeS7
_symmetry_space_group_name_H-M   'P 1'
_cell_length_a   3.78994115
_cell_length_b   6.48867698
_cell_length_c   11.38308472
_cell_angle_alpha   103.84177603
_cell_angle_beta   90.00000000
_cell_angle_gamma   73.01971247
_symmetry_Int_Tables_number   1
_chemical_formula_structural   Y4FeS7
_chemical_formula_sum   'Y4 Fe1 S7'
_cell_volume   259.21445700
_cell_formula_units_Z   1
loop_
 _symmetry_equiv_pos_site_id
 _symmetry_equiv_pos_as_xyz
  1  'x, y, z'
loop_
 _atom_site_type_symbol
 _atom_site_label
 _atom_site_symmetry_multiplicity
 _atom_site_fract_x
 _atom_site_fract_y
 _atom_site_fract_z
 _atom_site_occupancy
  Y  Y0  1  0.69345807  0.61308387  0.20827210  1
  Y  Y1  1  0.30653765  0.38692471  0.80030337  1
  Y  Y2  1  0.99935141  0.00129719  0.00713921  1
  Y  Y3  1  0.11185714  0.77628572  0.56267169  1
  Fe  Fe4  1  0.88896111  0.22207777  0.42494134  1
  S  S5  1  0.74612728  0.50774544  0.63590507  1
  S  S6  1  0.27172385  0.45655230  0.35403266  1
  S  S7  1  0.33753960  0.32492080  0.05204054  1
  S  S8  1  0.65990212  0.68019575  0.94849636  1
  S  S9  1  0.03080350  0.93839300  0.23012567  1
  S  S10  1  0.96462286  0.07075429  0.78347789  1
  S  S11  1  0.48911542  0.02176916  0.49259410  1
