# generated using pymatgen
data_CdI2
_symmetry_space_group_name_H-M   'P 1'
_cell_length_a   4.34388871
_cell_length_b   4.34388897
_cell_length_c   81.03743429
_cell_angle_alpha   90.00000000
_cell_angle_beta   90.00000000
_cell_angle_gamma   119.99999793
_symmetry_Int_Tables_number   1
_chemical_formula_structural   CdI2
_chemical_formula_sum   'Cd11 I22'
_cell_volume   1324.26142890
_cell_formula_units_Z   11
loop_
 _symmetry_equiv_pos_site_id
 _symmetry_equiv_pos_as_xyz
  1  'x, y, z'
loop_
 _atom_site_type_symbol
 _atom_site_label
 _atom_site_symmetry_multiplicity
 _atom_site_fract_x
 _atom_site_fract_y
 _atom_site_fract_z
 _atom_site_occupancy
  Cd  Cd0  1  0.66666700  0.33333300  0.20453773  1
  Cd  Cd1  1  0.00000000  0.00000000  0.29544610  1
  Cd  Cd2  1  0.33333300  0.66666700  0.84092849  1
  Cd  Cd3  1  0.66666700  0.33333300  0.02272591  1
  Cd  Cd4  1  0.00000000  0.00000000  0.93181125  1
  Cd  Cd5  1  0.00000000  0.00000000  0.47727108  1
  Cd  Cd6  1  0.66666700  0.33333300  0.38638319  1
  Cd  Cd7  1  0.00000000  0.00000000  0.56818370  1
  Cd  Cd8  1  0.00000000  0.00000000  0.11363129  1
  Cd  Cd9  1  0.00000000  0.00000000  0.65906595  1
  Cd  Cd10  1  0.00000000  0.00000000  0.74999368  1
  I  I11  1  0.33333300  0.66666700  0.58953600  1
  I  I12  1  0.33333300  0.66666700  0.40775921  1
  I  I13  1  0.00000000  0.00000000  0.18317199  1
  I  I14  1  0.33333300  0.66666700  0.95315529  1
  I  I15  1  0.66666700  0.33333300  0.45590296  1
  I  I16  1  0.66666700  0.33333300  0.27408595  1
  I  I17  1  0.33333300  0.66666700  0.77135286  1
  I  I18  1  0.33333300  0.66666700  0.04409539  1
  I  I19  1  0.33333300  0.66666700  0.22590111  1
  I  I20  1  0.66666700  0.33333300  0.09226083  1
  I  I21  1  0.00000000  0.00000000  0.00139750  1
  I  I22  1  0.00000000  0.00000000  0.86228720  1
  I  I23  1  0.33333300  0.66666700  0.31683525  1
  I  I24  1  0.66666700  0.33333300  0.54683249  1
  I  I25  1  0.66666700  0.33333300  0.72863373  1
  I  I26  1  0.00000000  0.00000000  0.36502212  1
  I  I27  1  0.33333300  0.66666700  0.68043917  1
  I  I28  1  0.66666700  0.33333300  0.91046063  1
  I  I29  1  0.66666700  0.33333300  0.81955916  1
  I  I30  1  0.33333300  0.66666700  0.13499867  1
  I  I31  1  0.66666700  0.33333300  0.63769383  1
  I  I32  1  0.33333300  0.66666700  0.49864032  1
