# generated using pymatgen
data_TaTe4
_symmetry_space_group_name_H-M   'P 1'
_cell_length_a   13.26865332
_cell_length_b   13.26865332
_cell_length_c   20.91790437
_cell_angle_alpha   90.00000000
_cell_angle_beta   90.00000000
_cell_angle_gamma   90.00000000
_symmetry_Int_Tables_number   1
_chemical_formula_structural   TaTe4
_chemical_formula_sum   'Ta24 Te96'
_cell_volume   3682.74685591
_cell_formula_units_Z   24
loop_
 _symmetry_equiv_pos_site_id
 _symmetry_equiv_pos_as_xyz
  1  'x, y, z'
loop_
 _atom_site_type_symbol
 _atom_site_label
 _atom_site_symmetry_multiplicity
 _atom_site_fract_x
 _atom_site_fract_y
 _atom_site_fract_z
 _atom_site_occupancy
  Ta  Ta0  1  0.75000000  0.25000000  0.40294579  1
  Ta  Ta1  1  0.25000000  0.25000000  0.91816331  1
  Ta  Ta2  1  0.75000000  0.25000000  0.90294579  1
  Ta  Ta3  1  0.25000000  0.75000000  0.90294579  1
  Ta  Ta4  1  0.25000000  0.75000000  0.09705421  1
  Ta  Ta5  1  0.25000000  0.25000000  0.76463331  1
  Ta  Ta6  1  0.75000000  0.75000000  0.73536669  1
  Ta  Ta7  1  0.75000000  0.75000000  0.08183669  1
  Ta  Ta8  1  0.75000000  0.25000000  0.59705421  1
  Ta  Ta9  1  0.75000000  0.75000000  0.43034904  1
  Ta  Ta10  1  0.75000000  0.75000000  0.58183669  1
  Ta  Ta11  1  0.25000000  0.25000000  0.41816331  1
  Ta  Ta12  1  0.25000000  0.25000000  0.06965096  1
  Ta  Ta13  1  0.75000000  0.75000000  0.93034904  1
  Ta  Ta14  1  0.75000000  0.25000000  0.25000000  1
  Ta  Ta15  1  0.75000000  0.25000000  0.75000000  1
  Ta  Ta16  1  0.25000000  0.75000000  0.40294579  1
  Ta  Ta17  1  0.25000000  0.25000000  0.26463331  1
  Ta  Ta18  1  0.25000000  0.75000000  0.59705421  1
  Ta  Ta19  1  0.25000000  0.75000000  0.25000000  1
  Ta  Ta20  1  0.75000000  0.75000000  0.23536669  1
  Ta  Ta21  1  0.75000000  0.25000000  0.09705421  1
  Ta  Ta22  1  0.25000000  0.75000000  0.75000000  1
  Ta  Ta23  1  0.25000000  0.25000000  0.56965096  1
  Te  Te24  1  0.82845633  0.58742145  0.50208436  1
  Te  Te25  1  0.31864532  0.08394283  0.83693089  1
  Te  Te26  1  0.32761164  0.58727309  0.83107339  1
  Te  Te27  1  0.80888633  0.40456452  0.00062111  1
  Te  Te28  1  0.82845633  0.91257855  0.00208436  1
  Te  Te29  1  0.68135468  0.58394283  0.66306911  1
  Te  Te30  1  0.08727309  0.82761164  0.66892661  1
  Te  Te31  1  0.82285240  0.08608588  0.83026434  1
  Te  Te32  1  0.41391412  0.67714760  0.33026434  1
  Te  Te33  1  0.31283514  0.09776268  0.16748728  1
  Te  Te34  1  0.91391412  0.17714760  0.66973566  1
  Te  Te35  1  0.41605717  0.31864532  0.83693089  1
  Te  Te36  1  0.40223732  0.31283514  0.16748728  1
  Te  Te37  1  0.17238836  0.58727309  0.33107339  1
  Te  Te38  1  0.08394283  0.18135468  0.83693089  1
  Te  Te39  1  0.17154367  0.08742145  0.99791564  1
  Te  Te40  1  0.90223732  0.81283514  0.83251272  1
  Te  Te41  1  0.08608588  0.82285240  0.33026434  1
  Te  Te42  1  0.80888633  0.09543548  0.50062111  1
  Te  Te43  1  0.19111367  0.59543548  0.99937889  1
  Te  Te44  1  0.68716486  0.59776268  0.33251272  1
  Te  Te45  1  0.90456452  0.19111367  0.99937889  1
  Te  Te46  1  0.91272691  0.32761164  0.83107339  1
  Te  Te47  1  0.40456452  0.80888633  0.50062111  1
  Te  Te48  1  0.08742145  0.17154367  0.49791564  1
  Te  Te49  1  0.58727309  0.17238836  0.83107339  1
  Te  Te50  1  0.09543548  0.80888633  0.00062111  1
  Te  Te51  1  0.32761164  0.91272691  0.33107339  1
  Te  Te52  1  0.58742145  0.67154367  0.50208436  1
  Te  Te53  1  0.17714760  0.91391412  0.16973566  1
  Te  Te54  1  0.09543548  0.69111367  0.50062111  1
  Te  Te55  1  0.67714760  0.08608588  0.33026434  1
  Te  Te56  1  0.58742145  0.82845633  0.00208436  1
  Te  Te57  1  0.81864532  0.91605717  0.66306911  1
  Te  Te58  1  0.91605717  0.68135468  0.66306911  1
  Te  Te59  1  0.91391412  0.32285240  0.16973566  1
  Te  Te60  1  0.19111367  0.90456452  0.49937889  1
  Te  Te61  1  0.59543548  0.30888633  0.99937889  1
  Te  Te62  1  0.41272691  0.82761164  0.16892661  1
  Te  Te63  1  0.41391412  0.82285240  0.83026434  1
  Te  Te64  1  0.30888633  0.59543548  0.49937889  1
  Te  Te65  1  0.08608588  0.67714760  0.83026434  1
  Te  Te66  1  0.58608588  0.17714760  0.16973566  1
  Te  Te67  1  0.81864532  0.58394283  0.16306911  1
  Te  Te68  1  0.41257855  0.17154367  0.99791564  1
  Te  Te69  1  0.40456452  0.69111367  0.00062111  1
  Te  Te70  1  0.81283514  0.59776268  0.83251272  1
  Te  Te71  1  0.09776268  0.31283514  0.66748728  1
  Te  Te72  1  0.69111367  0.40456452  0.50062111  1
  Te  Te73  1  0.91272691  0.17238836  0.33107339  1
  Te  Te74  1  0.30888633  0.90456452  0.99937889  1
  Te  Te75  1  0.58394283  0.68135468  0.16306911  1
  Te  Te76  1  0.68716486  0.90223732  0.83251272  1
  Te  Te77  1  0.91257855  0.67154367  0.00208436  1
  Te  Te78  1  0.58394283  0.81864532  0.66306911  1
  Te  Te79  1  0.08727309  0.67238836  0.16892661  1
  Te  Te80  1  0.91257855  0.82845633  0.50208436  1
  Te  Te81  1  0.18716486  0.09776268  0.66748728  1
  Te  Te82  1  0.67238836  0.08727309  0.66892661  1
  Te  Te83  1  0.59776268  0.68716486  0.83251272  1
  Te  Te84  1  0.41605717  0.18135468  0.33693089  1
  Te  Te85  1  0.18716486  0.40223732  0.16748728  1
  Te  Te86  1  0.41272691  0.67238836  0.66892661  1
  Te  Te87  1  0.67714760  0.41391412  0.83026434  1
  Te  Te88  1  0.17714760  0.58608588  0.66973566  1
  Te  Te89  1  0.09776268  0.18716486  0.16748728  1
  Te  Te90  1  0.31864532  0.41605717  0.33693089  1
  Te  Te91  1  0.08394283  0.31864532  0.33693089  1
  Te  Te92  1  0.40223732  0.18716486  0.66748728  1
  Te  Te93  1  0.17238836  0.91272691  0.83107339  1
  Te  Te94  1  0.32285240  0.58608588  0.16973566  1
  Te  Te95  1  0.58727309  0.32761164  0.33107339  1
  Te  Te96  1  0.81283514  0.90223732  0.33251272  1
  Te  Te97  1  0.41257855  0.32845633  0.49791564  1
  Te  Te98  1  0.69111367  0.09543548  0.00062111  1
  Te  Te99  1  0.68135468  0.91605717  0.16306911  1
  Te  Te100  1  0.59776268  0.81283514  0.33251272  1
  Te  Te101  1  0.17154367  0.41257855  0.49791564  1
  Te  Te102  1  0.32845633  0.08742145  0.49791564  1
  Te  Te103  1  0.82761164  0.41272691  0.66892661  1
  Te  Te104  1  0.91605717  0.81864532  0.16306911  1
  Te  Te105  1  0.18135468  0.41605717  0.83693089  1
  Te  Te106  1  0.31283514  0.40223732  0.66748728  1
  Te  Te107  1  0.32285240  0.91391412  0.66973566  1
  Te  Te108  1  0.08742145  0.32845633  0.99791564  1
  Te  Te109  1  0.59543548  0.19111367  0.49937889  1
  Te  Te110  1  0.67154367  0.58742145  0.00208436  1
  Te  Te111  1  0.67154367  0.91257855  0.50208436  1
  Te  Te112  1  0.32845633  0.41257855  0.99791564  1
  Te  Te113  1  0.90223732  0.68716486  0.33251272  1
  Te  Te114  1  0.82285240  0.41391412  0.33026434  1
  Te  Te115  1  0.18135468  0.08394283  0.33693089  1
  Te  Te116  1  0.82761164  0.08727309  0.16892661  1
  Te  Te117  1  0.67238836  0.41272691  0.16892661  1
  Te  Te118  1  0.90456452  0.30888633  0.49937889  1
  Te  Te119  1  0.58608588  0.32285240  0.66973566  1
