# generated using pymatgen
data_CdI2
_symmetry_space_group_name_H-M   'P 1'
_cell_length_a   4.34228807
_cell_length_b   4.34228834
_cell_length_c   139.64795903
_cell_angle_alpha   90.00000000
_cell_angle_beta   90.00000000
_cell_angle_gamma   119.99999789
_symmetry_Int_Tables_number   1
_chemical_formula_structural   CdI2
_chemical_formula_sum   'Cd19 I38'
_cell_volume   2280.35532097
_cell_formula_units_Z   19
loop_
 _symmetry_equiv_pos_site_id
 _symmetry_equiv_pos_as_xyz
  1  'x, y, z'
loop_
 _atom_site_type_symbol
 _atom_site_label
 _atom_site_symmetry_multiplicity
 _atom_site_fract_x
 _atom_site_fract_y
 _atom_site_fract_z
 _atom_site_occupancy
  Cd  Cd0  1  0.66666700  0.33333300  0.53948820  1
  Cd  Cd1  1  0.33333300  0.66666700  0.74999800  1
  Cd  Cd2  1  0.66666700  0.33333300  0.43420195  1
  Cd  Cd3  1  0.66666700  0.33333300  0.69736440  1
  Cd  Cd4  1  0.33333300  0.66666700  0.06576731  1
  Cd  Cd5  1  0.33333300  0.66666700  0.48683813  1
  Cd  Cd6  1  0.66666700  0.33333300  0.01316862  1
  Cd  Cd7  1  0.66666700  0.33333300  0.11841779  1
  Cd  Cd8  1  0.66666700  0.33333300  0.59209620  1
  Cd  Cd9  1  0.33333300  0.66666700  0.64474069  1
  Cd  Cd10  1  0.66666700  0.33333300  0.27632172  1
  Cd  Cd11  1  0.33333300  0.66666700  0.38155637  1
  Cd  Cd12  1  0.66666700  0.33333300  0.85526979  1
  Cd  Cd13  1  0.33333300  0.66666700  0.17105115  1
  Cd  Cd14  1  0.33333300  0.66666700  0.90790317  1
  Cd  Cd15  1  0.33333300  0.66666700  0.32895537  1
  Cd  Cd16  1  0.66666700  0.33333300  0.22370420  1
  Cd  Cd17  1  0.33333300  0.66666700  0.96052584  1
  Cd  Cd18  1  0.33333300  0.66666700  0.80261489  1
  I  I19  1  0.33333300  0.66666700  0.70975569  1
  I  I20  1  0.00000000  0.00000000  0.73761440  1
  I  I21  1  0.00000000  0.00000000  0.84287940  1
  I  I22  1  0.00000000  0.00000000  0.47444917  1
  I  I23  1  0.33333300  0.66666700  0.02554551  1
  I  I24  1  0.00000000  0.00000000  0.94815098  1
  I  I25  1  0.33333300  0.66666700  0.44658488  1
  I  I26  1  0.00000000  0.00000000  0.26392262  1
  I  I27  1  0.00000000  0.00000000  0.79024006  1
  I  I28  1  0.00000000  0.00000000  0.05337990  1
  I  I29  1  0.33333300  0.66666700  0.86765796  1
  I  I30  1  0.66666700  0.33333300  0.92028586  1
  I  I31  1  0.33333300  0.66666700  0.13080467  1
  I  I32  1  0.00000000  0.00000000  0.42182975  1
  I  I33  1  0.66666700  0.33333300  0.97291967  1
  I  I34  1  0.00000000  0.00000000  0.21132643  1
  I  I35  1  0.66666700  0.33333300  0.65712706  1
  I  I36  1  0.00000000  0.00000000  0.68497998  1
  I  I37  1  0.66666700  0.33333300  0.07815174  1
  I  I38  1  0.33333300  0.66666700  0.23608833  1
  I  I39  1  0.00000000  0.00000000  0.89551112  1
  I  I40  1  0.33333300  0.66666700  0.55186649  1
  I  I41  1  0.66666700  0.33333300  0.39394595  1
  I  I42  1  0.66666700  0.33333300  0.81500065  1
  I  I43  1  0.00000000  0.00000000  0.00078693  1
  I  I44  1  0.00000000  0.00000000  0.36918140  1
  I  I45  1  0.00000000  0.00000000  0.52709815  1
  I  I46  1  0.66666700  0.33333300  0.34133438  1
  I  I47  1  0.33333300  0.66666700  0.60448632  1
  I  I48  1  0.66666700  0.33333300  0.18343666  1
  I  I49  1  0.66666700  0.33333300  0.76237970  1
  I  I50  1  0.00000000  0.00000000  0.57971818  1
  I  I51  1  0.00000000  0.00000000  0.63236228  1
  I  I52  1  0.66666700  0.33333300  0.49923436  1
  I  I53  1  0.00000000  0.00000000  0.15867634  1
  I  I54  1  0.33333300  0.66666700  0.28871618  1
  I  I55  1  0.00000000  0.00000000  0.10602485  1
  I  I56  1  0.00000000  0.00000000  0.31656222  1
