# generated using pymatgen
data_CdI2
_symmetry_space_group_name_H-M   'P 1'
_cell_length_a   4.34250423
_cell_length_b   4.34250450
_cell_length_c   146.80123298
_cell_angle_alpha   90.00000000
_cell_angle_beta   90.00000000
_cell_angle_gamma   119.99999789
_symmetry_Int_Tables_number   1
_chemical_formula_structural   CdI2
_chemical_formula_sum   'Cd20 I40'
_cell_volume   2397.40204326
_cell_formula_units_Z   20
loop_
 _symmetry_equiv_pos_site_id
 _symmetry_equiv_pos_as_xyz
  1  'x, y, z'
loop_
 _atom_site_type_symbol
 _atom_site_label
 _atom_site_symmetry_multiplicity
 _atom_site_fract_x
 _atom_site_fract_y
 _atom_site_fract_z
 _atom_site_occupancy
  Cd  Cd0  1  0.66666700  0.33333300  0.01249998  1
  Cd  Cd1  1  0.33333300  0.66666700  0.81249235  1
  Cd  Cd2  1  0.33333300  0.66666700  0.11249922  1
  Cd  Cd3  1  0.33333300  0.66666700  0.41250696  1
  Cd  Cd4  1  0.33333300  0.66666700  0.61249873  1
  Cd  Cd5  1  0.33333300  0.66666700  0.96249876  1
  Cd  Cd6  1  0.00000000  0.00000000  0.66249185  1
  Cd  Cd7  1  0.33333300  0.66666700  0.06249723  1
  Cd  Cd8  1  0.33333300  0.66666700  0.16250879  1
  Cd  Cd9  1  0.33333300  0.66666700  0.51249721  1
  Cd  Cd10  1  0.00000000  0.00000000  0.46249808  1
  Cd  Cd11  1  0.00000000  0.00000000  0.36250270  1
  Cd  Cd12  1  0.00000000  0.00000000  0.26248938  1
  Cd  Cd13  1  0.00000000  0.00000000  0.76248858  1
  Cd  Cd14  1  0.00000000  0.00000000  0.86250224  1
  Cd  Cd15  1  0.33333300  0.66666700  0.31249257  1
  Cd  Cd16  1  0.33333300  0.66666700  0.71249761  1
  Cd  Cd17  1  0.33333300  0.66666700  0.21249720  1
  Cd  Cd18  1  0.33333300  0.66666700  0.91250850  1
  Cd  Cd19  1  0.00000000  0.00000000  0.56249706  1
  I  I20  1  0.00000000  0.00000000  0.05071644  1
  I  I21  1  0.33333300  0.66666700  0.75070233  1
  I  I22  1  0.66666700  0.33333300  0.52428730  1
  I  I23  1  0.00000000  0.00000000  0.95072128  1
  I  I24  1  0.66666700  0.33333300  0.22428334  1
  I  I25  1  0.33333300  0.66666700  0.45070890  1
  I  I26  1  0.00000000  0.00000000  0.80071419  1
  I  I27  1  0.00000000  0.00000000  0.15072729  1
  I  I28  1  0.66666700  0.33333300  0.82427381  1
  I  I29  1  0.66666700  0.33333300  0.67428380  1
  I  I30  1  0.66666700  0.33333300  0.32427452  1
  I  I31  1  0.33333300  0.66666700  0.35071411  1
  I  I32  1  0.00000000  0.00000000  0.30071438  1
  I  I33  1  0.66666700  0.33333300  0.97428518  1
  I  I34  1  0.66666700  0.33333300  0.47428353  1
  I  I35  1  0.00000000  0.00000000  0.10072423  1
  I  I36  1  0.66666700  0.33333300  0.77427444  1
  I  I37  1  0.66666700  0.33333300  0.72428350  1
  I  I38  1  0.00000000  0.00000000  0.40072637  1
  I  I39  1  0.66666700  0.33333300  0.87429084  1
  I  I40  1  0.66666700  0.33333300  0.37429102  1
  I  I41  1  0.66666700  0.33333300  0.17429247  1
  I  I42  1  0.66666700  0.33333300  0.27427802  1
  I  I43  1  0.00000000  0.00000000  0.90072735  1
  I  I44  1  0.33333300  0.66666700  0.02428959  1
  I  I45  1  0.66666700  0.33333300  0.42429145  1
  I  I46  1  0.00000000  0.00000000  0.00072375  1
  I  I47  1  0.66666700  0.33333300  0.62428568  1
  I  I48  1  0.00000000  0.00000000  0.20072187  1
  I  I49  1  0.33333300  0.66666700  0.55071083  1
  I  I50  1  0.00000000  0.00000000  0.60072333  1
  I  I51  1  0.66666700  0.33333300  0.07427835  1
  I  I52  1  0.33333300  0.66666700  0.85071436  1
  I  I53  1  0.66666700  0.33333300  0.57428160  1
  I  I54  1  0.00000000  0.00000000  0.50072182  1
  I  I55  1  0.00000000  0.00000000  0.70072117  1
  I  I56  1  0.66666700  0.33333300  0.12428803  1
  I  I57  1  0.33333300  0.66666700  0.65070922  1
  I  I58  1  0.66666700  0.33333300  0.92429231  1
  I  I59  1  0.33333300  0.66666700  0.25070303  1
