# generated using pymatgen
data_CdI2
_symmetry_space_group_name_H-M   'P 1'
_cell_length_a   4.34452514
_cell_length_b   4.34452541
_cell_length_c   110.58151480
_cell_angle_alpha   90.00000000
_cell_angle_beta   90.00000000
_cell_angle_gamma   119.99999795
_symmetry_Int_Tables_number   1
_chemical_formula_structural   CdI2
_chemical_formula_sum   'Cd15 I30'
_cell_volume   1807.58126668
_cell_formula_units_Z   15
loop_
 _symmetry_equiv_pos_site_id
 _symmetry_equiv_pos_as_xyz
  1  'x, y, z'
loop_
 _atom_site_type_symbol
 _atom_site_label
 _atom_site_symmetry_multiplicity
 _atom_site_fract_x
 _atom_site_fract_y
 _atom_site_fract_z
 _atom_site_occupancy
  Cd  Cd0  1  0.66666700  0.33333300  0.01666325  1
  Cd  Cd1  1  0.66666700  0.33333300  0.81666648  1
  Cd  Cd2  1  0.00000000  0.00000000  0.54999293  1
  Cd  Cd3  1  0.66666700  0.33333300  0.61666932  1
  Cd  Cd4  1  0.66666700  0.33333300  0.28333431  1
  Cd  Cd5  1  0.66666700  0.33333300  0.34999847  1
  Cd  Cd6  1  0.66666700  0.33333300  0.88334775  1
  Cd  Cd7  1  0.66666700  0.33333300  0.14999626  1
  Cd  Cd8  1  0.66666700  0.33333300  0.48332700  1
  Cd  Cd9  1  0.00000000  0.00000000  0.08332489  1
  Cd  Cd10  1  0.66666700  0.33333300  0.21667165  1
  Cd  Cd11  1  0.66666700  0.33333300  0.68332935  1
  Cd  Cd12  1  0.66666700  0.33333300  0.95000221  1
  Cd  Cd13  1  0.66666700  0.33333300  0.41665922  1
  Cd  Cd14  1  0.66666700  0.33333300  0.74998602  1
  I  I15  1  0.00000000  0.00000000  0.73434279  1
  I  I16  1  0.33333300  0.66666700  0.56564815  1
  I  I17  1  0.00000000  0.00000000  0.20102392  1
  I  I18  1  0.33333300  0.66666700  0.43230525  1
  I  I19  1  0.00000000  0.00000000  0.86770242  1
  I  I20  1  0.33333300  0.66666700  0.36565053  1
  I  I21  1  0.33333300  0.66666700  0.89899371  1
  I  I22  1  0.00000000  0.00000000  0.46768988  1
  I  I23  1  0.33333300  0.66666700  0.96564846  1
  I  I24  1  0.33333300  0.66666700  0.23231712  1
  I  I25  1  0.33333300  0.66666700  0.69898197  1
  I  I26  1  0.00000000  0.00000000  0.60102494  1
  I  I27  1  0.33333300  0.66666700  0.76563554  1
  I  I28  1  0.00000000  0.00000000  0.66769017  1
  I  I29  1  0.00000000  0.00000000  0.40101321  1
  I  I30  1  0.00000000  0.00000000  0.80102525  1
  I  I31  1  0.33333300  0.66666700  0.63231499  1
  I  I32  1  0.66666700  0.33333300  0.53434894  1
  I  I33  1  0.00000000  0.00000000  0.93435855  1
  I  I34  1  0.33333300  0.66666700  0.09897495  1
  I  I35  1  0.00000000  0.00000000  0.00102450  1
  I  I36  1  0.00000000  0.00000000  0.13435631  1
  I  I37  1  0.66666700  0.33333300  0.06767504  1
  I  I38  1  0.33333300  0.66666700  0.03231476  1
  I  I39  1  0.00000000  0.00000000  0.26769085  1
  I  I40  1  0.33333300  0.66666700  0.29898046  1
  I  I41  1  0.00000000  0.00000000  0.33435684  1
  I  I42  1  0.33333300  0.66666700  0.83231618  1
  I  I43  1  0.33333300  0.66666700  0.16564695  1
  I  I44  1  0.33333300  0.66666700  0.49897827  1
