# generated using pymatgen
data_CdI2
_symmetry_space_group_name_H-M   'P 1'
_cell_length_a   4.34227386
_cell_length_b   4.34227413
_cell_length_c   146.78769059
_cell_angle_alpha   90.00000000
_cell_angle_beta   90.00000000
_cell_angle_gamma   119.99999797
_symmetry_Int_Tables_number   1
_chemical_formula_structural   CdI2
_chemical_formula_sum   'Cd20 I40'
_cell_volume   2396.92654664
_cell_formula_units_Z   20
loop_
 _symmetry_equiv_pos_site_id
 _symmetry_equiv_pos_as_xyz
  1  'x, y, z'
loop_
 _atom_site_type_symbol
 _atom_site_label
 _atom_site_symmetry_multiplicity
 _atom_site_fract_x
 _atom_site_fract_y
 _atom_site_fract_z
 _atom_site_occupancy
  Cd  Cd0  1  0.66666700  0.33333300  0.01249772  1
  Cd  Cd1  1  0.00000000  0.00000000  0.81249499  1
  Cd  Cd2  1  0.66666700  0.33333300  0.11249810  1
  Cd  Cd3  1  0.33333300  0.66666700  0.56248996  1
  Cd  Cd4  1  0.33333300  0.66666700  0.76249749  1
  Cd  Cd5  1  0.33333300  0.66666700  0.46250020  1
  Cd  Cd6  1  0.66666700  0.33333300  0.51249716  1
  Cd  Cd7  1  0.33333300  0.66666700  0.96249903  1
  Cd  Cd8  1  0.33333300  0.66666700  0.06248915  1
  Cd  Cd9  1  0.33333300  0.66666700  0.86249573  1
  Cd  Cd10  1  0.33333300  0.66666700  0.16250810  1
  Cd  Cd11  1  0.33333300  0.66666700  0.26249842  1
  Cd  Cd12  1  0.33333300  0.66666700  0.66250377  1
  Cd  Cd13  1  0.66666700  0.33333300  0.61249798  1
  Cd  Cd14  1  0.66666700  0.33333300  0.41250691  1
  Cd  Cd15  1  0.00000000  0.00000000  0.71249466  1
  Cd  Cd16  1  0.00000000  0.00000000  0.91248878  1
  Cd  Cd17  1  0.66666700  0.33333300  0.21250074  1
  Cd  Cd18  1  0.66666700  0.33333300  0.31249116  1
  Cd  Cd19  1  0.33333300  0.66666700  0.36249793  1
  I  I20  1  0.00000000  0.00000000  0.05071478  1
  I  I21  1  0.33333300  0.66666700  0.62428404  1
  I  I22  1  0.33333300  0.66666700  0.52428460  1
  I  I23  1  0.00000000  0.00000000  0.55071419  1
  I  I24  1  0.00000000  0.00000000  0.15072961  1
  I  I25  1  0.00000000  0.00000000  0.85072403  1
  I  I26  1  0.66666700  0.33333300  0.67428380  1
  I  I27  1  0.66666700  0.33333300  0.77428377  1
  I  I28  1  0.33333300  0.66666700  0.70070790  1
  I  I29  1  0.00000000  0.00000000  0.30071481  1
  I  I30  1  0.66666700  0.33333300  0.47428307  1
  I  I31  1  0.00000000  0.00000000  0.10072639  1
  I  I32  1  0.00000000  0.00000000  0.95072315  1
  I  I33  1  0.66666700  0.33333300  0.97428250  1
  I  I34  1  0.00000000  0.00000000  0.40072791  1
  I  I35  1  0.66666700  0.33333300  0.87428151  1
  I  I36  1  0.66666700  0.33333300  0.17428854  1
  I  I37  1  0.66666700  0.33333300  0.27428469  1
  I  I38  1  0.00000000  0.00000000  0.45072479  1
  I  I39  1  0.33333300  0.66666700  0.02428475  1
  I  I40  1  0.66666700  0.33333300  0.07426925  1
  I  I41  1  0.33333300  0.66666700  0.32427048  1
  I  I42  1  0.00000000  0.00000000  0.00072429  1
  I  I43  1  0.00000000  0.00000000  0.65072552  1
  I  I44  1  0.66666700  0.33333300  0.82427900  1
  I  I45  1  0.00000000  0.00000000  0.20072552  1
  I  I46  1  0.33333300  0.66666700  0.80070820  1
  I  I47  1  0.00000000  0.00000000  0.60072613  1
  I  I48  1  0.66666700  0.33333300  0.72427796  1
  I  I49  1  0.33333300  0.66666700  0.42428785  1
  I  I50  1  0.66666700  0.33333300  0.57427059  1
  I  I51  1  0.33333300  0.66666700  0.90070823  1
  I  I52  1  0.00000000  0.00000000  0.25072526  1
  I  I53  1  0.00000000  0.00000000  0.35072612  1
  I  I54  1  0.66666700  0.33333300  0.37428433  1
  I  I55  1  0.33333300  0.66666700  0.22428314  1
  I  I56  1  0.66666700  0.33333300  0.92427974  1
  I  I57  1  0.00000000  0.00000000  0.75072383  1
  I  I58  1  0.33333300  0.66666700  0.12428416  1
  I  I59  1  0.00000000  0.00000000  0.50072360  1
