# generated using pymatgen
data_CdI2
_symmetry_space_group_name_H-M   'P 1'
_cell_length_a   4.33911269
_cell_length_b   4.33911296
_cell_length_c   154.43503216
_cell_angle_alpha   90.00000000
_cell_angle_beta   90.00000000
_cell_angle_gamma   119.99999789
_symmetry_Int_Tables_number   1
_chemical_formula_structural   CdI2
_chemical_formula_sum   'Cd21 I42'
_cell_volume   2518.13117032
_cell_formula_units_Z   21
loop_
 _symmetry_equiv_pos_site_id
 _symmetry_equiv_pos_as_xyz
  1  'x, y, z'
loop_
 _atom_site_type_symbol
 _atom_site_label
 _atom_site_symmetry_multiplicity
 _atom_site_fract_x
 _atom_site_fract_y
 _atom_site_fract_z
 _atom_site_occupancy
  Cd  Cd0  1  0.33333300  0.66666700  0.53571549  1
  Cd  Cd1  1  0.66666700  0.33333300  0.58333153  1
  Cd  Cd2  1  0.66666700  0.33333300  0.01189959  1
  Cd  Cd3  1  0.33333300  0.66666700  0.10714161  1
  Cd  Cd4  1  0.66666700  0.33333300  0.86904601  1
  Cd  Cd5  1  0.66666700  0.33333300  0.72619047  1
  Cd  Cd6  1  0.33333300  0.66666700  0.48809624  1
  Cd  Cd7  1  0.66666700  0.33333300  0.82142875  1
  Cd  Cd8  1  0.33333300  0.66666700  0.34523866  1
  Cd  Cd9  1  0.66666700  0.33333300  0.15476930  1
  Cd  Cd10  1  0.33333300  0.66666700  0.77380591  1
  Cd  Cd11  1  0.33333300  0.66666700  0.63096251  1
  Cd  Cd12  1  0.33333300  0.66666700  0.20238438  1
  Cd  Cd13  1  0.33333300  0.66666700  0.67856839  1
  Cd  Cd14  1  0.33333300  0.66666700  0.91666462  1
  Cd  Cd15  1  0.66666700  0.33333300  0.29761773  1
  Cd  Cd16  1  0.33333300  0.66666700  0.05952346  1
  Cd  Cd17  1  0.33333300  0.66666700  0.39285547  1
  Cd  Cd18  1  0.66666700  0.33333300  0.44047730  1
  Cd  Cd19  1  0.33333300  0.66666700  0.24999638  1
  Cd  Cd20  1  0.33333300  0.66666700  0.96428766  1
  I  I21  1  0.66666700  0.33333300  0.07071693  1
  I  I22  1  0.00000000  0.00000000  0.09595214  1
  I  I23  1  0.00000000  0.00000000  0.23880259  1
  I  I24  1  0.00000000  0.00000000  0.19118629  1
  I  I25  1  0.66666700  0.33333300  0.68975576  1
  I  I26  1  0.00000000  0.00000000  0.52451750  1
  I  I27  1  0.33333300  0.66666700  0.45166255  1
  I  I28  1  0.00000000  0.00000000  0.81023699  1
  I  I29  1  0.33333300  0.66666700  0.59451310  1
  I  I30  1  0.66666700  0.33333300  0.78499140  1
  I  I31  1  0.00000000  0.00000000  0.71501395  1
  I  I32  1  0.00000000  0.00000000  0.76261473  1
  I  I33  1  0.00000000  0.00000000  0.28642388  1
  I  I34  1  0.66666700  0.33333300  0.64214208  1
  I  I35  1  0.33333300  0.66666700  0.83262056  1
  I  I36  1  0.00000000  0.00000000  0.66739575  1
  I  I37  1  0.33333300  0.66666700  0.30879865  1
  I  I38  1  0.00000000  0.00000000  0.47690482  1
  I  I39  1  0.00000000  0.00000000  0.04834728  1
  I  I40  1  0.00000000  0.00000000  0.14357694  1
  I  I41  1  0.66666700  0.33333300  0.11832612  1
  I  I42  1  0.00000000  0.00000000  0.85784840  1
  I  I43  1  0.00000000  0.00000000  0.61977222  1
  I  I44  1  0.66666700  0.33333300  0.97546834  1
  I  I45  1  0.00000000  0.00000000  0.00072546  1
  I  I46  1  0.00000000  0.00000000  0.90547085  1
  I  I47  1  0.33333300  0.66666700  0.16597035  1
  I  I48  1  0.66666700  0.33333300  0.92784636  1
  I  I49  1  0.00000000  0.00000000  0.38167993  1
  I  I50  1  0.66666700  0.33333300  0.21357246  1
  I  I51  1  0.33333300  0.66666700  0.02308803  1
  I  I52  1  0.00000000  0.00000000  0.33406384  1
  I  I53  1  0.33333300  0.66666700  0.73738446  1
  I  I54  1  0.66666700  0.33333300  0.26117879  1
  I  I55  1  0.66666700  0.33333300  0.35643014  1
  I  I56  1  0.66666700  0.33333300  0.40405047  1
  I  I57  1  0.66666700  0.33333300  0.49928778  1
  I  I58  1  0.00000000  0.00000000  0.57213621  1
  I  I59  1  0.33333300  0.66666700  0.88023346  1
  I  I60  1  0.00000000  0.00000000  0.42929009  1
  I  I61  1  0.00000000  0.00000000  0.95309864  1
  I  I62  1  0.66666700  0.33333300  0.54690226  1
