# generated using pymatgen
data_CdI2
_symmetry_space_group_name_H-M   'P 1'
_cell_length_a   4.33918752
_cell_length_b   4.33918778
_cell_length_c   161.68819922
_cell_angle_alpha   90.00000000
_cell_angle_beta   90.00000000
_cell_angle_gamma   119.99999798
_symmetry_Int_Tables_number   1
_chemical_formula_structural   CdI2
_chemical_formula_sum   'Cd22 I44'
_cell_volume   2636.48818082
_cell_formula_units_Z   22
loop_
 _symmetry_equiv_pos_site_id
 _symmetry_equiv_pos_as_xyz
  1  'x, y, z'
loop_
 _atom_site_type_symbol
 _atom_site_label
 _atom_site_symmetry_multiplicity
 _atom_site_fract_x
 _atom_site_fract_y
 _atom_site_fract_z
 _atom_site_occupancy
  Cd  Cd0  1  0.66666700  0.33333300  0.23864125  1
  Cd  Cd1  1  0.33333300  0.66666700  0.92044492  1
  Cd  Cd2  1  0.33333300  0.66666700  0.87499992  1
  Cd  Cd3  1  0.33333300  0.66666700  0.69320081  1
  Cd  Cd4  1  0.00000000  0.00000000  0.19318431  1
  Cd  Cd5  1  0.66666700  0.33333300  0.01136551  1
  Cd  Cd6  1  0.33333300  0.66666700  0.73864031  1
  Cd  Cd7  1  0.66666700  0.33333300  0.82953429  1
  Cd  Cd8  1  0.33333300  0.66666700  0.32953579  1
  Cd  Cd9  1  0.00000000  0.00000000  0.05681544  1
  Cd  Cd10  1  0.66666700  0.33333300  0.37499884  1
  Cd  Cd11  1  0.00000000  0.00000000  0.14772790  1
  Cd  Cd12  1  0.33333300  0.66666700  0.51136620  1
  Cd  Cd13  1  0.66666700  0.33333300  0.28408368  1
  Cd  Cd14  1  0.66666700  0.33333300  0.96590658  1
  Cd  Cd15  1  0.66666700  0.33333300  0.10226830  1
  Cd  Cd16  1  0.33333300  0.66666700  0.55682898  1
  Cd  Cd17  1  0.66666700  0.33333300  0.42044623  1
  Cd  Cd18  1  0.66666700  0.33333300  0.60227218  1
  Cd  Cd19  1  0.33333300  0.66666700  0.46590797  1
  Cd  Cd20  1  0.66666700  0.33333300  0.78408615  1
  Cd  Cd21  1  0.66666700  0.33333300  0.64773154  1
  I  I22  1  0.33333300  0.66666700  0.84022769  1
  I  I23  1  0.00000000  0.00000000  0.22794362  1
  I  I24  1  0.00000000  0.00000000  0.54613033  1
  I  I25  1  0.66666700  0.33333300  0.34022787  1
  I  I26  1  0.00000000  0.00000000  0.45520032  1
  I  I27  1  0.00000000  0.00000000  0.36429988  1
  I  I28  1  0.00000000  0.00000000  0.63704570  1
  I  I29  1  0.66666700  0.33333300  0.52205679  1
  I  I30  1  0.00000000  0.00000000  0.31884976  1
  I  I31  1  0.33333300  0.66666700  0.43114220  1
  I  I32  1  0.66666700  0.33333300  0.70389257  1
  I  I33  1  0.00000000  0.00000000  0.72794334  1
  I  I34  1  0.00000000  0.00000000  0.95519909  1
  I  I35  1  0.00000000  0.00000000  0.59158197  1
  I  I36  1  0.33333300  0.66666700  0.02205600  1
  I  I37  1  0.33333300  0.66666700  0.61295953  1
  I  I38  1  0.00000000  0.00000000  0.40976157  1
  I  I39  1  0.66666700  0.33333300  0.93114181  1
  I  I40  1  0.33333300  0.66666700  0.29476740  1
  I  I41  1  0.00000000  0.00000000  0.27339814  1
  I  I42  1  0.66666700  0.33333300  0.74932992  1
  I  I43  1  0.66666700  0.33333300  0.04612159  1
  I  I44  1  0.00000000  0.00000000  0.81884825  1
  I  I45  1  0.00000000  0.00000000  0.68251072  1
  I  I46  1  0.33333300  0.66666700  0.38568557  1
  I  I47  1  0.66666700  0.33333300  0.88568659  1
  I  I48  1  0.66666700  0.33333300  0.18249382  1
  I  I49  1  0.33333300  0.66666700  0.97659120  1
  I  I50  1  0.66666700  0.33333300  0.47659582  1
  I  I51  1  0.00000000  0.00000000  0.90976108  1
  I  I52  1  0.00000000  0.00000000  0.00069428  1
  I  I53  1  0.00000000  0.00000000  0.77340118  1
  I  I54  1  0.33333300  0.66666700  0.79476727  1
  I  I55  1  0.33333300  0.66666700  0.15842943  1
  I  I56  1  0.00000000  0.00000000  0.86429990  1
  I  I57  1  0.33333300  0.66666700  0.20387661  1
  I  I58  1  0.00000000  0.00000000  0.09157947  1
  I  I59  1  0.66666700  0.33333300  0.13704123  1
  I  I60  1  0.00000000  0.00000000  0.50069474  1
  I  I61  1  0.66666700  0.33333300  0.56751983  1
  I  I62  1  0.33333300  0.66666700  0.06750734  1
  I  I63  1  0.33333300  0.66666700  0.11295920  1
  I  I64  1  0.33333300  0.66666700  0.65843201  1
  I  I65  1  0.33333300  0.66666700  0.24933028  1
