# generated using pymatgen
data_Ca4Te5O14
_symmetry_space_group_name_H-M   'P 1'
_cell_length_a   11.06937258
_cell_length_b   15.97904507
_cell_length_c   16.75690953
_cell_angle_alpha   90.00000000
_cell_angle_beta   90.00000000
_cell_angle_gamma   90.00000000
_symmetry_Int_Tables_number   1
_chemical_formula_structural   Ca4Te5O14
_chemical_formula_sum   'Ca32 Te40 O112'
_cell_volume   2963.92870002
_cell_formula_units_Z   8
loop_
 _symmetry_equiv_pos_site_id
 _symmetry_equiv_pos_as_xyz
  1  'x, y, z'
loop_
 _atom_site_type_symbol
 _atom_site_label
 _atom_site_symmetry_multiplicity
 _atom_site_fract_x
 _atom_site_fract_y
 _atom_site_fract_z
 _atom_site_occupancy
  Ca  Ca0  1  0.38107381  0.73769250  0.31860014  1
  Ca  Ca1  1  0.88566319  0.08960825  0.01245684  1
  Ca  Ca2  1  0.38566319  0.91039175  0.48754316  1
  Ca  Ca3  1  0.61433681  0.08960825  0.51245684  1
  Ca  Ca4  1  0.11892619  0.73769250  0.81860014  1
  Ca  Ca5  1  0.12302851  0.26447193  0.00974406  1
  Ca  Ca6  1  0.87697149  0.73552807  0.99025594  1
  Ca  Ca7  1  0.88403883  0.25617788  0.85463243  1
  Ca  Ca8  1  0.61892619  0.76230750  0.81860014  1
  Ca  Ca9  1  0.11433681  0.41039175  0.51245684  1
  Ca  Ca10  1  0.62302851  0.73552807  0.49025594  1
  Ca  Ca11  1  0.11596117  0.74382212  0.14536757  1
  Ca  Ca12  1  0.11892619  0.23769250  0.68139986  1
  Ca  Ca13  1  0.38403883  0.74382212  0.64536757  1
  Ca  Ca14  1  0.88403883  0.75617788  0.64536757  1
  Ca  Ca15  1  0.37697149  0.76447193  0.99025594  1
  Ca  Ca16  1  0.11596117  0.24382212  0.35463243  1
  Ca  Ca17  1  0.38403883  0.24382212  0.85463243  1
  Ca  Ca18  1  0.38566319  0.41039175  0.01245684  1
  Ca  Ca19  1  0.61433681  0.58960825  0.98754316  1
  Ca  Ca20  1  0.12302851  0.76447193  0.49025594  1
  Ca  Ca21  1  0.61596117  0.25617788  0.35463243  1
  Ca  Ca22  1  0.37697149  0.26447193  0.50974406  1
  Ca  Ca23  1  0.38107381  0.23769250  0.18139986  1
  Ca  Ca24  1  0.87697149  0.23552807  0.50974406  1
  Ca  Ca25  1  0.88566319  0.58960825  0.48754316  1
  Ca  Ca26  1  0.88107381  0.76230750  0.31860014  1
  Ca  Ca27  1  0.61892619  0.26230750  0.68139986  1
  Ca  Ca28  1  0.11433681  0.91039175  0.98754316  1
  Ca  Ca29  1  0.62302851  0.23552807  0.00974406  1
  Ca  Ca30  1  0.61596117  0.75617788  0.14536757  1
  Ca  Ca31  1  0.88107381  0.26230750  0.18139986  1
  Te  Te32  1  0.11249105  0.59224286  0.65357282  1
  Te  Te33  1  0.87248938  0.08537660  0.34657755  1
  Te  Te34  1  0.60230338  0.40973261  0.15927999  1
  Te  Te35  1  0.89769662  0.90973261  0.84072001  1
  Te  Te36  1  0.13569899  0.40739131  0.17544461  1
  Te  Te37  1  0.62751062  0.08537660  0.84657755  1
  Te  Te38  1  0.13569899  0.90739131  0.32455539  1
  Te  Te39  1  0.62612549  0.39785546  0.51297626  1
  Te  Te40  1  0.39769662  0.09026739  0.65927999  1
  Te  Te41  1  0.12751062  0.41462340  0.84657755  1
  Te  Te42  1  0.37387451  0.60214454  0.48702374  1
  Te  Te43  1  0.86430101  0.09260869  0.67544461  1
  Te  Te44  1  0.62612549  0.89785546  0.98702374  1
  Te  Te45  1  0.12751062  0.91462340  0.65342245  1
  Te  Te46  1  0.88750895  0.90775714  0.15357282  1
  Te  Te47  1  0.63569899  0.59260869  0.32455539  1
  Te  Te48  1  0.12612549  0.10214454  0.51297626  1
  Te  Te49  1  0.89769662  0.40973261  0.65927999  1
  Te  Te50  1  0.88750895  0.40775714  0.34642718  1
  Te  Te51  1  0.61249105  0.40775714  0.84642718  1
  Te  Te52  1  0.11249105  0.09224286  0.84642718  1
  Te  Te53  1  0.37248938  0.41462340  0.34657755  1
  Te  Te54  1  0.87248938  0.58537660  0.15342245  1
  Te  Te55  1  0.63569899  0.09260869  0.17544461  1
  Te  Te56  1  0.37387451  0.10214454  0.01297626  1
  Te  Te57  1  0.62751062  0.58537660  0.65342245  1
  Te  Te58  1  0.87387451  0.39785546  0.01297626  1
  Te  Te59  1  0.39769662  0.59026739  0.84072001  1
  Te  Te60  1  0.12612549  0.60214454  0.98702374  1
  Te  Te61  1  0.36430101  0.90739131  0.82455539  1
  Te  Te62  1  0.38750895  0.59224286  0.15357282  1
  Te  Te63  1  0.10230338  0.09026739  0.15927999  1
  Te  Te64  1  0.37248938  0.91462340  0.15342245  1
  Te  Te65  1  0.60230338  0.90973261  0.34072001  1
  Te  Te66  1  0.38750895  0.09224286  0.34642718  1
  Te  Te67  1  0.61249105  0.90775714  0.65357282  1
  Te  Te68  1  0.10230338  0.59026739  0.34072001  1
  Te  Te69  1  0.36430101  0.40739131  0.67544461  1
  Te  Te70  1  0.86430101  0.59260869  0.82455539  1
  Te  Te71  1  0.87387451  0.89785546  0.48702374  1
  O  O72  1  0.03085291  0.16580080  0.92014942  1
  O  O73  1  0.25528756  0.84137263  0.88641562  1
  O  O74  1  0.27792940  0.16971604  0.29905172  1
  O  O75  1  0.55739574  0.98893951  0.41943145  1
  O  O76  1  0.72207060  0.33028396  0.79905172  1
  O  O77  1  0.93938454  0.17009624  0.28215217  1
  O  O78  1  0.25528756  0.34137263  0.61358438  1
  O  O79  1  0.96914709  0.33419920  0.42014942  1
  O  O80  1  0.74152080  0.87744064  0.87647950  1
  O  O81  1  0.49475546  0.63073315  0.57170968  1
  O  O82  1  0.93060352  0.17855826  0.74000775  1
  O  O83  1  0.75528756  0.15862737  0.61358438  1
  O  O84  1  0.43060352  0.32144174  0.74000775  1
  O  O85  1  0.46914709  0.66580080  0.07985058  1
  O  O86  1  0.75076708  0.05197417  0.75922459  1
  O  O87  1  0.21550424  0.53362760  0.58112215  1
  O  O88  1  0.06061546  0.82990376  0.71784783  1
  O  O89  1  0.51487082  0.32453274  0.10485177  1
  O  O90  1  0.00524454  0.13073315  0.42829032  1
  O  O91  1  0.22207060  0.16971604  0.79905172  1
  O  O92  1  0.19095899  0.70710244  0.01448807  1
  O  O93  1  0.44260426  0.51106049  0.91943145  1
  O  O94  1  0.43938454  0.82990376  0.21784783  1
  O  O95  1  0.48512918  0.17546726  0.60485177  1
  O  O96  1  0.99475546  0.86926685  0.57170968  1
  O  O97  1  0.93938454  0.67009624  0.21784783  1
  O  O98  1  0.27792940  0.66971604  0.20094828  1
  O  O99  1  0.28449576  0.53362760  0.08112215  1
  O  O100  1  0.24160936  0.85627527  0.58845912  1
  O  O101  1  0.25839064  0.85627527  0.08845912  1
  O  O102  1  0.30904101  0.20710244  0.98551193  1
  O  O103  1  0.06061546  0.32990376  0.78215217  1
  O  O104  1  0.24160936  0.35627527  0.91154088  1
  O  O105  1  0.78449576  0.46637240  0.41887785  1
  O  O106  1  0.25076708  0.94802583  0.74077541  1
  O  O107  1  0.25847920  0.12255936  0.12352050  1
  O  O108  1  0.48512918  0.67546726  0.89514823  1
  O  O109  1  0.05739574  0.51106049  0.41943145  1
  O  O110  1  0.25847920  0.62255936  0.37647950  1
  O  O111  1  0.25076708  0.44802583  0.75922459  1
  O  O112  1  0.24471244  0.34137263  0.11358438  1
  O  O113  1  0.56061546  0.67009624  0.71784783  1
  O  O114  1  0.80904101  0.79289756  0.51448807  1
  O  O115  1  0.75528756  0.65862737  0.88641562  1
  O  O116  1  0.94260426  0.48893951  0.58056855  1
  O  O117  1  0.00905449  0.64722202  0.91214113  1
  O  O118  1  0.24471244  0.84137263  0.38641562  1
  O  O119  1  0.24152080  0.62255936  0.87647950  1
  O  O120  1  0.78449576  0.96637240  0.08112215  1
  O  O121  1  0.49094551  0.64722202  0.41214113  1
  O  O122  1  0.77792940  0.83028396  0.20094828  1
  O  O123  1  0.01487082  0.67546726  0.39514823  1
  O  O124  1  0.24923292  0.94802583  0.24077541  1
  O  O125  1  0.43060352  0.82144174  0.75999225  1
  O  O126  1  0.44260426  0.01106049  0.58056855  1
  O  O127  1  0.06939648  0.82144174  0.25999225  1
  O  O128  1  0.71550424  0.96637240  0.58112215  1
  O  O129  1  0.49475546  0.13073315  0.92829032  1
  O  O130  1  0.46914709  0.16580080  0.42014942  1
  O  O131  1  0.99475546  0.36926685  0.92829032  1
  O  O132  1  0.94260426  0.98893951  0.91943145  1
  O  O133  1  0.24152080  0.12255936  0.62352050  1
  O  O134  1  0.75839064  0.14372473  0.41154088  1
  O  O135  1  0.50905449  0.35277798  0.58785887  1
  O  O136  1  0.50905449  0.85277798  0.91214113  1
  O  O137  1  0.01487082  0.17546726  0.10485177  1
  O  O138  1  0.69095899  0.29289756  0.48551193  1
  O  O139  1  0.74471244  0.65862737  0.38641562  1
  O  O140  1  0.28449576  0.03362760  0.41887785  1
  O  O141  1  0.56939648  0.67855826  0.25999225  1
  O  O142  1  0.75847920  0.87744064  0.37647950  1
  O  O143  1  0.99094551  0.35277798  0.08785887  1
  O  O144  1  0.25839064  0.35627527  0.41154088  1
  O  O145  1  0.03085291  0.66580080  0.57985058  1
  O  O146  1  0.49094551  0.14722202  0.08785887  1
  O  O147  1  0.24923292  0.44802583  0.25922459  1
  O  O148  1  0.30904101  0.70710244  0.51448807  1
  O  O149  1  0.74923292  0.05197417  0.25922459  1
  O  O150  1  0.00524454  0.63073315  0.07170968  1
  O  O151  1  0.21550424  0.03362760  0.91887785  1
  O  O152  1  0.96914709  0.83419920  0.07985058  1
  O  O153  1  0.56939648  0.17855826  0.24000775  1
  O  O154  1  0.50524454  0.86926685  0.07170968  1
  O  O155  1  0.93060352  0.67855826  0.75999225  1
  O  O156  1  0.74152080  0.37744064  0.62352050  1
  O  O157  1  0.50524454  0.36926685  0.42829032  1
  O  O158  1  0.77792940  0.33028396  0.29905172  1
  O  O159  1  0.51487082  0.82453274  0.39514823  1
  O  O160  1  0.98512918  0.82453274  0.89514823  1
  O  O161  1  0.56061546  0.17009624  0.78215217  1
  O  O162  1  0.99094551  0.85277798  0.41214113  1
  O  O163  1  0.75839064  0.64372473  0.08845912  1
  O  O164  1  0.75076708  0.55197417  0.74077541  1
  O  O165  1  0.55739574  0.48893951  0.08056855  1
  O  O166  1  0.05739574  0.01106049  0.08056855  1
  O  O167  1  0.69095899  0.79289756  0.01448807  1
  O  O168  1  0.19095899  0.20710244  0.48551193  1
  O  O169  1  0.53085291  0.33419920  0.92014942  1
  O  O170  1  0.72207060  0.83028396  0.70094828  1
  O  O171  1  0.74160936  0.64372473  0.58845912  1
  O  O172  1  0.74471244  0.15862737  0.11358438  1
  O  O173  1  0.22207060  0.66971604  0.70094828  1
  O  O174  1  0.75847920  0.37744064  0.12352050  1
  O  O175  1  0.74923292  0.55197417  0.24077541  1
  O  O176  1  0.71550424  0.46637240  0.91887785  1
  O  O177  1  0.53085291  0.83419920  0.57985058  1
  O  O178  1  0.80904101  0.29289756  0.98551193  1
  O  O179  1  0.98512918  0.32453274  0.60485177  1
  O  O180  1  0.43938454  0.32990376  0.28215217  1
  O  O181  1  0.00905449  0.14722202  0.58785887  1
  O  O182  1  0.06939648  0.32144174  0.24000775  1
  O  O183  1  0.74160936  0.14372473  0.91154088  1
