# generated using pymatgen
data_K2Nb6Ag(PO8)3
_symmetry_space_group_name_H-M   'P 1'
_cell_length_a   8.57769351
_cell_length_b   8.64329910
_cell_length_c   8.57769408
_cell_angle_alpha   104.58704237
_cell_angle_beta   104.38378824
_cell_angle_gamma   104.58705078
_symmetry_Int_Tables_number   1
_chemical_formula_structural   K2Nb6Ag(PO8)3
_chemical_formula_sum   'K2 Nb6 Ag1 P3 O24'
_cell_volume   561.62354423
_cell_formula_units_Z   1
loop_
 _symmetry_equiv_pos_site_id
 _symmetry_equiv_pos_as_xyz
  1  'x, y, z'
loop_
 _atom_site_type_symbol
 _atom_site_label
 _atom_site_symmetry_multiplicity
 _atom_site_fract_x
 _atom_site_fract_y
 _atom_site_fract_z
 _atom_site_occupancy
  K  K0  1  0.47677385  0.77976209  0.16999708  1
  K  K1  1  0.83000292  0.22023791  0.52322615  1
  Nb  Nb2  1  0.03449772  0.35135897  0.15172542  1
  Nb  Nb3  1  0.15474557  0.03853782  0.35465486  1
  Nb  Nb4  1  0.64534514  0.96146218  0.84525443  1
  Nb  Nb5  1  0.35185170  0.15442617  0.03676728  1
  Nb  Nb6  1  0.84827458  0.64864103  0.96550228  1
  Nb  Nb7  1  0.96323272  0.84557383  0.64814830  1
  Ag  Ag8  1  0.49648089  0.50000000  0.50351911  1
  P  P9  1  0.26863641  0.73161792  0.49775011  1
  P  P10  1  0.50224989  0.26838208  0.73136359  1
  P  P11  1  0.72977646  0.50000000  0.27022354  1
  O  O12  1  0.02087096  0.97767562  0.49751110  1
  O  O13  1  0.00184774  0.84620267  0.15278379  1
  O  O14  1  0.12518646  0.71708233  0.57477889  1
  O  O15  1  0.15341557  0.00000000  0.84658443  1
  O  O16  1  0.06745420  0.20758745  0.31240308  1
  O  O17  1  0.28948270  0.87218042  0.41626702  1
  O  O18  1  0.23593142  0.56042691  0.35832182  1
  O  O19  1  0.44048943  0.76812034  0.63999054  1
  O  O20  1  0.21286021  0.31208237  0.07643770  1
  O  O21  1  0.42522111  0.28291767  0.87481354  1
  O  O22  1  0.36000946  0.23187966  0.55951057  1
  O  O23  1  0.31594555  0.06831274  0.21029719  1
  O  O24  1  0.50248890  0.02232438  0.97912904  1
  O  O25  1  0.68759692  0.79241255  0.93254580  1
  O  O26  1  0.64167818  0.43957309  0.76406858  1
  O  O27  1  0.58373298  0.12781958  0.71051730  1
  O  O28  1  0.78970281  0.93168726  0.68405445  1
  O  O29  1  0.55964405  0.35817905  0.23689404  1
  O  O30  1  0.76310596  0.64182095  0.44035595  1
  O  O31  1  0.71043326  0.57922454  0.12793757  1
  O  O32  1  0.92356230  0.68791763  0.78713979  1
  O  O33  1  0.87206243  0.42077546  0.28956674  1
  O  O34  1  0.84721621  0.15379733  0.99815226  1
  O  O35  1  0.97419335  0.50000000  0.02580665  1
