# generated using pymatgen
data_KSn2F5
_symmetry_space_group_name_H-M   'P 1'
_cell_length_a   7.49331281
_cell_length_b   14.93440741
_cell_length_c   9.50097960
_cell_angle_alpha   89.92434187
_cell_angle_beta   90.25536398
_cell_angle_gamma   120.51745411
_symmetry_Int_Tables_number   1
_chemical_formula_structural   KSn2F5
_chemical_formula_sum   'K6 Sn12 F30'
_cell_volume   915.94226740
_cell_formula_units_Z   6
loop_
 _symmetry_equiv_pos_site_id
 _symmetry_equiv_pos_as_xyz
  1  'x, y, z'
loop_
 _atom_site_type_symbol
 _atom_site_label
 _atom_site_symmetry_multiplicity
 _atom_site_fract_x
 _atom_site_fract_y
 _atom_site_fract_z
 _atom_site_occupancy
  K  K0  1  -0.00012126  0.49863657  0.99770501  1
  K  K1  1  0.33852426  0.83368503  0.97278931  1
  K  K2  1  0.32576317  0.33280902  0.99042514  1
  K  K3  1  0.99857727  0.00096601  0.00205541  1
  K  K4  1  0.66375633  0.66738420  0.02026054  1
  K  K5  1  0.66864258  0.16697722  0.01618845  1
  Sn  Sn6  1  0.99536517  0.65356053  0.33346572  1
  Sn  Sn7  1  0.32890205  0.00381900  0.33250683  1
  Sn  Sn8  1  0.31950339  0.66301794  0.66535819  1
  Sn  Sn9  1  0.69372584  0.83784336  0.33593834  1
  Sn  Sn10  1  0.99763992  0.17372388  0.33515778  1
  Sn  Sn11  1  0.32738319  0.49952451  0.33488263  1
  Sn  Sn12  1  0.67285688  0.51487399  0.66689237  1
  Sn  Sn13  1  -0.00461835  0.83261350  0.66706188  1
  Sn  Sn14  1  0.30879671  0.15134748  0.66367662  1
  Sn  Sn15  1  0.65211004  0.33373043  0.33724103  1
  Sn  Sn16  1  0.66068804  0.00446975  0.66525864  1
  Sn  Sn17  1  0.00014756  0.33229294  0.66460087  1
  F  F18  1  0.02614732  0.00758759  0.70146496  1
  F  F19  1  0.30948341  0.98279892  0.11943192  1
  F  F20  1  0.03263524  0.67111025  0.12071201  1
  F  F21  1  0.32976622  0.94685401  0.71310010  1
  F  F22  1  0.10186999  0.71902588  0.71232136  1
  F  F23  1  0.00487270  0.50115572  0.69766566  1
  F  F24  1  0.33730563  0.65652694  0.88067440  1
  F  F25  1  0.54971739  0.83367975  0.70811369  1
  F  F26  1  0.44695971  0.66573458  0.29073689  1
  F  F27  1  0.65887198  0.84537667  0.12230580  1
  F  F28  1  0.31258255  0.48826581  0.11988864  1
  F  F29  1  0.02344687  0.16945230  0.12066358  1
  F  F30  1  0.34063826  0.44185244  0.71327308  1
  F  F31  1  0.12567875  0.22497187  0.71273409  1
  F  F32  1  0.33786053  0.33322070  0.30909289  1
  F  F33  1  0.67569893  0.65828919  0.69466254  1
  F  F34  1  0.89152975  0.77842516  0.28858178  1
  F  F35  1  0.67045179  0.55337797  0.29265729  1
  F  F36  1  0.97266874  0.83053898  0.88150656  1
  F  F37  1  0.68421306  0.50800907  0.88111175  1
  F  F38  1  0.34746116  0.16278686  0.87738150  1
  F  F39  1  0.43098358  0.16285420  0.28700613  1
  F  F40  1  0.65668167  0.34329127  0.12210388  1
  F  F41  1  0.67047133  0.16539436  0.69001960  1
  F  F42  1  0.99212572  0.50615479  0.30054527  1
  F  F43  1  0.88948401  0.28125130  0.28817969  1
  F  F44  1  0.66444291  0.05803614  0.28711613  1
  F  F45  1  0.97375212  0.33045238  0.87983606  1
  F  F46  1  0.68658492  0.01329952  0.88096199  1
  F  F47  1  0.00763800  0.99011704  0.30478599  1
