# generated using pymatgen
data_Rb14Si10O17
_symmetry_space_group_name_H-M   'P 1'
_cell_length_a   8.00023308
_cell_length_b   14.73044298
_cell_length_c   32.97298915
_cell_angle_alpha   102.17521239
_cell_angle_beta   90.00000000
_cell_angle_gamma   90.00000000
_symmetry_Int_Tables_number   1
_chemical_formula_structural   Rb14Si10O17
_chemical_formula_sum   'Rb56 Si40 O68'
_cell_volume   3798.36542487
_cell_formula_units_Z   4
loop_
 _symmetry_equiv_pos_site_id
 _symmetry_equiv_pos_as_xyz
  1  'x, y, z'
loop_
 _atom_site_type_symbol
 _atom_site_label
 _atom_site_symmetry_multiplicity
 _atom_site_fract_x
 _atom_site_fract_y
 _atom_site_fract_z
 _atom_site_occupancy
  Rb  Rb0  1  0.05356220  0.20404911  0.25750471  1
  Rb  Rb1  1  0.59765971  0.42093741  0.71233277  1
  Rb  Rb2  1  0.63855158  0.79943962  0.36068854  1
  Rb  Rb3  1  0.96939583  0.17793594  0.37145111  1
  Rb  Rb4  1  0.86333169  0.57402380  0.78465922  1
  Rb  Rb5  1  0.90234029  0.92093741  0.21233277  1
  Rb  Rb6  1  0.13855158  0.70056038  0.13931146  1
  Rb  Rb7  1  0.90128480  0.20903991  0.14458202  1
  Rb  Rb8  1  0.59871520  0.70903991  0.64458202  1
  Rb  Rb9  1  0.98896253  0.70551182  0.25813437  1
  Rb  Rb10  1  0.36770017  0.85655938  0.47224372  1
  Rb  Rb11  1  0.54264219  0.05099882  0.06612408  1
  Rb  Rb12  1  0.09765971  0.07906259  0.78766723  1
  Rb  Rb13  1  0.49024376  0.49175481  0.93364085  1
  Rb  Rb14  1  0.63666831  0.07402380  0.28465922  1
  Rb  Rb15  1  0.40234029  0.57906259  0.28766723  1
  Rb  Rb16  1  0.37068327  0.62662213  0.53293692  1
  Rb  Rb17  1  0.50975624  0.50824519  0.06635915  1
  Rb  Rb18  1  0.12931673  0.12662213  0.03293692  1
  Rb  Rb19  1  0.95735781  0.55099882  0.56612408  1
  Rb  Rb20  1  0.55502394  0.55251984  0.39014809  1
  Rb  Rb21  1  0.40128480  0.29096009  0.35541798  1
  Rb  Rb22  1  0.62931673  0.37337787  0.46706308  1
  Rb  Rb23  1  0.05209299  0.68053623  0.38438616  1
  Rb  Rb24  1  0.87068327  0.87337787  0.96706308  1
  Rb  Rb25  1  0.53060417  0.67793594  0.87145111  1
  Rb  Rb26  1  0.86770017  0.64344062  0.02775628  1
  Rb  Rb27  1  0.44643780  0.70404911  0.75750471  1
  Rb  Rb28  1  0.09871520  0.79096009  0.85541798  1
  Rb  Rb29  1  0.13666831  0.42597620  0.21534078  1
  Rb  Rb30  1  0.44790701  0.18053623  0.88438616  1
  Rb  Rb31  1  0.03060417  0.82206406  0.62854889  1
  Rb  Rb32  1  0.48377472  0.05040035  0.39181519  1
  Rb  Rb33  1  0.94790701  0.31946377  0.61561384  1
  Rb  Rb34  1  0.51103747  0.20551182  0.75813437  1
  Rb  Rb35  1  0.13229983  0.35655938  0.97224372  1
  Rb  Rb36  1  0.63229983  0.14344062  0.52775628  1
  Rb  Rb37  1  0.05502394  0.94748016  0.10985191  1
  Rb  Rb38  1  0.46939583  0.32206406  0.12854889  1
  Rb  Rb39  1  0.36144842  0.20056038  0.63931146  1
  Rb  Rb40  1  0.01622528  0.55040035  0.89181519  1
  Rb  Rb41  1  0.51622528  0.94959965  0.60818481  1
  Rb  Rb42  1  0.99024376  0.00824519  0.56635915  1
  Rb  Rb43  1  0.94643780  0.79595089  0.74249529  1
  Rb  Rb44  1  0.44497606  0.44748016  0.60985191  1
  Rb  Rb45  1  0.48896253  0.79448818  0.24186563  1
  Rb  Rb46  1  0.86144842  0.29943962  0.86068854  1
  Rb  Rb47  1  0.94497606  0.05251984  0.89014809  1
  Rb  Rb48  1  0.00975624  0.99175481  0.43364085  1
  Rb  Rb49  1  0.36333169  0.92597620  0.71534078  1
  Rb  Rb50  1  0.98377472  0.44959965  0.10818481  1
  Rb  Rb51  1  0.55356220  0.29595089  0.24249529  1
  Rb  Rb52  1  0.01103747  0.29448818  0.74186563  1
  Rb  Rb53  1  0.45735781  0.94900118  0.93387592  1
  Rb  Rb54  1  0.04264219  0.44900118  0.43387592  1
  Rb  Rb55  1  0.55209299  0.81946377  0.11561384  1
  Si  Si56  1  0.89537687  0.93539317  0.32415983  1
  Si  Si57  1  0.18363447  0.47447821  0.69865492  1
  Si  Si58  1  0.23776212  0.85430827  0.34595554  1
  Si  Si59  1  0.29311944  0.14565012  0.15944081  1
  Si  Si60  1  0.60462313  0.43539317  0.82415983  1
  Si  Si61  1  0.72915521  0.15420301  0.97982943  1
  Si  Si62  1  0.70688056  0.85434988  0.84055919  1
  Si  Si63  1  0.76223788  0.14569173  0.65404446  1
  Si  Si64  1  0.77249401  0.98557095  0.70178580  1
  Si  Si65  1  0.10462313  0.06460683  0.67584017  1
  Si  Si66  1  0.26223788  0.35430827  0.84595554  1
  Si  Si67  1  0.35886748  0.93972241  0.82632541  1
  Si  Si68  1  0.48565722  0.24788244  0.00748524  1
  Si  Si69  1  0.22750599  0.01442905  0.29821420  1
  Si  Si70  1  0.51434278  0.75211756  0.99251476  1
  Si  Si71  1  0.21094750  0.18052071  0.52365983  1
  Si  Si72  1  0.78905250  0.81947929  0.47634017  1
  Si  Si73  1  0.28905250  0.68052071  0.02365983  1
  Si  Si74  1  0.73776212  0.64569173  0.15404446  1
  Si  Si75  1  0.74408614  0.77244528  0.54253589  1
  Si  Si76  1  0.14113252  0.43972241  0.32632541  1
  Si  Si77  1  0.27249401  0.51442905  0.79821420  1
  Si  Si78  1  0.22915521  0.34579699  0.52017057  1
  Si  Si79  1  0.39537687  0.56460683  0.17584017  1
  Si  Si80  1  0.81636553  0.52552179  0.30134508  1
  Si  Si81  1  0.85886748  0.56027759  0.67367459  1
  Si  Si82  1  0.25591386  0.22755472  0.45746411  1
  Si  Si83  1  0.77084479  0.65420301  0.47982943  1
  Si  Si84  1  0.79311944  0.35434988  0.34055919  1
  Si  Si85  1  0.01434278  0.74788244  0.50748524  1
  Si  Si86  1  0.27084479  0.84579699  0.02017057  1
  Si  Si87  1  0.98565722  0.25211756  0.49251476  1
  Si  Si88  1  0.24408614  0.72755472  0.95746411  1
  Si  Si89  1  0.71094750  0.31947929  0.97634017  1
  Si  Si90  1  0.20688056  0.64565012  0.65944081  1
  Si  Si91  1  0.68363447  0.02552179  0.80134508  1
  Si  Si92  1  0.72750599  0.48557095  0.20178580  1
  Si  Si93  1  0.64113252  0.06027759  0.17367459  1
  Si  Si94  1  0.75591386  0.27244528  0.04253589  1
  Si  Si95  1  0.31636553  0.97447821  0.19865492  1
  O  O96  1  0.29340617  0.88574856  0.39425010  1
  O  O97  1  0.75270153  0.62202123  0.32862698  1
  O  O98  1  0.99588919  0.63680520  0.66018831  1
  O  O99  1  0.27675159  0.98093425  0.24851323  1
  O  O100  1  0.47926072  0.50424733  0.80106363  1
  O  O101  1  0.23777214  0.24726968  0.18476900  1
  O  O102  1  0.26222786  0.74726968  0.68476900  1
  O  O103  1  0.20917418  0.61717256  0.81726398  1
  O  O104  1  0.02132847  0.51184707  0.30414019  1
  O  O105  1  0.27702931  0.62503130  0.21102444  1
  O  O106  1  0.19660743  0.99760249  0.63701313  1
  O  O107  1  0.50411081  0.13680520  0.16018831  1
  O  O108  1  0.73568697  0.61444407  0.70950928  1
  O  O109  1  0.97926072  0.99575267  0.69893637  1
  O  O110  1  0.77675159  0.51906575  0.25148677  1
  O  O111  1  0.24729847  0.37797877  0.67137302  1
  O  O112  1  0.52132847  0.98815293  0.19585981  1
  O  O113  1  0.97196897  0.13586147  0.65771646  1
  O  O114  1  0.20659383  0.38574856  0.89425010  1
  O  O115  1  0.77702931  0.87496870  0.28897556  1
  O  O116  1  0.72297069  0.37496870  0.78897556  1
  O  O117  1  0.22651891  0.49981786  0.36791374  1
  O  O118  1  0.81439284  0.56548042  0.17980467  1
  O  O119  1  0.30339257  0.49760249  0.13701313  1
  O  O120  1  0.76222786  0.75273032  0.81523100  1
  O  O121  1  0.23568697  0.88555593  0.79049072  1
  O  O122  1  0.47867153  0.01184707  0.80414019  1
  O  O123  1  0.31439284  0.93451958  0.32019533  1
  O  O124  1  0.26431303  0.38555593  0.29049072  1
  O  O125  1  0.02073928  0.00424733  0.30106363  1
  O  O126  1  0.79082582  0.38282744  0.18273602  1
  O  O127  1  0.73777214  0.25273032  0.31523100  1
  O  O128  1  0.02803103  0.86413853  0.34228354  1
  O  O129  1  0.18560716  0.43451958  0.82019533  1
  O  O130  1  0.25270153  0.87797877  0.17137302  1
  O  O131  1  0.70298438  0.24730525  0.67783896  1
  O  O132  1  0.76431303  0.11444407  0.20950928  1
  O  O133  1  0.74729847  0.12202123  0.82862698  1
  O  O134  1  0.72651891  0.00018214  0.13208626  1
  O  O135  1  0.70917418  0.88282744  0.68273602  1
  O  O136  1  0.22702646  0.11955254  0.11196644  1
  O  O137  1  0.72353015  0.43466772  0.31416902  1
  O  O138  1  0.79340617  0.61425144  0.10574990  1
  O  O139  1  0.72702646  0.38044746  0.38803356  1
  O  O140  1  0.77646985  0.93466772  0.81416902  1
  O  O141  1  0.69660743  0.50239751  0.86298687  1
  O  O142  1  0.27297354  0.61955254  0.61196644  1
  O  O143  1  0.52803103  0.63586147  0.15771646  1
  O  O144  1  0.29082582  0.11717256  0.31726398  1
  O  O145  1  0.52073928  0.49575267  0.19893637  1
  O  O146  1  0.22297069  0.12503130  0.71102444  1
  O  O147  1  0.00411081  0.36319480  0.33981169  1
  O  O148  1  0.29701562  0.75269475  0.32216104  1
  O  O149  1  0.80339257  0.00239751  0.36298687  1
  O  O150  1  0.22353015  0.06533228  0.18583098  1
  O  O151  1  0.72324841  0.01906575  0.75148677  1
  O  O152  1  0.22324841  0.48093425  0.74851323  1
  O  O153  1  0.68560716  0.06548042  0.67980467  1
  O  O154  1  0.77348109  0.50018214  0.63208626  1
  O  O155  1  0.47196897  0.36413853  0.84228354  1
  O  O156  1  0.27646985  0.56533228  0.68583098  1
  O  O157  1  0.70659383  0.11425144  0.60574990  1
  O  O158  1  0.97867153  0.48815293  0.69585981  1
  O  O159  1  0.20298438  0.25269475  0.82216104  1
  O  O160  1  0.49588919  0.86319480  0.83981169  1
  O  O161  1  0.27348109  0.99981786  0.86791374  1
  O  O162  1  0.79701562  0.74730525  0.17783896  1
  O  O163  1  0.77297354  0.88044746  0.88803356  1
