# generated using pymatgen
data_CdI2
_symmetry_space_group_name_H-M   'P 1'
_cell_length_a   4.34134782
_cell_length_b   4.34134809
_cell_length_c   103.05149516
_cell_angle_alpha   90.00000000
_cell_angle_beta   90.00000000
_cell_angle_gamma   119.99999795
_symmetry_Int_Tables_number   1
_chemical_formula_structural   CdI2
_chemical_formula_sum   'Cd14 I28'
_cell_volume   1682.03151648
_cell_formula_units_Z   14
loop_
 _symmetry_equiv_pos_site_id
 _symmetry_equiv_pos_as_xyz
  1  'x, y, z'
loop_
 _atom_site_type_symbol
 _atom_site_label
 _atom_site_symmetry_multiplicity
 _atom_site_fract_x
 _atom_site_fract_y
 _atom_site_fract_z
 _atom_site_occupancy
  Cd  Cd0  1  0.33333300  0.66666700  0.94644659  1
  Cd  Cd1  1  0.33333300  0.66666700  0.73215517  1
  Cd  Cd2  1  0.33333300  0.66666700  0.30356172  1
  Cd  Cd3  1  0.66666700  0.33333300  0.16073253  1
  Cd  Cd4  1  0.66666700  0.33333300  0.01786053  1
  Cd  Cd5  1  0.33333300  0.66666700  0.51785581  1
  Cd  Cd6  1  0.33333300  0.66666700  0.08927035  1
  Cd  Cd7  1  0.66666700  0.33333300  0.58927052  1
  Cd  Cd8  1  0.33333300  0.66666700  0.23215616  1
  Cd  Cd9  1  0.33333300  0.66666700  0.80356154  1
  Cd  Cd10  1  0.33333300  0.66666700  0.87497560  1
  Cd  Cd11  1  0.33333300  0.66666700  0.66073417  1
  Cd  Cd12  1  0.33333300  0.66666700  0.37497619  1
  Cd  Cd13  1  0.33333300  0.66666700  0.44644789  1
  I  I14  1  0.00000000  0.00000000  0.07252462  1
  I  I15  1  0.00000000  0.00000000  0.64396180  1
  I  I16  1  0.00000000  0.00000000  0.78677583  1
  I  I17  1  0.66666700  0.33333300  0.10605197  1
  I  I18  1  0.66666700  0.33333300  0.67748931  1
  I  I19  1  0.00000000  0.00000000  0.85820368  1
  I  I20  1  0.33333300  0.66666700  0.60605332  1
  I  I21  1  0.00000000  0.00000000  0.92967510  1
  I  I22  1  0.33333300  0.66666700  0.17748935  1
  I  I23  1  0.66666700  0.33333300  0.53463254  1
  I  I24  1  0.66666700  0.33333300  0.24893392  1
  I  I25  1  0.00000000  0.00000000  0.35820429  1
  I  I26  1  0.66666700  0.33333300  0.82033459  1
  I  I27  1  0.00000000  0.00000000  0.21537598  1
  I  I28  1  0.00000000  0.00000000  0.50112127  1
  I  I29  1  0.66666700  0.33333300  0.39172365  1
  I  I30  1  0.00000000  0.00000000  0.71537448  1
  I  I31  1  0.66666700  0.33333300  0.32033385  1
  I  I32  1  0.00000000  0.00000000  0.57252452  1
  I  I33  1  0.00000000  0.00000000  0.14395666  1
  I  I34  1  0.00000000  0.00000000  0.42967653  1
  I  I35  1  0.33333300  0.66666700  0.03463707  1
  I  I36  1  0.00000000  0.00000000  0.28677592  1
  I  I37  1  0.66666700  0.33333300  0.96319330  1
  I  I38  1  0.66666700  0.33333300  0.46319158  1
  I  I39  1  0.66666700  0.33333300  0.89172311  1
  I  I40  1  0.00000000  0.00000000  0.00112303  1
  I  I41  1  0.66666700  0.33333300  0.74893392  1
