# generated using pymatgen
data_Y2Te4O11
_symmetry_space_group_name_H-M   'P 1'
_cell_length_a   5.18439056
_cell_length_b   6.77860283
_cell_length_c   16.03634637
_cell_angle_alpha   79.98221574
_cell_angle_beta   80.64441373
_cell_angle_gamma   67.49920123
_symmetry_Int_Tables_number   1
_chemical_formula_structural   Y2Te4O11
_chemical_formula_sum   'Y4 Te8 O22'
_cell_volume   509.86244672
_cell_formula_units_Z   2
loop_
 _symmetry_equiv_pos_site_id
 _symmetry_equiv_pos_as_xyz
  1  'x, y, z'
loop_
 _atom_site_type_symbol
 _atom_site_label
 _atom_site_symmetry_multiplicity
 _atom_site_fract_x
 _atom_site_fract_y
 _atom_site_fract_z
 _atom_site_occupancy
  Y  Y0  1  0.36998316  0.79894339  0.96243584  1
  Y  Y1  1  0.13144880  0.69962752  0.53656570  1
  Y  Y2  1  0.86846983  0.29703733  0.46244664  1
  Y  Y3  1  0.62990975  0.20069094  0.03697997  1
  Te  Te4  1  0.59076331  0.88013213  0.37374552  1
  Te  Te5  1  0.39905974  0.45371570  0.30116025  1
  Te  Te6  1  0.15411936  0.04423655  0.19834783  1
  Te  Te7  1  0.84595520  0.61767696  0.12565060  1
  Te  Te8  1  0.15219682  0.38240800  0.87427398  1
  Te  Te9  1  0.84477492  0.95646985  0.80060765  1
  Te  Te10  1  0.40936597  0.11747051  0.62520770  1
  Te  Te11  1  0.60032871  0.54510065  0.69858153  1
  O  O12  1  0.14854114  0.74843757  0.25016846  1
  O  O13  1  0.82117836  0.68220311  0.45496377  1
  O  O14  1  0.79037936  0.12644682  0.16863636  1
  O  O15  1  0.80935235  0.63275633  0.87160386  1
  O  O16  1  0.17782720  0.31490896  0.54421610  1
  O  O17  1  0.90842932  0.63027799  0.66776850  1
  O  O18  1  0.85479997  0.25037550  0.74939353  1
  O  O19  1  0.20714551  0.87154434  0.83150327  1
  O  O20  1  0.18772667  0.36622987  0.12786177  1
  O  O21  1  0.03831375  0.18396837  0.95532197  1
  O  O22  1  0.66035817  0.53133981  0.05366845  1
  O  O23  1  0.31271192  0.86749665  0.62856973  1
  O  O24  1  0.55423654  0.45271759  0.59639721  1
  O  O25  1  0.33726658  0.46796026  0.94666211  1
  O  O26  1  0.68435321  0.12993723  0.37242051  1
  O  O27  1  0.24732109  0.96605383  0.44623628  1
  O  O28  1  0.75204998  0.03124387  0.55252692  1
  O  O29  1  0.09060034  0.36835700  0.33099295  1
  O  O30  1  0.39465277  0.95250854  0.09582141  1
  O  O31  1  0.44521085  0.54460734  0.40376550  1
  O  O32  1  0.95998342  0.81539973  0.04417181  1
  O  O33  1  0.60266093  0.04816076  0.90285134  1
