# generated using pymatgen
data_Eu2Zr2O7
_symmetry_space_group_name_H-M   'P 1'
_cell_length_a   7.66487241
_cell_length_b   7.65962864
_cell_length_c   7.66145044
_cell_angle_alpha   59.89147911
_cell_angle_beta   59.92627253
_cell_angle_gamma   59.92449328
_symmetry_Int_Tables_number   1
_chemical_formula_structural   Eu2Zr2O7
_chemical_formula_sum   'Eu4 Zr4 O14'
_cell_volume   317.43971456
_cell_formula_units_Z   2
loop_
 _symmetry_equiv_pos_site_id
 _symmetry_equiv_pos_as_xyz
  1  'x, y, z'
loop_
 _atom_site_type_symbol
 _atom_site_label
 _atom_site_symmetry_multiplicity
 _atom_site_fract_x
 _atom_site_fract_y
 _atom_site_fract_z
 _atom_site_occupancy
  Eu  Eu0  1  0.12500225  0.62500504  0.62499608  1
  Eu  Eu1  1  0.62500925  0.12501418  0.62499842  1
  Eu  Eu2  1  0.62500165  0.62499770  0.12499688  1
  Eu  Eu3  1  0.62500980  0.62499986  0.62500340  1
  Zr  Zr4  1  0.12499710  0.12499937  0.12500220  1
  Zr  Zr5  1  0.12499733  0.12500009  0.62499975  1
  Zr  Zr6  1  0.12499971  0.62499833  0.12500020  1
  Zr  Zr7  1  0.62499852  0.12500110  0.12500040  1
  O  O8  1  0.78990058  0.78999351  0.20992621  1
  O  O9  1  0.78989431  0.20995857  0.79000320  1
  O  O10  1  0.20998490  0.78987906  0.78983523  1
  O  O11  1  0.78990245  0.21011839  0.21004900  1
  O  O12  1  0.21015907  0.78988241  0.21019199  1
  O  O13  1  0.21009118  0.21016730  0.78990022  1
  O  O14  1  0.03991298  0.03982985  0.46009717  1
  O  O15  1  0.03983682  0.46011600  0.03981058  1
  O  O16  1  0.46009686  0.03988099  0.03995193  1
  O  O17  1  0.04001169  0.46011945  0.46016125  1
  O  O18  1  0.75006354  0.75003461  0.74983600  1
  O  O19  1  0.46010200  0.04004061  0.45999601  1
  O  O20  1  0.46009433  0.46000200  0.04007484  1
  O  O21  1  0.49993369  0.49996158  0.50016905  1
