# generated using pymatgen
data_Co(IO3)2
_symmetry_space_group_name_H-M   'P 1'
_cell_length_a   10.90932132
_cell_length_b   11.01342018
_cell_length_c   5.45393449
_cell_angle_alpha   90.03869174
_cell_angle_beta   89.97744009
_cell_angle_gamma   120.55000784
_symmetry_Int_Tables_number   1
_chemical_formula_structural   Co(IO3)2
_chemical_formula_sum   'Co4 I8 O24'
_cell_volume   564.32156424
_cell_formula_units_Z   4
loop_
 _symmetry_equiv_pos_site_id
 _symmetry_equiv_pos_as_xyz
  1  'x, y, z'
loop_
 _atom_site_type_symbol
 _atom_site_label
 _atom_site_symmetry_multiplicity
 _atom_site_fract_x
 _atom_site_fract_y
 _atom_site_fract_z
 _atom_site_occupancy
  Co  Co0  1  0.00423260  0.50942533  0.57092422  1
  Co  Co1  1  0.00306385  0.00512288  0.57138100  1
  Co  Co2  1  0.50004875  0.99404392  0.07180043  1
  Co  Co3  1  0.49248590  0.49087172  0.07185261  1
  I  I4  1  0.15147522  0.83541279  0.96294769  1
  I  I5  1  0.14581545  0.33215581  0.96324212  1
  I  I6  1  0.35101105  0.66686469  0.46317735  1
  I  I7  1  0.68578579  0.83668036  0.99500811  1
  I  I8  1  0.35144669  0.16568769  0.46378481  1
  I  I9  1  0.81312052  0.65993080  0.49308769  1
  I  I10  1  0.68437399  0.33873804  0.99132089  1
  I  I11  1  0.81686107  0.16380654  0.49367004  1
  O  O12  1  0.15316230  0.97708531  0.77946799  1
  O  O13  1  0.02353711  0.67909983  0.78531150  1
  O  O14  1  0.18192388  0.64900772  0.36248858  1
  O  O15  1  0.32158604  0.85580555  0.86255118  1
  O  O16  1  0.14749228  0.47545678  0.78722143  1
  O  O17  1  0.01934098  0.17595938  0.78145260  1
  O  O18  1  0.48021586  0.82260210  0.28521205  1
  O  O19  1  0.34557609  0.52244061  0.28256515  1
  O  O20  1  0.18036452  0.14134816  0.35923635  1
  O  O21  1  0.31587783  0.35367432  0.85929999  1
  O  O22  1  0.63741166  0.95742582  0.84940010  1
  O  O23  1  0.54204543  0.67049610  0.86754119  1
  O  O24  1  0.47675434  0.32200612  0.28200200  1
  O  O25  1  0.35352745  0.02481820  0.28491608  1
  O  O26  1  0.66912445  0.63541253  0.28241658  1
  O  O27  1  0.82719776  0.85776437  0.78060719  1
  O  O28  1  0.62909116  0.45465230  0.84562114  1
  O  O29  1  0.54728962  0.17050682  0.85974340  1
  O  O30  1  0.95322667  0.82708225  0.36283665  1
  O  O31  1  0.86567997  0.54262696  0.34506896  1
  O  O32  1  0.67553079  0.14038502  0.27774708  1
  O  O33  1  0.82834277  0.36621567  0.77921486  1
  O  O34  1  0.95796611  0.33096634  0.36492838  1
  O  O35  1  0.86761405  0.04422113  0.34900260  1
