# generated using pymatgen
data_TlCl3
_symmetry_space_group_name_H-M   'P 1'
_cell_length_a   7.36852365
_cell_length_b   11.15181505
_cell_length_c   13.01900304
_cell_angle_alpha   90.00000000
_cell_angle_beta   90.00000000
_cell_angle_gamma   90.00000000
_symmetry_Int_Tables_number   1
_chemical_formula_structural   TlCl3
_chemical_formula_sum   'Tl4 Cl12'
_cell_volume   1069.80289382
_cell_formula_units_Z   4
loop_
 _symmetry_equiv_pos_site_id
 _symmetry_equiv_pos_as_xyz
  1  'x, y, z'
loop_
 _atom_site_type_symbol
 _atom_site_label
 _atom_site_symmetry_multiplicity
 _atom_site_fract_x
 _atom_site_fract_y
 _atom_site_fract_z
 _atom_site_occupancy
  Tl  Tl0  1  0.32699366  0.75000000  0.25152037  1
  Tl  Tl1  1  0.17300634  0.75000000  0.75152037  1
  Tl  Tl2  1  0.67300634  0.25000000  0.74847963  1
  Tl  Tl3  1  0.82699366  0.25000000  0.24847963  1
  Cl  Cl4  1  0.17780170  0.75000000  0.41389576  1
  Cl  Cl5  1  0.32219830  0.75000000  0.91389576  1
  Cl  Cl6  1  0.82219830  0.25000000  0.58610424  1
  Cl  Cl7  1  0.67780170  0.25000000  0.08610424  1
  Cl  Cl8  1  0.41275183  0.56829639  0.16625323  1
  Cl  Cl9  1  0.08724817  0.93170361  0.66625323  1
  Cl  Cl10  1  0.58724817  0.06829639  0.83374677  1
  Cl  Cl11  1  0.91275183  0.43170361  0.33374677  1
  Cl  Cl12  1  0.58724817  0.43170361  0.83374677  1
  Cl  Cl13  1  0.91275183  0.06829639  0.33374677  1
  Cl  Cl14  1  0.41275183  0.93170361  0.16625323  1
  Cl  Cl15  1  0.08724817  0.56829639  0.66625323  1
