# generated using pymatgen
data_K2MgH8(SO6)2
_symmetry_space_group_name_H-M   'P 1'
_cell_length_a   12.99452090
_cell_length_b   12.12568788
_cell_length_c   12.99452090
_cell_angle_alpha   123.67634299
_cell_angle_beta   136.38481588
_cell_angle_gamma   75.00628175
_symmetry_Int_Tables_number   1
_chemical_formula_structural   K2MgH8(SO6)2
_chemical_formula_sum   'K8 Mg4 H32 S8 O48'
_cell_volume   1138.45882988
_cell_formula_units_Z   4
loop_
 _symmetry_equiv_pos_site_id
 _symmetry_equiv_pos_as_xyz
  1  'x, y, z'
loop_
 _atom_site_type_symbol
 _atom_site_label
 _atom_site_symmetry_multiplicity
 _atom_site_fract_x
 _atom_site_fract_y
 _atom_site_fract_z
 _atom_site_occupancy
  K  K0  1  0.63899973  0.54002605  0.43515620  1
  K  K1  1  0.60486984  0.04002605  0.90102631  1
  K  K2  1  0.36100027  0.45997395  0.56484380  1
  K  K3  1  0.39513016  0.95997395  0.09897369  1
  K  K4  1  0.86086046  0.95249447  0.57094449  1
  K  K5  1  0.88154998  0.45249447  0.09163401  1
  K  K6  1  0.13913954  0.04750553  0.42905551  1
  K  K7  1  0.11845002  0.54750553  0.90836599  1
  Mg  Mg8  1  0.24860630  0.25000000  0.99860630  1
  Mg  Mg9  1  0.75139370  0.75000000  0.00139370  1
  Mg  Mg10  1  0.50000000  0.00000000  0.50000000  1
  Mg  Mg11  1  0.00000000  0.50000000  0.50000000  1
  H  H12  1  0.71562518  0.36506539  0.18756606  1
  H  H13  1  0.67749933  0.86506539  0.64944021  1
  H  H14  1  0.28437482  0.63493461  0.81243394  1
  H  H15  1  0.32250067  0.13493461  0.35055979  1
  H  H16  1  0.75330717  0.30092026  0.28573854  1
  H  H17  1  0.51518172  0.80092026  0.54761309  1
  H  H18  1  0.24669283  0.69907974  0.71426146  1
  H  H19  1  0.48481828  0.19907974  0.45238691  1
  H  H20  1  0.19238812  0.37132329  0.67013247  1
  H  H21  1  0.20119083  0.87132329  0.17893517  1
  H  H22  1  0.80761188  0.62867671  0.32986753  1
  H  H23  1  0.79880917  0.12867671  0.82106483  1
  H  H24  1  0.02417757  0.30333570  0.55414082  1
  H  H25  1  0.24919488  0.80333570  0.27915813  1
  H  H26  1  0.97582243  0.69666430  0.44585918  1
  H  H27  1  0.75080512  0.19666430  0.72084187  1
  H  H28  1  0.54753384  0.21272881  0.22117087  1
  H  H29  1  0.49155794  0.71272881  0.66519497  1
  H  H30  1  0.45246616  0.78727119  0.77882913  1
  H  H31  1  0.50844206  0.28727119  0.33480503  1
  H  H32  1  0.98861145  0.21182620  0.66241731  1
  H  H33  1  0.04940889  0.71182620  0.22321475  1
  H  H34  1  0.01138855  0.78817380  0.33758269  1
  H  H35  1  0.95059111  0.28817380  0.77678525  1
  H  H36  1  0.36029041  0.30665732  0.90133502  1
  H  H37  1  0.90532230  0.80665732  0.94636691  1
  H  H38  1  0.63970959  0.69334268  0.09866498  1
  H  H39  1  0.09467770  0.19334268  0.05363309  1
  H  H40  1  0.39424476  0.44091279  0.06174129  1
  H  H41  1  0.87917150  0.94091279  0.04666803  1
  H  H42  1  0.60575524  0.55908721  0.93825871  1
  H  H43  1  0.12082850  0.05908721  0.95333197  1
  S  S44  1  0.77289451  0.06727421  0.29490718  1
  S  S45  1  0.27236704  0.56727421  0.29437970  1
  S  S46  1  0.22710549  0.93272579  0.70509282  1
  S  S47  1  0.72763296  0.43272579  0.70562030  1
  S  S48  1  0.50087927  0.28056536  0.80044922  1
  S  S49  1  0.98011614  0.78056536  0.77968609  1
  S  S50  1  0.49912073  0.71943464  0.19955078  1
  S  S51  1  0.01988386  0.21943464  0.22031391  1
  O  O52  1  0.56516312  0.34883112  0.52829273  1
  O  O53  1  0.32053839  0.84883112  0.78366800  1
  O  O54  1  0.43483688  0.65116888  0.47170727  1
  O  O55  1  0.67946161  0.15116888  0.21633200  1
  O  O56  1  0.93494850  0.15317402  0.47076802  1
  O  O57  1  0.18240600  0.65317402  0.21822553  1
  O  O58  1  0.06505150  0.84682598  0.52923198  1
  O  O59  1  0.81759400  0.34682598  0.78177447  1
  O  O60  1  0.35796406  0.29772349  0.75851953  1
  O  O61  1  0.03920396  0.79772349  0.93975943  1
  O  O62  1  0.64203594  0.70227651  0.24148047  1
  O  O63  1  0.96079604  0.20227651  0.06024057  1
  O  O64  1  0.63160577  0.30477792  0.98170104  1
  O  O65  1  0.82307688  0.80477792  0.67317215  1
  O  O66  1  0.36839423  0.69522208  0.01829896  1
  O  O67  1  0.17692312  0.19522208  0.32682785  1
  O  O68  1  0.22316015  0.05079829  0.83075954  1
  O  O69  1  0.72003875  0.55079829  0.82763814  1
  O  O70  1  0.77683985  0.94920171  0.16924046  1
  O  O71  1  0.27996125  0.44920171  0.17236186  1
  O  O72  1  0.70499190  0.02160321  0.32322296  1
  O  O73  1  0.19838024  0.52160321  0.31661130  1
  O  O74  1  0.29500810  0.97839679  0.67677704  1
  O  O75  1  0.80161976  0.47839679  0.68338870  1
  O  O76  1  0.53151862  0.86406106  0.33535286  1
  O  O77  1  0.02870820  0.36406106  0.33254244  1
  O  O78  1  0.46848138  0.13593894  0.66464714  1
  O  O79  1  0.97129180  0.63593894  0.66745756  1
  O  O80  1  0.08376505  0.87720804  0.83375492  1
  O  O81  1  0.54345312  0.37720804  0.79344299  1
  O  O82  1  0.91623495  0.12279196  0.16624508  1
  O  O83  1  0.45654688  0.62279196  0.20655701  1
  O  O84  1  0.77264570  0.38956296  0.30740312  1
  O  O85  1  0.58215984  0.88956296  0.61691726  1
  O  O86  1  0.22735430  0.61043704  0.69259688  1
  O  O87  1  0.41784016  0.11043704  0.38308274  1
  O  O88  1  0.09105911  0.39054241  0.62000578  1
  O  O89  1  0.27053663  0.89054241  0.29948330  1
  O  O90  1  0.90894089  0.60945759  0.37999422  1
  O  O91  1  0.72946337  0.10945759  0.70051670  1
  O  O92  1  0.46785518  0.25000000  0.21785518  1
  O  O93  1  0.53214482  0.75000000  0.78214482  1
  O  O94  1  0.02999949  0.25000000  0.77999949  1
  O  O95  1  0.97000051  0.75000000  0.22000051  1
  O  O96  1  0.35635344  0.34003680  0.98721752  1
  O  O97  1  0.85281928  0.84003680  0.98368336  1
  O  O98  1  0.64364656  0.65996320  0.01278248  1
  O  O99  1  0.14718072  0.15996320  0.01631664  1
