# generated using pymatgen
data_NaCa4TaTi4(SiO5)5
_symmetry_space_group_name_H-M   'P 1'
_cell_length_a   5.51164091
_cell_length_b   5.50948614
_cell_length_c   35.95097782
_cell_angle_alpha   104.28813689
_cell_angle_beta   104.36648356
_cell_angle_gamma   105.57830459
_symmetry_Int_Tables_number   1
_chemical_formula_structural   NaCa4TaTi4(SiO5)5
_chemical_formula_sum   'Na2 Ca8 Ta2 Ti8 Si10 O50'
_cell_volume   959.52342272
_cell_formula_units_Z   2
loop_
 _symmetry_equiv_pos_site_id
 _symmetry_equiv_pos_as_xyz
  1  'x, y, z'
loop_
 _atom_site_type_symbol
 _atom_site_label
 _atom_site_symmetry_multiplicity
 _atom_site_fract_x
 _atom_site_fract_y
 _atom_site_fract_z
 _atom_site_occupancy
  Na  Na0  1  0.15476113  0.82141396  0.74696398  1
  Na  Na1  1  0.15644605  0.82244416  0.54663726  1
  Ca  Ca2  1  0.17147153  0.83133190  0.95112942  1
  Ca  Ca3  1  0.17252821  0.83352107  0.35058324  1
  Ca  Ca4  1  0.83447867  0.17389048  0.85253886  1
  Ca  Ca5  1  0.17082874  0.83065333  0.15030965  1
  Ca  Ca6  1  0.83939474  0.17508375  0.65278928  1
  Ca  Ca7  1  0.83613219  0.17293854  0.45097808  1
  Ca  Ca8  1  0.83104550  0.17101228  0.25045857  1
  Ca  Ca9  1  0.83023567  0.17015624  0.05065643  1
  Ta  Ta10  1  0.49199845  0.49348755  0.79937570  1
  Ta  Ta11  1  0.49299843  0.49649425  0.59810274  1
  Ti  Ti12  1  0.50239092  0.49814969  0.00183286  1
  Ti  Ti13  1  0.50075920  0.50414832  0.90235840  1
  Ti  Ti14  1  0.50601951  0.50554784  0.70001015  1
  Ti  Ti15  1  0.50507739  0.50370095  0.49861061  1
  Ti  Ti16  1  0.50361480  0.50285089  0.40018913  1
  Ti  Ti17  1  0.49939381  0.50263803  0.30086343  1
  Ti  Ti18  1  0.50223989  0.49819068  0.20124816  1
  Ti  Ti19  1  0.49789077  0.50222188  0.10152870  1
  Si  Si20  1  0.18532860  0.82092826  0.85174325  1
  Si  Si21  1  0.18656560  0.81955893  0.65105432  1
  Si  Si22  1  0.18282531  0.81646615  0.44934759  1
  Si  Si23  1  0.81870526  0.18373830  0.95088847  1
  Si  Si24  1  0.18199922  0.81764699  0.24973291  1
  Si  Si25  1  0.81270660  0.17879001  0.74900028  1
  Si  Si26  1  0.18203458  0.81755185  0.05011416  1
  Si  Si27  1  0.81253931  0.17744389  0.54803185  1
  Si  Si28  1  0.81798046  0.18274253  0.34973881  1
  Si  Si29  1  0.81774634  0.18221477  0.15001074  1
  O  O30  1  0.12091541  0.24958879  0.98232181  1
  O  O31  1  0.18581681  0.60969744  0.87720784  1
  O  O32  1  0.11423873  0.25244103  0.78182365  1
  O  O33  1  0.43055089  0.56898665  0.95019476  1
  O  O34  1  0.25173227  0.12204564  0.88286316  1
  O  O35  1  0.39900671  0.81350472  0.82676568  1
  O  O36  1  0.18625862  0.59711584  0.67411228  1
  O  O37  1  0.11537692  0.25430618  0.58069920  1
  O  O38  1  0.43164736  0.57353091  0.75004182  1
  O  O39  1  0.61047673  0.18647891  0.97689525  1
  O  O40  1  0.74938719  0.88209673  0.91859360  1
  O  O41  1  0.25336531  0.12097222  0.68212578  1
  O  O42  1  0.39914720  0.81449839  0.62550218  1
  O  O43  1  0.56948610  0.42537867  0.85108548  1
  O  O44  1  0.18687046  0.59675941  0.47309559  1
  O  O45  1  0.81503116  0.39407372  0.92501485  1
  O  O46  1  0.12160734  0.25130733  0.38097147  1
  O  O47  1  0.43243392  0.57394499  0.54891811  1
  O  O48  1  0.61835146  0.19367911  0.77746688  1
  O  O49  1  0.73820053  0.87915586  0.71717145  1
  O  O50  1  0.25202635  0.11949710  0.48085229  1
  O  O51  1  0.38881088  0.81286159  0.42249543  1
  O  O52  1  0.57127342  0.42523983  0.65017026  1
  O  O53  1  0.88239583  0.75285450  0.81985253  1
  O  O54  1  0.18670962  0.60906415  0.27585869  1
  O  O55  1  0.80589105  0.38664991  0.72335813  1
  O  O56  1  0.12079431  0.25036856  0.18150729  1
  O  O57  1  0.43045097  0.56893067  0.34903903  1
  O  O58  1  0.61770764  0.19486333  0.57629530  1
  O  O59  1  0.73930371  0.87609825  0.51659540  1
  O  O60  1  0.25111399  0.12061754  0.28133741  1
  O  O61  1  0.38945196  0.81219368  0.22343825  1
  O  O62  1  0.57081861  0.43031576  0.44875179  1
  O  O63  1  0.88239885  0.75332992  0.61926346  1
  O  O64  1  0.18658031  0.60953939  0.07636574  1
  O  O65  1  0.80337985  0.38124425  0.52159286  1
  O  O66  1  0.43103016  0.56907943  0.14957902  1
  O  O67  1  0.60936806  0.18770959  0.37560393  1
  O  O68  1  0.74944162  0.87962853  0.31786620  1
  O  O69  1  0.25080516  0.12039204  0.08172850  1
  O  O70  1  0.38993862  0.81241946  0.02394872  1
  O  O71  1  0.56913955  0.43104516  0.24941720  1
  O  O72  1  0.87905938  0.75053891  0.41765798  1
  O  O73  1  0.81224403  0.39015422  0.32323874  1
  O  O74  1  0.61022542  0.18685982  0.17621503  1
  O  O75  1  0.74950394  0.87991111  0.11813839  1
  O  O76  1  0.57027815  0.43168796  0.05000211  1
  O  O77  1  0.87936035  0.75009492  0.21802610  1
  O  O78  1  0.81263876  0.39053495  0.12377491  1
  O  O79  1  0.87982150  0.74975547  0.01833143  1
