# generated using pymatgen
data_Na2Sc4Zn2(MoO4)9
_symmetry_space_group_name_H-M   'P 1'
_cell_length_a   9.64102384
_cell_length_b   9.64111480
_cell_length_c   28.92423051
_cell_angle_alpha   60.28519579
_cell_angle_beta   60.28437220
_cell_angle_gamma   60.28259553
_symmetry_Int_Tables_number   1
_chemical_formula_structural   Na2Sc4Zn2(MoO4)9
_chemical_formula_sum   'Na4 Sc8 Zn4 Mo18 O72'
_cell_volume   1913.28731713
_cell_formula_units_Z   2
loop_
 _symmetry_equiv_pos_site_id
 _symmetry_equiv_pos_as_xyz
  1  'x, y, z'
loop_
 _atom_site_type_symbol
 _atom_site_label
 _atom_site_symmetry_multiplicity
 _atom_site_fract_x
 _atom_site_fract_y
 _atom_site_fract_z
 _atom_site_occupancy
  Na  Na0  1  0.00176464  0.00099817  0.00082297  1
  Na  Na1  1  0.50090539  0.50154569  0.16789399  1
  Na  Na2  1  0.00146363  0.00222085  0.33391925  1
  Na  Na3  1  0.00207687  0.00209754  0.66694482  1
  Sc  Sc4  1  0.35999642  0.36035968  0.12133549  1
  Sc  Sc5  1  0.36545256  0.36508645  0.45422391  1
  Sc  Sc6  1  0.86139131  0.85944401  0.28766031  1
  Sc  Sc7  1  0.36477696  0.36474214  0.78780125  1
  Sc  Sc8  1  0.63570169  0.63557324  0.54486662  1
  Sc  Sc9  1  0.86168519  0.86184419  0.62012751  1
  Sc  Sc10  1  0.63546842  0.63623245  0.87794431  1
  Sc  Sc11  1  0.86121818  0.86291992  0.95361892  1
  Zn  Zn12  1  0.13948656  0.13721107  0.04688385  1
  Zn  Zn13  1  0.13782502  0.14033936  0.37938381  1
  Zn  Zn14  1  0.63826021  0.63764734  0.21379751  1
  Zn  Zn15  1  0.13922868  0.13939589  0.71261022  1
  Mo  Mo16  1  0.03582074  0.75167088  0.15380487  1
  Mo  Mo17  1  0.46219890  0.03574456  0.25038298  1
  Mo  Mo18  1  0.75138276  0.46168691  0.01227653  1
  Mo  Mo19  1  0.25166343  0.53560008  0.32069149  1
  Mo  Mo20  1  0.53580594  0.96211581  0.08375521  1
  Mo  Mo21  1  0.03553608  0.75269286  0.48721357  1
  Mo  Mo22  1  0.96185934  0.25115315  0.17848244  1
  Mo  Mo23  1  0.46130998  0.03547887  0.58437131  1
  Mo  Mo24  1  0.75299835  0.46170854  0.34467550  1
  Mo  Mo25  1  0.24856365  0.53509302  0.65515713  1
  Mo  Mo26  1  0.53490418  0.96525866  0.41618535  1
  Mo  Mo27  1  0.03549755  0.75266100  0.82063798  1
  Mo  Mo28  1  0.96532147  0.24866364  0.51175285  1
  Mo  Mo29  1  0.46137920  0.03562324  0.91764145  1
  Mo  Mo30  1  0.75277695  0.46147817  0.67858035  1
  Mo  Mo31  1  0.24853816  0.53502482  0.98833401  1
  Mo  Mo32  1  0.53499485  0.96544388  0.74951206  1
  Mo  Mo33  1  0.96534076  0.24873785  0.84502355  1
  O  O34  1  0.00399437  0.19676583  0.12143572  1
  O  O35  1  0.19604084  0.36345428  0.00177053  1
  O  O36  1  0.36490815  0.00379125  0.06552981  1
  O  O37  1  0.13591870  0.30476915  0.16500650  1
  O  O38  1  0.30358857  0.49462952  0.04567111  1
  O  O39  1  0.05498104  0.92547498  0.08890535  1
  O  O40  1  0.49515633  0.13630791  0.10146356  1
  O  O41  1  0.23371260  0.57458100  0.14742945  1
  O  O42  1  0.26744662  0.05494860  0.30827773  1
  O  O43  1  0.00525000  0.19606521  0.45459032  1
  O  O44  1  0.44301593  0.23371430  0.19132350  1
  O  O45  1  0.19695498  0.36467673  0.33458336  1
  O  O46  1  0.57519558  0.44294716  0.07771162  1
  O  O47  1  0.07448788  0.73375647  0.31427822  1
  O  O48  1  0.36328226  0.00548101  0.39869798  1
  O  O49  1  0.13790574  0.30315085  0.49801177  1
  O  O50  1  0.92451180  0.26791868  0.01854301  1
  O  O51  1  0.42528562  0.55513017  0.25565304  1
  O  O52  1  0.30445649  0.49436708  0.37891472  1
  O  O53  1  0.55524435  0.76731930  0.14169150  1
  O  O54  1  0.05599832  0.92511891  0.42232389  1
  O  O55  1  0.49388827  0.13767427  0.43447883  1
  O  O56  1  0.73373163  0.94278196  0.02472861  1
  O  O57  1  0.22702661  0.57560058  0.48050152  1
  O  O58  1  0.76723212  0.42536095  0.18485379  1
  O  O59  1  0.26668091  0.05574147  0.64185272  1
  O  O60  1  0.50422774  0.86470086  0.23204821  1
  O  O61  1  0.00517351  0.19616218  0.78788199  1
  O  O62  1  0.94272736  0.07438686  0.24432791  1
  O  O63  1  0.44103919  0.22705508  0.52532604  1
  O  O64  1  0.69784695  0.50442321  0.28765285  1
  O  O65  1  0.19624119  0.36371480  0.66840257  1
  O  O66  1  0.57525631  0.44101725  0.40895147  1
  O  O67  1  0.07352065  0.73360782  0.64804513  1
  O  O68  1  0.86454837  0.69678270  0.16790494  1
  O  O69  1  0.36350061  0.00517613  0.73209800  1
  O  O70  1  0.63607725  0.99537107  0.26815739  1
  O  O71  1  0.13783910  0.30315948  0.83136308  1
  O  O72  1  0.92634229  0.26594528  0.35164870  1
  O  O73  1  0.42520431  0.55666693  0.59106302  1
  O  O74  1  0.80463410  0.63721468  0.33149813  1
  O  O75  1  0.30298817  0.49403679  0.71268241  1
  O  O76  1  0.55650237  0.77302791  0.47508804  1
  O  O77  1  0.05579108  0.92518330  0.75573362  1
  O  O78  1  0.99515136  0.80517265  0.21181050  1
  O  O79  1  0.49397965  0.13787279  0.76775319  1
  O  O80  1  0.73351466  0.94413940  0.35787411  1
  O  O81  1  0.22700089  0.57571314  0.81378910  1
  O  O82  1  0.77298522  0.42517023  0.51895666  1
  O  O83  1  0.26670775  0.05599351  0.97515728  1
  O  O84  1  0.50492988  0.86216803  0.56588630  1
  O  O85  1  0.94391587  0.07358565  0.57799101  1
  O  O86  1  0.44107357  0.22707237  0.85860834  1
  O  O87  1  0.69743653  0.50493196  0.62078726  1
  O  O88  1  0.57583875  0.44116025  0.74241357  1
  O  O89  1  0.07372692  0.73340433  0.98125057  1
  O  O90  1  0.86211195  0.69748963  0.50170173  1
  O  O91  1  0.63643525  0.99499084  0.60162376  1
  O  O92  1  0.92525845  0.26667630  0.68536287  1
  O  O93  1  0.42536360  0.55651948  0.92434334  1
  O  O94  1  0.80465817  0.63649922  0.66504774  1
  O  O95  1  0.55649113  0.77296034  0.80836265  1
  O  O96  1  0.99511935  0.80451877  0.54553288  1
  O  O97  1  0.73357315  0.94393951  0.69125134  1
  O  O98  1  0.77295136  0.42520076  0.85226265  1
  O  O99  1  0.50491815  0.86208803  0.89924794  1
  O  O100  1  0.94410749  0.07373583  0.91127307  1
  O  O101  1  0.69646777  0.50451454  0.95452936  1
  O  O102  1  0.86204149  0.69729888  0.83511330  1
  O  O103  1  0.63644684  0.99479731  0.93492590  1
  O  O104  1  0.80495290  0.63529460  0.99844569  1
  O  O105  1  0.99489155  0.80443774  0.87894987  1
