# generated using pymatgen
data_U(GaCu3)2
_symmetry_space_group_name_H-M   'P 1'
_cell_length_a   6.49437094
_cell_length_b   6.49437066
_cell_length_c   6.49437094
_cell_angle_alpha   84.37847633
_cell_angle_beta   84.37847201
_cell_angle_gamma   84.37847633
_symmetry_Int_Tables_number   1
_chemical_formula_structural   U(GaCu3)2
_chemical_formula_sum   'U2 Ga4 Cu12'
_cell_volume   270.20195996
_cell_formula_units_Z   2
loop_
 _symmetry_equiv_pos_site_id
 _symmetry_equiv_pos_as_xyz
  1  'x, y, z'
loop_
 _atom_site_type_symbol
 _atom_site_label
 _atom_site_symmetry_multiplicity
 _atom_site_fract_x
 _atom_site_fract_y
 _atom_site_fract_z
 _atom_site_occupancy
  U  U0  1  0.65407001  0.65407001  0.65407001  1
  U  U1  1  0.34884295  0.34884295  0.34884295  1
  Ga  Ga2  1  0.00687472  0.47635608  0.00687472  1
  Ga  Ga3  1  0.47635608  0.00687472  0.00687472  1
  Ga  Ga4  1  0.00687472  0.00687472  0.47635608  1
  Ga  Ga5  1  0.93206946  0.93206946  0.93206946  1
  Cu  Cu6  1  0.69288213  0.99808276  0.30141490  1
  Cu  Cu7  1  0.99808276  0.30141490  0.69288213  1
  Cu  Cu8  1  0.30141490  0.69288213  0.99808276  1
  Cu  Cu9  1  0.99808276  0.69288213  0.30141490  1
  Cu  Cu10  1  0.69288213  0.30141490  0.99808276  1
  Cu  Cu11  1  0.30141490  0.99808276  0.69288213  1
  Cu  Cu12  1  0.65093641  0.65093641  0.15274099  1
  Cu  Cu13  1  0.65093641  0.15274099  0.65093641  1
  Cu  Cu14  1  0.15274099  0.65093641  0.65093641  1
  Cu  Cu15  1  0.34969090  0.34969090  0.83305685  1
  Cu  Cu16  1  0.34969090  0.83305685  0.34969090  1
  Cu  Cu17  1  0.83305685  0.34969090  0.34969090  1
