# generated using pymatgen
data_Cd3H2CSeO8
_symmetry_space_group_name_H-M   'P 1'
_cell_length_a   6.68934242
_cell_length_b   10.65092034
_cell_length_c   10.57444066
_cell_angle_alpha   90.00000000
_cell_angle_beta   90.00000000
_cell_angle_gamma   90.00000000
_symmetry_Int_Tables_number   1
_chemical_formula_structural   Cd3H2CSeO8
_chemical_formula_sum   'Cd12 H8 C4 Se4 O32'
_cell_volume   753.40408138
_cell_formula_units_Z   4
loop_
 _symmetry_equiv_pos_site_id
 _symmetry_equiv_pos_as_xyz
  1  'x, y, z'
loop_
 _atom_site_type_symbol
 _atom_site_label
 _atom_site_symmetry_multiplicity
 _atom_site_fract_x
 _atom_site_fract_y
 _atom_site_fract_z
 _atom_site_occupancy
  Cd  Cd0  1  0.52953841  0.54549538  0.33257085  1
  Cd  Cd1  1  0.02953841  0.95450462  0.16742915  1
  Cd  Cd2  1  0.47046159  0.04549538  0.66742915  1
  Cd  Cd3  1  0.97046159  0.45450462  0.83257085  1
  Cd  Cd4  1  0.47046159  0.45450462  0.66742915  1
  Cd  Cd5  1  0.97046159  0.04549538  0.83257085  1
  Cd  Cd6  1  0.52953841  0.95450462  0.33257085  1
  Cd  Cd7  1  0.02953841  0.54549538  0.16742915  1
  Cd  Cd8  1  0.74879773  0.25000000  0.12648721  1
  Cd  Cd9  1  0.24879773  0.25000000  0.37351279  1
  Cd  Cd10  1  0.25120227  0.75000000  0.87351279  1
  Cd  Cd11  1  0.75120227  0.75000000  0.62648721  1
  H  H12  1  0.64214048  0.48987815  0.09647485  1
  H  H13  1  0.14214048  0.01012185  0.40352515  1
  H  H14  1  0.35785952  0.98987815  0.90352515  1
  H  H15  1  0.85785952  0.51012185  0.59647485  1
  H  H16  1  0.35785952  0.51012185  0.90352515  1
  H  H17  1  0.85785952  0.98987815  0.59647485  1
  H  H18  1  0.64214048  0.01012185  0.09647485  1
  H  H19  1  0.14214048  0.48987815  0.40352515  1
  C  C20  1  0.37452865  0.75000000  0.14824439  1
  C  C21  1  0.87452865  0.75000000  0.35175561  1
  C  C22  1  0.62547135  0.25000000  0.85175561  1
  C  C23  1  0.12547135  0.25000000  0.64824439  1
  Se  Se24  1  0.24762230  0.25000000  0.02559272  1
  Se  Se25  1  0.74762230  0.25000000  0.47440728  1
  Se  Se26  1  0.75237770  0.75000000  0.97440728  1
  Se  Se27  1  0.25237770  0.75000000  0.52559272  1
  O  O28  1  0.38100729  0.25000000  0.16440875  1
  O  O29  1  0.88100729  0.25000000  0.33559125  1
  O  O30  1  0.61899271  0.75000000  0.83559125  1
  O  O31  1  0.11899271  0.75000000  0.66440875  1
  O  O32  1  0.07384650  0.12888133  0.03991745  1
  O  O33  1  0.57384650  0.37111867  0.46008255  1
  O  O34  1  0.92615350  0.62888133  0.96008255  1
  O  O35  1  0.42615350  0.87111867  0.53991745  1
  O  O36  1  0.92615350  0.87111867  0.96008255  1
  O  O37  1  0.42615350  0.62888133  0.53991745  1
  O  O38  1  0.07384650  0.37111867  0.03991745  1
  O  O39  1  0.57384650  0.12888133  0.46008255  1
  O  O40  1  0.45284091  0.75000000  0.26174536  1
  O  O41  1  0.95284091  0.75000000  0.23825464  1
  O  O42  1  0.54715909  0.25000000  0.73825464  1
  O  O43  1  0.04715909  0.25000000  0.76174536  1
  O  O44  1  0.71058802  0.46282066  0.17348994  1
  O  O45  1  0.21058802  0.03717934  0.32651006  1
  O  O46  1  0.28941198  0.96282066  0.82651006  1
  O  O47  1  0.78941198  0.53717934  0.67348994  1
  O  O48  1  0.28941198  0.53717934  0.82651006  1
  O  O49  1  0.78941198  0.96282066  0.67348994  1
  O  O50  1  0.71058802  0.03717934  0.17348994  1
  O  O51  1  0.21058802  0.46282066  0.32651006  1
  O  O52  1  0.33804749  0.64412077  0.09177929  1
  O  O53  1  0.83804749  0.85587923  0.40822071  1
  O  O54  1  0.66195251  0.14412077  0.90822071  1
  O  O55  1  0.16195251  0.35587923  0.59177929  1
  O  O56  1  0.66195251  0.35587923  0.90822071  1
  O  O57  1  0.16195251  0.14412077  0.59177929  1
  O  O58  1  0.33804749  0.85587923  0.09177929  1
  O  O59  1  0.83804749  0.64412077  0.40822071  1
