# generated using pymatgen
data_NaSi2(HO2)3
_symmetry_space_group_name_H-M   'P 1'
_cell_length_a   12.25269773
_cell_length_b   9.85331396
_cell_length_c   8.89675258
_cell_angle_alpha   81.47533962
_cell_angle_beta   52.69502128
_cell_angle_gamma   45.87403807
_symmetry_Int_Tables_number   1
_chemical_formula_structural   NaSi2(HO2)3
_chemical_formula_sum   'Na4 Si8 H12 O24'
_cell_volume   538.20099207
_cell_formula_units_Z   4
loop_
 _symmetry_equiv_pos_site_id
 _symmetry_equiv_pos_as_xyz
  1  'x, y, z'
loop_
 _atom_site_type_symbol
 _atom_site_label
 _atom_site_symmetry_multiplicity
 _atom_site_fract_x
 _atom_site_fract_y
 _atom_site_fract_z
 _atom_site_occupancy
  Na  Na0  1  0.26566552  0.75968116  0.51427406  1
  Na  Na1  1  0.46271317  0.51113590  0.76087061  1
  Na  Na2  1  0.73623461  0.78910037  0.98471536  1
  Na  Na3  1  0.49011711  0.98451919  0.78931298  1
  Si  Si4  1  0.75212691  0.29649825  0.95296297  1
  Si  Si5  1  0.99932959  0.95255819  0.29582839  1
  Si  Si6  1  0.29696078  0.25211196  0.49757486  1
  Si  Si7  1  0.95236629  0.49864472  0.25170001  1
  Si  Si8  1  0.01369027  0.30348837  0.93568901  1
  Si  Si9  1  0.74638258  0.93685842  0.30353044  1
  Si  Si10  1  0.31369178  0.50348658  0.23707643  1
  Si  Si11  1  0.94570948  0.23738657  0.50366847  1
  H  H12  1  0.40631704  0.86782699  0.12435664  1
  H  H13  1  0.60398422  0.12200344  0.86640191  1
  H  H14  1  0.12715531  0.64924379  0.84130261  1
  H  H15  1  0.38864074  0.83660924  0.64460069  1
  H  H16  1  0.61056761  0.65072021  0.90338214  1
  H  H17  1  0.83852984  0.90082997  0.64971702  1
  H  H18  1  0.34670174  0.41361186  0.64057686  1
  H  H19  1  0.60304330  0.63446293  0.40982041  1
  H  H20  1  0.29745019  0.05543049  0.37819705  1
  H  H21  1  0.26816293  0.37850420  0.05538245  1
  H  H22  1  0.86896042  0.98200080  0.95402246  1
  H  H23  1  0.19699530  0.95233689  0.98101450  1
  O  O24  1  0.82834004  0.34676703  0.00975694  1
  O  O25  1  0.81661991  0.00880338  0.34517083  1
  O  O26  1  0.23900294  0.43680780  0.42350179  1
  O  O27  1  0.90136831  0.42299035  0.43528041  1
  O  O28  1  0.07147596  0.38026641  0.74864145  1
  O  O29  1  0.79770531  0.75011806  0.38064029  1
  O  O30  1  0.50043447  0.45213828  0.17878897  1
  O  O31  1  0.86912680  0.17860805  0.45185058  1
  O  O32  1  0.54501012  0.78668059  0.97225126  1
  O  O33  1  0.69890198  0.96981866  0.78465505  1
  O  O34  1  0.28018715  0.55208151  0.70352464  1
  O  O35  1  0.46853591  0.69887587  0.55044503  1
  O  O36  1  0.18406944  0.02845457  0.40015196  1
  O  O37  1  0.38853255  0.39858923  0.02830379  1
  O  O38  1  0.84929146  0.86278585  0.06559323  1
  O  O39  1  0.22276496  0.06566594  0.86191222  1
  O  O40  1  0.39549707  0.05595236  0.34297430  1
  O  O41  1  0.20443214  0.34451822  0.05512050  1
  O  O42  1  0.90467797  0.04498824  0.85534594  1
  O  O43  1  0.19704954  0.85403492  0.04464235  1
  O  O44  1  0.75680864  0.37333763  0.77221824  1
  O  O45  1  0.09820138  0.77209855  0.37293037  1
  O  O46  1  0.47769780  0.15274366  0.49310091  1
  O  O47  1  0.87624043  0.49433237  0.15121161  1
