# generated using pymatgen
data_Ba2Na2B10H2O19
_symmetry_space_group_name_H-M   'P 1'
_cell_length_a   6.68982691
_cell_length_b   6.68982691
_cell_length_c   9.47919724
_cell_angle_alpha   87.06748959
_cell_angle_beta   92.93251041
_cell_angle_gamma   119.45349861
_symmetry_Int_Tables_number   1
_chemical_formula_structural   Ba2Na2B10H2O19
_chemical_formula_sum   'Ba2 Na2 B10 H2 O19'
_cell_volume   368.75166864
_cell_formula_units_Z   1
loop_
 _symmetry_equiv_pos_site_id
 _symmetry_equiv_pos_as_xyz
  1  'x, y, z'
loop_
 _atom_site_type_symbol
 _atom_site_label
 _atom_site_symmetry_multiplicity
 _atom_site_fract_x
 _atom_site_fract_y
 _atom_site_fract_z
 _atom_site_occupancy
  Ba  Ba0  1  0.33115444  0.66848746  0.10730934  1
  Ba  Ba1  1  0.66848746  0.33115444  0.89269066  1
  Na  Na2  1  0.30727122  0.30727122  0.50000000  1
  Na  Na3  1  0.78857195  0.78857195  0.50000000  1
  B  B4  1  0.30716373  0.80250509  0.53211626  1
  B  B5  1  0.80250509  0.30716373  0.46788374  1
  B  B6  1  0.35339546  0.68080655  0.77770642  1
  B  B7  1  0.68080655  0.35339546  0.22229358  1
  B  B8  1  0.17779362  0.94284847  0.73192048  1
  B  B9  1  0.94284847  0.17779362  0.26807952  1
  B  B10  1  0.79567704  0.86080330  0.82755863  1
  B  B11  1  0.86080330  0.79567704  0.17244137  1
  B  B12  1  0.14177836  0.24658126  0.86424050  1
  B  B13  1  0.24658126  0.14177836  0.13575950  1
  H  H14  1  0.94256999  0.35916755  0.66402434  1
  H  H15  1  0.35916755  0.94256999  0.33597566  1
  O  O16  1  0.92595212  0.78658886  0.76189482  1
  O  O17  1  0.78658886  0.92595212  0.23810518  1
  O  O18  1  0.07779208  0.88791737  0.12382953  1
  O  O19  1  0.88791737  0.07779208  0.87617047  1
  O  O20  1  0.19819695  0.91632581  0.57473582  1
  O  O21  1  0.91632581  0.19819695  0.42526418  1
  O  O22  1  0.33134746  0.88015452  0.81413690  1
  O  O23  1  0.88015452  0.33134746  0.18586310  1
  O  O24  1  0.38150860  0.68066791  0.61941700  1
  O  O25  1  0.68066791  0.38150860  0.38058300  1
  O  O26  1  0.80835626  0.35151769  0.61070128  1
  O  O27  1  0.35151769  0.80835626  0.38929872  1
  O  O28  1  0.24021569  0.18146514  0.74996772  1
  O  O29  1  0.18146514  0.24021569  0.25003228  1
  O  O30  1  0.15125815  0.46893729  0.82635479  1
  O  O31  1  0.46893729  0.15125815  0.17364521  1
  O  O32  1  0.56641869  0.69870087  0.84886483  1
  O  O33  1  0.69870087  0.56641869  0.15113517  1
  O  O34  1  0.26540303  0.26540303  0.00000000  1
