# generated using pymatgen
data_SrLaMn2O6
_symmetry_space_group_name_H-M   'P 1'
_cell_length_a   5.49556967
_cell_length_b   5.49561024
_cell_length_c   33.17082054
_cell_angle_alpha   119.64599009
_cell_angle_beta   119.64561084
_cell_angle_gamma   90.29167533
_symmetry_Int_Tables_number   1
_chemical_formula_structural   SrLaMn2O6
_chemical_formula_sum   'Sr6 La6 Mn12 O36'
_cell_volume   714.13724700
_cell_formula_units_Z   6
loop_
 _symmetry_equiv_pos_site_id
 _symmetry_equiv_pos_as_xyz
  1  'x, y, z'
loop_
 _atom_site_type_symbol
 _atom_site_label
 _atom_site_symmetry_multiplicity
 _atom_site_fract_x
 _atom_site_fract_y
 _atom_site_fract_z
 _atom_site_occupancy
  Sr  Sr0  1  0.25119354  0.75119484  0.91707439  1
  Sr  Sr1  1  0.24997877  0.74997629  0.75000075  1
  Sr  Sr2  1  0.25009344  0.75009139  0.58338052  1
  Sr  Sr3  1  0.25026314  0.75025330  0.41675292  1
  Sr  Sr4  1  0.24910843  0.74911586  0.24970690  1
  Sr  Sr5  1  0.74983056  0.24981957  0.08326989  1
  La  La6  1  0.75032635  0.25033753  0.91677070  1
  La  La7  1  0.75039411  0.25040331  0.75013439  1
  La  La8  1  0.74971987  0.24972287  0.58324787  1
  La  La9  1  0.74903092  0.24903046  0.41636315  1
  La  La10  1  0.25025625  0.75024513  0.08340766  1
  La  La11  1  0.74936497  0.24938117  0.24981272  1
  Mn  Mn12  1  0.00002445  -0.00005313  0.83332545  1
  Mn  Mn13  1  0.99995695  -0.00012177  0.66664471  1
  Mn  Mn14  1  0.49993733  0.50001608  0.83332317  1
  Mn  Mn15  1  0.49987699  0.49995669  0.66664460  1
  Mn  Mn16  1  0.99993611  -0.00015848  0.33329924  1
  Mn  Mn17  1  0.49978043  0.49992401  0.49995964  1
  Mn  Mn18  1  0.00005592  0.00007052  0.16669077  1
  Mn  Mn19  1  0.49983811  0.49993649  0.33329853  1
  Mn  Mn20  1  0.99992141  -0.00022398  0.49995805  1
  Mn  Mn21  1  0.00004228  0.00006524  0.00001690  1
  Mn  Mn22  1  0.50007186  0.50005565  0.16669067  1
  Mn  Mn23  1  0.50007119  0.50004889  0.00001863  1
  O  O24  1  0.25032270  0.25026055  0.91675289  1
  O  O25  1  0.21032795  0.71031700  0.83144021  1
  O  O26  1  0.28983286  0.22167357  0.83524040  1
  O  O27  1  0.25011700  0.25006664  0.75002963  1
  O  O28  1  0.75023510  0.75029367  0.91674403  1
  O  O29  1  0.20927420  0.70927724  0.66443253  1
  O  O30  1  0.72167837  0.78983513  0.83524150  1
  O  O31  1  0.29140292  0.22203165  0.66890593  1
  O  O32  1  0.77840510  0.27841863  0.83145444  1
  O  O33  1  0.24998654  0.24992630  0.58332459  1
  O  O34  1  0.75006704  0.75011849  0.75003031  1
  O  O35  1  0.20923025  0.70921707  0.49775185  1
  O  O36  1  0.72203621  0.79140648  0.66890543  1
  O  O37  1  0.29139638  0.22190590  0.50221462  1
  O  O38  1  0.77737293  0.27737210  0.66444436  1
  O  O39  1  0.24992507  0.24988784  0.41662897  1
  O  O40  1  0.74992824  0.74999149  0.58332628  1
  O  O41  1  0.21093496  0.71093228  0.33142823  1
  O  O42  1  0.72190884  0.79139265  0.50221405  1
  O  O43  1  0.29019245  0.22091630  0.33517830  1
  O  O44  1  0.77729652  0.27730397  0.49776219  1
  O  O45  1  0.24985586  0.24978730  0.24993136  1
  O  O46  1  0.74987523  0.74991158  0.41662454  1
  O  O47  1  0.22568504  0.72568052  0.16630269  1
  O  O48  1  0.72091582  0.79019846  0.33517873  1
  O  O49  1  0.28978450  0.21247949  0.16704806  1
  O  O50  1  0.77765358  0.27765788  0.33141531  1
  O  O51  1  0.25010780  0.25002679  0.08337276  1
  O  O52  1  0.74978900  0.74985715  0.24993160  1
  O  O53  1  0.21084769  0.71084042  0.99967423  1
  O  O54  1  0.71248122  0.78978550  0.16704936  1
  O  O55  1  0.27526878  0.22728550  0.00042568  1
  O  O56  1  0.77220877  0.27221192  0.16631900  1
  O  O57  1  0.75002595  0.75010189  0.08337090  1
  O  O58  1  0.72729369  0.77527351  0.00042638  1
  O  O59  1  0.78726211  0.28726922  0.99968643  1
