# generated using pymatgen
data_CdH4CN2Cl2O
_symmetry_space_group_name_H-M   'P 1'
_cell_length_a   3.82138858
_cell_length_b   8.29520505
_cell_length_c   10.26117965
_cell_angle_alpha   75.23295353
_cell_angle_beta   82.65746927
_cell_angle_gamma   81.98461951
_symmetry_Int_Tables_number   1
_chemical_formula_structural   CdH4CN2Cl2O
_chemical_formula_sum   'Cd2 H8 C2 N4 Cl4 O2'
_cell_volume   310.00572333
_cell_formula_units_Z   2
loop_
 _symmetry_equiv_pos_site_id
 _symmetry_equiv_pos_as_xyz
  1  'x, y, z'
loop_
 _atom_site_type_symbol
 _atom_site_label
 _atom_site_symmetry_multiplicity
 _atom_site_fract_x
 _atom_site_fract_y
 _atom_site_fract_z
 _atom_site_occupancy
  Cd  Cd0  1  0.26840556  0.61942990  0.82195527  1
  Cd  Cd1  1  0.73159444  0.38057010  0.17804473  1
  H  H2  1  0.90102716  0.96827306  0.87628695  1
  H  H3  1  0.09897284  0.03172694  0.12371305  1
  H  H4  1  0.88949127  0.18287572  0.80129776  1
  H  H5  1  0.11050873  0.81712428  0.19870224  1
  H  H6  1  0.16969154  0.27809662  0.59132324  1
  H  H7  1  0.83030846  0.72190338  0.40867676  1
  H  H8  1  0.40284604  0.13915761  0.50047989  1
  H  H9  1  0.59715396  0.86084239  0.49952011  1
  C  C10  1  0.18936856  0.02905963  0.69111417  1
  C  C11  1  0.81063144  0.97094037  0.30888583  1
  N  N12  1  0.99879306  0.06307395  0.80342672  1
  N  N13  1  0.00120694  0.93692605  0.19657328  1
  N  N14  1  0.28141159  0.15955053  0.59023877  1
  N  N15  1  0.71858841  0.84044947  0.40976123  1
  Cl  Cl16  1  0.68618100  0.69329199  0.98735586  1
  Cl  Cl17  1  0.31381900  0.30670801  0.01264414  1
  Cl  Cl18  1  0.85256565  0.51234361  0.69007123  1
  Cl  Cl19  1  0.14743435  0.48765639  0.30992877  1
  O  O20  1  0.29263734  0.87938302  0.67995652  1
  O  O21  1  0.70736266  0.12061698  0.32004348  1
