# generated using pymatgen
data_CaP2(H2O3)3
_symmetry_space_group_name_H-M   'P 1'
_cell_length_a   5.66159750
_cell_length_b   11.96375686
_cell_length_c   6.51645684
_cell_angle_alpha   98.67140892
_cell_angle_beta   118.23056698
_cell_angle_gamma   83.36774372
_symmetry_Int_Tables_number   1
_chemical_formula_structural   CaP2(H2O3)3
_chemical_formula_sum   'Ca2 P4 H12 O18'
_cell_volume   383.94313515
_cell_formula_units_Z   2
loop_
 _symmetry_equiv_pos_site_id
 _symmetry_equiv_pos_as_xyz
  1  'x, y, z'
loop_
 _atom_site_type_symbol
 _atom_site_label
 _atom_site_symmetry_multiplicity
 _atom_site_fract_x
 _atom_site_fract_y
 _atom_site_fract_z
 _atom_site_occupancy
  Ca  Ca0  1  0.26677176  0.89743725  0.22705823  1
  Ca  Ca1  1  0.73322824  0.10256275  0.77294177  1
  P  P2  1  0.25387697  0.90277571  0.72311115  1
  P  P3  1  0.74612303  0.09722429  0.27688885  1
  P  P4  1  0.65202964  0.62711391  0.38737484  1
  P  P5  1  0.34797036  0.37288609  0.61262516  1
  H  H6  1  0.89672980  0.80421430  0.45878028  1
  H  H7  1  0.10327020  0.19578570  0.54121972  1
  H  H8  1  0.62136582  0.79446243  0.93486433  1
  H  H9  1  0.37863418  0.20553757  0.06513567  1
  H  H10  1  0.93151840  0.51745614  0.28653588  1
  H  H11  1  0.06848160  0.48254386  0.71346412  1
  H  H12  1  0.32479501  0.51166967  0.29602363  1
  H  H13  1  0.67520499  0.48833033  0.70397637  1
  H  H14  1  0.91390136  0.69740958  0.85919592  1
  H  H15  1  0.08609864  0.30259042  0.14080408  1
  H  H16  1  0.97153435  0.69329525  0.11376082  1
  H  H17  1  0.02846565  0.30670475  0.88623918  1
  O  O18  1  0.41990140  0.96713337  0.65874343  1
  O  O19  1  0.58009860  0.03286663  0.34125657  1
  O  O20  1  0.08211093  0.96649141  0.82775349  1
  O  O21  1  0.91788907  0.03350859  0.17224651  1
  O  O22  1  0.07808488  0.82743986  0.48390993  1
  O  O23  1  0.92191512  0.17256014  0.51609007  1
  O  O24  1  0.43522934  0.81863164  0.91486529  1
  O  O25  1  0.56477066  0.18136836  0.08513471  1
  O  O26  1  0.61988438  0.75578780  0.39744379  1
  O  O27  1  0.38011562  0.24421220  0.60255621  1
  O  O28  1  0.81069908  0.58724669  0.23964324  1
  O  O29  1  0.18930092  0.41275331  0.76035676  1
  O  O30  1  0.36289568  0.57901540  0.24139344  1
  O  O31  1  0.63710432  0.42098460  0.75860656  1
  O  O32  1  0.80273773  0.58077343  0.62674389  1
  O  O33  1  0.19726227  0.41922657  0.37325611  1
  O  O34  1  0.93619124  0.74783687  0.00248182  1
  O  O35  1  0.06380876  0.25216313  0.99751818  1
