# generated using pymatgen
data_NaCa8SmTi10(SiO5)10
_symmetry_space_group_name_H-M   'P 1'
_cell_length_a   5.50110925
_cell_length_b   27.52694597
_cell_length_c   7.86579796
_cell_angle_alpha   61.36603656
_cell_angle_beta   114.28640137
_cell_angle_gamma   105.85491373
_symmetry_Int_Tables_number   1
_chemical_formula_structural   NaCa8SmTi10(SiO5)10
_chemical_formula_sum   'Na1 Ca8 Sm1 Ti10 Si10 O50'
_cell_volume   948.59301139
_cell_formula_units_Z   1
loop_
 _symmetry_equiv_pos_site_id
 _symmetry_equiv_pos_as_xyz
  1  'x, y, z'
loop_
 _atom_site_type_symbol
 _atom_site_label
 _atom_site_symmetry_multiplicity
 _atom_site_fract_x
 _atom_site_fract_y
 _atom_site_fract_z
 _atom_site_occupancy
  Na  Na0  1  0.82805912  0.98294885  0.25030760  1
  Ca  Ca1  1  0.17054681  0.81650463  0.75010290  1
  Ca  Ca2  1  0.17011829  0.61615014  0.74961803  1
  Ca  Ca3  1  0.17039414  0.41612103  0.74968726  1
  Ca  Ca4  1  0.17076884  0.21643916  0.74928778  1
  Ca  Ca5  1  0.83043458  0.78422589  0.24892744  1
  Ca  Ca6  1  0.83037015  0.58414383  0.24945861  1
  Ca  Ca7  1  0.83015637  0.38421440  0.24944891  1
  Ca  Ca8  1  0.83102204  0.18465122  0.25029453  1
  Sm  Sm9  1  0.16776326  0.01466838  0.75318955  1
  Ti  Ti10  1  0.50099317  0.80014210  0.50165894  1
  Ti  Ti11  1  0.50798903  0.90012070  0.00348976  1
  Ti  Ti12  1  0.50022578  0.60007319  0.49991570  1
  Ti  Ti13  1  0.49984485  0.70000352  0.00026605  1
  Ti  Ti14  1  0.50028783  0.40012127  0.49992178  1
  Ti  Ti15  1  0.49982621  0.50012216  0.99975591  1
  Ti  Ti16  1  0.50074707  0.20031415  0.50185048  1
  Ti  Ti17  1  0.49997569  0.30003772  0.00042994  1
  Ti  Ti18  1  0.48609940  0.99769626  0.49015166  1
  Ti  Ti19  1  0.50828384  0.10026963  0.00439874  1
  Si  Si20  1  0.17888978  0.91364236  0.24542094  1
  Si  Si21  1  0.18216034  0.71364087  0.25042452  1
  Si  Si22  1  0.81895053  0.88573998  0.75238977  1
  Si  Si23  1  0.18198271  0.51360070  0.25035623  1
  Si  Si24  1  0.81804398  0.68647537  0.74983179  1
  Si  Si25  1  0.18192375  0.31378469  0.25009184  1
  Si  Si26  1  0.81818772  0.48640279  0.75004871  1
  Si  Si27  1  0.18482786  0.11318812  0.25423080  1
  Si  Si28  1  0.81846908  0.28653744  0.75033435  1
  Si  Si29  1  0.81741761  0.08690911  0.74704028  1
  O  O30  1  0.12049828  0.86784148  0.90885460  1
  O  O31  1  0.42897945  0.96416195  0.74859249  1
  O  O32  1  0.11892641  0.66802371  0.91031503  1
  O  O33  1  0.25877624  0.94043472  0.41108796  1
  O  O34  1  0.18554640  0.84550764  0.37902759  1
  O  O35  1  0.60834092  0.85998489  0.88364048  1
  O  O36  1  0.42781542  0.76370609  0.74972773  1
  O  O37  1  0.11910410  0.46809640  0.91015296  1
  O  O38  1  0.25079726  0.74196791  0.40941827  1
  O  O39  1  0.37689771  0.94071217  0.10350611  1
  O  O40  1  0.18594478  0.64535112  0.38230710  1
  O  O41  1  0.81589471  0.95423630  0.62871241  1
  O  O42  1  0.60854504  0.66072702  0.88208167  1
  O  O43  1  0.74647212  0.85747464  0.59234143  1
  O  O44  1  0.42979797  0.56388771  0.75014514  1
  O  O45  1  0.11882217  0.26803337  0.91017418  1
  O  O46  1  0.57207429  0.83670302  0.25055194  1
  O  O47  1  0.25054097  0.54180747  0.41012774  1
  O  O48  1  0.39166598  0.73910889  0.11840340  1
  O  O49  1  0.18584964  0.44537302  0.38228958  1
  O  O50  1  0.81408273  0.75462150  0.61813617  1
  O  O51  1  0.60879164  0.46074978  0.88212051  1
  O  O52  1  0.74913315  0.65808633  0.59036220  1
  O  O53  1  0.42975290  0.36382391  0.75013942  1
  O  O54  1  0.11941340  0.06848121  0.90726354  1
  O  O55  1  0.88090191  0.93209133  0.08264741  1
  O  O56  1  0.56950789  0.63590064  0.24999579  1
  O  O57  1  0.25050456  0.34184946  0.41019603  1
  O  O58  1  0.39139773  0.53921950  0.11823571  1
  O  O59  1  0.18580721  0.24548532  0.38260509  1
  O  O60  1  0.81431549  0.55463261  0.61808732  1
  O  O61  1  0.60927672  0.26070983  0.88251025  1
  O  O62  1  0.74919213  0.45812573  0.59028732  1
  O  O63  1  0.43186440  0.16462428  0.75115406  1
  O  O64  1  0.88052348  0.73163675  0.09010346  1
  O  O65  1  0.56957729  0.43596680  0.25009088  1
  O  O66  1  0.24876882  0.14189217  0.41203339  1
  O  O67  1  0.39121106  0.33926005  0.11822490  1
  O  O68  1  0.19306672  0.04554134  0.39581711  1
  O  O69  1  0.81456032  0.35469397  0.61827008  1
  O  O70  1  0.59687092  0.06281475  0.86871668  1
  O  O71  1  0.74936292  0.25845894  0.58964662  1
  O  O72  1  0.88080858  0.53175779  0.09028148  1
  O  O73  1  0.56805608  0.23588210  0.25005881  1
  O  O74  1  0.39251717  0.13876339  0.12074050  1
  O  O75  1  0.81585717  0.15523068  0.61696562  1
  O  O76  1  0.75787561  0.05795299  0.59113917  1
  O  O77  1  0.88080407  0.33175116  0.09044137  1
  O  O78  1  0.56637398  0.03660079  0.24889645  1
  O  O79  1  0.88377324  0.13136871  0.09105107  1
