# generated using pymatgen
data_LiFePHO5
_symmetry_space_group_name_H-M   'P 1'
_cell_length_a   5.17902542
_cell_length_b   10.85089039
_cell_length_c   7.39502627
_cell_angle_alpha   106.31173748
_cell_angle_beta   109.46248753
_cell_angle_gamma   97.77563366
_symmetry_Int_Tables_number   1
_chemical_formula_structural   LiFePHO5
_chemical_formula_sum   'Li4 Fe4 P4 H4 O20'
_cell_volume   363.83282074
_cell_formula_units_Z   4
loop_
 _symmetry_equiv_pos_site_id
 _symmetry_equiv_pos_as_xyz
  1  'x, y, z'
loop_
 _atom_site_type_symbol
 _atom_site_label
 _atom_site_symmetry_multiplicity
 _atom_site_fract_x
 _atom_site_fract_y
 _atom_site_fract_z
 _atom_site_occupancy
  Li  Li0  1  0.25243006  0.80059591  0.19644819  1
  Li  Li1  1  0.25748226  0.30254739  0.22335769  1
  Li  Li2  1  0.74821930  0.69994162  0.80807802  1
  Li  Li3  1  0.75013166  0.19963090  0.80593900  1
  Fe  Fe4  1  0.99989369  0.50115006  0.50360399  1
  Fe  Fe5  1  0.00124080  0.49932208  0.00222175  1
  Fe  Fe6  1  0.00054169  0.00079777  0.00273595  1
  Fe  Fe7  1  0.00078871  0.99984606  0.50213698  1
  P  P8  1  0.32493303  0.81983984  0.77049414  1
  P  P9  1  0.32480653  0.31916535  0.76784060  1
  P  P10  1  0.67638932  0.68087799  0.23465731  1
  P  P11  1  0.67547568  0.18088115  0.23608512  1
  H  H12  1  0.35641067  0.53402150  0.34606012  1
  H  H13  1  0.64392679  0.96754143  0.65943682  1
  H  H14  1  0.35824501  0.03142902  0.34466038  1
  H  H15  1  0.64373321  0.46908910  0.66134527  1
  O  O16  1  0.11533579  0.83123066  0.87952883  1
  O  O17  1  0.11243929  0.33118414  0.87387513  1
  O  O18  1  0.16036439  0.97553349  0.27907828  1
  O  O19  1  0.27196202  0.89515912  0.61732316  1
  O  O20  1  0.30862207  0.67195456  0.66542319  1
  O  O21  1  0.16010217  0.47646972  0.28025094  1
  O  O22  1  0.27430861  0.39434842  0.61357691  1
  O  O23  1  0.30895751  0.17147139  0.66317053  1
  O  O24  1  0.63470052  0.87663940  0.92991723  1
  O  O25  1  0.36634999  0.62398558  0.07514632  1
  O  O26  1  0.63386829  0.37601962  0.92828955  1
  O  O27  1  0.36615893  0.12505618  0.07696677  1
  O  O28  1  0.69261615  0.82863392  0.34009799  1
  O  O29  1  0.72874160  0.60533149  0.38808108  1
  O  O30  1  0.84049966  0.52535999  0.72615902  1
  O  O31  1  0.69319749  0.32868739  0.34355944  1
  O  O32  1  0.72778904  0.10439273  0.38781013  1
  O  O33  1  0.84084249  0.02435421  0.72554877  1
  O  O34  1  0.88621153  0.66927287  0.12600037  1
  O  O35  1  0.88628403  0.17018794  0.12809504  1
