# generated using pymatgen
data_Ca6Pr6Mn11CrO36
_symmetry_space_group_name_H-M   'P 1'
_cell_length_a   5.50315641
_cell_length_b   5.45463117
_cell_length_c   23.11845479
_cell_angle_alpha   90.00041564
_cell_angle_beta   89.99144299
_cell_angle_gamma   89.99829332
_symmetry_Int_Tables_number   1
_chemical_formula_structural   Ca6Pr6Mn11CrO36
_chemical_formula_sum   'Ca6 Pr6 Mn11 Cr1 O36'
_cell_volume   693.96256521
_cell_formula_units_Z   1
loop_
 _symmetry_equiv_pos_site_id
 _symmetry_equiv_pos_as_xyz
  1  'x, y, z'
loop_
 _atom_site_type_symbol
 _atom_site_label
 _atom_site_symmetry_multiplicity
 _atom_site_fract_x
 _atom_site_fract_y
 _atom_site_fract_z
 _atom_site_occupancy
  Ca  Ca0  1  0.54208496  0.50933689  0.08329941  1
  Ca  Ca1  1  0.54190598  0.50947970  0.41656065  1
  Ca  Ca2  1  0.54261096  0.50853067  0.75014609  1
  Ca  Ca3  1  0.95798185  0.00873003  0.24994317  1
  Ca  Ca4  1  0.95834244  0.00938018  0.91680308  1
  Ca  Ca5  1  0.95675253  0.00991716  0.58332988  1
  Pr  Pr6  1  0.03620611  0.99186950  0.08338659  1
  Pr  Pr7  1  0.03589376  0.99158027  0.41660859  1
  Pr  Pr8  1  0.03801024  0.99053793  0.74996441  1
  Pr  Pr9  1  0.46303489  0.49197947  0.58331309  1
  Pr  Pr10  1  0.46368543  0.49102727  0.24994021  1
  Pr  Pr11  1  0.46404116  0.49165246  0.91672464  1
  Mn  Mn12  1  0.99922408  0.50049258  0.99993226  1
  Mn  Mn13  1  0.99901986  0.49965744  0.16679802  1
  Mn  Mn14  1  0.99882357  0.49904712  0.33310752  1
  Mn  Mn15  1  0.99870609  0.50007977  0.50009000  1
  Mn  Mn16  1  0.99918911  0.49949529  0.66653024  1
  Mn  Mn17  1  0.99931893  0.49917279  0.83352827  1
  Mn  Mn18  1  0.50092470  0.99947336  0.16653200  1
  Mn  Mn19  1  0.50038944  0.00001946  0.49990926  1
  Mn  Mn20  1  0.50078704  0.00072016  0.00024148  1
  Mn  Mn21  1  0.50163000  0.99954857  0.83312668  1
  Mn  Mn22  1  0.50096690  0.99871122  0.33337814  1
  Cr  Cr23  1  0.50107919  0.99953871  0.66685828  1
  O  O24  1  0.01567278  0.57842642  0.24969595  1
  O  O25  1  0.01571161  0.57808454  0.91701322  1
  O  O26  1  0.01597480  0.57990543  0.58363453  1
  O  O27  1  0.20887166  0.21708847  0.65210811  1
  O  O28  1  0.21581159  0.21608905  0.98624342  1
  O  O29  1  0.21573823  0.21546405  0.31923188  1
  O  O30  1  0.21553545  0.21552095  0.18059225  1
  O  O31  1  0.21548605  0.21532213  0.51385819  1
  O  O32  1  0.21605029  0.21574503  0.84760166  1
  O  O33  1  0.28422296  0.71603776  0.01399658  1
  O  O34  1  0.28436243  0.71529083  0.15269913  1
  O  O35  1  0.28385435  0.71583588  0.48581902  1
  O  O36  1  0.28423263  0.71543177  0.34709688  1
  O  O37  1  0.28283054  0.70756101  0.68127008  1
  O  O38  1  0.28496352  0.71558662  0.81962386  1
  O  O39  1  0.48294877  0.08102191  0.75112131  1
  O  O40  1  0.48402559  0.07834164  0.08313753  1
  O  O41  1  0.48325268  0.07883216  0.41730242  1
  O  O42  1  0.51815369  0.92433314  0.58221016  1
  O  O43  1  0.51666342  0.92705088  0.25018311  1
  O  O44  1  0.51716709  0.92728738  0.91609753  1
  O  O45  1  0.71792577  0.28108565  0.32033150  1
  O  O46  1  0.71777350  0.28130878  0.51267957  1
  O  O47  1  0.71963579  0.28960464  0.65293309  1
  O  O48  1  0.71818701  0.28132094  0.17958903  1
  O  O49  1  0.71824152  0.28171735  0.98729183  1
  O  O50  1  0.71825163  0.28145267  0.84645376  1
  O  O51  1  0.78217859  0.78141474  0.15373203  1
  O  O52  1  0.78188877  0.78167697  0.01302111  1
  O  O53  1  0.78194503  0.78144862  0.34611588  1
  O  O54  1  0.78174514  0.78168844  0.48675419  1
  O  O55  1  0.78222239  0.78171492  0.82059068  1
  O  O56  1  0.78942162  0.78038406  0.68028759  1
  O  O57  1  0.98308638  0.42774114  0.41632095  1
  O  O58  1  0.98300822  0.42734775  0.08361744  1
  O  O59  1  0.98234933  0.42585827  0.74969259  1
