# generated using pymatgen
data_NaCa2Al2P2H5O11F4
_symmetry_space_group_name_H-M   'P 1'
_cell_length_a   9.58467935
_cell_length_b   10.78899110
_cell_length_c   5.53061396
_cell_angle_alpha   90.00000000
_cell_angle_beta   105.55072816
_cell_angle_gamma   90.00000000
_symmetry_Int_Tables_number   1
_chemical_formula_structural   NaCa2Al2P2H5O11F4
_chemical_formula_sum   'Na2 Ca4 Al4 P4 H10 O22 F8'
_cell_volume   550.97953294
_cell_formula_units_Z   2
loop_
 _symmetry_equiv_pos_site_id
 _symmetry_equiv_pos_as_xyz
  1  'x, y, z'
loop_
 _atom_site_type_symbol
 _atom_site_label
 _atom_site_symmetry_multiplicity
 _atom_site_fract_x
 _atom_site_fract_y
 _atom_site_fract_z
 _atom_site_occupancy
  Na  Na0  1  0.68647915  0.25000000  0.20698692  1
  Na  Na1  1  0.31352085  0.75000000  0.79301308  1
  Ca  Ca2  1  0.14342855  0.91592436  0.23839720  1
  Ca  Ca3  1  0.85657145  0.41592436  0.76160280  1
  Ca  Ca4  1  0.85657145  0.08407564  0.76160280  1
  Ca  Ca5  1  0.14342855  0.58407564  0.23839720  1
  Al  Al6  1  0.25806387  0.09460725  0.77153672  1
  Al  Al7  1  0.74193613  0.59460725  0.22846328  1
  Al  Al8  1  0.74193613  0.90539275  0.22846328  1
  Al  Al9  1  0.25806387  0.40539275  0.77153672  1
  P  P10  1  0.04395040  0.25000000  0.37239252  1
  P  P11  1  0.95604960  0.75000000  0.62760748  1
  P  P12  1  0.50863218  0.25000000  0.64166989  1
  P  P13  1  0.49136782  0.75000000  0.35833011  1
  H  H14  1  0.15200275  0.25000000  0.98145480  1
  H  H15  1  0.84799725  0.75000000  0.01854520  1
  H  H16  1  0.43691989  0.51880271  0.17275429  1
  H  H17  1  0.56308011  0.01880271  0.82724571  1
  H  H18  1  0.56308011  0.48119729  0.82724571  1
  H  H19  1  0.43691989  0.98119729  0.17275429  1
  H  H20  1  0.39140987  0.37836494  0.22612356  1
  H  H21  1  0.60859013  0.87836494  0.77387644  1
  H  H22  1  0.60859013  0.62163506  0.77387644  1
  H  H23  1  0.39140987  0.12163506  0.22612356  1
  O  O24  1  0.97208814  0.25000000  0.08728187  1
  O  O25  1  0.02791186  0.75000000  0.91271813  1
  O  O26  1  0.23136241  0.25000000  0.89841704  1
  O  O27  1  0.76863759  0.75000000  0.10158296  1
  O  O28  1  0.67496233  0.25000000  0.76211779  1
  O  O29  1  0.32503767  0.75000000  0.23788221  1
  O  O30  1  0.47036909  0.25000000  0.35412265  1
  O  O31  1  0.52963091  0.75000000  0.64587735  1
  O  O32  1  0.92899224  0.25000000  0.52399108  1
  O  O33  1  0.07100776  0.75000000  0.47600892  1
  O  O34  1  0.35433312  0.45783125  0.13020885  1
  O  O35  1  0.64566688  0.95783125  0.86979115  1
  O  O36  1  0.64566688  0.54216875  0.86979115  1
  O  O37  1  0.35433312  0.04216875  0.13020885  1
  O  O38  1  0.44404218  0.36670080  0.73893257  1
  O  O39  1  0.55595782  0.86670080  0.26106743  1
  O  O40  1  0.55595782  0.63329920  0.26106743  1
  O  O41  1  0.44404218  0.13329920  0.73893257  1
  O  O42  1  0.14365880  0.36768762  0.44273454  1
  O  O43  1  0.85634120  0.86768762  0.55726546  1
  O  O44  1  0.85634120  0.63231238  0.55726546  1
  O  O45  1  0.14365880  0.13231238  0.44273454  1
  F  F46  1  0.09615947  0.46660964  0.85772170  1
  F  F47  1  0.90384053  0.96660964  0.14227830  1
  F  F48  1  0.90384053  0.53339036  0.14227830  1
  F  F49  1  0.09615947  0.03339036  0.85772170  1
  F  F50  1  0.71680821  0.44206088  0.34441867  1
  F  F51  1  0.28319179  0.94206088  0.65558133  1
  F  F52  1  0.28319179  0.55793912  0.65558133  1
  F  F53  1  0.71680821  0.05793912  0.34441867  1
