# generated using pymatgen
data_CaScSi3HO9
_symmetry_space_group_name_H-M   'P 1'
_cell_length_a   7.57107472
_cell_length_b   6.85178565
_cell_length_c   7.13623947
_cell_angle_alpha   87.86864345
_cell_angle_beta   104.38620687
_cell_angle_gamma   86.58455434
_symmetry_Int_Tables_number   1
_chemical_formula_structural   CaScSi3HO9
_chemical_formula_sum   'Ca2 Sc2 Si6 H2 O18'
_cell_volume   357.43216150
_cell_formula_units_Z   2
loop_
 _symmetry_equiv_pos_site_id
 _symmetry_equiv_pos_as_xyz
  1  'x, y, z'
loop_
 _atom_site_type_symbol
 _atom_site_label
 _atom_site_symmetry_multiplicity
 _atom_site_fract_x
 _atom_site_fract_y
 _atom_site_fract_z
 _atom_site_occupancy
  Ca  Ca0  1  0.33298813  0.34515431  0.08792894  1
  Ca  Ca1  1  0.66701187  0.65484569  0.91207106  1
  Sc  Sc2  1  0.35751502  0.35259521  0.59422356  1
  Sc  Sc3  1  0.64248498  0.64740479  0.40577644  1
  Si  Si4  1  0.74343565  0.17502593  0.91016714  1
  Si  Si5  1  0.25656435  0.82497407  0.08983286  1
  Si  Si6  1  0.72335279  0.14260499  0.47608778  1
  Si  Si7  1  0.27664721  0.85739501  0.52391222  1
  Si  Si8  1  0.95572397  0.36828033  0.25988492  1
  Si  Si9  1  0.04427603  0.63171967  0.74011508  1
  H  H10  1  0.69370615  0.96692745  0.15678881  1
  H  H11  1  0.30629385  0.03307255  0.84321119  1
  O  O12  1  0.43516996  0.66749585  0.12594385  1
  O  O13  1  0.56483004  0.33250415  0.87405615  1
  O  O14  1  0.43637403  0.67183110  0.58005679  1
  O  O15  1  0.56362597  0.32816890  0.41994321  1
  O  O16  1  0.18251236  0.43625262  0.75937149  1
  O  O17  1  0.81748764  0.56374738  0.24062851  1
  O  O18  1  0.71112071  0.96916492  0.02067923  1
  O  O19  1  0.28887929  0.03083508  0.97932077  1
  O  O20  1  0.65177670  0.94539694  0.36968826  1
  O  O21  1  0.34822330  0.05460306  0.63031174  1
  O  O22  1  0.17343079  0.39693290  0.32618483  1
  O  O23  1  0.82656921  0.60306710  0.67381517  1
  O  O24  1  0.78740710  0.10334427  0.71160450  1
  O  O25  1  0.21259290  0.89665573  0.28839550  1
  O  O26  1  0.90274228  0.20416537  0.40504946  1
  O  O27  1  0.09725772  0.79583463  0.59495054  1
  O  O28  1  0.91954063  0.28221723  0.03874880  1
  O  O29  1  0.08045937  0.71778277  0.96125120  1
