# generated using pymatgen
data_Fe2(MoO4)3
_symmetry_space_group_name_H-M   'P 1'
_cell_length_a   9.52468837
_cell_length_b   16.18367177
_cell_length_c   16.24305124
_cell_angle_alpha   109.07820291
_cell_angle_beta   90.00000000
_cell_angle_gamma   90.00000000
_symmetry_Int_Tables_number   1
_chemical_formula_structural   Fe2(MoO4)3
_chemical_formula_sum   'Fe16 Mo24 O96'
_cell_volume   2366.25180189
_cell_formula_units_Z   8
loop_
 _symmetry_equiv_pos_site_id
 _symmetry_equiv_pos_as_xyz
  1  'x, y, z'
loop_
 _atom_site_type_symbol
 _atom_site_label
 _atom_site_symmetry_multiplicity
 _atom_site_fract_x
 _atom_site_fract_y
 _atom_site_fract_z
 _atom_site_occupancy
  Fe  Fe0  1  0.96786065  0.68573400  0.56995857  1
  Fe  Fe1  1  0.03124500  0.43457390  0.81509643  1
  Fe  Fe2  1  0.96875054  0.06550311  0.68337667  1
  Fe  Fe3  1  0.46875500  0.93457390  0.81509643  1
  Fe  Fe4  1  0.96563411  0.18129392  0.06057504  1
  Fe  Fe5  1  0.53124500  0.06542610  0.18490357  1
  Fe  Fe6  1  0.53436589  0.68129392  0.06057504  1
  Fe  Fe7  1  0.03436589  0.81870608  0.93942496  1
  Fe  Fe8  1  0.03124946  0.93449689  0.31662333  1
  Fe  Fe9  1  0.96875500  0.56542610  0.18490357  1
  Fe  Fe10  1  0.46563411  0.31870608  0.93942496  1
  Fe  Fe11  1  0.53124946  0.56550311  0.68337667  1
  Fe  Fe12  1  0.03213935  0.31426600  0.43004143  1
  Fe  Fe13  1  0.53213935  0.18573400  0.56995857  1
  Fe  Fe14  1  0.46875054  0.43449689  0.31662333  1
  Fe  Fe15  1  0.46786065  0.81426600  0.43004143  1
  Mo  Mo16  1  0.74646960  0.98462858  0.98213208  1
  Mo  Mo17  1  0.61920324  0.12796402  0.77186707  1
  Mo  Mo18  1  0.61452455  0.76789163  0.61987528  1
  Mo  Mo19  1  0.61011387  0.62196146  0.26421827  1
  Mo  Mo20  1  0.24646960  0.51537142  0.01786792  1
  Mo  Mo21  1  0.75353040  0.48462858  0.98213208  1
  Mo  Mo22  1  0.25430076  0.01048483  0.51317782  1
  Mo  Mo23  1  0.38014823  0.72940875  0.87376722  1
  Mo  Mo24  1  0.38079676  0.87203598  0.22813293  1
  Mo  Mo25  1  0.38988613  0.37803854  0.73578173  1
  Mo  Mo26  1  0.61985177  0.27059125  0.12623278  1
  Mo  Mo27  1  0.11985177  0.22940875  0.87376722  1
  Mo  Mo28  1  0.11011387  0.87803854  0.73578173  1
  Mo  Mo29  1  0.88988613  0.12196146  0.26421827  1
  Mo  Mo30  1  0.75430076  0.48951517  0.48682218  1
  Mo  Mo31  1  0.11452455  0.73210837  0.38012472  1
  Mo  Mo32  1  0.88547545  0.26789163  0.61987528  1
  Mo  Mo33  1  0.11920324  0.37203598  0.22813293  1
  Mo  Mo34  1  0.25353040  0.01537142  0.01786792  1
  Mo  Mo35  1  0.24569924  0.51048483  0.51317782  1
  Mo  Mo36  1  0.38547545  0.23210837  0.38012472  1
  Mo  Mo37  1  0.74569924  0.98951517  0.48682218  1
  Mo  Mo38  1  0.88079676  0.62796402  0.77186707  1
  Mo  Mo39  1  0.88014823  0.77059125  0.12623278  1
  O  O40  1  0.93751069  0.13533071  0.16261027  1
  O  O41  1  0.57125652  0.86562534  0.70632294  1
  O  O42  1  0.63719874  0.46278394  0.39564440  1
  O  O43  1  0.51882365  0.76595590  0.52400615  1
  O  O44  1  0.62052606  0.40689602  0.98381137  1
  O  O45  1  0.67585807  0.58838025  0.99120797  1
  O  O46  1  0.36926189  0.00318894  0.92754111  1
  O  O47  1  0.50398103  0.45665996  0.71445078  1
  O  O48  1  0.69848546  0.26673519  0.60425640  1
  O  O49  1  0.56248931  0.63533071  0.16261027  1
  O  O50  1  0.99163922  0.77386081  0.03806499  1
  O  O51  1  0.19848546  0.23326481  0.39574360  1
  O  O52  1  0.86280126  0.96278394  0.39564440  1
  O  O53  1  0.56481851  0.67507425  0.64995907  1
  O  O54  1  0.09566531  0.13273929  0.78177288  1
  O  O55  1  0.33520386  0.90749902  0.50394329  1
  O  O56  1  0.92874348  0.36562534  0.70632294  1
  O  O57  1  0.65898980  0.49961799  0.58491795  1
  O  O58  1  0.17585807  0.91161975  0.00879203  1
  O  O59  1  0.83520386  0.59250098  0.49605671  1
  O  O60  1  0.51152333  0.04460963  0.78999467  1
  O  O61  1  0.15898980  0.00038201  0.41508205  1
  O  O62  1  0.71195144  0.08395668  0.25498934  1
  O  O63  1  0.92470478  0.67655488  0.15532629  1
  O  O64  1  0.49601897  0.54334004  0.28554922  1
  O  O65  1  0.00398103  0.04334004  0.28554922  1
  O  O66  1  0.32414193  0.41161975  0.00879203  1
  O  O67  1  0.82414193  0.08838025  0.99120797  1
  O  O68  1  0.86926189  0.49681106  0.07245889  1
  O  O69  1  0.38079862  0.09548151  0.52802662  1
  O  O70  1  0.13719874  0.03721606  0.60435560  1
  O  O71  1  0.80151454  0.76673519  0.60425640  1
  O  O72  1  0.36280126  0.53721606  0.60435560  1
  O  O73  1  0.93134980  0.63990929  0.67048424  1
  O  O74  1  0.40433469  0.63273929  0.78177288  1
  O  O75  1  0.69874099  0.59824630  0.76497478  1
  O  O76  1  0.43134980  0.86009071  0.32951576  1
  O  O77  1  0.43751069  0.36466929  0.83738973  1
  O  O78  1  0.06248931  0.86466929  0.83738973  1
  O  O79  1  0.40263212  0.27476200  0.65020963  1
  O  O80  1  0.11920138  0.59548151  0.52802662  1
  O  O81  1  0.42470478  0.82344512  0.84467371  1
  O  O82  1  0.99601897  0.95665996  0.71445078  1
  O  O83  1  0.84820340  0.44600679  0.88156801  1
  O  O84  1  0.06865020  0.36009071  0.32951576  1
  O  O85  1  0.15179660  0.55399321  0.11843199  1
  O  O86  1  0.30125901  0.40175370  0.23502522  1
  O  O87  1  0.84101020  0.99961799  0.58491795  1
  O  O88  1  0.42874348  0.13437466  0.29367706  1
  O  O89  1  0.78804856  0.58395668  0.25498934  1
  O  O90  1  0.34101020  0.50038201  0.41508205  1
  O  O91  1  0.30222250  0.23449419  0.90319132  1
  O  O92  1  0.19874099  0.90175370  0.23502522  1
  O  O93  1  0.28804856  0.91604332  0.74501066  1
  O  O94  1  0.06481851  0.82492575  0.35004093  1
  O  O95  1  0.66479614  0.09250098  0.49605671  1
  O  O96  1  0.69777750  0.76550581  0.09680868  1
  O  O97  1  0.34820340  0.05399321  0.11843199  1
  O  O98  1  0.16479614  0.40749902  0.50394329  1
  O  O99  1  0.09736788  0.77476200  0.65020963  1
  O  O100  1  0.88079862  0.40451849  0.47197338  1
  O  O101  1  0.87947394  0.90689602  0.98381137  1
  O  O102  1  0.48117635  0.23404410  0.47599385  1
  O  O103  1  0.21195144  0.41604332  0.74501066  1
  O  O104  1  0.59736788  0.72523800  0.34979037  1
  O  O105  1  0.98117635  0.26595590  0.52400615  1
  O  O106  1  0.50836078  0.27386081  0.03806499  1
  O  O107  1  0.63073811  0.99681106  0.07245889  1
  O  O108  1  0.07125652  0.63437466  0.29367706  1
  O  O109  1  0.19777750  0.73449419  0.90319132  1
  O  O110  1  0.30151454  0.73326481  0.39574360  1
  O  O111  1  0.01152333  0.45539037  0.21000533  1
  O  O112  1  0.56865020  0.13990929  0.67048424  1
  O  O113  1  0.90433469  0.86726071  0.21822712  1
  O  O114  1  0.12052606  0.09310398  0.01618863  1
  O  O115  1  0.93518149  0.17507425  0.64995907  1
  O  O116  1  0.49163922  0.72613919  0.96193501  1
  O  O117  1  0.59659246  0.22920852  0.85937107  1
  O  O118  1  0.59566531  0.36726071  0.21822712  1
  O  O119  1  0.90340754  0.72920852  0.85937107  1
  O  O120  1  0.80222250  0.26550581  0.09680868  1
  O  O121  1  0.61920138  0.90451849  0.47197338  1
  O  O122  1  0.07529522  0.32344512  0.84467371  1
  O  O123  1  0.13073811  0.50318894  0.92754111  1
  O  O124  1  0.00836078  0.22613919  0.96193501  1
  O  O125  1  0.57529522  0.17655488  0.15532629  1
  O  O126  1  0.01882365  0.73404410  0.47599385  1
  O  O127  1  0.48847667  0.95539037  0.21000533  1
  O  O128  1  0.43518149  0.32492575  0.35004093  1
  O  O129  1  0.37947394  0.59310398  0.01618863  1
  O  O130  1  0.80125901  0.09824630  0.76497478  1
  O  O131  1  0.90263212  0.22523800  0.34979037  1
  O  O132  1  0.65179660  0.94600679  0.88156801  1
  O  O133  1  0.98847667  0.54460963  0.78999467  1
  O  O134  1  0.40340754  0.77079148  0.14062893  1
  O  O135  1  0.09659246  0.27079148  0.14062893  1
