# generated using pymatgen
data_K3P4H5O14
_symmetry_space_group_name_H-M   'P 1'
_cell_length_a   9.83100933
_cell_length_b   9.83100933
_cell_length_c   11.11375954
_cell_angle_alpha   55.78784253
_cell_angle_beta   124.21215747
_cell_angle_gamma   125.23240222
_symmetry_Int_Tables_number   1
_chemical_formula_structural   K3P4H5O14
_chemical_formula_sum   'K6 P8 H10 O28'
_cell_volume   679.06474433
_cell_formula_units_Z   2
loop_
 _symmetry_equiv_pos_site_id
 _symmetry_equiv_pos_as_xyz
  1  'x, y, z'
loop_
 _atom_site_type_symbol
 _atom_site_label
 _atom_site_symmetry_multiplicity
 _atom_site_fract_x
 _atom_site_fract_y
 _atom_site_fract_z
 _atom_site_occupancy
  K  K0  1  0.56119028  0.56119028  0.75000000  1
  K  K1  1  0.43880972  0.43880972  0.25000000  1
  K  K2  1  0.79178159  0.09537454  0.61574277  1
  K  K3  1  0.09537454  0.79178159  0.88425723  1
  K  K4  1  0.20821841  0.90462546  0.38425723  1
  K  K5  1  0.90462546  0.20821841  0.11574277  1
  P  P6  1  0.12649947  0.48502467  0.80709075  1
  P  P7  1  0.48502467  0.12649947  0.69290925  1
  P  P8  1  0.87350053  0.51497533  0.19290925  1
  P  P9  1  0.51497533  0.87350053  0.30709075  1
  P  P10  1  0.27077348  0.20750143  0.98394920  1
  P  P11  1  0.20750143  0.27077348  0.51605080  1
  P  P12  1  0.72922652  0.79249857  0.01605080  1
  P  P13  1  0.79249857  0.72922652  0.48394920  1
  H  H14  1  0.00000000  0.00000000  0.00000000  1
  H  H15  1  0.00000000  0.00000000  0.50000000  1
  H  H16  1  0.49299312  0.14974582  0.05172332  1
  H  H17  1  0.14974582  0.49299312  0.44827668  1
  H  H18  1  0.50700688  0.85025418  0.94827668  1
  H  H19  1  0.85025418  0.50700688  0.55172332  1
  H  H20  1  0.27324532  0.77687376  0.73081320  1
  H  H21  1  0.77687376  0.27324532  0.76918680  1
  H  H22  1  0.72675468  0.22312624  0.26918680  1
  H  H23  1  0.22312624  0.72675468  0.23081320  1
  O  O24  1  0.14088923  0.49298339  0.94500966  1
  O  O25  1  0.49298339  0.14088923  0.55499034  1
  O  O26  1  0.85911077  0.50701661  0.05499034  1
  O  O27  1  0.50701661  0.85911077  0.44500966  1
  O  O28  1  0.19927713  0.67684109  0.68773431  1
  O  O29  1  0.67684109  0.19927713  0.81226569  1
  O  O30  1  0.80072287  0.32315891  0.31226569  1
  O  O31  1  0.32315891  0.80072287  0.18773431  1
  O  O32  1  0.94378283  0.38100519  0.71196950  1
  O  O33  1  0.38100519  0.94378283  0.78803050  1
  O  O34  1  0.05621717  0.61899481  0.28803050  1
  O  O35  1  0.61899481  0.05621717  0.21196950  1
  O  O36  1  0.26614982  0.40331654  0.86108648  1
  O  O37  1  0.40331654  0.26614982  0.63891352  1
  O  O38  1  0.73385018  0.59668346  0.13891352  1
  O  O39  1  0.59668346  0.73385018  0.36108648  1
  O  O40  1  0.08897137  0.06787608  0.92272641  1
  O  O41  1  0.06787608  0.08897137  0.57727359  1
  O  O42  1  0.91102863  0.93212392  0.07727359  1
  O  O43  1  0.93212392  0.91102863  0.42272641  1
  O  O44  1  0.32297739  0.18694178  0.14676824  1
  O  O45  1  0.18694178  0.32297739  0.35323176  1
  O  O46  1  0.67702261  0.81305822  0.85323176  1
  O  O47  1  0.81305822  0.67702261  0.64676824  1
  O  O48  1  0.41441894  0.21577063  0.95316206  1
  O  O49  1  0.21577063  0.41441894  0.54683794  1
  O  O50  1  0.58558106  0.78422937  0.04683794  1
  O  O51  1  0.78422937  0.58558106  0.45316206  1
