# generated using pymatgen
data_VBi(PbO3)2
_symmetry_space_group_name_H-M   'P 1'
_cell_length_a   5.83773748
_cell_length_b   7.88814209
_cell_length_c   30.14185754
_cell_angle_alpha   94.91859783
_cell_angle_beta   90.00000000
_cell_angle_gamma   90.00000000
_symmetry_Int_Tables_number   1
_chemical_formula_structural   VBi(PbO3)2
_chemical_formula_sum   'V8 Bi8 Pb16 O48'
_cell_volume   1382.88818228
_cell_formula_units_Z   8
loop_
 _symmetry_equiv_pos_site_id
 _symmetry_equiv_pos_as_xyz
  1  'x, y, z'
loop_
 _atom_site_type_symbol
 _atom_site_label
 _atom_site_symmetry_multiplicity
 _atom_site_fract_x
 _atom_site_fract_y
 _atom_site_fract_z
 _atom_site_occupancy
  V  V0  1  0.49673618  0.15843812  0.64243975  1
  V  V1  1  0.97260896  0.82779726  0.99774031  1
  V  V2  1  0.50880859  0.47084220  0.90015119  1
  V  V3  1  0.04270219  0.14832032  0.25904017  1
  V  V4  1  0.95729781  0.64832032  0.75904017  1
  V  V5  1  0.49119141  0.97084220  0.40015119  1
  V  V6  1  0.50326382  0.65843812  0.14243975  1
  V  V7  1  0.02739104  0.32779726  0.49774031  1
  Bi  Bi8  1  0.99785796  0.68162402  0.34185866  1
  Bi  Bi9  1  0.51404815  0.62091697  0.55907969  1
  Bi  Bi10  1  0.00214204  0.18162402  0.84185866  1
  Bi  Bi11  1  0.50383206  0.43128909  0.30018395  1
  Bi  Bi12  1  0.01495315  0.87438064  0.59741812  1
  Bi  Bi13  1  0.49616794  0.93128909  0.80018395  1
  Bi  Bi14  1  0.48595185  0.12091697  0.05907969  1
  Bi  Bi15  1  0.98504685  0.37438064  0.09741812  1
  Pb  Pb16  1  0.50046637  0.97763636  0.92403904  1
  Pb  Pb17  1  0.54447284  0.06900045  0.52768356  1
  Pb  Pb18  1  0.95266649  0.11098009  0.72259312  1
  Pb  Pb19  1  0.45691398  0.39527528  0.77448182  1
  Pb  Pb20  1  0.04733351  0.61098009  0.22259312  1
  Pb  Pb21  1  0.00760794  0.73445207  0.87155568  1
  Pb  Pb22  1  0.49953363  0.47763636  0.42403904  1
  Pb  Pb23  1  0.51316597  0.19127302  0.17902561  1
  Pb  Pb24  1  0.97611977  0.41178689  0.62502695  1
  Pb  Pb25  1  0.48683403  0.69127302  0.67902561  1
  Pb  Pb26  1  0.98771525  0.31813694  0.97503580  1
  Pb  Pb27  1  0.02388023  0.91178689  0.12502695  1
  Pb  Pb28  1  0.45552716  0.56900045  0.02768356  1
  Pb  Pb29  1  0.01228475  0.81813694  0.47503580  1
  Pb  Pb30  1  0.54308602  0.89527528  0.27448182  1
  Pb  Pb31  1  0.99239206  0.23445207  0.37155568  1
  O  O32  1  0.68183064  0.87355197  0.99952805  1
  O  O33  1  0.77474374  0.82026419  0.53960690  1
  O  O34  1  0.99918814  0.47065630  0.72261761  1
  O  O35  1  0.27090490  0.67349413  0.28556648  1
  O  O36  1  0.98840647  0.10684459  0.49844166  1
  O  O37  1  0.64004614  0.89345119  0.35167681  1
  O  O38  1  0.25487289  0.16328849  0.60808296  1
  O  O39  1  0.01159353  0.60684459  0.99844166  1
  O  O40  1  0.27974644  0.83449498  0.54110206  1
  O  O41  1  0.73001645  0.12095657  0.60504321  1
  O  O42  1  0.20962974  0.69506311  0.78947934  1
  O  O43  1  0.14051530  0.32389763  0.23201581  1
  O  O44  1  0.75354339  0.14508346  0.11576883  1
  O  O45  1  0.74512711  0.66328849  0.10808296  1
  O  O46  1  0.00081186  0.97065630  0.22261761  1
  O  O47  1  0.31816936  0.37355197  0.49952805  1
  O  O48  1  0.62832602  0.90539278  0.44745634  1
  O  O49  1  0.46512285  0.19272999  0.40256779  1
  O  O50  1  0.73273415  0.68026550  0.62022870  1
  O  O51  1  0.22820807  0.46523573  0.35708752  1
  O  O52  1  0.54206455  0.35403522  0.67157360  1
  O  O53  1  0.79037026  0.19506311  0.28947934  1
  O  O54  1  0.45793545  0.85403522  0.17157360  1
  O  O55  1  0.26726585  0.18026550  0.12022870  1
  O  O56  1  0.21632888  0.88625731  0.39913174  1
  O  O57  1  0.22525626  0.32026419  0.03960690  1
  O  O58  1  0.53241627  0.49777576  0.17834920  1
  O  O59  1  0.08782426  0.90113011  0.94872461  1
  O  O60  1  0.72025356  0.33449498  0.04110206  1
  O  O61  1  0.89657635  0.43030625  0.54513126  1
  O  O62  1  0.77179193  0.96523573  0.85708752  1
  O  O63  1  0.72909510  0.17349413  0.78556648  1
  O  O64  1  0.91217574  0.40113011  0.44872461  1
  O  O65  1  0.27063474  0.97657558  0.85951383  1
  O  O66  1  0.37167398  0.40539278  0.94745634  1
  O  O67  1  0.26998355  0.62095657  0.10504321  1
  O  O68  1  0.10342365  0.93030625  0.04513126  1
  O  O69  1  0.74998130  0.61044053  0.79942867  1
  O  O70  1  0.53487715  0.69272999  0.90256779  1
  O  O71  1  0.78280665  0.62012891  0.27931361  1
  O  O72  1  0.72936526  0.47657558  0.35951383  1
  O  O73  1  0.46758373  0.99777576  0.67834920  1
  O  O74  1  0.24645661  0.64508346  0.61576883  1
  O  O75  1  0.78367112  0.38625731  0.89913174  1
  O  O76  1  0.85948470  0.82389763  0.73201581  1
  O  O77  1  0.21719335  0.12012891  0.77931361  1
  O  O78  1  0.25001870  0.11044053  0.29942867  1
  O  O79  1  0.35995386  0.39345119  0.85167681  1
