# generated using pymatgen
data_RbNaCr2O7
_symmetry_space_group_name_H-M   'P 1'
_cell_length_a   10.13066794
_cell_length_b   11.23381103
_cell_length_c   13.12205995
_cell_angle_alpha   90.00000000
_cell_angle_beta   93.49768994
_cell_angle_gamma   90.00000000
_symmetry_Int_Tables_number   1
_chemical_formula_structural   RbNaCr2O7
_chemical_formula_sum   'Rb8 Na8 Cr16 O56'
_cell_volume   1490.58751619
_cell_formula_units_Z   8
loop_
 _symmetry_equiv_pos_site_id
 _symmetry_equiv_pos_as_xyz
  1  'x, y, z'
loop_
 _atom_site_type_symbol
 _atom_site_label
 _atom_site_symmetry_multiplicity
 _atom_site_fract_x
 _atom_site_fract_y
 _atom_site_fract_z
 _atom_site_occupancy
  Rb  Rb0  1  0.41376068  0.18402374  0.85129546  1
  Rb  Rb1  1  0.08623932  0.68402374  0.14870454  1
  Rb  Rb2  1  0.26115264  0.99135091  0.41697052  1
  Rb  Rb3  1  0.73884736  0.00864909  0.58302948  1
  Rb  Rb4  1  0.76115264  0.50864909  0.41697052  1
  Rb  Rb5  1  0.23884736  0.49135091  0.58302948  1
  Rb  Rb6  1  0.91376068  0.31597626  0.85129546  1
  Rb  Rb7  1  0.58623932  0.81597626  0.14870454  1
  Na  Na8  1  0.01602134  0.07631082  0.15213884  1
  Na  Na9  1  0.67916860  0.15622015  0.28193336  1
  Na  Na10  1  0.17916860  0.34377985  0.28193336  1
  Na  Na11  1  0.32083140  0.84377985  0.71806664  1
  Na  Na12  1  0.51602134  0.42368918  0.15213884  1
  Na  Na13  1  0.48397866  0.57631082  0.84786116  1
  Na  Na14  1  0.98397866  0.92368918  0.84786116  1
  Na  Na15  1  0.82083140  0.65622015  0.71806664  1
  Cr  Cr16  1  0.38608847  0.10374634  0.15793114  1
  Cr  Cr17  1  0.10917040  0.13555088  0.66414260  1
  Cr  Cr18  1  0.61391153  0.89625366  0.84206886  1
  Cr  Cr19  1  0.46907179  0.26960733  0.43943900  1
  Cr  Cr20  1  0.96907179  0.23039267  0.43943900  1
  Cr  Cr21  1  0.03092821  0.76960733  0.56056100  1
  Cr  Cr22  1  0.39082960  0.63555088  0.33585740  1
  Cr  Cr23  1  0.89082960  0.86444912  0.33585740  1
  Cr  Cr24  1  0.88608847  0.39625366  0.15793114  1
  Cr  Cr25  1  0.25410944  0.90405434  0.99661001  1
  Cr  Cr26  1  0.75410944  0.59594566  0.99661001  1
  Cr  Cr27  1  0.24589056  0.40405434  0.00338999  1
  Cr  Cr28  1  0.11391153  0.60374634  0.84206886  1
  Cr  Cr29  1  0.53092821  0.73039267  0.56056100  1
  Cr  Cr30  1  0.60917040  0.36444912  0.66414260  1
  Cr  Cr31  1  0.74589056  0.09594566  0.00338999  1
  O  O32  1  0.52204676  0.13441596  0.45904852  1
  O  O33  1  0.69301653  0.72845842  0.56390251  1
  O  O34  1  0.99576522  0.09405195  0.74122383  1
  O  O35  1  0.73296299  0.45780190  0.66755574  1
  O  O36  1  0.30698347  0.27154158  0.43609749  1
  O  O37  1  0.23879586  0.91867091  0.87187155  1
  O  O38  1  0.47194933  0.02552067  0.24369311  1
  O  O39  1  0.49576522  0.40594805  0.74122383  1
  O  O40  1  0.33931911  0.76860395  0.30371305  1
  O  O41  1  0.63581733  0.98153764  0.95682953  1
  O  O42  1  0.39011558  0.42178133  0.95584262  1
  O  O43  1  0.47994551  0.67958265  0.66854344  1
  O  O44  1  0.18517727  0.27521249  0.96828489  1
  O  O45  1  0.26703701  0.54219810  0.33244426  1
  O  O46  1  0.80698347  0.22845842  0.43609749  1
  O  O47  1  0.02805067  0.52552067  0.75630689  1
  O  O48  1  0.53567726  0.36707731  0.53692763  1
  O  O49  1  0.25615568  0.63971373  0.79741035  1
  O  O50  1  0.76703701  0.95780190  0.33244426  1
  O  O51  1  0.46432274  0.63292269  0.46307237  1
  O  O52  1  0.47078780  0.22059458  0.12868257  1
  O  O53  1  0.68517727  0.22478751  0.96828489  1
  O  O54  1  0.24384432  0.13971373  0.20258965  1
  O  O55  1  0.86418267  0.48153764  0.04317047  1
  O  O56  1  0.03567726  0.13292269  0.53692763  1
  O  O57  1  0.19301653  0.77154158  0.56390251  1
  O  O58  1  0.76120414  0.08132909  0.12812845  1
  O  O59  1  0.00423478  0.90594805  0.25877617  1
  O  O60  1  0.16068089  0.26860395  0.69628695  1
  O  O61  1  0.97194933  0.47447933  0.24369311  1
  O  O62  1  0.50423478  0.59405195  0.25877617  1
  O  O63  1  0.81482273  0.72478751  0.03171511  1
  O  O64  1  0.23296299  0.04219810  0.66755574  1
  O  O65  1  0.97994551  0.82041735  0.66854344  1
  O  O66  1  0.36418267  0.01846236  0.04317047  1
  O  O67  1  0.96432274  0.86707731  0.46307237  1
  O  O68  1  0.97795324  0.63441596  0.54095148  1
  O  O69  1  0.75615568  0.86028627  0.79741035  1
  O  O70  1  0.60988442  0.57821867  0.04415738  1
  O  O71  1  0.52921220  0.77940542  0.87131743  1
  O  O72  1  0.89011558  0.07821867  0.95584262  1
  O  O73  1  0.10988442  0.92178133  0.04415738  1
  O  O74  1  0.47795324  0.86558404  0.54095148  1
  O  O75  1  0.66068089  0.23139605  0.69628695  1
  O  O76  1  0.02921220  0.72059458  0.87131743  1
  O  O77  1  0.73879586  0.58132909  0.87187155  1
  O  O78  1  0.97078780  0.27940542  0.12868257  1
  O  O79  1  0.74384432  0.36028627  0.20258965  1
  O  O80  1  0.13581733  0.51846236  0.95682953  1
  O  O81  1  0.31482273  0.77521249  0.03171511  1
  O  O82  1  0.02204676  0.36558404  0.45904852  1
  O  O83  1  0.52805067  0.97447933  0.75630689  1
  O  O84  1  0.02005449  0.17958265  0.33145656  1
  O  O85  1  0.26120414  0.41867091  0.12812845  1
  O  O86  1  0.83931911  0.73139605  0.30371305  1
  O  O87  1  0.52005449  0.32041735  0.33145656  1
