# generated using pymatgen
data_FeH20S2(NO7)2
_symmetry_space_group_name_H-M   'P 1'
_cell_length_a   6.38034544
_cell_length_b   9.34703078
_cell_length_c   12.57118238
_cell_angle_alpha   90.00000000
_cell_angle_beta   90.00000000
_cell_angle_gamma   106.62227622
_symmetry_Int_Tables_number   1
_chemical_formula_structural   FeH20S2(NO7)2
_chemical_formula_sum   'Fe2 H40 S4 N4 O28'
_cell_volume   718.38182926
_cell_formula_units_Z   2
loop_
 _symmetry_equiv_pos_site_id
 _symmetry_equiv_pos_as_xyz
  1  'x, y, z'
loop_
 _atom_site_type_symbol
 _atom_site_label
 _atom_site_symmetry_multiplicity
 _atom_site_fract_x
 _atom_site_fract_y
 _atom_site_fract_z
 _atom_site_occupancy
  Fe  Fe0  1  0.00000000  0.00000000  0.00000000  1
  Fe  Fe1  1  0.00000000  0.50000000  0.50000000  1
  S  S2  1  0.74095384  0.40843448  0.13513812  1
  S  S3  1  0.25904616  0.09156552  0.63513812  1
  S  S4  1  0.25904616  0.59156552  0.86486188  1
  S  S5  1  0.74095384  0.90843448  0.36486188  1
  O  O6  1  0.59162076  0.40835905  0.22772695  1
  O  O7  1  0.40837924  0.09164095  0.72772695  1
  O  O8  1  0.40837924  0.59164095  0.77227305  1
  O  O9  1  0.59162076  0.90835905  0.27227305  1
  O  O10  1  0.78315364  0.55058681  0.07644521  1
  O  O11  1  0.21684636  0.94941319  0.57644521  1
  O  O12  1  0.21684636  0.44941319  0.92355479  1
  O  O13  1  0.78315364  0.05058681  0.42355479  1
  O  O14  1  0.62582036  0.28207572  0.06256035  1
  O  O15  1  0.37417964  0.21792428  0.56256035  1
  O  O16  1  0.37417964  0.71792428  0.93743965  1
  O  O17  1  0.62582036  0.78207572  0.43743965  1
  O  O18  1  0.95035692  0.38448134  0.17447243  1
  O  O19  1  0.04964308  0.11551866  0.67447243  1
  O  O20  1  0.04964308  0.61551866  0.82552757  1
  O  O21  1  0.95035692  0.88448134  0.32552757  1
  O  O22  1  0.17873044  0.17547025  0.10924336  1
  O  O23  1  0.82126956  0.32452975  0.60924336  1
  O  O24  1  0.82126956  0.82452975  0.89075664  1
  O  O25  1  0.17873044  0.67547025  0.39075664  1
  O  O26  1  0.02565923  0.83359618  0.11545458  1
  O  O27  1  0.97434077  0.66640382  0.61545458  1
  O  O28  1  0.97434077  0.16640382  0.88454542  1
  O  O29  1  0.02565923  0.33359618  0.38454542  1
  O  O30  1  0.29517887  0.99087378  0.92841108  1
  O  O31  1  0.70482113  0.50912622  0.42841108  1
  O  O32  1  0.70482113  0.00912622  0.07158892  1
  O  O33  1  0.29517887  0.49087378  0.57158892  1
  N  N34  1  0.35748593  0.13045959  0.34406081  1
  N  N35  1  0.64251407  0.36954041  0.84406081  1
  N  N36  1  0.64251407  0.86954041  0.65593919  1
  N  N37  1  0.35748593  0.63045959  0.15593919  1
  H  H38  1  0.20064829  0.06461619  0.32698446  1
  H  H39  1  0.79935171  0.43538381  0.82698446  1
  H  H40  1  0.79935171  0.93538381  0.67301554  1
  H  H41  1  0.20064829  0.56461619  0.17301554  1
  H  H42  1  0.40381159  0.22278842  0.29460621  1
  H  H43  1  0.59618841  0.27721158  0.79460621  1
  H  H44  1  0.59618841  0.77721158  0.70539379  1
  H  H45  1  0.40381159  0.72278842  0.20539379  1
  H  H46  1  0.46290313  0.06580998  0.33225816  1
  H  H47  1  0.53709687  0.43419002  0.83225816  1
  H  H48  1  0.53709687  0.93419002  0.66774184  1
  H  H49  1  0.46290313  0.56580998  0.16774184  1
  H  H50  1  0.36391312  0.16451176  0.42353274  1
  H  H51  1  0.63608688  0.33548824  0.92353274  1
  H  H52  1  0.63608688  0.83548824  0.57646726  1
  H  H53  1  0.36391312  0.66451176  0.07646726  1
  H  H54  1  0.33260123  0.22442530  0.08884638  1
  H  H55  1  0.66739877  0.27557470  0.58884638  1
  H  H56  1  0.66739877  0.77557470  0.91115362  1
  H  H57  1  0.33260123  0.72442530  0.41115362  1
  H  H58  1  0.10604610  0.25401821  0.12176883  1
  H  H59  1  0.89395390  0.24598179  0.62176883  1
  H  H60  1  0.89395390  0.74598179  0.87823117  1
  H  H61  1  0.10604610  0.75401821  0.37823117  1
  H  H62  1  0.93900855  0.72880243  0.10081890  1
  H  H63  1  0.06099145  0.77119757  0.60081890  1
  H  H64  1  0.06099145  0.27119757  0.89918110  1
  H  H65  1  0.93900855  0.22880243  0.39918110  1
  H  H66  1  0.99309198  0.85358927  0.19016111  1
  H  H67  1  0.00690802  0.64641073  0.69016111  1
  H  H68  1  0.00690802  0.14641073  0.80983889  1
  H  H69  1  0.99309198  0.35358927  0.30983889  1
  H  H70  1  0.33043491  0.89460776  0.93566884  1
  H  H71  1  0.66956509  0.60539224  0.43566884  1
  H  H72  1  0.66956509  0.10539224  0.06433116  1
  H  H73  1  0.33043491  0.39460776  0.56433116  1
  H  H74  1  0.32589743  0.02344653  0.85341710  1
  H  H75  1  0.67410257  0.47655347  0.35341710  1
  H  H76  1  0.67410257  0.97655347  0.14658290  1
  H  H77  1  0.32589743  0.52344653  0.64658290  1
