# generated using pymatgen
data_Zn2PHO5
_symmetry_space_group_name_H-M   'P 1'
_cell_length_a   5.61130357
_cell_length_b   5.75758085
_cell_length_c   6.58621067
_cell_angle_alpha   102.06989321
_cell_angle_beta   102.33331327
_cell_angle_gamma   87.34296684
_symmetry_Int_Tables_number   1
_chemical_formula_structural   Zn2PHO5
_chemical_formula_sum   'Zn4 P2 H2 O10'
_cell_volume   203.27776753
_cell_formula_units_Z   2
loop_
 _symmetry_equiv_pos_site_id
 _symmetry_equiv_pos_as_xyz
  1  'x, y, z'
loop_
 _atom_site_type_symbol
 _atom_site_label
 _atom_site_symmetry_multiplicity
 _atom_site_fract_x
 _atom_site_fract_y
 _atom_site_fract_z
 _atom_site_occupancy
  Zn  Zn0  1  0.61303044  0.74905539  0.50009010  1
  Zn  Zn1  1  0.38696956  0.25094461  0.49990990  1
  Zn  Zn2  1  0.97186718  0.25990113  0.81169455  1
  Zn  Zn3  1  0.02813282  0.74009887  0.18830545  1
  P  P4  1  0.16296505  0.74926871  0.72328781  1
  P  P5  1  0.83703495  0.25073129  0.27671219  1
  H  H6  1  0.57085974  0.07995637  0.82047487  1
  H  H7  1  0.42914026  0.92004363  0.17952513  1
  O  O8  1  0.22434190  0.00534147  0.84722861  1
  O  O9  1  0.77565810  0.99465853  0.15277139  1
  O  O10  1  0.05820242  0.61074286  0.86542122  1
  O  O11  1  0.94179758  0.38925714  0.13457878  1
  O  O12  1  0.39881204  0.62082978  0.66537235  1
  O  O13  1  0.60118796  0.37917022  0.33462765  1
  O  O14  1  0.02946370  0.24897936  0.48671914  1
  O  O15  1  0.97053630  0.75102064  0.51328086  1
  O  O16  1  0.64220920  0.10334287  0.70217810  1
  O  O17  1  0.35779080  0.89665713  0.29782190  1
