# generated using pymatgen
data_Na2Si(H5O4)2
_symmetry_space_group_name_H-M   'P 1'
_cell_length_a   7.95514343
_cell_length_b   9.60819528
_cell_length_c   6.67757970
_cell_angle_alpha   70.12461922
_cell_angle_beta   104.82412725
_cell_angle_gamma   122.54839917
_symmetry_Int_Tables_number   1
_chemical_formula_structural   Na2Si(H5O4)2
_chemical_formula_sum   'Na4 Si2 H20 O16'
_cell_volume   402.88983582
_cell_formula_units_Z   2
loop_
 _symmetry_equiv_pos_site_id
 _symmetry_equiv_pos_as_xyz
  1  'x, y, z'
loop_
 _atom_site_type_symbol
 _atom_site_label
 _atom_site_symmetry_multiplicity
 _atom_site_fract_x
 _atom_site_fract_y
 _atom_site_fract_z
 _atom_site_occupancy
  Na  Na0  1  0.39192482  0.84935674  0.81346203  1
  Na  Na1  1  0.60807518  0.15064326  0.18653797  1
  Na  Na2  1  0.34857335  0.66176083  0.36865802  1
  Na  Na3  1  0.65142665  0.33823917  0.63134198  1
  Si  Si4  1  0.73112035  0.76685937  0.02974183  1
  Si  Si5  1  0.26887965  0.23314063  0.97025817  1
  H  H6  1  0.01748987  0.93805082  0.21652956  1
  H  H7  1  0.98251013  0.06194918  0.78347044  1
  H  H8  1  0.40691430  0.54335498  0.07838811  1
  H  H9  1  0.59308570  0.45664502  0.92161189  1
  H  H10  1  0.20160653  0.51146515  0.79063322  1
  H  H11  1  0.79839347  0.48853485  0.20936678  1
  H  H12  1  0.07875459  0.60625047  0.65271520  1
  H  H13  1  0.92124541  0.39374953  0.34728480  1
  H  H14  1  0.84354770  0.65229111  0.75185567  1
  H  H15  1  0.15645230  0.34770889  0.24814433  1
  H  H16  1  0.86789379  0.71167833  0.49691086  1
  H  H17  1  0.13210621  0.28832167  0.50308914  1
  H  H18  1  0.68981172  0.92046541  0.57345188  1
  H  H19  1  0.31018828  0.07953459  0.42654812  1
  H  H20  1  0.74315433  0.91243136  0.36235570  1
  H  H21  1  0.25684567  0.08756864  0.63764430  1
  H  H22  1  0.22637420  0.90639998  0.11266806  1
  H  H23  1  0.77362580  0.09360002  0.88733194  1
  H  H24  1  0.06063269  0.73918445  0.04192697  1
  H  H25  1  0.93936731  0.26081555  0.95807303  1
  O  O26  1  0.74180981  0.92446891  0.82587153  1
  O  O27  1  0.25819019  0.07553109  0.17412847  1
  O  O28  1  0.79095231  0.64207782  0.98867027  1
  O  O29  1  0.20904769  0.35792218  0.01132973  1
  O  O30  1  0.87208561  0.84927628  0.24071627  1
  O  O31  1  0.12791439  0.15072372  0.75928373  1
  O  O32  1  0.50223543  0.65620563  0.11424575  1
  O  O33  1  0.49776457  0.34379437  0.88575425  1
  O  O34  1  0.21076175  0.61245113  0.67168378  1
  O  O35  1  0.78923825  0.38754887  0.32831622  1
  O  O36  1  0.86661184  0.62557639  0.63185540  1
  O  O37  1  0.13338816  0.37442361  0.36814460  1
  O  O38  1  0.64539092  0.92111464  0.41707378  1
  O  O39  1  0.35460908  0.07888536  0.58292622  1
  O  O40  1  0.20806908  0.80440032  0.07864142  1
  O  O41  1  0.79193092  0.19559968  0.92135858  1
