# generated using pymatgen
data_Na3H(SO4)2
_symmetry_space_group_name_H-M   'P 1'
_cell_length_a   8.74542780
_cell_length_b   9.79006959
_cell_length_c   9.23234022
_cell_angle_alpha   89.99967112
_cell_angle_beta   108.56150097
_cell_angle_gamma   89.88065930
_symmetry_Int_Tables_number   1
_chemical_formula_structural   Na3H(SO4)2
_chemical_formula_sum   'Na12 H4 S8 O32'
_cell_volume   749.33827296
_cell_formula_units_Z   4
loop_
 _symmetry_equiv_pos_site_id
 _symmetry_equiv_pos_as_xyz
  1  'x, y, z'
loop_
 _atom_site_type_symbol
 _atom_site_label
 _atom_site_symmetry_multiplicity
 _atom_site_fract_x
 _atom_site_fract_y
 _atom_site_fract_z
 _atom_site_occupancy
  Na  Na0  1  0.00711357  0.99479165  0.00057424  1
  Na  Na1  1  0.49846992  0.99859883  0.49051627  1
  Na  Na2  1  0.74715265  0.99572648  0.27473950  1
  Na  Na3  1  0.37943541  0.15590379  0.11905015  1
  Na  Na4  1  0.00322398  0.49950508  0.49722675  1
  Na  Na5  1  0.49681643  0.49900547  0.99474788  1
  Na  Na6  1  0.25640951  0.49063271  0.21640850  1
  Na  Na7  1  0.61461182  0.66070455  0.36772227  1
  Na  Na8  1  0.24975848  0.00421283  0.71563538  1
  Na  Na9  1  0.61433434  0.84436918  0.86619302  1
  Na  Na10  1  0.74977789  0.50332821  0.77308543  1
  Na  Na11  1  0.37915004  0.34191635  0.62044106  1
  H  H12  1  0.87682218  0.24082934  0.88196083  1
  H  H13  1  0.87590355  0.25858673  0.38254552  1
  H  H14  1  0.10078535  0.72814046  0.11369334  1
  H  H15  1  0.12144982  0.74597045  0.61089755  1
  S  S16  1  0.13581054  0.30794196  0.85249899  1
  S  S17  1  0.63000975  0.32061820  0.39883803  1
  S  S18  1  0.13599257  0.19233313  0.35267376  1
  S  S19  1  0.36565868  0.81842170  0.09011995  1
  S  S20  1  0.85819283  0.68986695  0.13721466  1
  S  S21  1  0.36797699  0.67876807  0.58914169  1
  S  S22  1  0.86242206  0.80748960  0.63703972  1
  S  S23  1  0.63125554  0.17916010  0.89911639  1
  O  O24  1  0.15897848  0.15664639  0.86897547  1
  O  O25  1  0.25352981  0.37576790  0.98649593  1
  O  O26  1  0.96531108  0.34153212  0.85040114  1
  O  O27  1  0.15743691  0.35801158  0.70957794  1
  O  O28  1  0.60940882  0.36536910  0.54296198  1
  O  O29  1  0.81027749  0.34324990  0.41559485  1
  O  O30  1  0.59721338  0.17349321  0.36825014  1
  O  O31  1  0.53538977  0.40595388  0.26909090  1
  O  O32  1  0.15803281  0.34388147  0.36906360  1
  O  O33  1  0.25499175  0.12467570  0.48631972  1
  O  O34  1  0.96593900  0.15833361  0.35098026  1
  O  O35  1  0.15773257  0.14316614  0.20935378  1
  O  O36  1  0.38477625  0.86550276  0.94468709  1
  O  O37  1  0.19042543  0.83130042  0.07925729  1
  O  O38  1  0.41325177  0.67243097  0.12099749  1
  O  O39  1  0.46391929  0.90557765  0.21861298  1
  O  O40  1  0.84891228  0.84089766  0.12163106  1
  O  O41  1  0.74198814  0.62445018  0.00280203  1
  O  O42  1  0.03130993  0.64588888  0.14019910  1
  O  O43  1  0.83973616  0.64153300  0.28065813  1
  O  O44  1  0.38241078  0.63349190  0.44279919  1
  O  O45  1  0.18921249  0.65972890  0.57759784  1
  O  O46  1  0.40527793  0.82568113  0.61995198  1
  O  O47  1  0.46556248  0.59256116  0.71689283  1
  O  O48  1  0.84128051  0.65608167  0.62003593  1
  O  O49  1  0.74468724  0.87520445  0.50282469  1
  O  O50  1  0.03292685  0.84245744  0.63928095  1
  O  O51  1  0.84094915  0.85664325  0.78029033  1
  O  O52  1  0.61329719  0.13544300  0.04523456  1
  O  O53  1  0.81111238  0.15553430  0.91394415  1
  O  O54  1  0.59725762  0.32588784  0.86756554  1
  O  O55  1  0.53423035  0.09311064  0.77133024  1
