# generated using pymatgen
data_KCa4B22H18ClO46
_symmetry_space_group_name_H-M   'P 1'
_cell_length_a   6.63191799
_cell_length_b   24.25099326
_cell_length_c   6.64193136
_cell_angle_alpha   95.45227249
_cell_angle_beta   119.39559085
_cell_angle_gamma   90.70687919
_symmetry_Int_Tables_number   1
_chemical_formula_structural   KCa4B22H18ClO46
_chemical_formula_sum   'K1 Ca4 B22 H18 Cl1 O46'
_cell_volume   924.33833957
_cell_formula_units_Z   1
loop_
 _symmetry_equiv_pos_site_id
 _symmetry_equiv_pos_as_xyz
  1  'x, y, z'
loop_
 _atom_site_type_symbol
 _atom_site_label
 _atom_site_symmetry_multiplicity
 _atom_site_fract_x
 _atom_site_fract_y
 _atom_site_fract_z
 _atom_site_occupancy
  K  K0  1  0.02253890  0.02402262  0.03983917  1
  Ca  Ca1  1  0.80898702  0.16432750  0.65212249  1
  Ca  Ca2  1  0.72120256  0.58015767  0.39088166  1
  Ca  Ca3  1  0.49724102  0.90626475  0.02231001  1
  Ca  Ca4  1  0.19362985  0.48942013  0.34342703  1
  B  B5  1  0.03994365  0.61188696  0.08094303  1
  B  B6  1  0.98893210  0.88972155  0.10580042  1
  B  B7  1  0.30268075  0.59973543  0.90263595  1
  B  B8  1  0.39269750  0.91669376  0.42825122  1
  B  B9  1  0.76648437  0.47138552  0.83981392  1
  B  B10  1  0.40049861  0.16077406  0.15731387  1
  B  B11  1  0.23877155  0.26539022  0.55846095  1
  B  B12  1  0.70921891  0.15425086  0.05973632  1
  B  B13  1  0.22437121  0.61277493  0.50706428  1
  B  B14  1  0.16051772  0.70090445  0.33370553  1
  B  B15  1  0.57177993  0.36941952  0.17218014  1
  B  B16  1  0.07994083  0.47986311  0.75060672  1
  B  B17  1  0.87551999  0.80428735  0.81988476  1
  B  B18  1  0.49731582  0.45822908  0.00568463  1
  B  B19  1  0.13718737  0.17127882  0.33437125  1
  B  B20  1  0.61045937  0.59064809  0.80456910  1
  B  B21  1  0.83544058  0.28622910  0.74765017  1
  B  B22  1  0.31946802  0.18030070  0.76440409  1
  B  B23  1  0.81106050  0.89759924  0.68434101  1
  B  B24  1  0.45503567  0.78290910  0.98399462  1
  B  B25  1  0.68016926  0.45750358  0.43117776  1
  B  B26  1  0.07989304  0.91090473  0.51971564  1
  H  H27  1  0.00200797  0.25652267  0.08658296  1
  H  H28  1  0.62474761  0.81194204  0.35120836  1
  H  H29  1  0.30226286  0.79121938  0.63528130  1
  H  H30  1  0.47896466  0.28868045  0.00558493  1
  H  H31  1  0.93009315  0.72408507  0.89879671  1
  H  H32  1  0.31900102  0.34558360  0.71591402  1
  H  H33  1  0.67639935  0.28025213  0.39055479  1
  H  H34  1  0.80226056  0.36248129  0.65496072  1
  H  H35  1  0.09746794  0.78140168  0.24550818  1
  H  H36  1  0.39902776  0.70761234  0.81118521  1
  H  H37  1  0.77001493  0.70491178  0.52243977  1
  H  H38  1  0.63958442  0.69156795  0.24442391  1
  H  H39  1  0.56801528  0.05989573  0.57792841  1
  H  H40  1  0.69559327  0.04928590  0.43652506  1
  H  H41  1  0.22582758  0.07825110  0.57624839  1
  H  H42  1  0.33535384  0.02375365  0.68286318  1
  H  H43  1  0.18403446  0.36516347  0.36118692  1
  H  H44  1  0.04806286  0.37655056  0.09304812  1
  Cl  Cl45  1  0.53079654  0.02071064  0.06710214  1
  O  O46  1  0.14082619  0.15358237  0.54071284  1
  O  O47  1  0.82213684  0.91492974  0.90620437  1
  O  O48  1  0.03408830  0.91580863  0.69816911  1
  O  O49  1  0.04439171  0.58725700  0.27943113  1
  O  O50  1  0.91765329  0.48733088  0.52402630  1
  O  O51  1  0.60594821  0.46814007  0.60870652  1
  O  O52  1  0.14387693  0.60267469  0.67444623  1
  O  O53  1  0.90983454  0.25032089  0.91258633  1
  O  O54  1  0.83499515  0.59016334  0.85758648  1
  O  O55  1  0.54097034  0.59833114  0.97141154  1
  O  O56  1  0.31862889  0.91671847  0.59204213  1
  O  O57  1  0.24428987  0.16800121  0.93311749  1
  O  O58  1  0.03905579  0.67340761  0.11280206  1
  O  O59  1  0.78125755  0.83507774  0.63594185  1
  O  O60  1  0.53086691  0.81807759  0.18401976  1
  O  O61  1  0.23188703  0.91300836  0.19486579  1
  O  O62  1  0.72058768  0.47406803  0.01712300  1
  O  O63  1  0.35144027  0.15538408  0.33036688  1
  O  O64  1  0.27526671  0.67239255  0.52554330  1
  O  O65  1  0.44397041  0.58279671  0.57077656  1
  O  O66  1  0.61984910  0.92100938  0.48907061  1
  O  O67  1  0.51507532  0.48278959  0.22773775  1
  O  O68  1  0.00570570  0.47274759  0.91024190  1
  O  O69  1  0.63729822  0.15764257  0.22541940  1
  O  O70  1  0.92143220  0.90108965  0.28803208  1
  O  O71  1  0.36964193  0.81260214  0.79413562  1
  O  O72  1  0.25411189  0.59627570  0.07629196  1
  O  O73  1  0.97851588  0.82777915  0.04828691  1
  O  O74  1  0.56471463  0.31225332  0.15918573  1
  O  O75  1  0.55300223  0.15959740  0.83223639  1
  O  O76  1  0.93355753  0.14578230  0.11745867  1
  O  O77  1  0.13418330  0.23391298  0.34572729  1
  O  O78  1  0.33530170  0.24214149  0.76461845  1
  O  O79  1  0.69586551  0.39785323  0.39203079  1
  O  O80  1  0.86483186  0.74723764  0.76808682  1
  O  O81  1  0.24598032  0.32262310  0.56258489  1
  O  O82  1  0.30440728  0.47968433  0.80354701  1
  O  O83  1  0.73537348  0.25793175  0.52679903  1
  O  O84  1  0.72503342  0.67510976  0.39098099  1
  O  O85  1  0.85959473  0.34283153  0.79601111  1
  O  O86  1  0.17637749  0.75793442  0.37635922  1
  O  O87  1  0.46361297  0.39660850  0.97710889  1
  O  O88  1  0.72237280  0.06637546  0.59014295  1
  O  O89  1  0.27472637  0.04214857  0.53898514  1
  O  O90  1  0.46367122  0.72628511  0.97312534  1
  O  O91  1  0.14878821  0.39412800  0.25378655  1
