# generated using pymatgen
data_Na2Ca3B5H2S2ClO18
_symmetry_space_group_name_H-M   'P 1'
_cell_length_a   6.46870664
_cell_length_b   6.46870664
_cell_length_c   18.98177341
_cell_angle_alpha   87.50657074
_cell_angle_beta   92.49342926
_cell_angle_gamma   104.53099346
_symmetry_Int_Tables_number   1
_chemical_formula_structural   Na2Ca3B5H2S2ClO18
_chemical_formula_sum   'Na4 Ca6 B10 H4 S4 Cl2 O36'
_cell_volume   767.70498788
_cell_formula_units_Z   2
loop_
 _symmetry_equiv_pos_site_id
 _symmetry_equiv_pos_as_xyz
  1  'x, y, z'
loop_
 _atom_site_type_symbol
 _atom_site_label
 _atom_site_symmetry_multiplicity
 _atom_site_fract_x
 _atom_site_fract_y
 _atom_site_fract_z
 _atom_site_occupancy
  Na  Na0  1  0.88183682  0.58060177  0.57810328  1
  Na  Na1  1  0.58060177  0.88183682  0.92189672  1
  Na  Na2  1  0.11816318  0.41939823  0.42189672  1
  Na  Na3  1  0.41939823  0.11816318  0.07810328  1
  Ca  Ca4  1  0.61003503  0.61003503  0.75000000  1
  Ca  Ca5  1  0.38996497  0.38996497  0.25000000  1
  Ca  Ca6  1  0.17231902  0.34582034  0.90291787  1
  Ca  Ca7  1  0.34582034  0.17231902  0.59708213  1
  Ca  Ca8  1  0.82768098  0.65417966  0.09708213  1
  Ca  Ca9  1  0.65417966  0.82768098  0.40291787  1
  B  B10  1  0.84634746  0.18571230  0.68187286  1
  B  B11  1  0.18571230  0.84634746  0.81812714  1
  B  B12  1  0.15365254  0.81428770  0.31812714  1
  B  B13  1  0.81428770  0.15365254  0.18187286  1
  B  B14  1  0.03110806  0.50622781  0.75154098  1
  B  B15  1  0.50622781  0.03110806  0.74845902  1
  B  B16  1  0.96889194  0.49377219  0.24845902  1
  B  B17  1  0.49377219  0.96889194  0.25154098  1
  B  B18  1  0.18927228  0.18927228  0.75000000  1
  B  B19  1  0.81072772  0.81072772  0.25000000  1
  H  H20  1  0.11950111  0.80620294  0.92427813  1
  H  H21  1  0.80620294  0.11950111  0.57572187  1
  H  H22  1  0.88049889  0.19379706  0.07572187  1
  H  H23  1  0.19379706  0.88049889  0.42427813  1
  S  S24  1  0.66084738  0.38395015  0.92269056  1
  S  S25  1  0.38395015  0.66084738  0.57730944  1
  S  S26  1  0.33915262  0.61604985  0.07730944  1
  S  S27  1  0.61604985  0.33915262  0.42269056  1
  Cl  Cl28  1  0.00000000  0.00000000  0.50000000  1
  Cl  Cl29  1  0.00000000  0.00000000  0.00000000  1
  O  O30  1  0.55978304  0.53008088  0.87547325  1
  O  O31  1  0.53008088  0.55978304  0.62452675  1
  O  O32  1  0.44021696  0.46991912  0.12452675  1
  O  O33  1  0.46991912  0.44021696  0.37547325  1
  O  O34  1  0.78280635  0.50603862  0.98068439  1
  O  O35  1  0.50603862  0.78280635  0.51931561  1
  O  O36  1  0.21719365  0.49396138  0.01931561  1
  O  O37  1  0.49396138  0.21719365  0.48068439  1
  O  O38  1  0.79714995  0.28955651  0.87933323  1
  O  O39  1  0.28955651  0.79714995  0.62066677  1
  O  O40  1  0.20285005  0.71044349  0.12066677  1
  O  O41  1  0.71044349  0.20285005  0.37933323  1
  O  O42  1  0.47982993  0.20971105  0.94976046  1
  O  O43  1  0.20971105  0.47982993  0.55023954  1
  O  O44  1  0.52017007  0.79028895  0.05023954  1
  O  O45  1  0.79028895  0.52017007  0.44976046  1
  O  O46  1  0.01737672  0.69952536  0.77444060  1
  O  O47  1  0.69952536  0.01737672  0.72555940  1
  O  O48  1  0.98262328  0.30047464  0.22555940  1
  O  O49  1  0.30047464  0.98262328  0.27444060  1
  O  O50  1  0.85868071  0.40404322  0.71012669  1
  O  O51  1  0.40404322  0.85868071  0.78987331  1
  O  O52  1  0.14131929  0.59595678  0.28987331  1
  O  O53  1  0.59595678  0.14131929  0.21012669  1
  O  O54  1  0.05638597  0.14138016  0.68535428  1
  O  O55  1  0.14138016  0.05638597  0.81464572  1
  O  O56  1  0.94361403  0.85861984  0.31464572  1
  O  O57  1  0.85861984  0.94361403  0.18535428  1
  O  O58  1  0.19791271  0.41530151  0.77159180  1
  O  O59  1  0.41530151  0.19791271  0.72840820  1
  O  O60  1  0.80208729  0.58469849  0.22840820  1
  O  O61  1  0.58469849  0.80208729  0.27159180  1
  O  O62  1  0.75032460  0.19864830  0.61025008  1
  O  O63  1  0.19864830  0.75032460  0.88974992  1
  O  O64  1  0.24967540  0.80135170  0.38974992  1
  O  O65  1  0.80135170  0.24967540  0.11025008  1
