# generated using pymatgen
data_WO3
_symmetry_space_group_name_H-M   'P 1'
_cell_length_a   3.85969020
_cell_length_b   7.72025184
_cell_length_c   7.73354437
_cell_angle_alpha   90.00000000
_cell_angle_beta   89.99776498
_cell_angle_gamma   90.00000000
_symmetry_Int_Tables_number   1
_chemical_formula_structural   WO3
_chemical_formula_sum   'W4 O12'
_cell_volume   230.44245632
_cell_formula_units_Z   4
loop_
 _symmetry_equiv_pos_site_id
 _symmetry_equiv_pos_as_xyz
  1  'x, y, z'
loop_
 _atom_site_type_symbol
 _atom_site_label
 _atom_site_symmetry_multiplicity
 _atom_site_fract_x
 _atom_site_fract_y
 _atom_site_fract_z
 _atom_site_occupancy
  W  W0  1  0.99455371  0.25000000  0.99466981  1
  W  W1  1  0.00544629  0.75000000  0.00533019  1
  W  W2  1  0.99594865  0.75000000  0.50544491  1
  W  W3  1  0.00405135  0.25000000  0.49455509  1
  O  O4  1  0.50221324  0.75000000  0.99401094  1
  O  O5  1  0.49778676  0.25000000  0.00598906  1
  O  O6  1  -0.00015657  0.25000000  0.25175162  1
  O  O7  1  0.00015657  0.75000000  0.74824838  1
  O  O8  1  0.00000000  0.50000000  0.50000000  1
  O  O9  1  0.00000000  0.00000000  0.50000000  1
  O  O10  1  0.00000000  0.00000000  0.00000000  1
  O  O11  1  0.00000000  0.50000000  0.00000000  1
  O  O12  1  0.00060097  0.75000000  0.24839581  1
  O  O13  1  -0.00060097  0.25000000  0.75160419  1
  O  O14  1  0.49980641  0.25000000  0.50434895  1
  O  O15  1  0.50019359  0.75000000  0.49565105  1
