# generated using pymatgen
data_Li2H12C3SN6O7
_symmetry_space_group_name_H-M   'P 1'
_cell_length_a   9.86940393
_cell_length_b   9.86940393
_cell_length_c   8.11463272
_cell_angle_alpha   70.77174701
_cell_angle_beta   109.22825299
_cell_angle_gamma   123.01425366
_symmetry_Int_Tables_number   1
_chemical_formula_structural   Li2H12C3SN6O7
_chemical_formula_sum   'Li4 H24 C6 S2 N12 O14'
_cell_volume   614.49222876
_cell_formula_units_Z   2
loop_
 _symmetry_equiv_pos_site_id
 _symmetry_equiv_pos_as_xyz
  1  'x, y, z'
loop_
 _atom_site_type_symbol
 _atom_site_label
 _atom_site_symmetry_multiplicity
 _atom_site_fract_x
 _atom_site_fract_y
 _atom_site_fract_z
 _atom_site_occupancy
  Li  Li0  1  0.75671661  0.61928845  0.66168203  1
  Li  Li1  1  0.61928845  0.75671661  0.83831797  1
  Li  Li2  1  0.24328339  0.38071155  0.33831797  1
  Li  Li3  1  0.38071155  0.24328339  0.16168203  1
  H  H4  1  0.24023728  0.64456256  0.59587922  1
  H  H5  1  0.64456256  0.24023728  0.90412078  1
  H  H6  1  0.75976272  0.35543744  0.40412078  1
  H  H7  1  0.35543744  0.75976272  0.09587922  1
  H  H8  1  0.11282721  0.73608824  0.49871399  1
  H  H9  1  0.73608824  0.11282721  0.00128601  1
  H  H10  1  0.88717279  0.26391176  0.50128601  1
  H  H11  1  0.26391176  0.88717279  0.99871399  1
  H  H12  1  0.23157271  0.49479804  0.88546876  1
  H  H13  1  0.49479804  0.23157271  0.61453124  1
  H  H14  1  0.76842729  0.50520196  0.11453124  1
  H  H15  1  0.50520196  0.76842729  0.38546876  1
  H  H16  1  0.07463706  0.44315405  0.98584571  1
  H  H17  1  0.44315405  0.07463706  0.51415429  1
  H  H18  1  0.92536294  0.55684595  0.01415429  1
  H  H19  1  0.55684595  0.92536294  0.48584571  1
  H  H20  1  0.86488249  0.07648496  0.79919147  1
  H  H21  1  0.07648496  0.86488249  0.70080853  1
  H  H22  1  0.13511751  0.92351504  0.20080853  1
  H  H23  1  0.92351504  0.13511751  0.29919147  1
  H  H24  1  0.07774506  0.18738809  0.79695946  1
  H  H25  1  0.18738809  0.07774506  0.70304054  1
  H  H26  1  0.92225494  0.81261191  0.20304054  1
  H  H27  1  0.81261191  0.92225494  0.29695946  1
  C  C28  1  0.07211759  0.58529168  0.74059078  1
  C  C29  1  0.58529168  0.07211759  0.75940922  1
  C  C30  1  0.92788241  0.41470832  0.25940922  1
  C  C31  1  0.41470832  0.92788241  0.24059078  1
  C  C32  1  0.95076794  0.95076794  0.75000000  1
  C  C33  1  0.04923206  0.04923206  0.25000000  1
  S  S34  1  0.41390884  0.41390884  0.75000000  1
  S  S35  1  0.58609116  0.58609116  0.25000000  1
  N  N36  1  0.15201772  0.66595190  0.60217682  1
  N  N37  1  0.66595190  0.15201772  0.89782318  1
  N  N38  1  0.84798228  0.33404810  0.39782318  1
  N  N39  1  0.33404810  0.84798228  0.10217682  1
  N  N40  1  0.12064760  0.48540953  0.87282681  1
  N  N41  1  0.48540953  0.12064760  0.62717319  1
  N  N42  1  0.87935240  0.51459047  0.12717319  1
  N  N43  1  0.51459047  0.87935240  0.37282681  1
  N  N44  1  0.96336711  0.08937291  0.76806347  1
  N  N45  1  0.08937291  0.96336711  0.73193653  1
  N  N46  1  0.03663289  0.91062709  0.23193653  1
  N  N47  1  0.91062709  0.03663289  0.26806347  1
  O  O48  1  0.30991120  0.33173457  0.59431683  1
  O  O49  1  0.33173457  0.30991120  0.90568317  1
  O  O50  1  0.69008880  0.66826543  0.40568317  1
  O  O51  1  0.66826543  0.69008880  0.09431683  1
  O  O52  1  0.58067152  0.43046639  0.78743144  1
  O  O53  1  0.43046639  0.58067152  0.71256856  1
  O  O54  1  0.41932848  0.56953361  0.21256856  1
  O  O55  1  0.56953361  0.41932848  0.28743144  1
  O  O56  1  0.95618557  0.60282755  0.74841534  1
  O  O57  1  0.60282755  0.95618557  0.75158466  1
  O  O58  1  0.04381443  0.39717245  0.25158466  1
  O  O59  1  0.39717245  0.04381443  0.24841534  1
  O  O60  1  0.81590861  0.81590861  0.75000000  1
  O  O61  1  0.18409139  0.18409139  0.25000000  1
