# generated using pymatgen
data_CrH14N4Cl3O
_symmetry_space_group_name_H-M   'P 1'
_cell_length_a   13.38869982
_cell_length_b   10.69717536
_cell_length_c   6.83799736
_cell_angle_alpha   90.00000000
_cell_angle_beta   90.00000000
_cell_angle_gamma   90.00000000
_symmetry_Int_Tables_number   1
_chemical_formula_structural   CrH14N4Cl3O
_chemical_formula_sum   'Cr4 H56 N16 Cl12 O4'
_cell_volume   979.34666490
_cell_formula_units_Z   4
loop_
 _symmetry_equiv_pos_site_id
 _symmetry_equiv_pos_as_xyz
  1  'x, y, z'
loop_
 _atom_site_type_symbol
 _atom_site_label
 _atom_site_symmetry_multiplicity
 _atom_site_fract_x
 _atom_site_fract_y
 _atom_site_fract_z
 _atom_site_occupancy
  Cr  Cr0  1  0.59659250  0.75000000  0.82780869  1
  Cr  Cr1  1  0.09659250  0.75000000  0.67219131  1
  Cr  Cr2  1  0.40340750  0.25000000  0.17219131  1
  Cr  Cr3  1  0.90340750  0.25000000  0.32780869  1
  H  H4  1  0.68539169  0.82469899  0.14683367  1
  H  H5  1  0.18539169  0.67530101  0.35316633  1
  H  H6  1  0.31460831  0.32469899  0.85316633  1
  H  H7  1  0.81460831  0.17530101  0.64683367  1
  H  H8  1  0.31460831  0.17530101  0.85316633  1
  H  H9  1  0.81460831  0.32469899  0.64683367  1
  H  H10  1  0.68539169  0.67530101  0.14683367  1
  H  H11  1  0.18539169  0.82469899  0.35316633  1
  H  H12  1  0.78595070  0.75000000  0.70421717  1
  H  H13  1  0.28595070  0.75000000  0.79578283  1
  H  H14  1  0.21404930  0.25000000  0.29578283  1
  H  H15  1  0.71404930  0.25000000  0.20421717  1
  H  H16  1  0.71596605  0.67264984  0.54583316  1
  H  H17  1  0.21596605  0.82735016  0.95416684  1
  H  H18  1  0.28403395  0.17264984  0.45416684  1
  H  H19  1  0.78403395  0.32735016  0.04583316  1
  H  H20  1  0.28403395  0.32735016  0.45416684  1
  H  H21  1  0.78403395  0.17264984  0.04583316  1
  H  H22  1  0.71596605  0.82735016  0.54583316  1
  H  H23  1  0.21596605  0.67264984  0.95416684  1
  H  H24  1  0.53851523  0.75000000  0.45315152  1
  H  H25  1  0.03851523  0.75000000  0.04684848  1
  H  H26  1  0.46148477  0.25000000  0.54684848  1
  H  H27  1  0.96148477  0.25000000  0.95315152  1
  H  H28  1  0.45630849  0.67253859  0.58680689  1
  H  H29  1  0.95630849  0.82746141  0.91319311  1
  H  H30  1  0.54369151  0.17253859  0.41319311  1
  H  H31  1  0.04369151  0.32746141  0.08680689  1
  H  H32  1  0.54369151  0.32746141  0.41319311  1
  H  H33  1  0.04369151  0.17253859  0.08680689  1
  H  H34  1  0.45630849  0.82746141  0.58680689  1
  H  H35  1  0.95630849  0.67253859  0.91319311  1
  H  H36  1  0.52888686  0.98271631  0.79313697  1
  H  H37  1  0.02888686  0.51728369  0.70686303  1
  H  H38  1  0.47111314  0.48271631  0.20686303  1
  H  H39  1  0.97111314  0.01728369  0.29313697  1
  H  H40  1  0.47111314  0.01728369  0.20686303  1
  H  H41  1  0.97111314  0.48271631  0.29313697  1
  H  H42  1  0.52888686  0.51728369  0.79313697  1
  H  H43  1  0.02888686  0.98271631  0.70686303  1
  H  H44  1  0.62090620  0.98215213  0.95413999  1
  H  H45  1  0.12090620  0.51784787  0.54586001  1
  H  H46  1  0.37909380  0.48215213  0.04586001  1
  H  H47  1  0.87909380  0.01784787  0.45413999  1
  H  H48  1  0.37909380  0.01784787  0.04586001  1
  H  H49  1  0.87909380  0.48215213  0.45413999  1
  H  H50  1  0.62090620  0.51784787  0.95413999  1
  H  H51  1  0.12090620  0.98215213  0.54586001  1
  H  H52  1  0.64593820  0.98100549  0.71779806  1
  H  H53  1  0.14593820  0.51899451  0.78220194  1
  H  H54  1  0.35406180  0.48100549  0.28220194  1
  H  H55  1  0.85406180  0.01899451  0.21779806  1
  H  H56  1  0.35406180  0.01899451  0.28220194  1
  H  H57  1  0.85406180  0.48100549  0.21779806  1
  H  H58  1  0.64593820  0.51899451  0.71779806  1
  H  H59  1  0.14593820  0.98100549  0.78220194  1
  N  N60  1  0.59838346  0.94655874  0.82186699  1
  N  N61  1  0.09838346  0.55344126  0.67813301  1
  N  N62  1  0.40161654  0.44655874  0.17813301  1
  N  N63  1  0.90161654  0.05344126  0.32186699  1
  N  N64  1  0.40161654  0.05344126  0.17813301  1
  N  N65  1  0.90161654  0.44655874  0.32186699  1
  N  N66  1  0.59838346  0.55344126  0.82186699  1
  N  N67  1  0.09838346  0.94655874  0.67813301  1
  N  N68  1  0.71839300  0.75000000  0.63574479  1
  N  N69  1  0.21839300  0.75000000  0.86425521  1
  N  N70  1  0.28160700  0.25000000  0.36425521  1
  N  N71  1  0.78160700  0.25000000  0.13574479  1
  N  N72  1  0.50158404  0.75000000  0.58403133  1
  N  N73  1  0.00158404  0.75000000  0.91596867  1
  N  N74  1  0.49841596  0.25000000  0.41596867  1
  N  N75  1  0.99841596  0.25000000  0.08403133  1
  Cl  Cl76  1  0.45867320  0.75000000  0.03972092  1
  Cl  Cl77  1  0.95867320  0.75000000  0.46027908  1
  Cl  Cl78  1  0.54132680  0.25000000  0.96027908  1
  Cl  Cl79  1  0.04132680  0.25000000  0.53972092  1
  Cl  Cl80  1  0.85110587  0.02034466  0.82239477  1
  Cl  Cl81  1  0.35110587  0.47965534  0.67760523  1
  Cl  Cl82  1  0.14889413  0.52034466  0.17760523  1
  Cl  Cl83  1  0.64889413  0.97965534  0.32239477  1
  Cl  Cl84  1  0.14889413  0.97965534  0.17760523  1
  Cl  Cl85  1  0.64889413  0.52034466  0.32239477  1
  Cl  Cl86  1  0.85110587  0.47965534  0.82239477  1
  Cl  Cl87  1  0.35110587  0.02034466  0.67760523  1
  O  O88  1  0.69626471  0.75000000  0.06037844  1
  O  O89  1  0.19626471  0.75000000  0.43962156  1
  O  O90  1  0.30373529  0.25000000  0.93962156  1
  O  O91  1  0.80373529  0.25000000  0.56037844  1
