# generated using pymatgen
data_K3NaP2(O3F)2
_symmetry_space_group_name_H-M   'P 1'
_cell_length_a   5.84108137
_cell_length_b   5.84108137
_cell_length_c   7.50629290
_cell_angle_alpha   90.00000000
_cell_angle_beta   90.00000000
_cell_angle_gamma   119.99999997
_symmetry_Int_Tables_number   1
_chemical_formula_structural   K3NaP2(O3F)2
_chemical_formula_sum   'K3 Na1 P2 O6 F2'
_cell_volume   221.79035238
_cell_formula_units_Z   1
loop_
 _symmetry_equiv_pos_site_id
 _symmetry_equiv_pos_as_xyz
  1  'x, y, z'
loop_
 _atom_site_type_symbol
 _atom_site_label
 _atom_site_symmetry_multiplicity
 _atom_site_fract_x
 _atom_site_fract_y
 _atom_site_fract_z
 _atom_site_occupancy
  O  O0  1  0.81305256  0.62610512  0.79460900  1
  O  O1  1  0.81305256  0.18694744  0.79460900  1
  O  O2  1  0.18694744  0.81305256  0.20539100  1
  O  O3  1  0.18694744  0.37389488  0.20539100  1
  O  O4  1  0.62610512  0.81305256  0.20539100  1
  O  O5  1  0.37389488  0.18694744  0.79460900  1
  F  F6  1  0.66666667  0.33333333  0.52613200  1
  F  F7  1  0.33333333  0.66666667  0.47386800  1
  Na  Na8  1  0.00000000  0.00000000  0.00000000  1
  P  P9  1  0.66666667  0.33333333  0.74710962  1
  P  P10  1  0.33333333  0.66666667  0.25289038  1
  K  K11  1  0.33333333  0.66666667  0.82787595  1
  K  K12  1  0.00000000  0.00000000  0.50000000  1
  K  K13  1  0.66666667  0.33333333  0.17212405  1
