# generated using pymatgen
data_KMgIn(MoO4)3
_symmetry_space_group_name_H-M   'P 1'
_cell_length_a   9.69491369
_cell_length_b   9.69491337
_cell_length_c   9.94389435
_cell_angle_alpha   61.08542971
_cell_angle_beta   61.08543077
_cell_angle_gamma   60.07717758
_symmetry_Int_Tables_number   1
_chemical_formula_structural   KMgIn(MoO4)3
_chemical_formula_sum   'K2 Mg2 In2 Mo6 O24'
_cell_volume   671.92943769
_cell_formula_units_Z   2
loop_
 _symmetry_equiv_pos_site_id
 _symmetry_equiv_pos_as_xyz
  1  'x, y, z'
loop_
 _atom_site_type_symbol
 _atom_site_label
 _atom_site_symmetry_multiplicity
 _atom_site_fract_x
 _atom_site_fract_y
 _atom_site_fract_z
 _atom_site_occupancy
  K  K0  1  0.50092844  0.00102063  0.99714852  1
  K  K1  1  0.00102063  0.50092844  0.49714852  1
  Mg  Mg2  1  0.14276397  0.64396687  0.06816533  1
  Mg  Mg3  1  0.64396687  0.14276397  0.56816533  1
  In  In4  1  0.35547344  0.85698839  0.43253120  1
  In  In5  1  0.85698839  0.35547344  0.93253120  1
  Mo  Mo6  1  0.03445543  0.96091807  0.25213091  1
  Mo  Mo7  1  0.46288320  0.25174568  0.25141446  1
  Mo  Mo8  1  0.25174568  0.46288320  0.75141446  1
  Mo  Mo9  1  0.75231011  0.53314657  0.25320944  1
  Mo  Mo10  1  0.53314657  0.75231011  0.75320944  1
  Mo  Mo11  1  0.96091807  0.03445543  0.75213091  1
  O  O12  1  0.00726267  0.13987998  0.07410156  1
  O  O13  1  0.13987998  0.00726267  0.57410156  1
  O  O14  1  0.06322695  0.77708684  0.22707614  1
  O  O15  1  0.43485933  0.07173194  0.26947114  1
  O  O16  1  0.28045637  0.43282295  0.22436747  1
  O  O17  1  0.07173194  0.43485933  0.76947114  1
  O  O18  1  0.49587519  0.22007627  0.42709502  1
  O  O19  1  0.64295926  0.27658010  0.07476026  1
  O  O20  1  0.22304744  0.93561942  0.27068193  1
  O  O21  1  0.27658010  0.64295926  0.57476026  1
  O  O22  1  0.22007627  0.49587519  0.92709502  1
  O  O23  1  0.43282295  0.28045637  0.72436747  1
  O  O24  1  0.56950902  0.72009802  0.27409154  1
  O  O25  1  0.77941723  0.50796459  0.07298986  1
  O  O26  1  0.72320517  0.35437331  0.42553682  1
  O  O27  1  0.77708684  0.06322695  0.72707614  1
  O  O28  1  0.35437331  0.72320517  0.92553682  1
  O  O29  1  0.50796459  0.77941723  0.57298986  1
  O  O30  1  0.93086574  0.56379306  0.22915043  1
  O  O31  1  0.72009802  0.56950902  0.77409154  1
  O  O32  1  0.56379306  0.93086574  0.72915043  1
  O  O33  1  0.93561942  0.22304744  0.77068193  1
  O  O34  1  0.85697758  0.99571077  0.42607797  1
  O  O35  1  0.99571077  0.85697758  0.92607797  1
