# generated using pymatgen
data_NiH12SO10
_symmetry_space_group_name_H-M   'P 1'
_cell_length_a   6.80647633
_cell_length_b   6.80647633
_cell_length_c   18.33561786
_cell_angle_alpha   90.00000000
_cell_angle_beta   90.00000000
_cell_angle_gamma   90.00000000
_symmetry_Int_Tables_number   1
_chemical_formula_structural   NiH12SO10
_chemical_formula_sum   'Ni4 H48 S4 O40'
_cell_volume   849.45470506
_cell_formula_units_Z   4
loop_
 _symmetry_equiv_pos_site_id
 _symmetry_equiv_pos_as_xyz
  1  'x, y, z'
loop_
 _atom_site_type_symbol
 _atom_site_label
 _atom_site_symmetry_multiplicity
 _atom_site_fract_x
 _atom_site_fract_y
 _atom_site_fract_z
 _atom_site_occupancy
  Ni  Ni0  1  0.28887705  0.71112295  0.25000000  1
  Ni  Ni1  1  0.71112295  0.28887705  0.75000000  1
  Ni  Ni2  1  0.21112295  0.21112295  0.50000000  1
  Ni  Ni3  1  0.78887705  0.78887705  0.00000000  1
  H  H4  1  0.42417339  0.35143167  0.28981508  1
  H  H5  1  0.57582661  0.64856833  0.78981508  1
  H  H6  1  0.85143167  0.07582661  0.53981508  1
  H  H7  1  0.14856833  0.92417339  0.03981508  1
  H  H8  1  0.64856833  0.57582661  0.21018492  1
  H  H9  1  0.35143167  0.42417339  0.71018492  1
  H  H10  1  0.07582661  0.85143167  0.46018492  1
  H  H11  1  0.92417339  0.14856833  0.96018492  1
  H  H12  1  0.24889474  0.41566840  0.34575872  1
  H  H13  1  0.75110526  0.58433160  0.84575872  1
  H  H14  1  0.91566840  0.25110526  0.59575872  1
  H  H15  1  0.08433160  0.74889474  0.09575872  1
  H  H16  1  0.58433160  0.75110526  0.15424128  1
  H  H17  1  0.41566840  0.24889474  0.65424128  1
  H  H18  1  0.25110526  0.91566840  0.40424128  1
  H  H19  1  0.74889474  0.08433160  0.90424128  1
  H  H20  1  0.93248395  0.64145597  0.29668586  1
  H  H21  1  0.06751605  0.35854403  0.79668586  1
  H  H22  1  0.14145597  0.56751605  0.54668586  1
  H  H23  1  0.85854403  0.43248395  0.04668586  1
  H  H24  1  0.35854403  0.06751605  0.20331414  1
  H  H25  1  0.64145597  0.93248395  0.70331414  1
  H  H26  1  0.56751605  0.14145597  0.45331414  1
  H  H27  1  0.43248395  0.85854403  0.95331414  1
  H  H28  1  0.96484722  0.87479366  0.30861989  1
  H  H29  1  0.03515278  0.12520634  0.80861989  1
  H  H30  1  0.37479366  0.53515278  0.55861989  1
  H  H31  1  0.62520634  0.46484722  0.05861989  1
  H  H32  1  0.12520634  0.03515278  0.19138011  1
  H  H33  1  0.87479366  0.96484722  0.69138011  1
  H  H34  1  0.53515278  0.37479366  0.44138011  1
  H  H35  1  0.46484722  0.62520634  0.94138011  1
  H  H36  1  0.51386820  0.96555605  0.31600702  1
  H  H37  1  0.48613180  0.03444395  0.81600702  1
  H  H38  1  0.46555605  0.98613180  0.56600702  1
  H  H39  1  0.53444395  0.01386820  0.06600702  1
  H  H40  1  0.03444395  0.48613180  0.18399298  1
  H  H41  1  0.96555605  0.51386820  0.68399298  1
  H  H42  1  0.98613180  0.46555605  0.43399298  1
  H  H43  1  0.01386820  0.53444395  0.93399298  1
  H  H44  1  0.51681119  0.77010618  0.36651220  1
  H  H45  1  0.48318881  0.22989382  0.86651220  1
  H  H46  1  0.27010618  0.98318881  0.61651220  1
  H  H47  1  0.72989382  0.01681119  0.11651220  1
  H  H48  1  0.22989382  0.48318881  0.13348780  1
  H  H49  1  0.77010618  0.51681119  0.63348780  1
  H  H50  1  0.98318881  0.27010618  0.38348780  1
  H  H51  1  0.01681119  0.72989382  0.88348780  1
  S  S52  1  0.79126098  0.20873902  0.25000000  1
  S  S53  1  0.20873902  0.79126098  0.75000000  1
  S  S54  1  0.70873902  0.70873902  0.50000000  1
  S  S55  1  0.29126098  0.29126098  0.00000000  1
  O  O56  1  0.32678518  0.45327887  0.30267476  1
  O  O57  1  0.67321482  0.54672113  0.80267476  1
  O  O58  1  0.95327887  0.17321482  0.55267476  1
  O  O59  1  0.04672113  0.82678518  0.05267476  1
  O  O60  1  0.54672113  0.67321482  0.19732524  1
  O  O61  1  0.45327887  0.32678518  0.69732524  1
  O  O62  1  0.17321482  0.95327887  0.44732524  1
  O  O63  1  0.82678518  0.04672113  0.94732524  1
  O  O64  1  0.02966611  0.74425380  0.30723065  1
  O  O65  1  0.97033389  0.25574620  0.80723065  1
  O  O66  1  0.24425380  0.47033389  0.55723065  1
  O  O67  1  0.75574620  0.52966611  0.05723065  1
  O  O68  1  0.25574620  0.97033389  0.19276935  1
  O  O69  1  0.74425380  0.02966611  0.69276935  1
  O  O70  1  0.47033389  0.24425380  0.44276935  1
  O  O71  1  0.52966611  0.75574620  0.94276935  1
  O  O72  1  0.43299900  0.85764065  0.33591300  1
  O  O73  1  0.56700100  0.14235935  0.83591300  1
  O  O74  1  0.35764065  0.06700100  0.58591300  1
  O  O75  1  0.64235935  0.93299900  0.08591300  1
  O  O76  1  0.14235935  0.56700100  0.16408700  1
  O  O77  1  0.85764065  0.43299900  0.66408700  1
  O  O78  1  0.06700100  0.35764065  0.41408700  1
  O  O79  1  0.93299900  0.64235935  0.91408700  1
  O  O80  1  0.88006313  0.11965994  0.31662715  1
  O  O81  1  0.11993687  0.88034006  0.81662715  1
  O  O82  1  0.61965994  0.61993687  0.56662715  1
  O  O83  1  0.38034006  0.38006313  0.06662715  1
  O  O84  1  0.88034006  0.11993687  0.18337285  1
  O  O85  1  0.11965994  0.88006313  0.68337285  1
  O  O86  1  0.61993687  0.61965994  0.43337285  1
  O  O87  1  0.38006313  0.38034006  0.93337285  1
  O  O88  1  0.57421571  0.17238165  0.25081371  1
  O  O89  1  0.42578429  0.82761835  0.75081371  1
  O  O90  1  0.67238165  0.92578429  0.50081371  1
  O  O91  1  0.32761835  0.07421571  0.00081371  1
  O  O92  1  0.82761835  0.42578429  0.24918629  1
  O  O93  1  0.17238165  0.57421571  0.74918629  1
  O  O94  1  0.92578429  0.67238165  0.49918629  1
  O  O95  1  0.07421571  0.32761835  0.99918629  1
