# generated using pymatgen
data_CaNdMn2O6
_symmetry_space_group_name_H-M   'P 1'
_cell_length_a   5.44356093
_cell_length_b   5.50063986
_cell_length_c   30.92930972
_cell_angle_alpha   90.00000000
_cell_angle_beta   90.00000000
_cell_angle_gamma   89.79321097
_symmetry_Int_Tables_number   1
_chemical_formula_structural   CaNdMn2O6
_chemical_formula_sum   'Ca8 Nd8 Mn16 O48'
_cell_volume   926.11240004
_cell_formula_units_Z   8
loop_
 _symmetry_equiv_pos_site_id
 _symmetry_equiv_pos_as_xyz
  1  'x, y, z'
loop_
 _atom_site_type_symbol
 _atom_site_label
 _atom_site_symmetry_multiplicity
 _atom_site_fract_x
 _atom_site_fract_y
 _atom_site_fract_z
 _atom_site_occupancy
  Ca  Ca0  1  0.01147298  0.96057688  0.06250000  1
  Ca  Ca1  1  0.49040605  0.45852102  0.81227950  1
  Ca  Ca2  1  0.49040605  0.45852102  0.31272050  1
  Ca  Ca3  1  0.49027997  0.45861129  0.56250000  1
  Ca  Ca4  1  0.98962347  0.04031581  0.18677559  1
  Ca  Ca5  1  0.98990837  0.04137181  0.43742208  1
  Ca  Ca6  1  0.98990837  0.04137181  0.68757792  1
  Ca  Ca7  1  0.98962347  0.04031581  0.93822441  1
  Nd  Nd8  1  0.01006232  0.95962371  0.31230286  1
  Nd  Nd9  1  0.01014029  0.95956068  0.56250000  1
  Nd  Nd10  1  0.01006232  0.95962371  0.81269714  1
  Nd  Nd11  1  0.49193279  0.45894430  0.06250000  1
  Nd  Nd12  1  0.50965445  0.54044166  0.43753816  1
  Nd  Nd13  1  0.50965445  0.54044166  0.68746184  1
  Nd  Nd14  1  0.50912107  0.54069782  0.18823645  1
  Nd  Nd15  1  0.50912107  0.54069782  0.93676355  1
  Mn  Mn16  1  0.00002802  0.50000256  0.12503890  1
  Mn  Mn17  1  0.49975918  0.99960565  -0.00005315  1
  Mn  Mn18  1  0.49975918  0.99960565  0.12505315  1
  Mn  Mn19  1  0.50105199  0.00199560  0.24997943  1
  Mn  Mn20  1  0.50057831  0.00157788  0.50000400  1
  Mn  Mn21  1  0.50057831  0.00157788  0.62499600  1
  Mn  Mn22  1  0.50003533  0.00164208  0.74989130  1
  Mn  Mn23  1  0.50003533  0.00164208  0.37510870  1
  Mn  Mn24  1  0.50105199  0.00199560  0.87502057  1
  Mn  Mn25  1  0.00002802  0.50000256  0.99996110  1
  Mn  Mn26  1  0.00104331  0.49787949  0.25010776  1
  Mn  Mn27  1  0.00027148  0.49865610  0.50002120  1
  Mn  Mn28  1  0.99996193  0.49848023  0.75005096  1
  Mn  Mn29  1  0.99996193  0.49848023  0.37494904  1
  Mn  Mn30  1  0.00027148  0.49865610  0.62497880  1
  Mn  Mn31  1  0.00104331  0.49787949  0.87489224  1
  O  O32  1  0.07930391  0.47932837  0.18754238  1
  O  O33  1  0.08024193  0.48142069  0.68752337  1
  O  O34  1  0.08024193  0.48142069  0.43747663  1
  O  O35  1  0.07930391  0.47932837  0.93745762  1
  O  O36  1  0.22040145  0.21903545  0.11329250  1
  O  O37  1  0.21523290  0.21497672  0.36440323  1
  O  O38  1  0.21714298  0.21542288  0.26073709  1
  O  O39  1  0.22040145  0.21903545  0.01170750  1
  O  O40  1  0.21558087  0.21518898  0.61437555  1
  O  O41  1  0.21714298  0.21542288  0.86426291  1
  O  O42  1  0.21523290  0.21497672  0.76059677  1
  O  O43  1  0.21558087  0.21518898  0.51062445  1
  O  O44  1  0.28834127  0.71213258  0.00956971  1
  O  O45  1  0.28542988  0.71562046  0.26078026  1
  O  O46  1  0.28388414  0.71589512  0.51090626  1
  O  O47  1  0.28341110  0.71637071  0.76086270  1
  O  O48  1  0.28834127  0.71213258  0.11543029  1
  O  O49  1  0.28341110  0.71637071  0.36413730  1
  O  O50  1  0.28388414  0.71589512  0.61409374  1
  O  O51  1  0.28542988  0.71562046  0.86421974  1
  O  O52  1  0.41863058  0.98074612  0.68750620  1
  O  O53  1  0.41837495  0.98287390  0.18751340  1
  O  O54  1  0.41863058  0.98074612  0.43749380  1
  O  O55  1  0.41837495  0.98287390  0.93748660  1
  O  O56  1  0.58264430  0.01555941  0.06250000  1
  O  O57  1  0.58040002  0.01862826  0.81247709  1
  O  O58  1  0.58040002  0.01862826  0.31252291  1
  O  O59  1  0.58069102  0.01886267  0.56250000  1
  O  O60  1  0.71035336  0.28862961  0.13461528  1
  O  O61  1  0.71509906  0.28506647  0.38554113  1
  O  O62  1  0.71562854  0.28495927  0.63559922  1
  O  O63  1  0.71695888  0.28405236  0.88544799  1
  O  O64  1  0.71695888  0.28405236  0.23955201  1
  O  O65  1  0.71509906  0.28506647  0.73945887  1
  O  O66  1  0.71562854  0.28495927  0.48940078  1
  O  O67  1  0.71035336  0.28862961  0.99038472  1
  O  O68  1  0.78545549  0.78511156  0.23913532  1
  O  O69  1  0.78405136  0.78402160  0.48905195  1
  O  O70  1  0.78339073  0.78392701  0.73909901  1
  O  O71  1  0.77781146  0.77939758  0.98816154  1
  O  O72  1  0.77781146  0.77939758  0.13683846  1
  O  O73  1  0.78405136  0.78402160  0.63594805  1
  O  O74  1  0.78545549  0.78511156  0.88586468  1
  O  O75  1  0.78339073  0.78392701  0.38590099  1
  O  O76  1  0.92264488  0.52251965  0.06250000  1
  O  O77  1  0.91903403  0.51940218  0.31252838  1
  O  O78  1  0.91903403  0.51940218  0.81247162  1
  O  O79  1  0.91886544  0.51932655  0.56250000  1
