# generated using pymatgen
data_VH10SO10
_symmetry_space_group_name_H-M   'P 1'
_cell_length_a   7.05504915
_cell_length_b   9.89203368
_cell_length_c   13.01630900
_cell_angle_alpha   90.00000000
_cell_angle_beta   111.27710670
_cell_angle_gamma   90.00000000
_symmetry_Int_Tables_number   1
_chemical_formula_structural   VH10SO10
_chemical_formula_sum   'V4 H40 S4 O40'
_cell_volume   846.47298511
_cell_formula_units_Z   4
loop_
 _symmetry_equiv_pos_site_id
 _symmetry_equiv_pos_as_xyz
  1  'x, y, z'
loop_
 _atom_site_type_symbol
 _atom_site_label
 _atom_site_symmetry_multiplicity
 _atom_site_fract_x
 _atom_site_fract_y
 _atom_site_fract_z
 _atom_site_occupancy
  V  V0  1  0.33645798  0.27314604  0.65056047  1
  V  V1  1  0.66354202  0.77314604  0.84943953  1
  V  V2  1  0.66354202  0.72685396  0.34943953  1
  V  V3  1  0.33645798  0.22685396  0.15056047  1
  H  H4  1  0.18213805  0.18438568  0.91001627  1
  H  H5  1  0.81786195  0.68438568  0.58998373  1
  H  H6  1  0.81786195  0.81561432  0.08998373  1
  H  H7  1  0.18213805  0.31561432  0.41001627  1
  H  H8  1  0.22825002  0.34011127  0.94112483  1
  H  H9  1  0.77174998  0.84011127  0.55887517  1
  H  H10  1  0.77174998  0.65988873  0.05887517  1
  H  H11  1  0.22825002  0.15988873  0.44112483  1
  H  H12  1  0.38220084  0.01014125  0.64574486  1
  H  H13  1  0.61779916  0.51014125  0.85425514  1
  H  H14  1  0.61779916  0.98985875  0.35425514  1
  H  H15  1  0.38220084  0.48985875  0.14574486  1
  H  H16  1  0.59204628  0.06674753  0.63155727  1
  H  H17  1  0.40795372  0.56674753  0.86844273  1
  H  H18  1  0.40795372  0.93325247  0.36844273  1
  H  H19  1  0.59204628  0.43325247  0.13155727  1
  H  H20  1  0.61906926  0.34788998  0.56608931  1
  H  H21  1  0.38093074  0.84788998  0.93391069  1
  H  H22  1  0.38093074  0.65211002  0.43391069  1
  H  H23  1  0.61906926  0.15211002  0.06608931  1
  H  H24  1  0.68706634  0.39343496  0.69683049  1
  H  H25  1  0.31293366  0.89343496  0.80316951  1
  H  H26  1  0.31293366  0.60656504  0.30316951  1
  H  H27  1  0.68706634  0.10656504  0.19683049  1
  H  H28  1  0.09557792  0.48453789  0.65008993  1
  H  H29  1  0.90442208  0.98453789  0.84991007  1
  H  H30  1  0.90442208  0.51546211  0.34991007  1
  H  H31  1  0.09557792  0.01546211  0.15008993  1
  H  H32  1  0.21980964  0.52562541  0.57375438  1
  H  H33  1  0.78019036  0.02562541  0.92624562  1
  H  H34  1  0.78019036  0.47437459  0.42624562  1
  H  H35  1  0.21980964  0.97437459  0.07375438  1
  H  H36  1  0.62787273  0.22823452  0.90476649  1
  H  H37  1  0.37212727  0.72823452  0.59523351  1
  H  H38  1  0.37212727  0.77176548  0.09523351  1
  H  H39  1  0.62787273  0.27176548  0.40476649  1
  H  H40  1  0.84190350  0.23762061  0.00515834  1
  H  H41  1  0.15809650  0.73762061  0.49484166  1
  H  H42  1  0.15809650  0.76237939  0.99484166  1
  H  H43  1  0.84190350  0.26237939  0.50515834  1
  S  S44  1  0.01675602  0.05045904  0.67737510  1
  S  S45  1  0.98324398  0.55045904  0.82262490  1
  S  S46  1  0.98324398  0.94954096  0.32262490  1
  S  S47  1  0.01675602  0.44954096  0.17737510  1
  O  O48  1  0.42995985  0.29363372  0.78477317  1
  O  O49  1  0.57004015  0.79363372  0.71522683  1
  O  O50  1  0.57004015  0.70636628  0.21522683  1
  O  O51  1  0.42995985  0.20636628  0.28477317  1
  O  O52  1  0.25140269  0.25291576  0.47102359  1
  O  O53  1  0.74859731  0.75291576  0.02897641  1
  O  O54  1  0.74859731  0.74708424  0.52897641  1
  O  O55  1  0.25140269  0.24708424  0.97102359  1
  O  O56  1  0.06591368  0.18014925  0.62839863  1
  O  O57  1  0.93408632  0.68014925  0.87160137  1
  O  O58  1  0.93408632  0.81985075  0.37160137  1
  O  O59  1  0.06591368  0.31985075  0.12839863  1
  O  O60  1  0.46165583  0.09063117  0.64055722  1
  O  O61  1  0.53834417  0.59063117  0.85944278  1
  O  O62  1  0.53834417  0.90936883  0.35944278  1
  O  O63  1  0.46165583  0.40936883  0.14055722  1
  O  O64  1  0.57144744  0.37333506  0.62732840  1
  O  O65  1  0.42855256  0.87333506  0.87267160  1
  O  O66  1  0.42855256  0.62666494  0.37267160  1
  O  O67  1  0.57144744  0.12666494  0.12732840  1
  O  O68  1  0.16902849  0.44597380  0.60389053  1
  O  O69  1  0.83097151  0.94597380  0.89610947  1
  O  O70  1  0.83097151  0.55402620  0.39610947  1
  O  O71  1  0.16902849  0.05402620  0.10389053  1
  O  O72  1  0.03579113  0.07716882  0.79283168  1
  O  O73  1  0.96420887  0.57716882  0.70716832  1
  O  O74  1  0.96420887  0.92283118  0.20716832  1
  O  O75  1  0.03579113  0.42283118  0.29283168  1
  O  O76  1  0.80449325  0.01464558  0.60891849  1
  O  O77  1  0.19550675  0.51464558  0.89108151  1
  O  O78  1  0.19550675  0.98535442  0.39108151  1
  O  O79  1  0.80449325  0.48535442  0.10891849  1
  O  O80  1  0.16050915  0.94305894  0.67300733  1
  O  O81  1  0.83949085  0.44305894  0.82699267  1
  O  O82  1  0.83949085  0.05694106  0.32699267  1
  O  O83  1  0.16050915  0.55694106  0.17300733  1
  O  O84  1  0.72340257  0.17925876  0.97018972  1
  O  O85  1  0.27659743  0.67925876  0.52981028  1
  O  O86  1  0.27659743  0.82074124  0.02981028  1
  O  O87  1  0.72340257  0.32074124  0.47018972  1
