# generated using pymatgen
data_MnPH6NO5
_symmetry_space_group_name_H-M   'P 1'
_cell_length_a   5.77377835
_cell_length_b   8.95185878
_cell_length_c   4.91099099
_cell_angle_alpha   90.00000000
_cell_angle_beta   90.00000000
_cell_angle_gamma   90.00000000
_symmetry_Int_Tables_number   1
_chemical_formula_structural   MnPH6NO5
_chemical_formula_sum   'Mn2 P2 H12 N2 O10'
_cell_volume   253.82971808
_cell_formula_units_Z   2
loop_
 _symmetry_equiv_pos_site_id
 _symmetry_equiv_pos_as_xyz
  1  'x, y, z'
loop_
 _atom_site_type_symbol
 _atom_site_label
 _atom_site_symmetry_multiplicity
 _atom_site_fract_x
 _atom_site_fract_y
 _atom_site_fract_z
 _atom_site_occupancy
  Mn  Mn0  1  0.50000000  0.02272610  0.52463620  1
  Mn  Mn1  1  0.00000000  0.97727390  0.02463620  1
  P  P2  1  0.50000000  0.80016725  0.09023754  1
  P  P3  1  0.00000000  0.19983275  0.59023754  1
  H  H4  1  0.50000000  0.53945697  0.82172419  1
  H  H5  1  0.00000000  0.46054303  0.32172419  1
  H  H6  1  0.50000000  0.54425187  0.46730330  1
  H  H7  1  0.00000000  0.45574813  0.96730330  1
  H  H8  1  0.64804793  0.40977512  0.63719560  1
  H  H9  1  0.35195207  0.40977512  0.63719560  1
  H  H10  1  0.85195207  0.59022488  0.13719560  1
  H  H11  1  0.14804793  0.59022488  0.13719560  1
  H  H12  1  0.63619386  0.19980751  0.08857411  1
  H  H13  1  0.36380614  0.19980751  0.08857411  1
  H  H14  1  0.86380614  0.80019249  0.58857411  1
  H  H15  1  0.13619386  0.80019249  0.58857411  1
  N  N16  1  0.50000000  0.47519571  0.64132022  1
  N  N17  1  0.00000000  0.52480429  0.14132022  1
  O  O18  1  0.50000000  0.83068059  0.78276989  1
  O  O19  1  0.00000000  0.16931941  0.28276989  1
  O  O20  1  0.50000000  0.62860440  0.14108538  1
  O  O21  1  0.00000000  0.37139560  0.64108538  1
  O  O22  1  0.71536255  0.87399112  0.23343758  1
  O  O23  1  0.28463745  0.87399112  0.23343758  1
  O  O24  1  0.78463745  0.12600888  0.73343758  1
  O  O25  1  0.21536255  0.12600888  0.73343758  1
  O  O26  1  0.50000000  0.21239453  0.20800872  1
  O  O27  1  0.00000000  0.78760547  0.70800872  1
