# generated using pymatgen
data_K4MnH6(S2O9)2
_symmetry_space_group_name_H-M   'P 1'
_cell_length_a   7.60652679
_cell_length_b   21.19026174
_cell_length_c   10.92753782
_cell_angle_alpha   90.00000000
_cell_angle_beta   90.00000000
_cell_angle_gamma   90.00000000
_symmetry_Int_Tables_number   1
_chemical_formula_structural   K4MnH6(S2O9)2
_chemical_formula_sum   'K16 Mn4 H24 S16 O72'
_cell_volume   1761.34746444
_cell_formula_units_Z   4
loop_
 _symmetry_equiv_pos_site_id
 _symmetry_equiv_pos_as_xyz
  1  'x, y, z'
loop_
 _atom_site_type_symbol
 _atom_site_label
 _atom_site_symmetry_multiplicity
 _atom_site_fract_x
 _atom_site_fract_y
 _atom_site_fract_z
 _atom_site_occupancy
  K  K0  1  0.59722011  0.16639150  0.36129541  1
  K  K1  1  0.90277989  0.33360850  0.36129541  1
  K  K2  1  0.09722011  0.83360850  0.13870459  1
  K  K3  1  0.40277989  0.66639150  0.13870459  1
  K  K4  1  0.40277989  0.83360850  0.63870459  1
  K  K5  1  0.09722011  0.66639150  0.63870459  1
  K  K6  1  0.90277989  0.16639150  0.86129541  1
  K  K7  1  0.59722011  0.33360850  0.86129541  1
  K  K8  1  0.22511066  0.44413615  0.66131632  1
  K  K9  1  0.27488934  0.05586385  0.66131632  1
  K  K10  1  0.72511066  0.55586385  0.83868368  1
  K  K11  1  0.77488934  0.94413615  0.83868368  1
  K  K12  1  0.77488934  0.55586385  0.33868368  1
  K  K13  1  0.72511066  0.94413615  0.33868368  1
  K  K14  1  0.27488934  0.44413615  0.16131632  1
  K  K15  1  0.22511066  0.05586385  0.16131632  1
  Mn  Mn16  1  0.25000000  0.25000000  0.65678281  1
  Mn  Mn17  1  0.75000000  0.75000000  0.84321719  1
  Mn  Mn18  1  0.75000000  0.75000000  0.34321719  1
  Mn  Mn19  1  0.25000000  0.25000000  0.15678281  1
  H  H20  1  0.59862370  0.07201832  0.94759226  1
  H  H21  1  0.90137630  0.42798168  0.94759226  1
  H  H22  1  0.09862370  0.92798168  0.55240774  1
  H  H23  1  0.40137630  0.57201832  0.55240774  1
  H  H24  1  0.40137630  0.92798168  0.05240774  1
  H  H25  1  0.09862370  0.57201832  0.05240774  1
  H  H26  1  0.90137630  0.07201832  0.44759226  1
  H  H27  1  0.59862370  0.42798168  0.44759226  1
  H  H28  1  0.59085955  0.28706322  0.14949549  1
  H  H29  1  0.90914045  0.21293678  0.14949549  1
  H  H30  1  0.09085955  0.71293678  0.35050451  1
  H  H31  1  0.40914045  0.78706322  0.35050451  1
  H  H32  1  0.40914045  0.71293678  0.85050451  1
  H  H33  1  0.09085955  0.78706322  0.85050451  1
  H  H34  1  0.90914045  0.28706322  0.64949549  1
  H  H35  1  0.59085955  0.21293678  0.64949549  1
  H  H36  1  0.56220548  0.22252820  0.07652221  1
  H  H37  1  0.93779452  0.27747180  0.07652221  1
  H  H38  1  0.06220548  0.77747180  0.42347779  1
  H  H39  1  0.43779452  0.72252820  0.42347779  1
  H  H40  1  0.43779452  0.77747180  0.92347779  1
  H  H41  1  0.06220548  0.72252820  0.92347779  1
  H  H42  1  0.93779452  0.22252820  0.57652221  1
  H  H43  1  0.56220548  0.27747180  0.57652221  1
  S  S44  1  0.76211759  0.07209924  0.11320996  1
  S  S45  1  0.73788241  0.42790076  0.11320996  1
  S  S46  1  0.26211759  0.92790076  0.38679004  1
  S  S47  1  0.23788241  0.57209924  0.38679004  1
  S  S48  1  0.23788241  0.92790076  0.88679004  1
  S  S49  1  0.26211759  0.57209924  0.88679004  1
  S  S50  1  0.73788241  0.07209924  0.61320996  1
  S  S51  1  0.76211759  0.42790076  0.61320996  1
  S  S52  1  0.36924649  0.16167836  0.90766607  1
  S  S53  1  0.13075351  0.33832164  0.90766607  1
  S  S54  1  0.86924649  0.83832164  0.59233393  1
  S  S55  1  0.63075351  0.66167836  0.59233393  1
  S  S56  1  0.63075351  0.83832164  0.09233393  1
  S  S57  1  0.86924649  0.66167836  0.09233393  1
  S  S58  1  0.13075351  0.16167836  0.40766607  1
  S  S59  1  0.36924649  0.33832164  0.40766607  1
  O  O60  1  0.59292454  0.07618065  0.17664234  1
  O  O61  1  0.90707546  0.42381935  0.17664234  1
  O  O62  1  0.09292454  0.92381935  0.32335766  1
  O  O63  1  0.40707546  0.57618065  0.32335766  1
  O  O64  1  0.40707546  0.92381935  0.82335766  1
  O  O65  1  0.09292454  0.57618065  0.82335766  1
  O  O66  1  0.90707546  0.07618065  0.67664234  1
  O  O67  1  0.59292454  0.42381935  0.67664234  1
  O  O68  1  0.87570646  0.02082782  0.15476941  1
  O  O69  1  0.62429354  0.47917218  0.15476941  1
  O  O70  1  0.37570646  0.97917218  0.34523059  1
  O  O71  1  0.12429354  0.52082782  0.34523059  1
  O  O72  1  0.12429354  0.97917218  0.84523059  1
  O  O73  1  0.37570646  0.52082782  0.84523059  1
  O  O74  1  0.62429354  0.02082782  0.65476941  1
  O  O75  1  0.87570646  0.47917218  0.65476941  1
  O  O76  1  0.85570359  0.13330455  0.10954512  1
  O  O77  1  0.64429641  0.36669545  0.10954512  1
  O  O78  1  0.35570359  0.86669545  0.39045488  1
  O  O79  1  0.14429641  0.63330455  0.39045488  1
  O  O80  1  0.14429641  0.86669545  0.89045488  1
  O  O81  1  0.35570359  0.63330455  0.89045488  1
  O  O82  1  0.64429641  0.13330455  0.60954512  1
  O  O83  1  0.85570359  0.36669545  0.60954512  1
  O  O84  1  0.72099121  0.05541933  0.97249118  1
  O  O85  1  0.77900879  0.44458067  0.97249118  1
  O  O86  1  0.22099121  0.94458067  0.52750882  1
  O  O87  1  0.27900879  0.55541933  0.52750882  1
  O  O88  1  0.27900879  0.94458067  0.02750882  1
  O  O89  1  0.22099121  0.55541933  0.02750882  1
  O  O90  1  0.77900879  0.05541933  0.47249118  1
  O  O91  1  0.72099121  0.44458067  0.47249118  1
  O  O92  1  0.26806467  0.17566354  0.79276814  1
  O  O93  1  0.23193533  0.32433646  0.79276814  1
  O  O94  1  0.76806467  0.82433646  0.70723186  1
  O  O95  1  0.73193533  0.67566354  0.70723186  1
  O  O96  1  0.73193533  0.82433646  0.20723186  1
  O  O97  1  0.76806467  0.67566354  0.20723186  1
  O  O98  1  0.23193533  0.17566354  0.29276814  1
  O  O99  1  0.26806467  0.32433646  0.29276814  1
  O  O100  1  0.25167923  0.17581277  0.01441015  1
  O  O101  1  0.24832077  0.32418723  0.01441015  1
  O  O102  1  0.75167923  0.82418723  0.48558985  1
  O  O103  1  0.74832077  0.67581277  0.48558985  1
  O  O104  1  0.74832077  0.82418723  0.98558985  1
  O  O105  1  0.75167923  0.67581277  0.98558985  1
  O  O106  1  0.24832077  0.17581277  0.51441015  1
  O  O107  1  0.25167923  0.32418723  0.51441015  1
  O  O108  1  0.41178360  0.09303942  0.90695101  1
  O  O109  1  0.08821640  0.40696058  0.90695101  1
  O  O110  1  0.91178360  0.90696058  0.59304899  1
  O  O111  1  0.58821640  0.59303942  0.59304899  1
  O  O112  1  0.58821640  0.90696058  0.09304899  1
  O  O113  1  0.91178360  0.59303942  0.09304899  1
  O  O114  1  0.08821640  0.09303942  0.40695101  1
  O  O115  1  0.41178360  0.40696058  0.40695101  1
  O  O116  1  0.53290012  0.20006844  0.91528824  1
  O  O117  1  0.96709988  0.29993156  0.91528824  1
  O  O118  1  0.03290012  0.79993156  0.58471176  1
  O  O119  1  0.46709988  0.70006844  0.58471176  1
  O  O120  1  0.46709988  0.79993156  0.08471176  1
  O  O121  1  0.03290012  0.70006844  0.08471176  1
  O  O122  1  0.96709988  0.20006844  0.41528824  1
  O  O123  1  0.53290012  0.29993156  0.41528824  1
  O  O124  1  0.54135265  0.24390625  0.15607514  1
  O  O125  1  0.95864735  0.25609375  0.15607514  1
  O  O126  1  0.04135265  0.75609375  0.34392486  1
  O  O127  1  0.45864735  0.74390625  0.34392486  1
  O  O128  1  0.45864735  0.75609375  0.84392486  1
  O  O129  1  0.04135265  0.74390625  0.84392486  1
  O  O130  1  0.95864735  0.24390625  0.65607514  1
  O  O131  1  0.54135265  0.25609375  0.65607514  1
