# generated using pymatgen
data_CeOF
_symmetry_space_group_name_H-M   'P 1'
_cell_length_a   3.98928781
_cell_length_b   7.07005703
_cell_length_c   3.98928778
_cell_angle_alpha   106.38710911
_cell_angle_beta   59.99999980
_cell_angle_gamma   106.38710668
_symmetry_Int_Tables_number   1
_chemical_formula_structural   CeOF
_chemical_formula_sum   'Ce2 O2 F2'
_cell_volume   92.12602283
_cell_formula_units_Z   2
loop_
 _symmetry_equiv_pos_site_id
 _symmetry_equiv_pos_as_xyz
  1  'x, y, z'
loop_
 _atom_site_type_symbol
 _atom_site_label
 _atom_site_symmetry_multiplicity
 _atom_site_fract_x
 _atom_site_fract_y
 _atom_site_fract_z
 _atom_site_occupancy
  Ce  Ce0  1  0.24006761  0.72020183  0.24006761  1
  Ce  Ce1  1  0.75993239  0.27979817  0.75993239  1
  O  O2  1  0.12219146  0.36657337  0.12219146  1
  O  O3  1  0.87780854  0.63342663  0.87780854  1
  F  F4  1  0.36988380  0.10965140  0.36988380  1
  F  F5  1  0.63011620  0.89034860  0.63011620  1
