# generated using pymatgen
data_Zr3N2O3
_symmetry_space_group_name_H-M   'P 1'
_cell_length_a   4.08702775
_cell_length_b   5.74666392
_cell_length_c   10.78118212
_cell_angle_alpha   90.00000000
_cell_angle_beta   90.00000000
_cell_angle_gamma   110.83022350
_symmetry_Int_Tables_number   1
_chemical_formula_structural   Zr3N2O3
_chemical_formula_sum   'Zr6 N4 O6'
_cell_volume   236.66460357
_cell_formula_units_Z   2
loop_
 _symmetry_equiv_pos_site_id
 _symmetry_equiv_pos_as_xyz
  1  'x, y, z'
loop_
 _atom_site_type_symbol
 _atom_site_label
 _atom_site_symmetry_multiplicity
 _atom_site_fract_x
 _atom_site_fract_y
 _atom_site_fract_z
 _atom_site_occupancy
  Zr  Zr0  1  0.19209470  0.38418839  0.25000000  1
  Zr  Zr1  1  0.14327856  0.28655611  0.94339405  1
  Zr  Zr2  1  0.14327856  0.28655611  0.55660595  1
  Zr  Zr3  1  0.80790530  0.61581161  0.75000000  1
  Zr  Zr4  1  0.85672144  0.71344389  0.05660595  1
  Zr  Zr5  1  0.85672144  0.71344389  0.44339405  1
  N  N6  1  0.29896219  0.59792338  0.42122476  1
  N  N7  1  0.29896219  0.59792338  0.07877524  1
  N  N8  1  0.70103781  0.40207662  0.57877524  1
  N  N9  1  0.70103781  0.40207662  0.92122476  1
  O  O10  1  0.24569731  0.49139562  0.75000000  1
  O  O11  1  0.04366278  0.08732457  0.11594709  1
  O  O12  1  0.04366278  0.08732457  0.38405291  1
  O  O13  1  0.75430269  0.50860438  0.25000000  1
  O  O14  1  0.95633722  0.91267543  0.88405291  1
  O  O15  1  0.95633722  0.91267543  0.61594709  1
