# generated using pymatgen
data_CaPbI4
_symmetry_space_group_name_H-M   'P 1'
_cell_length_a   4.62131823
_cell_length_b   16.05104285
_cell_length_c   15.25645270
_cell_angle_alpha   90.04231306
_cell_angle_beta   90.05495479
_cell_angle_gamma   90.05004805
_symmetry_Int_Tables_number   1
_chemical_formula_structural   CaPbI4
_chemical_formula_sum   'Ca4 Pb4 I16'
_cell_volume   1131.67627937
_cell_formula_units_Z   4
loop_
 _symmetry_equiv_pos_site_id
 _symmetry_equiv_pos_as_xyz
  1  'x, y, z'
loop_
 _atom_site_type_symbol
 _atom_site_label
 _atom_site_symmetry_multiplicity
 _atom_site_fract_x
 _atom_site_fract_y
 _atom_site_fract_z
 _atom_site_occupancy
  Ca  Ca0  1  0.00001881  0.01636284  0.00178443  1
  Ca  Ca1  1  -0.00006534  0.23149785  0.49428612  1
  Ca  Ca2  1  0.49998292  0.98368424  0.50183471  1
  Ca  Ca3  1  0.49998788  0.76851258  0.99425535  1
  Pb  Pb4  1  0.00045083  0.51924860  0.99934046  1
  Pb  Pb5  1  0.99940045  0.73469044  0.49413169  1
  Pb  Pb6  1  0.50008471  0.48046741  0.49923341  1
  Pb  Pb7  1  0.50007134  0.26527361  0.99414838  1
  I  I8  1  -0.00030064  0.34885755  0.11866345  1
  I  I9  1  0.99996709  0.06353989  0.38527018  1
  I  I10  1  0.99978635  0.84854059  0.11090080  1
  I  I11  1  0.00004131  0.56357329  0.37462912  1
  I  I12  1  0.00001352  0.39031721  0.61769561  1
  I  I13  1  0.00046134  0.17422732  0.87674885  1
  I  I14  1  0.00022805  0.68850819  0.87856463  1
  I  I15  1  0.00001518  0.90221059  0.61679856  1
  I  I16  1  0.49980260  0.09780560  0.11678573  1
  I  I17  1  0.49988221  0.31152241  0.37846319  1
  I  I18  1  0.49973293  0.60963128  0.11765046  1
  I  I19  1  0.50026910  0.93656742  0.88528059  1
  I  I20  1  0.49993273  0.15145854  0.61091188  1
  I  I21  1  0.50045672  0.43645701  0.87459178  1
  I  I22  1  0.49990196  0.65111748  0.61852028  1
  I  I23  1  0.49987793  0.82592805  0.37670834  1
