# generated using pymatgen
data_H13S2N3O8
_symmetry_space_group_name_H-M   'P 1'
_cell_length_a   8.41557714
_cell_length_b   10.19874655
_cell_length_c   11.71566360
_cell_angle_alpha   90.00655532
_cell_angle_beta   110.17837835
_cell_angle_gamma   100.52704633
_symmetry_Int_Tables_number   1
_chemical_formula_structural   H13S2N3O8
_chemical_formula_sum   'H52 S8 N12 O32'
_cell_volume   925.75955370
_cell_formula_units_Z   4
loop_
 _symmetry_equiv_pos_site_id
 _symmetry_equiv_pos_as_xyz
  1  'x, y, z'
loop_
 _atom_site_type_symbol
 _atom_site_label
 _atom_site_symmetry_multiplicity
 _atom_site_fract_x
 _atom_site_fract_y
 _atom_site_fract_z
 _atom_site_occupancy
  H  H0  1  0.14616100  0.87465158  0.93898311  1
  H  H1  1  0.15291978  0.43179304  0.84506434  1
  H  H2  1  0.13098705  0.93431584  0.57569507  1
  H  H3  1  0.14183900  0.26593897  0.81693074  1
  H  H4  1  0.11910727  0.37044281  0.70163124  1
  H  H5  1  0.13736232  0.76792825  0.56260390  1
  H  H6  1  0.03338821  0.17046152  0.53024321  1
  H  H7  1  0.15451417  0.86883497  0.44951611  1
  H  H8  1  0.03722738  0.66677206  0.23458035  1
  H  H9  1  0.97801380  0.34020134  0.28450899  1
  H  H10  1  0.39498980  0.81168758  0.84955416  1
  H  H11  1  0.44519800  0.67236763  0.91451133  1
  H  H12  1  0.13266550  0.93856858  0.07000538  1
  H  H13  1  0.17218405  0.43669301  0.35580316  1
  H  H14  1  0.15551155  0.26995653  0.32785721  1
  H  H15  1  0.50169774  0.99225349  0.73077584  1
  H  H16  1  0.12375761  0.37082435  0.21090776  1
  H  H17  1  0.59281096  0.81623047  0.96148633  1
  H  H18  1  0.15697898  0.77783170  0.06023079  1
  H  H19  1  0.02943662  0.17903638  0.02377434  1
  H  H20  1  0.54730611  0.74153599  0.82164949  1
  H  H21  1  0.50624922  0.50096385  0.77199494  1
  H  H22  1  0.39187247  0.30419078  0.61034695  1
  H  H23  1  0.42023307  0.69022679  0.41764117  1
  H  H24  1  0.43364288  0.16516850  0.56178732  1
  H  H25  1  0.44797669  0.76628393  0.29593702  1
  H  H26  1  0.55202331  0.23371607  0.70406298  1
  H  H27  1  0.56635712  0.83483150  0.43821268  1
  H  H28  1  0.57976693  0.30977321  0.58235883  1
  H  H29  1  0.60812753  0.69580922  0.38965305  1
  H  H30  1  0.49375078  0.49903615  0.22800506  1
  H  H31  1  0.45269389  0.25846401  0.17835051  1
  H  H32  1  0.97056338  0.82096362  0.97622566  1
  H  H33  1  0.84302102  0.22216830  0.93976921  1
  H  H34  1  0.40718904  0.18376953  0.03851367  1
  H  H35  1  0.87624239  0.62917565  0.78909224  1
  H  H36  1  0.49830226  0.00774651  0.26922416  1
  H  H37  1  0.84448845  0.73004347  0.67214279  1
  H  H38  1  0.82781595  0.56330699  0.64419684  1
  H  H39  1  0.86733450  0.06143142  0.92999462  1
  H  H40  1  0.55480200  0.32763237  0.08548867  1
  H  H41  1  0.60501020  0.18831242  0.15044584  1
  H  H42  1  0.02198620  0.65979966  0.71549101  1
  H  H43  1  0.96277262  0.33322794  0.76541965  1
  H  H44  1  0.84548583  0.13116503  0.55048389  1
  H  H45  1  0.96661179  0.82953848  0.46975679  1
  H  H46  1  0.86263768  0.23207175  0.43739610  1
  H  H47  1  0.88089273  0.62955719  0.29836876  1
  H  H48  1  0.85816100  0.73406103  0.18306926  1
  H  H49  1  0.86901295  0.06568416  0.42430493  1
  H  H50  1  0.84708022  0.56820696  0.15493566  1
  H  H51  1  0.85383900  0.12534842  0.06101689  1
  S  S52  1  0.28219766  0.54588761  0.58816909  1
  S  S53  1  0.27590113  0.04370445  0.80142547  1
  S  S54  1  0.26822951  0.53454503  0.07992951  1
  S  S55  1  0.26934440  0.03485175  0.30309856  1
  S  S56  1  0.73065560  0.96514825  0.69690144  1
  S  S57  1  0.73177049  0.46545497  0.92007049  1
  S  S58  1  0.72409887  0.95629555  0.19857453  1
  S  S59  1  0.71780234  0.45411239  0.41183091  1
  N  N60  1  0.09308960  0.35023176  0.78160629  1
  N  N61  1  0.09795050  0.84970169  0.51538619  1
  N  N62  1  0.10673931  0.35402785  0.29416989  1
  N  N63  1  0.49640702  0.76088712  0.88638267  1
  N  N64  1  0.10188204  0.85337193  0.01162886  1
  N  N65  1  0.49034785  0.25314260  0.61548963  1
  N  N66  1  0.50965215  0.74685740  0.38451037  1
  N  N67  1  0.89811796  0.14662807  0.98837114  1
  N  N68  1  0.50359298  0.23911288  0.11361733  1
  N  N69  1  0.89326069  0.64597215  0.70583011  1
  N  N70  1  0.90204950  0.15029831  0.48461381  1
  N  N71  1  0.90691040  0.64976824  0.21839371  1
  O  O72  1  0.21176401  0.89790858  0.81022016  1
  O  O73  1  0.24638109  0.57957209  0.95715397  1
  O  O74  1  0.20051019  0.62324476  0.65211558  1
  O  O75  1  0.23994339  0.12532404  0.89190131  1
  O  O76  1  0.20869544  0.39920665  0.58156982  1
  O  O77  1  0.19080607  0.08215866  0.67583587  1
  O  O78  1  0.20747136  0.89065712  0.30566799  1
  O  O79  1  0.25484161  0.59054248  0.46298298  1
  O  O80  1  0.52736045  0.94254618  0.66227736  1
  O  O81  1  0.21292763  0.62307003  0.15245360  1
  O  O82  1  0.53099235  0.45381075  0.85603029  1
  O  O83  1  0.24537529  0.11517784  0.39798904  1
  O  O84  1  0.47373430  0.56727455  0.65938831  1
  O  O85  1  0.46801885  0.06548782  0.82880755  1
  O  O86  1  0.18785930  0.39294078  0.07827566  1
  O  O87  1  0.20000295  0.08347297  0.18076702  1
  O  O88  1  0.79999705  0.91652703  0.81923298  1
  O  O89  1  0.81214070  0.60705922  0.92172434  1
  O  O90  1  0.53198115  0.93451218  0.17119245  1
  O  O91  1  0.52626570  0.43272545  0.34061169  1
  O  O92  1  0.75462471  0.88482216  0.60201096  1
  O  O93  1  0.46900765  0.54618925  0.14396971  1
  O  O94  1  0.78707237  0.37692997  0.84754640  1
  O  O95  1  0.47263955  0.05745382  0.33772264  1
  O  O96  1  0.74515839  0.40945752  0.53701702  1
  O  O97  1  0.79252864  0.10934288  0.69433201  1
  O  O98  1  0.80919393  0.91784134  0.32416413  1
  O  O99  1  0.79130456  0.60079335  0.41843018  1
  O  O100  1  0.76005661  0.87467596  0.10809869  1
  O  O101  1  0.79948981  0.37675524  0.34788442  1
  O  O102  1  0.75361891  0.42042791  0.04284603  1
  O  O103  1  0.78823599  0.10209142  0.18977984  1
