# generated using pymatgen
data_DyHO2
_symmetry_space_group_name_H-M   'P 1'
_cell_length_a   5.00488227
_cell_length_b   11.11406858
_cell_length_c   3.54835559
_cell_angle_alpha   90.00000000
_cell_angle_beta   90.00000000
_cell_angle_gamma   90.00000000
_symmetry_Int_Tables_number   1
_chemical_formula_structural   DyHO2
_chemical_formula_sum   'Dy4 H4 O8'
_cell_volume   197.37587733
_cell_formula_units_Z   4
loop_
 _symmetry_equiv_pos_site_id
 _symmetry_equiv_pos_as_xyz
  1  'x, y, z'
loop_
 _atom_site_type_symbol
 _atom_site_label
 _atom_site_symmetry_multiplicity
 _atom_site_fract_x
 _atom_site_fract_y
 _atom_site_fract_z
 _atom_site_occupancy
  Dy  Dy0  1  0.07611246  0.85477737  0.25000000  1
  Dy  Dy1  1  0.42388754  0.35477737  0.25000000  1
  Dy  Dy2  1  0.57611246  0.64522263  0.75000000  1
  Dy  Dy3  1  0.92388754  0.14522263  0.75000000  1
  H  H4  1  0.11849465  0.58983552  0.25000000  1
  H  H5  1  0.38150535  0.08983552  0.25000000  1
  H  H6  1  0.61849465  0.91016448  0.75000000  1
  H  H7  1  0.88150535  0.41016448  0.75000000  1
  O  O8  1  0.19244421  0.06126430  0.25000000  1
  O  O9  1  0.18044638  0.30675811  0.75000000  1
  O  O10  1  0.31955362  0.80675811  0.75000000  1
  O  O11  1  0.30755579  0.56126430  0.25000000  1
  O  O12  1  0.69244421  0.43873570  0.75000000  1
  O  O13  1  0.68044638  0.19324189  0.25000000  1
  O  O14  1  0.81955362  0.69324189  0.25000000  1
  O  O15  1  0.80755579  0.93873570  0.75000000  1
