# generated using pymatgen
data_NaTmO2
_symmetry_space_group_name_H-M   'P 1'
_cell_length_a   5.88088848
_cell_length_b   7.34730621
_cell_length_c   6.02257065
_cell_angle_alpha   75.09941260
_cell_angle_beta   112.43083658
_cell_angle_gamma   75.88777582
_symmetry_Int_Tables_number   1
_chemical_formula_structural   NaTmO2
_chemical_formula_sum   'Na4 Tm4 O8'
_cell_volume   214.74484198
_cell_formula_units_Z   4
loop_
 _symmetry_equiv_pos_site_id
 _symmetry_equiv_pos_as_xyz
  1  'x, y, z'
loop_
 _atom_site_type_symbol
 _atom_site_label
 _atom_site_symmetry_multiplicity
 _atom_site_fract_x
 _atom_site_fract_y
 _atom_site_fract_z
 _atom_site_occupancy
  Na  Na0  1  0.80582652  0.38834696  0.05582652  1
  Na  Na1  1  0.43056679  0.13886641  0.18056679  1
  Na  Na2  1  0.56943321  0.86113359  0.81943321  1
  Na  Na3  1  0.19417348  0.61165304  0.94417348  1
  Tm  Tm4  1  0.94304291  0.11391419  0.69304291  1
  Tm  Tm5  1  0.68313705  0.63372490  0.43313705  1
  Tm  Tm6  1  0.31686295  0.36627510  0.56686295  1
  Tm  Tm7  1  0.05695709  0.88608581  0.30695709  1
  O  O8  1  0.93986941  0.62709599  0.23388762  1
  O  O9  1  0.83281545  0.87608764  0.54050292  1
  O  O10  1  0.29109691  0.87608764  0.08340844  1
  O  O11  1  0.56696540  0.37290401  0.36098361  1
  O  O12  1  0.43303460  0.62709599  0.63901639  1
  O  O13  1  0.70890309  0.12391236  0.91659156  1
  O  O14  1  0.16718455  0.12391236  0.45949708  1
  O  O15  1  0.06013059  0.37290401  0.76611238  1
