# generated using pymatgen
data_Sm3NbO7
_symmetry_space_group_name_H-M   'P 1'
_cell_length_a   6.51782637
_cell_length_b   6.63079900
_cell_length_c   7.75339594
_cell_angle_alpha   73.24929927
_cell_angle_beta   89.71379214
_cell_angle_gamma   82.89708585
_symmetry_Int_Tables_number   1
_chemical_formula_structural   Sm3NbO7
_chemical_formula_sum   'Sm6 Nb2 O14'
_cell_volume   318.24269972
_cell_formula_units_Z   2
loop_
 _symmetry_equiv_pos_site_id
 _symmetry_equiv_pos_as_xyz
  1  'x, y, z'
loop_
 _atom_site_type_symbol
 _atom_site_label
 _atom_site_symmetry_multiplicity
 _atom_site_fract_x
 _atom_site_fract_y
 _atom_site_fract_z
 _atom_site_occupancy
  Sm  Sm0  1  0.26017959  0.46329346  0.88433601  1
  Sm  Sm1  1  0.26293931  0.45565351  0.39190053  1
  Sm  Sm2  1  0.45173262  0.99198056  0.24999554  1
  Sm  Sm3  1  0.54826738  0.00801944  0.75000446  1
  Sm  Sm4  1  0.73706069  0.54434649  0.60809947  1
  Sm  Sm5  1  0.73982041  0.53670654  0.11566399  1
  Nb  Nb6  1  0.00000000  0.00000000  0.00000000  1
  Nb  Nb7  1  0.00000000  0.00000000  0.50000000  1
  O  O8  1  0.28895200  0.06820286  0.51547921  1
  O  O9  1  0.07449151  0.68455545  0.04562683  1
  O  O10  1  0.28978794  0.06937698  0.95153902  1
  O  O11  1  0.07192591  0.67531028  0.60847974  1
  O  O12  1  0.08416499  0.95041737  0.26322294  1
  O  O13  1  0.43995650  0.35052168  0.16529329  1
  O  O14  1  0.45347449  0.36342595  0.65806819  1
  O  O15  1  0.54652551  0.63657405  0.34193181  1
  O  O16  1  0.56004350  0.64947832  0.83470671  1
  O  O17  1  0.91583501  0.04958263  0.73677706  1
  O  O18  1  0.92807409  0.32468972  0.39152026  1
  O  O19  1  0.71021206  0.93062302  0.04846098  1
  O  O20  1  0.92550849  0.31544455  0.95437317  1
  O  O21  1  0.71104800  0.93179714  0.48452079  1
