# generated using pymatgen
data_Cs3ErO3
_symmetry_space_group_name_H-M   'P 1'
_cell_length_a   7.59831110
_cell_length_b   7.59831065
_cell_length_c   7.63076910
_cell_angle_alpha   83.97567186
_cell_angle_beta   96.02432559
_cell_angle_gamma   63.66987651
_symmetry_Int_Tables_number   1
_chemical_formula_structural   Cs3ErO3
_chemical_formula_sum   'Cs6 Er2 O6'
_cell_volume   386.95628803
_cell_formula_units_Z   2
loop_
 _symmetry_equiv_pos_site_id
 _symmetry_equiv_pos_as_xyz
  1  'x, y, z'
loop_
 _atom_site_type_symbol
 _atom_site_label
 _atom_site_symmetry_multiplicity
 _atom_site_fract_x
 _atom_site_fract_y
 _atom_site_fract_z
 _atom_site_occupancy
  Cs  Cs0  1  0.20895601  0.20895601  0.50000000  1
  Cs  Cs1  1  0.26179790  0.26179790  0.00000000  1
  Cs  Cs2  1  0.35920136  0.64079864  0.65019323  1
  Cs  Cs3  1  0.64079864  0.35920136  0.34980677  1
  Cs  Cs4  1  0.73820210  0.73820210  0.00000000  1
  Cs  Cs5  1  0.79104399  0.79104399  0.50000000  1
  Er  Er6  1  0.17069487  0.82930513  0.14846833  1
  Er  Er7  1  0.82930513  0.17069487  0.85153167  1
  O  O8  1  0.16445019  0.56752435  0.26449549  1
  O  O9  1  0.09912204  0.90087796  0.85800403  1
  O  O10  1  0.56752435  0.16445019  0.73550451  1
  O  O11  1  0.43247565  0.83554981  0.26449549  1
  O  O12  1  0.90087796  0.09912204  0.14199597  1
  O  O13  1  0.83554981  0.43247565  0.73550451  1
