# generated using pymatgen
data_LiTi2(PO4)3
_symmetry_space_group_name_H-M   'P 1'
_cell_length_a   8.64861030
_cell_length_b   12.00716347
_cell_length_c   8.70920450
_cell_angle_alpha   90.00000000
_cell_angle_beta   90.00000000
_cell_angle_gamma   90.00000000
_symmetry_Int_Tables_number   1
_chemical_formula_structural   LiTi2(PO4)3
_chemical_formula_sum   'Li4 Ti8 P12 O48'
_cell_volume   904.40975950
_cell_formula_units_Z   4
loop_
 _symmetry_equiv_pos_site_id
 _symmetry_equiv_pos_as_xyz
  1  'x, y, z'
loop_
 _atom_site_type_symbol
 _atom_site_label
 _atom_site_symmetry_multiplicity
 _atom_site_fract_x
 _atom_site_fract_y
 _atom_site_fract_z
 _atom_site_occupancy
  Li  Li0  1  0.21592086  0.81710564  0.72879841  1
  Li  Li1  1  0.28407914  0.31710664  0.27120159  1
  Li  Li2  1  0.71592086  0.31710664  0.77120159  1
  Li  Li3  1  0.78407914  0.81710564  0.22879841  1
  Ti  Ti4  1  0.24489013  0.37944639  0.95161409  1
  Ti  Ti5  1  0.25153064  0.61620831  0.52830359  1
  Ti  Ti6  1  0.24846936  0.11620831  0.47169641  1
  Ti  Ti7  1  0.25510987  0.87944639  0.04838591  1
  Ti  Ti8  1  0.75153064  0.11620831  0.97169641  1
  Ti  Ti9  1  0.74489013  0.87944639  0.54838591  1
  Ti  Ti10  1  0.75510987  0.37944639  0.45161409  1
  Ti  Ti11  1  0.74846936  0.61620831  0.02830359  1
  P  P12  1  0.03791198  0.50168566  0.24651254  1
  P  P13  1  0.10312351  0.85556119  0.39533663  1
  P  P14  1  0.10867447  0.14421385  0.10569171  1
  P  P15  1  0.39687649  0.35556119  0.60466337  1
  P  P16  1  0.39132553  0.64421385  0.89430829  1
  P  P17  1  0.46208802  0.00168566  0.75348746  1
  P  P18  1  0.53791198  0.00168566  0.25348746  1
  P  P19  1  0.60312351  0.35556119  0.10466337  1
  P  P20  1  0.60867447  0.64421385  0.39430829  1
  P  P21  1  0.89687649  0.85556119  0.89533663  1
  P  P22  1  0.89132553  0.14421385  0.60569171  1
  P  P23  1  0.96208802  0.50168566  0.74651254  1
  O  O24  1  0.06312847  0.57569736  0.64603357  1
  O  O25  1  0.06226404  0.42439005  0.84981447  1
  O  O26  1  0.06875744  0.15421822  0.59109738  1
  O  O27  1  0.07413797  0.84443269  0.90160865  1
  O  O28  1  0.16145372  0.02504985  0.06838677  1
  O  O29  1  0.15672737  0.97446366  0.43547316  1
  O  O30  1  0.16047627  0.17615841  0.27058079  1
  O  O31  1  0.15359156  0.82666387  0.22995596  1
  O  O32  1  0.14693129  0.42386330  0.15549670  1
  O  O33  1  0.14045718  0.57656394  0.34933664  1
  O  O34  1  0.18249959  0.22784696  0.99210156  1
  O  O35  1  0.17816901  0.77703765  0.51526404  1
  O  O36  1  0.32183099  0.27703765  0.48473596  1
  O  O37  1  0.31750041  0.72784696  0.00789844  1
  O  O38  1  0.35954282  0.07656394  0.65066336  1
  O  O39  1  0.35306871  0.92386330  0.84450330  1
  O  O40  1  0.33952373  0.67615841  0.72941921  1
  O  O41  1  0.34640844  0.32666387  0.77004404  1
  O  O42  1  0.34327263  0.47446366  0.56452684  1
  O  O43  1  0.33854628  0.52504985  0.93161323  1
  O  O44  1  0.43124256  0.65421822  0.40890262  1
  O  O45  1  0.42586203  0.34443269  0.09839135  1
  O  O46  1  0.43687153  0.07569736  0.35396643  1
  O  O47  1  0.43773596  0.92439005  0.15018553  1
  O  O48  1  0.56226404  0.92439005  0.65018553  1
  O  O49  1  0.56312847  0.07569736  0.85396643  1
  O  O50  1  0.57413797  0.34443269  0.59839135  1
  O  O51  1  0.56875744  0.65421822  0.90890262  1
  O  O52  1  0.65672737  0.47446366  0.06452684  1
  O  O53  1  0.66145372  0.52504985  0.43161323  1
  O  O54  1  0.65359156  0.32666387  0.27004404  1
  O  O55  1  0.66047627  0.67615841  0.22941921  1
  O  O56  1  0.64045718  0.07656394  0.15066336  1
  O  O57  1  0.64693129  0.92386330  0.34450330  1
  O  O58  1  0.67816901  0.27703765  0.98473596  1
  O  O59  1  0.68249959  0.72784696  0.50789844  1
  O  O60  1  0.81750041  0.22784696  0.49210156  1
  O  O61  1  0.82183099  0.77703765  0.01526404  1
  O  O62  1  0.85306871  0.42386330  0.65549670  1
  O  O63  1  0.85954282  0.57656394  0.84933664  1
  O  O64  1  0.83952373  0.17615841  0.77058079  1
  O  O65  1  0.84640844  0.82666387  0.72995596  1
  O  O66  1  0.83854628  0.02504985  0.56838677  1
  O  O67  1  0.84327263  0.97446366  0.93547316  1
  O  O68  1  0.92586203  0.84443269  0.40160865  1
  O  O69  1  0.93124256  0.15421822  0.09109738  1
  O  O70  1  0.93773596  0.42439005  0.34981447  1
  O  O71  1  0.93687153  0.57569736  0.14603357  1
