# generated using pymatgen
data_LiFeSiO4
_symmetry_space_group_name_H-M   'P 1'
_cell_length_a   8.63954168
_cell_length_b   8.63954216
_cell_length_c   8.63954184
_cell_angle_alpha   107.77433625
_cell_angle_beta   107.77433073
_cell_angle_gamma   107.77433451
_symmetry_Int_Tables_number   1
_chemical_formula_structural   LiFeSiO4
_chemical_formula_sum   'Li6 Fe6 Si6 O24'
_cell_volume   525.29697720
_cell_formula_units_Z   6
loop_
 _symmetry_equiv_pos_site_id
 _symmetry_equiv_pos_as_xyz
  1  'x, y, z'
loop_
 _atom_site_type_symbol
 _atom_site_label
 _atom_site_symmetry_multiplicity
 _atom_site_fract_x
 _atom_site_fract_y
 _atom_site_fract_z
 _atom_site_occupancy
  Li  Li0  1  0.12586328  0.89316307  0.72432423  1
  Li  Li1  1  0.21059597  0.43394716  0.60708679  1
  Li  Li2  1  0.43394716  0.60708679  0.21059597  1
  Li  Li3  1  0.89316307  0.72432423  0.12586328  1
  Li  Li4  1  0.60708679  0.21059597  0.43394716  1
  Li  Li5  1  0.72432423  0.12586328  0.89316307  1
  Fe  Fe6  1  0.05469492  0.45847734  0.23426304  1
  Fe  Fe7  1  0.53432833  0.76841389  0.94519292  1
  Fe  Fe8  1  0.76841389  0.94519292  0.53432833  1
  Fe  Fe9  1  0.23426304  0.05469492  0.45847734  1
  Fe  Fe10  1  0.45847734  0.23426304  0.05469492  1
  Fe  Fe11  1  0.94519292  0.53432833  0.76841389  1
  Si  Si12  1  0.28055641  0.87328744  0.09689823  1
  Si  Si13  1  0.38745128  0.79588369  0.56749675  1
  Si  Si14  1  0.09689823  0.28055641  0.87328744  1
  Si  Si15  1  0.56749675  0.38745128  0.79588369  1
  Si  Si16  1  0.79588369  0.56749675  0.38745128  1
  Si  Si17  1  0.87328744  0.09689823  0.28055641  1
  O  O18  1  0.30843671  0.98674888  0.97628502  1
  O  O19  1  0.06434168  0.73001473  0.00735884  1
  O  O20  1  0.26512646  0.90925820  0.57947682  1
  O  O21  1  0.40409958  0.76078932  0.08727656  1
  O  O22  1  0.59955715  0.93618698  0.63488650  1
  O  O23  1  0.30088587  0.63553895  0.35984528  1
  O  O24  1  0.08727656  0.40409958  0.76078932  1
  O  O25  1  0.37776130  0.69660438  0.70244607  1
  O  O26  1  0.02002310  0.30623934  0.35152951  1
  O  O27  1  0.00735884  0.06434168  0.73001473  1
  O  O28  1  0.30623934  0.35152951  0.02002310  1
  O  O29  1  0.69660438  0.70244607  0.37776130  1
  O  O30  1  0.98674888  0.97628502  0.30843671  1
  O  O31  1  0.63488650  0.59955715  0.93618698  1
  O  O32  1  0.35984528  0.30088587  0.63553895  1
  O  O33  1  0.63553895  0.35984528  0.30088587  1
  O  O34  1  0.93618698  0.63488650  0.59955715  1
  O  O35  1  0.57947682  0.26512646  0.90925820  1
  O  O36  1  0.70244607  0.37776130  0.69660438  1
  O  O37  1  0.35152951  0.02002310  0.30623934  1
  O  O38  1  0.90925820  0.57947682  0.26512646  1
  O  O39  1  0.97628502  0.30843671  0.98674888  1
  O  O40  1  0.76078932  0.08727656  0.40409958  1
  O  O41  1  0.73001473  0.00735884  0.06434168  1
