# generated using pymatgen
data_Rb5(WO3)18
_symmetry_space_group_name_H-M   'P 1'
_cell_length_a   7.53089120
_cell_length_b   7.53089091
_cell_length_c   23.28823450
_cell_angle_alpha   90.00000000
_cell_angle_beta   90.00000000
_cell_angle_gamma   119.99999687
_symmetry_Int_Tables_number   1
_chemical_formula_structural   Rb5(WO3)18
_chemical_formula_sum   'Rb5 W18 O54'
_cell_volume   1143.82593926
_cell_formula_units_Z   1
loop_
 _symmetry_equiv_pos_site_id
 _symmetry_equiv_pos_as_xyz
  1  'x, y, z'
loop_
 _atom_site_type_symbol
 _atom_site_label
 _atom_site_symmetry_multiplicity
 _atom_site_fract_x
 _atom_site_fract_y
 _atom_site_fract_z
 _atom_site_occupancy
  Rb  Rb0  1  0.00000000  0.00000000  0.50000000  1
  Rb  Rb1  1  0.00000000  0.00000000  0.15381817  1
  Rb  Rb2  1  0.00000000  0.00000000  0.33106012  1
  Rb  Rb3  1  0.00000000  0.00000000  0.66893988  1
  Rb  Rb4  1  0.00000000  0.00000000  0.84618183  1
  W  W5  1  1.00000000  0.50493542  0.91733421  1
  W  W6  1  1.00000000  0.50009693  0.58324046  1
  W  W7  1  1.00000000  0.50191205  0.24970563  1
  W  W8  1  0.00000000  0.49808795  0.75029437  1
  W  W9  1  0.00000000  0.49506458  0.08266579  1
  W  W10  1  0.00000000  0.49990307  0.41675954  1
  W  W11  1  0.49808795  0.49808795  0.24970563  1
  W  W12  1  0.49506458  0.49506458  0.91733421  1
  W  W13  1  0.49990307  0.49990307  0.58324046  1
  W  W14  1  0.50009693  0.50009693  0.41675954  1
  W  W15  1  0.50493542  0.50493542  0.08266579  1
  W  W16  1  0.50191205  0.50191205  0.75029437  1
  W  W17  1  0.49506458  0.00000000  0.08266579  1
  W  W18  1  0.49990307  0.00000000  0.41675954  1
  W  W19  1  0.49808795  0.00000000  0.75029437  1
  W  W20  1  0.50191205  1.00000000  0.24970563  1
  W  W21  1  0.50009693  1.00000000  0.58324046  1
  W  W22  1  0.50493542  1.00000000  0.91733421  1
  O  O23  1  0.00000000  0.49975618  0.66683654  1
  O  O24  1  1.00000000  0.50024382  0.33316346  1
  O  O25  1  0.00000000  0.50000000  0.00000000  1
  O  O26  1  1.00000000  0.49944835  0.16720034  1
  O  O27  1  0.00000000  0.50055165  0.83279966  1
  O  O28  1  0.00000000  0.50000000  0.50000000  1
  O  O29  1  0.21071460  0.78596880  0.08407460  1
  O  O30  1  0.21045238  0.78828442  0.74967158  1
  O  O31  1  0.21082793  0.78907027  0.41670667  1
  O  O32  1  0.21403120  0.78928540  0.91592540  1
  O  O33  1  0.21092973  0.78917207  0.58329333  1
  O  O34  1  0.21171558  0.78954762  0.25032842  1
  O  O35  1  0.21045238  0.42216896  0.25032842  1
  O  O36  1  0.21082793  0.42175765  0.58329333  1
  O  O37  1  0.21071460  0.42474580  0.91592540  1
  O  O38  1  0.21092973  0.42175765  0.41670667  1
  O  O39  1  0.21403120  0.42474580  0.08407460  1
  O  O40  1  0.21171558  0.42216896  0.74967158  1
  O  O41  1  0.57824235  0.78917207  0.41670667  1
  O  O42  1  0.57783104  0.78954762  0.74967158  1
  O  O43  1  0.57525420  0.78928540  0.08407460  1
  O  O44  1  0.57824235  0.78907027  0.58329333  1
  O  O45  1  0.57783104  0.78828442  0.25032842  1
  O  O46  1  0.57525420  0.78596880  0.91592540  1
  O  O47  1  0.50024382  0.50024382  0.66683654  1
  O  O48  1  0.49944835  0.49944835  0.83279966  1
  O  O49  1  0.50055165  0.50055165  0.16720034  1
  O  O50  1  0.49975618  0.49975618  0.33316346  1
  O  O51  1  0.50000000  0.50000000  0.00000000  1
  O  O52  1  0.50000000  0.50000000  0.50000000  1
  O  O53  1  0.42474580  0.21403120  0.08407460  1
  O  O54  1  0.42175765  0.21092973  0.41670667  1
  O  O55  1  0.42216896  0.21171558  0.74967158  1
  O  O56  1  0.42175765  0.21082793  0.58329333  1
  O  O57  1  0.42216896  0.21045238  0.25032842  1
  O  O58  1  0.42474580  0.21071460  0.91592540  1
  O  O59  1  0.78596880  0.57525420  0.91592540  1
  O  O60  1  0.78828442  0.57783104  0.25032842  1
  O  O61  1  0.78907027  0.57824235  0.58329333  1
  O  O62  1  0.49975618  0.00000000  0.66683654  1
  O  O63  1  0.50000000  0.00000000  0.00000000  1
  O  O64  1  0.50055165  0.00000000  0.83279966  1
  O  O65  1  0.49944835  1.00000000  0.16720034  1
  O  O66  1  0.50024382  1.00000000  0.33316346  1
  O  O67  1  0.50000000  0.00000000  0.50000000  1
  O  O68  1  0.78954762  0.57783104  0.74967158  1
  O  O69  1  0.78917207  0.57824235  0.41670667  1
  O  O70  1  0.78928540  0.57525420  0.08407460  1
  O  O71  1  0.78828442  0.21045238  0.74967158  1
  O  O72  1  0.78596880  0.21071460  0.08407460  1
  O  O73  1  0.78907027  0.21082793  0.41670667  1
  O  O74  1  0.78954762  0.21171558  0.25032842  1
  O  O75  1  0.78928540  0.21403120  0.91592540  1
  O  O76  1  0.78917207  0.21092973  0.58329333  1
