# generated using pymatgen
data_V3O5F
_symmetry_space_group_name_H-M   'P 1'
_cell_length_a   4.57547727
_cell_length_b   4.57186742
_cell_length_c   9.25155214
_cell_angle_alpha   90.04900187
_cell_angle_beta   89.95228322
_cell_angle_gamma   89.98362137
_symmetry_Int_Tables_number   1
_chemical_formula_structural   V3O5F
_chemical_formula_sum   'V6 O10 F2'
_cell_volume   193.52822094
_cell_formula_units_Z   2
loop_
 _symmetry_equiv_pos_site_id
 _symmetry_equiv_pos_as_xyz
  1  'x, y, z'
loop_
 _atom_site_type_symbol
 _atom_site_label
 _atom_site_symmetry_multiplicity
 _atom_site_fract_x
 _atom_site_fract_y
 _atom_site_fract_z
 _atom_site_occupancy
  V  V0  1  0.00016037  0.99158198  0.00722180  1
  V  V1  1  0.03223324  0.02832014  0.33288385  1
  V  V2  1  0.00129642  0.99038133  0.65304633  1
  V  V3  1  0.49762041  0.49140580  0.15301118  1
  V  V4  1  0.46765299  0.52832019  0.83292480  1
  V  V5  1  0.49879768  0.49047372  0.50730284  1
  O  O6  1  0.20658551  0.79022417  0.17394670  1
  O  O7  1  0.19574073  0.80400666  0.49741178  1
  O  O8  1  0.19426759  0.80173961  0.83170842  1
  O  O9  1  0.30476710  0.30381317  0.99736675  1
  O  O10  1  0.30579445  0.30092753  0.33154410  1
  O  O11  1  0.29411896  0.29113171  0.67369903  1
  O  O12  1  0.69056947  0.68934713  0.99691896  1
  O  O13  1  0.70487744  0.70325048  0.67416402  1
  O  O14  1  0.79577339  0.20242052  0.17388145  1
  O  O15  1  0.80995795  0.18995693  0.49709195  1
  F  F16  1  0.70434316  0.70094488  0.33313578  1
  F  F17  1  0.79544515  0.20175306  0.83273924  1
