# generated using pymatgen
data_Li3CuF6
_symmetry_space_group_name_H-M   'P 1'
_cell_length_a   9.75658175
_cell_length_b   8.43376281
_cell_length_c   5.01788960
_cell_angle_alpha   90.00000000
_cell_angle_beta   90.00000000
_cell_angle_gamma   90.00000000
_symmetry_Int_Tables_number   1
_chemical_formula_structural   Li3CuF6
_chemical_formula_sum   'Li12 Cu4 F24'
_cell_volume   412.89552188
_cell_formula_units_Z   4
loop_
 _symmetry_equiv_pos_site_id
 _symmetry_equiv_pos_as_xyz
  1  'x, y, z'
loop_
 _atom_site_type_symbol
 _atom_site_label
 _atom_site_symmetry_multiplicity
 _atom_site_fract_x
 _atom_site_fract_y
 _atom_site_fract_z
 _atom_site_occupancy
  Li  Li0  1  0.10580294  0.45311610  0.49487152  1
  Li  Li1  1  0.12537867  0.85373979  0.00805496  1
  Li  Li2  1  0.14637126  0.04936027  0.50261954  1
  Li  Li3  1  0.35362874  0.54936027  0.00261954  1
  Li  Li4  1  0.37462133  0.35373979  0.50805496  1
  Li  Li5  1  0.39419706  0.95311610  0.99487152  1
  Li  Li6  1  0.60580294  0.04688390  0.49487152  1
  Li  Li7  1  0.62537867  0.64626021  0.00805496  1
  Li  Li8  1  0.64637126  0.45063973  0.50261954  1
  Li  Li9  1  0.85362874  0.95063973  0.00261954  1
  Li  Li10  1  0.87462133  0.14626021  0.50805496  1
  Li  Li11  1  0.89419706  0.54688390  0.99487152  1
  Cu  Cu12  1  0.12802149  0.23971636  -0.00003626  1
  Cu  Cu13  1  0.37197851  0.73971636  0.49996374  1
  Cu  Cu14  1  0.62802149  0.26028364  -0.00003626  1
  Cu  Cu15  1  0.87197851  0.76028364  0.49996374  1
  F  F16  1  0.01044348  0.08467144  0.82237683  1
  F  F17  1  0.02254464  0.24672224  0.32258856  1
  F  F18  1  0.02602865  0.40765317  0.84193937  1
  F  F19  1  0.22615526  0.05964429  0.14648554  1
  F  F20  1  0.23839696  0.23062116  0.68502992  1
  F  F21  1  0.24676527  0.38782867  0.18328102  1
  F  F22  1  0.25323473  0.88782867  0.68328102  1
  F  F23  1  0.26160304  0.73062116  0.18502992  1
  F  F24  1  0.27384474  0.55964429  0.64648554  1
  F  F25  1  0.47397135  0.90765317  0.34193937  1
  F  F26  1  0.47745536  0.74672224  0.82258856  1
  F  F27  1  0.48955652  0.58467144  0.32237683  1
  F  F28  1  0.51044348  0.41532856  0.82237683  1
  F  F29  1  0.52254464  0.25327776  0.32258856  1
  F  F30  1  0.52602865  0.09234683  0.84193937  1
  F  F31  1  0.72615526  0.44035571  0.14648554  1
  F  F32  1  0.73839696  0.26937884  0.68502992  1
  F  F33  1  0.74676527  0.11217133  0.18328102  1
  F  F34  1  0.75323473  0.61217133  0.68328102  1
  F  F35  1  0.76160304  0.76937884  0.18502992  1
  F  F36  1  0.77384474  0.94035571  0.64648554  1
  F  F37  1  0.97397135  0.59234683  0.34193937  1
  F  F38  1  0.97745536  0.75327776  0.82258856  1
  F  F39  1  0.98955652  0.91532856  0.32237683  1
