# generated using pymatgen
data_LiSb(TeO4)3
_symmetry_space_group_name_H-M   'P 1'
_cell_length_a   5.25360970
_cell_length_b   4.95244270
_cell_length_c   8.50281127
_cell_angle_alpha   90.00000000
_cell_angle_beta   90.00000000
_cell_angle_gamma   90.47255602
_symmetry_Int_Tables_number   1
_chemical_formula_structural   LiSb(TeO4)3
_chemical_formula_sum   'Li1 Sb1 Te3 O12'
_cell_volume   221.22032855
_cell_formula_units_Z   1
loop_
 _symmetry_equiv_pos_site_id
 _symmetry_equiv_pos_as_xyz
  1  'x, y, z'
loop_
 _atom_site_type_symbol
 _atom_site_label
 _atom_site_symmetry_multiplicity
 _atom_site_fract_x
 _atom_site_fract_y
 _atom_site_fract_z
 _atom_site_occupancy
  Li  Li0  1  0.50000000  0.50000000  0.19894013  1
  Sb  Sb1  1  0.00000000  0.00000000  0.09866185  1
  Te  Te2  1  0.00000000  0.50000000  0.41659508  1
  Te  Te3  1  0.50000000  0.50000000  0.60223754  1
  Te  Te4  1  0.50000000  0.00000000  0.91308858  1
  O  O5  1  0.18211305  0.29261447  0.58302094  1
  O  O6  1  0.14289092  0.26195020  0.25858117  1
  O  O7  1  0.19468465  0.21017171  0.93079561  1
  O  O8  1  0.36082575  0.75287408  0.75185931  1
  O  O9  1  0.32177710  0.78377452  0.07763131  1
  O  O10  1  0.32241997  0.70424400  0.42699056  1
  O  O11  1  0.67758003  0.29575600  0.42699056  1
  O  O12  1  0.67822290  0.21622548  0.07763131  1
  O  O13  1  0.63917425  0.24712592  0.75185931  1
  O  O14  1  0.80531535  0.78982829  0.93079561  1
  O  O15  1  0.85710908  0.73804980  0.25858117  1
  O  O16  1  0.81788695  0.70738553  0.58302094  1
