# generated using pymatgen
data_NiP4O11
_symmetry_space_group_name_H-M   'P 1'
_cell_length_a   5.38219209
_cell_length_b   22.47325162
_cell_length_c   7.46359980
_cell_angle_alpha   90.00000000
_cell_angle_beta   110.17044164
_cell_angle_gamma   90.00000000
_symmetry_Int_Tables_number   1
_chemical_formula_structural   NiP4O11
_chemical_formula_sum   'Ni4 P16 O44'
_cell_volume   847.39689568
_cell_formula_units_Z   4
loop_
 _symmetry_equiv_pos_site_id
 _symmetry_equiv_pos_as_xyz
  1  'x, y, z'
loop_
 _atom_site_type_symbol
 _atom_site_label
 _atom_site_symmetry_multiplicity
 _atom_site_fract_x
 _atom_site_fract_y
 _atom_site_fract_z
 _atom_site_occupancy
  Ni  Ni0  1  0.00231455  0.11328879  0.87369809  1
  Ni  Ni1  1  0.00231455  0.38671121  0.37369809  1
  Ni  Ni2  1  0.99768545  0.61328879  0.62630191  1
  Ni  Ni3  1  0.99768545  0.88671121  0.12630191  1
  P  P4  1  0.30731783  0.42782931  0.81410049  1
  P  P5  1  0.40375057  0.80550379  0.96716314  1
  P  P6  1  0.32856555  0.82132501  0.54920565  1
  P  P7  1  0.40538545  0.03485859  0.71143552  1
  P  P8  1  0.30731783  0.07217069  0.31410049  1
  P  P9  1  0.40375057  0.69449621  0.46716314  1
  P  P10  1  0.59461455  0.53485859  0.78856448  1
  P  P11  1  0.67143445  0.32132501  0.95079435  1
  P  P12  1  0.32856555  0.67867499  0.04920565  1
  P  P13  1  0.40538545  0.46514141  0.21143552  1
  P  P14  1  0.59624943  0.30550379  0.53283686  1
  P  P15  1  0.69268217  0.92782931  0.68589951  1
  P  P16  1  0.59461455  0.96514141  0.28856448  1
  P  P17  1  0.67143445  0.17867499  0.45079435  1
  P  P18  1  0.59624943  0.19449621  0.03283686  1
  P  P19  1  0.69268217  0.57217069  0.18589951  1
  O  O20  1  0.09345427  0.65453825  0.89951362  1
  O  O21  1  0.07444861  0.42437610  0.63921557  1
  O  O22  1  0.23223812  0.45425810  0.98346120  1
  O  O23  1  0.22165930  0.04482035  0.81685837  1
  O  O24  1  0.34083944  0.16290998  0.97909829  1
  O  O25  1  0.09345427  0.84546175  0.39951362  1
  O  O26  1  0.26422096  0.80578215  0.73344831  1
  O  O27  1  0.19339868  0.68104555  0.54727738  1
  O  O28  1  0.33220947  0.56342885  0.74426155  1
  O  O29  1  0.46949041  0.73424329  0.99660565  1
  O  O30  1  0.42002753  0.36358441  0.88719607  1
  O  O31  1  0.07444861  0.07562390  0.13921557  1
  O  O32  1  0.23223812  0.04574190  0.48346120  1
  O  O33  1  0.22165930  0.45517965  0.31685837  1
  O  O34  1  0.44234256  0.96208104  0.69960760  1
  O  O35  1  0.34083944  0.33709002  0.47909829  1
  O  O36  1  0.26422096  0.69421785  0.23344831  1
  O  O37  1  0.19339868  0.81895445  0.04727738  1
  O  O38  1  0.55765744  0.46208104  0.80039240  1
  O  O39  1  0.33220947  0.93657115  0.24426155  1
  O  O40  1  0.46949041  0.76575671  0.49660565  1
  O  O41  1  0.42002753  0.13641559  0.38719607  1
  O  O42  1  0.57997247  0.86358441  0.61280393  1
  O  O43  1  0.53050959  0.23424329  0.50339435  1
  O  O44  1  0.66779053  0.06342885  0.75573845  1
  O  O45  1  0.44234256  0.53791896  0.19960760  1
  O  O46  1  0.80660132  0.18104555  0.95272262  1
  O  O47  1  0.73577904  0.30578215  0.76655169  1
  O  O48  1  0.65916056  0.66290998  0.52090171  1
  O  O49  1  0.55765744  0.03791896  0.30039240  1
  O  O50  1  0.77834070  0.54482035  0.68314163  1
  O  O51  1  0.76776188  0.95425810  0.51653880  1
  O  O52  1  0.92555139  0.92437610  0.86078443  1
  O  O53  1  0.57997247  0.63641559  0.11280393  1
  O  O54  1  0.53050959  0.26575671  0.00339435  1
  O  O55  1  0.66779053  0.43657115  0.25573845  1
  O  O56  1  0.80660132  0.31895445  0.45272262  1
  O  O57  1  0.73577904  0.19421785  0.26655169  1
  O  O58  1  0.90654573  0.15453825  0.60048638  1
  O  O59  1  0.65916056  0.83709002  0.02090171  1
  O  O60  1  0.77834070  0.95517965  0.18314163  1
  O  O61  1  0.76776188  0.54574190  0.01653880  1
  O  O62  1  0.92555139  0.57562390  0.36078443  1
  O  O63  1  0.90654573  0.34546175  0.10048638  1
