# generated using pymatgen
data_Sr20V15O49
_symmetry_space_group_name_H-M   'P 1'
_cell_length_a   8.77375679
_cell_length_b   15.47747839
_cell_length_c   8.77375679
_cell_angle_alpha   73.53460093
_cell_angle_beta   90.00000000
_cell_angle_gamma   73.53460446
_symmetry_Int_Tables_number   1
_chemical_formula_structural   Sr20V15O49
_chemical_formula_sum   'Sr20 V15 O49'
_cell_volume   1091.53381523
_cell_formula_units_Z   1
loop_
 _symmetry_equiv_pos_site_id
 _symmetry_equiv_pos_as_xyz
  1  'x, y, z'
loop_
 _atom_site_type_symbol
 _atom_site_label
 _atom_site_symmetry_multiplicity
 _atom_site_fract_x
 _atom_site_fract_y
 _atom_site_fract_z
 _atom_site_occupancy
  Sr  Sr0  1  0.03333845  0.13816702  0.24177571  1
  Sr  Sr1  1  0.24177571  0.13816702  0.82849452  1
  Sr  Sr2  1  0.62005727  0.13816702  0.03333845  1
  Sr  Sr3  1  0.09824777  0.40582353  0.69682012  1
  Sr  Sr4  1  0.43274267  0.13451465  0.43274267  1
  Sr  Sr5  1  0.30009488  0.39981024  0.30009488  1
  Sr  Sr6  1  0.30528512  0.59547347  0.51093401  1
  Sr  Sr7  1  0.17208257  0.86360491  0.37786744  1
  Sr  Sr8  1  0.51093401  0.59547347  0.09924241  1
  Sr  Sr9  1  0.09924241  0.59547347  0.89359251  1
  Sr  Sr10  1  0.69682012  0.40582353  0.49592870  1
  Sr  Sr11  1  0.82849452  0.13816702  0.62005727  1
  Sr  Sr12  1  0.89735636  0.40582353  0.09824777  1
  Sr  Sr13  1  0.49592870  0.40582353  0.89735636  1
  Sr  Sr14  1  0.89359251  0.59547347  0.30528512  1
  Sr  Sr15  1  0.75852765  0.86360491  0.17208257  1
  Sr  Sr16  1  0.37786744  0.86360491  0.96431252  1
  Sr  Sr17  1  0.56773781  0.86452539  0.56773781  1
  Sr  Sr18  1  0.70226945  0.59546209  0.70226945  1
  Sr  Sr19  1  0.96431252  0.86360491  0.75852765  1
  V  V20  1  0.99205425  0.01589151  0.99205425  1
  V  V21  1  0.25708571  0.28078962  0.05932236  1
  V  V22  1  0.40105382  0.00009537  0.20070907  1
  V  V23  1  0.05932236  0.28078962  0.46212467  1
  V  V24  1  0.20070907  0.00009537  0.59885081  1
  V  V25  1  0.14942718  0.70114665  0.14942718  1
  V  V26  1  0.65988801  0.28078962  0.25708571  1
  V  V27  1  0.59885081  0.00009537  0.79919556  1
  V  V28  1  0.79919556  0.00009537  0.40105382  1
  V  V29  1  0.46212467  0.28078962  0.65988801  1
  V  V30  1  0.33984594  0.72186927  0.74225849  1
  V  V31  1  0.53587224  0.72186927  0.33984594  1
  V  V32  1  0.85874042  0.28251815  0.85874042  1
  V  V33  1  0.93828478  0.72186927  0.53587224  1
  V  V34  1  0.74225849  0.72186927  0.93828478  1
  O  O35  1  0.19142436  0.98987395  0.09951094  1
  O  O36  1  0.00064805  0.99870489  0.50064805  1
  O  O37  1  0.50064805  0.99870489  0.00064805  1
  O  O38  1  0.32278643  0.13200277  0.12991604  1
  O  O39  1  0.16023745  0.27375386  0.27150577  1
  O  O40  1  0.12991604  0.13200277  0.54521179  1
  O  O41  1  0.29728395  0.00145496  0.40038948  1
  O  O42  1  0.09951094  0.98987395  0.81870169  1
  O  O43  1  0.27150577  0.27375386  0.56600870  1
  O  O44  1  0.03957573  0.73133653  0.32637664  1
  O  O45  1  0.01611024  0.58184144  0.60541885  1
  O  O46  1  0.06429911  0.27725195  0.96556010  1
  O  O47  1  0.40038948  0.00145496  0.70126109  1
  O  O48  1  0.59815557  0.00145496  0.29728395  1
  O  O49  1  0.45474037  0.27375386  0.16023745  1
  O  O50  1  0.21173035  0.57653829  0.21173035  1
  O  O51  1  0.32637664  0.73133653  0.22908774  1
  O  O52  1  0.75718795  0.27725195  0.06429911  1
  O  O53  1  0.56600870  0.27375386  0.45474037  1
  O  O54  1  0.54521179  0.13200277  0.73808219  1
  O  O55  1  0.70126109  0.00145496  0.59815557  1
  O  O56  1  0.13707857  0.72584187  0.63707857  1
  O  O57  1  0.39069640  0.42013298  0.58716926  1
  O  O58  1  0.18917063  0.42013298  0.99269876  1
  O  O59  1  0.36239140  0.27521621  0.86239140  1
  O  O60  1  0.91061612  0.98987395  0.19142436  1
  O  O61  1  0.58716926  0.42013298  0.18917063  1
  O  O62  1  0.73808219  0.13200277  0.32278643  1
  O  O63  1  0.81273971  0.58184144  0.01611024  1
  O  O64  1  0.63707857  0.72584187  0.13707857  1
  O  O65  1  0.60541885  0.58184144  0.40204831  1
  O  O66  1  0.65844894  0.27725195  0.75718795  1
  O  O67  1  0.46914170  0.86546865  0.26889369  1
  O  O68  1  0.40204831  0.58184144  0.81273971  1
  O  O69  1  0.86239140  0.27521621  0.36239140  1
  O  O70  1  0.81870169  0.98987395  0.91061612  1
  O  O71  1  0.44052881  0.72277720  0.53356132  1
  O  O72  1  0.26889369  0.86546865  0.66538966  1
  O  O73  1  0.22908774  0.73133653  0.94228683  1
  O  O74  1  0.99269876  0.42013298  0.39069640  1
  O  O75  1  0.94228683  0.73133653  0.03957573  1
  O  O76  1  0.53356132  0.72277720  0.83669399  1
  O  O77  1  0.74366148  0.72277720  0.44052881  1
  O  O78  1  0.93129770  0.13740461  0.93129770  1
  O  O79  1  0.96556010  0.27725195  0.65844894  1
  O  O80  1  0.78731125  0.42537751  0.78731125  1
  O  O81  1  0.86563767  0.86546865  0.46914170  1
  O  O82  1  0.66538966  0.86546865  0.86563767  1
  O  O83  1  0.83669399  0.72277720  0.74366148  1
