# generated using pymatgen
data_Li2Co3NiO8
_symmetry_space_group_name_H-M   'P 1'
_cell_length_a   8.03701506
_cell_length_b   8.04035878
_cell_length_c   8.04914248
_cell_angle_alpha   90.14113991
_cell_angle_beta   90.03450473
_cell_angle_gamma   90.03292427
_symmetry_Int_Tables_number   1
_chemical_formula_structural   Li2Co3NiO8
_chemical_formula_sum   'Li8 Co12 Ni4 O32'
_cell_volume   520.13772889
_cell_formula_units_Z   4
loop_
 _symmetry_equiv_pos_site_id
 _symmetry_equiv_pos_as_xyz
  1  'x, y, z'
loop_
 _atom_site_type_symbol
 _atom_site_label
 _atom_site_symmetry_multiplicity
 _atom_site_fract_x
 _atom_site_fract_y
 _atom_site_fract_z
 _atom_site_occupancy
  Li  Li0  1  -0.00037961  0.00173787  0.00313627  1
  Li  Li1  1  0.25038667  0.24865946  0.24896946  1
  Li  Li2  1  0.25321164  0.75133279  0.74721345  1
  Li  Li3  1  0.49842235  0.99862165  0.50001470  1
  Li  Li4  1  0.50171114  0.49817826  0.99938266  1
  Li  Li5  1  0.74852258  0.25256493  0.75074826  1
  Li  Li6  1  0.75271328  0.74823195  0.25257222  1
  Li  Li7  1  0.99581554  0.50223160  0.49719139  1
  Co  Co8  1  0.12295861  0.12651955  0.62304612  1
  Co  Co9  1  0.12345961  0.37707416  0.87363008  1
  Co  Co10  1  0.12673915  0.62564556  0.12579061  1
  Co  Co11  1  0.37427808  0.37510970  0.62272391  1
  Co  Co12  1  0.37582078  0.62362253  0.37477432  1
  Co  Co13  1  0.37614438  0.87436326  0.12529531  1
  Co  Co14  1  0.62410606  0.37409358  0.37501646  1
  Co  Co15  1  0.62498523  0.12453366  0.12630808  1
  Co  Co16  1  0.62647609  0.87561997  0.87633674  1
  Co  Co17  1  0.87393303  0.12494665  0.37589813  1
  Co  Co18  1  0.87462389  0.87536557  0.62516629  1
  Co  Co19  1  0.87511558  0.62562620  0.87447157  1
  Ni  Ni20  1  0.12561759  0.87474541  0.37534430  1
  Ni  Ni21  1  0.37530360  0.12485105  0.87503599  1
  Ni  Ni22  1  0.62482034  0.62442756  0.62377044  1
  Ni  Ni23  1  0.87374415  0.37425174  0.12714012  1
  O  O24  1  0.11434575  0.10915066  0.38948328  1
  O  O25  1  0.11271606  0.89049897  0.60917183  1
  O  O26  1  0.11626803  0.61056211  0.88823721  1
  O  O27  1  0.13811588  0.14087719  0.86142295  1
  O  O28  1  0.11116316  0.39010700  0.11144983  1
  O  O29  1  0.13494010  0.36165762  0.63829878  1
  O  O30  1  0.13703742  0.63988834  0.36062966  1
  O  O31  1  0.13672001  0.85942180  0.14028382  1
  O  O32  1  0.35888334  0.13566839  0.63917926  1
  O  O33  1  0.35850102  0.36065239  0.86226754  1
  O  O34  1  0.35850022  0.63563613  0.13749570  1
  O  O35  1  0.39096591  0.61154773  0.61156884  1
  O  O36  1  0.35997862  0.86208200  0.36150795  1
  O  O37  1  0.38689996  0.38705133  0.38792427  1
  O  O38  1  0.38785548  0.11101499  0.10853114  1
  O  O39  1  0.39000727  0.89129250  0.88746865  1
  O  O40  1  0.61082512  0.39110072  0.61249547  1
  O  O41  1  0.61234642  0.61250066  0.39101088  1
  O  O42  1  0.61381500  0.88472282  0.11008840  1
  O  O43  1  0.64120499  0.36136350  0.13722438  1
  O  O44  1  0.60876252  0.11105807  0.88557994  1
  O  O45  1  0.63782885  0.13681145  0.36194226  1
  O  O46  1  0.63681196  0.86124167  0.64059221  1
  O  O47  1  0.63856089  0.63988993  0.86113684  1
  O  O48  1  0.86232529  0.36198431  0.35874108  1
  O  O49  1  0.86180177  0.14147811  0.13936912  1
  O  O50  1  0.86060740  0.86187581  0.86395613  1
  O  O51  1  0.89072026  0.88789198  0.38888256  1
  O  O52  1  0.85979222  0.63864670  0.63833799  1
  O  O53  1  0.89078580  0.11419108  0.61547515  1
  O  O54  1  0.89052094  0.38527675  0.88996246  1
  O  O55  1  0.89186062  0.61064162  0.11144358  1
