# generated using pymatgen
data_V4(OF3)3
_symmetry_space_group_name_H-M   'P 1'
_cell_length_a   5.20720709
_cell_length_b   5.42685847
_cell_length_c   17.42532354
_cell_angle_alpha   91.01738624
_cell_angle_beta   98.92007598
_cell_angle_gamma   61.12960759
_symmetry_Int_Tables_number   1
_chemical_formula_structural   V4(OF3)3
_chemical_formula_sum   'V8 O6 F18'
_cell_volume   425.07312403
_cell_formula_units_Z   2
loop_
 _symmetry_equiv_pos_site_id
 _symmetry_equiv_pos_as_xyz
  1  'x, y, z'
loop_
 _atom_site_type_symbol
 _atom_site_label
 _atom_site_symmetry_multiplicity
 _atom_site_fract_x
 _atom_site_fract_y
 _atom_site_fract_z
 _atom_site_occupancy
  V  V0  1  0.75004878  0.62547894  0.12520154  1
  V  V1  1  0.78006802  0.10430584  0.63039394  1
  V  V2  1  0.45893958  0.26796120  0.24964639  1
  V  V3  1  0.49108543  0.74648896  0.75063013  1
  V  V4  1  0.25483482  0.90322800  0.37303107  1
  V  V5  1  0.27011572  0.38793284  0.87317300  1
  V  V6  1  0.03946874  0.98430964  0.00155079  1
  V  V7  1  0.00522957  0.52775899  0.50506493  1
  O  O8  1  0.95949179  0.80084757  0.55996265  1
  O  O9  1  0.39942585  0.79910422  0.03992235  1
  O  O10  1  0.40138283  0.08071849  0.33537571  1
  O  O11  1  0.40507228  0.57514078  0.83454612  1
  O  O12  1  0.09882105  0.45249271  0.20963212  1
  O  O13  1  0.07461396  0.95581373  0.70380798  1
  F  F14  1  0.91306721  0.84758909  0.08562881  1
  F  F15  1  0.96677353  0.32073277  0.05942383  1
  F  F16  1  0.53197050  0.93327048  0.18934993  1
  F  F17  1  0.90336601  0.04337089  0.29108201  1
  F  F18  1  0.92477809  0.33252144  0.58502199  1
  F  F19  1  0.92053950  0.52663833  0.78853230  1
  F  F20  1  0.58849025  0.40373957  0.16493970  1
  F  F21  1  0.57595519  0.91309909  0.66282327  1
  F  F22  1  0.57512109  0.70549180  0.46130705  1
  F  F23  1  0.46851016  0.56281075  0.31480553  1
  F  F24  1  0.52702655  0.43042132  0.68491906  1
  F  F25  1  0.43179485  0.28459285  0.53968591  1
  F  F26  1  0.58781605  0.20508525  0.96211157  1
  F  F27  1  0.08100879  0.67164855  0.41337668  1
  F  F28  1  0.47869882  0.05446416  0.81519715  1
  F  F29  1  0.02418205  0.68702565  0.93728261  1
  F  F30  1  0.03117725  0.19763153  0.44057005  1
  F  F31  1  0.08112470  0.16828458  0.91200285  1
