# generated using pymatgen
data_Ba8Mn8O23
_symmetry_space_group_name_H-M   'P 1'
_cell_length_a   5.79833053
_cell_length_b   5.76565059
_cell_length_c   19.41513294
_cell_angle_alpha   90.00131537
_cell_angle_beta   89.99829396
_cell_angle_gamma   119.81380707
_symmetry_Int_Tables_number   1
_chemical_formula_structural   Ba8Mn8O23
_chemical_formula_sum   'Ba8 Mn8 O23'
_cell_volume   563.16292902
_cell_formula_units_Z   1
loop_
 _symmetry_equiv_pos_site_id
 _symmetry_equiv_pos_as_xyz
  1  'x, y, z'
loop_
 _atom_site_type_symbol
 _atom_site_label
 _atom_site_symmetry_multiplicity
 _atom_site_fract_x
 _atom_site_fract_y
 _atom_site_fract_z
 _atom_site_occupancy
  Ba  Ba0  1  0.33730083  0.66859352  0.13743360  1
  Ba  Ba1  1  0.33445227  0.66692550  0.37649666  1
  Ba  Ba2  1  0.99212658  0.99614000  0.00001018  1
  Ba  Ba3  1  0.33445186  0.66722090  0.62352624  1
  Ba  Ba4  1  0.33733218  0.66888086  0.86253370  1
  Ba  Ba5  1  0.66460433  0.33288796  0.74545553  1
  Ba  Ba6  1  0.66782764  0.33318646  0.50001405  1
  Ba  Ba7  1  0.66456859  0.33186237  0.25447556  1
  Mn  Mn8  1  0.99433513  0.99735770  0.69326323  1
  Mn  Mn9  1  0.99512134  0.99753523  0.17542316  1
  Mn  Mn10  1  0.99433650  0.99705963  0.30672271  1
  Mn  Mn11  1  0.00068144  0.00013299  0.43577545  1
  Mn  Mn12  1  0.00069270  0.00022202  0.56434432  1
  Mn  Mn13  1  0.99513004  0.99776880  0.82450292  1
  Mn  Mn14  1  0.65149586  0.32587245  0.92806172  1
  Mn  Mn15  1  0.65142309  0.32574997  0.07189524  1
  O  O16  1  0.14948681  0.85046188  0.50006914  1
  O  O17  1  0.13969036  0.84776362  0.24426084  1
  O  O18  1  0.13966896  0.84807328  0.75566674  1
  O  O19  1  0.13968884  0.29184800  0.24428497  1
  O  O20  1  0.13965276  0.29205233  0.75565753  1
  O  O21  1  0.14946945  0.29865250  0.50005546  1
  O  O22  1  0.69383682  0.84686374  0.24591014  1
  O  O23  1  0.69389598  0.84715867  0.75403281  1
  O  O24  1  0.55167250  0.49379345  0.99998789  1
  O  O25  1  0.29475666  0.14743086  0.62822713  1
  O  O26  1  0.29488226  0.14734190  0.37186760  1
  O  O27  1  0.31534903  0.15769891  0.12536070  1
  O  O28  1  0.31542715  0.15786176  0.87457249  1
  O  O29  1  0.70371661  0.85163194  0.50006547  1
  O  O30  1  0.85104477  0.70118147  0.37284498  1
  O  O31  1  0.85108241  0.70143019  0.62727233  1
  O  O32  1  0.55166768  0.05804774  0.99997569  1
  O  O33  1  0.84346583  0.66908500  0.12066584  1
  O  O34  1  0.84344499  0.66911830  0.87924173  1
  O  O35  1  0.84342232  0.17443039  0.12068832  1
  O  O36  1  0.84350649  0.17462253  0.87927623  1
  O  O37  1  0.85100030  0.14961455  0.37288661  1
  O  O38  1  0.85105865  0.14971162  0.62719509  1
