# generated using pymatgen
data_Na2FeO3
_symmetry_space_group_name_H-M   'P 1'
_cell_length_a   5.37707886
_cell_length_b   5.37222821
_cell_length_c   11.10493420
_cell_angle_alpha   85.17533094
_cell_angle_beta   99.67516915
_cell_angle_gamma   120.02987885
_symmetry_Int_Tables_number   1
_chemical_formula_structural   Na2FeO3
_chemical_formula_sum   'Na8 Fe4 O12'
_cell_volume   273.77580231
_cell_formula_units_Z   4
loop_
 _symmetry_equiv_pos_site_id
 _symmetry_equiv_pos_as_xyz
  1  'x, y, z'
loop_
 _atom_site_type_symbol
 _atom_site_label
 _atom_site_symmetry_multiplicity
 _atom_site_fract_x
 _atom_site_fract_y
 _atom_site_fract_z
 _atom_site_occupancy
  Na  Na0  1  0.15911519  0.84341292  0.49926506  1
  Na  Na1  1  0.00000000  0.50000000  0.00000000  1
  Na  Na2  1  0.08703361  0.17406722  0.25000000  1
  Na  Na3  1  0.50000000  0.50000000  0.50000000  1
  Na  Na4  1  0.68429772  0.84341292  0.00073494  1
  Na  Na5  1  0.31570228  0.15658708  0.99926506  1
  Na  Na6  1  0.91296639  0.82593278  0.75000000  1
  Na  Na7  1  0.84088481  0.15658708  0.50073494  1
  Fe  Fe8  1  0.24609455  0.49218909  0.75000000  1
  Fe  Fe9  1  0.42091703  0.84183406  0.25000000  1
  Fe  Fe10  1  0.57908297  0.15816594  0.75000000  1
  Fe  Fe11  1  0.75390545  0.50781091  0.25000000  1
  O  O12  1  0.05201833  0.79756611  0.14733534  1
  O  O13  1  0.32710603  0.82805345  0.85141364  1
  O  O14  1  0.12373835  0.55264922  0.35084111  1
  O  O15  1  0.50094742  0.82805345  0.64858636  1
  O  O16  1  0.25445222  0.20243389  0.64733534  1
  O  O17  1  0.57108913  0.44735078  0.85084111  1
  O  O18  1  0.42891087  0.55264922  0.14915889  1
  O  O19  1  0.74554778  0.79756611  0.35266466  1
  O  O20  1  0.49905258  0.17194655  0.35141364  1
  O  O21  1  0.87626165  0.44735078  0.64915889  1
  O  O22  1  0.67289397  0.17194655  0.14858636  1
  O  O23  1  0.94798167  0.20243389  0.85266466  1
