# generated using pymatgen
data_Li2VCrP2(HO5)2
_symmetry_space_group_name_H-M   'P 1'
_cell_length_a   7.97392440
_cell_length_b   7.38147090
_cell_length_c   6.94921498
_cell_angle_alpha   117.22489611
_cell_angle_beta   87.29141286
_cell_angle_gamma   88.97166768
_symmetry_Int_Tables_number   1
_chemical_formula_structural   Li2VCrP2(HO5)2
_chemical_formula_sum   'Li4 V2 Cr2 P4 H4 O20'
_cell_volume   362.94606716
_cell_formula_units_Z   2
loop_
 _symmetry_equiv_pos_site_id
 _symmetry_equiv_pos_as_xyz
  1  'x, y, z'
loop_
 _atom_site_type_symbol
 _atom_site_label
 _atom_site_symmetry_multiplicity
 _atom_site_fract_x
 _atom_site_fract_y
 _atom_site_fract_z
 _atom_site_occupancy
  Li  Li0  1  0.32562883  0.82224616  0.07305893  1
  Li  Li1  1  0.17473790  0.17717942  0.42860113  1
  Li  Li2  1  0.82526210  0.82282058  0.57139887  1
  Li  Li3  1  0.67437117  0.17775384  0.92694107  1
  V  V4  1  0.00000000  0.00000000  0.00000000  1
  V  V5  1  0.50000000  0.50000000  0.50000000  1
  Cr  Cr6  1  0.00000000  0.50000000  0.00000000  1
  Cr  Cr7  1  0.50000000  0.00000000  0.50000000  1
  P  P8  1  0.15829521  0.76701772  0.47911570  1
  P  P9  1  0.34161315  0.23257245  0.01784608  1
  P  P10  1  0.65838685  0.76742755  0.98215392  1
  P  P11  1  0.84170479  0.23298228  0.52088430  1
  H  H12  1  0.15077752  0.65918761  0.79050517  1
  H  H13  1  0.65067397  0.66304716  0.29090420  1
  H  H14  1  0.34932603  0.33695284  0.70909580  1
  H  H15  1  0.84922248  0.34081239  0.20949483  1
  O  O16  1  0.01950317  0.65815829  0.32312263  1
  O  O17  1  0.22677196  0.11973257  0.11329530  1
  O  O18  1  0.27441305  0.87952768  0.38533439  1
  O  O19  1  0.05892772  0.92603853  0.68679138  1
  O  O20  1  0.55896535  0.92793767  0.18908916  1
  O  O21  1  0.26128364  0.61885890  0.53429577  1
  O  O22  1  0.48032933  0.34282179  0.17511426  1
  O  O23  1  0.76187232  0.61871348  0.03439786  1
  O  O24  1  0.10460367  0.72259504  0.94320336  1
  O  O25  1  0.60706855  0.72820322  0.44442495  1
  O  O26  1  0.39293145  0.27179678  0.55557505  1
  O  O27  1  0.89539633  0.27740496  0.05679664  1
  O  O28  1  0.23812768  0.38128652  0.96560214  1
  O  O29  1  0.51967067  0.65717821  0.82488574  1
  O  O30  1  0.73871636  0.38114110  0.46570423  1
  O  O31  1  0.44103465  0.07206233  0.81091084  1
  O  O32  1  0.94107128  0.07396147  0.31320862  1
  O  O33  1  0.72558695  0.12047232  0.61466561  1
  O  O34  1  0.77322804  0.88026743  0.88670470  1
  O  O35  1  0.98049683  0.34184171  0.67687737  1
