# generated using pymatgen
data_VOF2
_symmetry_space_group_name_H-M   'P 1'
_cell_length_a   5.23335407
_cell_length_b   13.37744837
_cell_length_c   5.25342610
_cell_angle_alpha   89.93764513
_cell_angle_beta   119.85056330
_cell_angle_gamma   89.68738477
_symmetry_Int_Tables_number   1
_chemical_formula_structural   VOF2
_chemical_formula_sum   'V6 O6 F12'
_cell_volume   318.98335628
_cell_formula_units_Z   6
loop_
 _symmetry_equiv_pos_site_id
 _symmetry_equiv_pos_as_xyz
  1  'x, y, z'
loop_
 _atom_site_type_symbol
 _atom_site_label
 _atom_site_symmetry_multiplicity
 _atom_site_fract_x
 _atom_site_fract_y
 _atom_site_fract_z
 _atom_site_occupancy
  V  V0  1  0.01054818  0.50682833  0.99204392  1
  V  V1  1  0.96544218  0.00712407  0.96965710  1
  V  V2  1  0.61801583  0.83938597  0.31382910  1
  V  V3  1  0.32484559  0.67374885  0.69721043  1
  V  V4  1  0.70770277  0.34059819  0.33463991  1
  V  V5  1  0.31900752  0.17361106  0.65714720  1
  O  O6  1  0.41106574  0.74762298  0.98997561  1
  O  O7  1  0.33132437  0.91476297  0.23310621  1
  O  O8  1  0.02316706  0.24812527  0.57586341  1
  O  O9  1  0.09100232  0.57991918  0.77721266  1
  O  O10  1  0.90756485  0.41817630  0.25239489  1
  O  O11  1  0.67480071  0.08158418  0.76005636  1
  F  F12  1  0.98525063  0.74983874  0.41128086  1
  F  F13  1  0.32660185  0.40962544  0.08508525  1
  F  F14  1  0.08809598  0.07679935  0.34217789  1
  F  F15  1  0.25153804  0.58278529  0.35548590  1
  F  F16  1  0.60367579  0.24902939  0.00126128  1
  F  F17  1  0.75015579  0.91025753  0.07108146  1
  F  F18  1  0.44104451  0.24695286  0.41467661  1
  F  F19  1  0.58281729  0.74681865  0.58315703  1
  F  F20  1  0.26155213  0.08355216  0.92411047  1
  F  F21  1  0.74364183  0.41504920  0.67367956  1
  F  F22  1  0.91833262  0.91541352  0.65792452  1
  F  F23  1  0.66280443  0.58239052  0.92694037  1
