# generated using pymatgen
data_Li2VFe(P2O7)2
_symmetry_space_group_name_H-M   'P 1'
_cell_length_a   9.75935442
_cell_length_b   8.24282397
_cell_length_c   7.03942437
_cell_angle_alpha   90.00000000
_cell_angle_beta   108.89316673
_cell_angle_gamma   90.00000000
_symmetry_Int_Tables_number   1
_chemical_formula_structural   Li2VFe(P2O7)2
_chemical_formula_sum   'Li4 V2 Fe2 P8 O28'
_cell_volume   535.77483872
_cell_formula_units_Z   2
loop_
 _symmetry_equiv_pos_site_id
 _symmetry_equiv_pos_as_xyz
  1  'x, y, z'
loop_
 _atom_site_type_symbol
 _atom_site_label
 _atom_site_symmetry_multiplicity
 _atom_site_fract_x
 _atom_site_fract_y
 _atom_site_fract_z
 _atom_site_occupancy
  Li  Li0  1  0.08773043  0.86362154  0.67679622  1
  Li  Li1  1  0.41226957  0.36362154  0.32320378  1
  Li  Li2  1  0.58804198  0.86304433  0.67683002  1
  Li  Li3  1  0.91195802  0.36304433  0.32316998  1
  V  V4  1  0.10817926  0.49933258  0.72847523  1
  V  V5  1  0.39182074  0.99933258  0.27152477  1
  Fe  Fe6  1  0.60819282  0.49908799  0.73176470  1
  Fe  Fe7  1  0.89180718  0.99908799  0.26823530  1
  P  P8  1  0.19980681  0.17958192  0.52177610  1
  P  P9  1  0.10547085  0.78402855  0.08569112  1
  P  P10  1  0.39452915  0.28402855  0.91430888  1
  P  P11  1  0.30019319  0.67958192  0.47822390  1
  P  P12  1  0.70016927  0.18109254  0.52138125  1
  P  P13  1  0.60594299  0.78355503  0.08505825  1
  P  P14  1  0.89405701  0.28355503  0.91494175  1
  P  P15  1  0.79983073  0.68109254  0.47861875  1
  O  O16  1  0.02571758  0.32306736  0.85229111  1
  O  O17  1  0.06506182  0.69577310  0.88454760  1
  O  O18  1  0.09414789  0.03681295  0.48258449  1
  O  O19  1  0.12354831  0.34403029  0.50548712  1
  O  O20  1  0.19844078  0.67824764  0.60560307  1
  O  O21  1  0.30154688  0.43409488  0.91765008  1
  O  O22  1  0.29764814  0.15279560  0.75364721  1
  O  O23  1  0.20235186  0.65279560  0.24635279  1
  O  O24  1  0.19845312  0.93409488  0.08234992  1
  O  O25  1  0.30155922  0.17824764  0.39439693  1
  O  O26  1  0.37645169  0.84403029  0.49451288  1
  O  O27  1  0.40585211  0.53681295  0.51741551  1
  O  O28  1  0.52596287  0.32447914  0.85284736  1
  O  O29  1  0.56491191  0.69416330  0.88351871  1
  O  O30  1  0.43493818  0.19577310  0.11545240  1
  O  O31  1  0.47428242  0.82306736  0.14770889  1
  O  O32  1  0.59343101  0.03798397  0.48233560  1
  O  O33  1  0.62324856  0.34546077  0.50716138  1
  O  O34  1  0.69877875  0.67908882  0.60552058  1
  O  O35  1  0.80149721  0.43341369  0.91760604  1
  O  O36  1  0.79736880  0.15282501  0.75378639  1
  O  O37  1  0.70263120  0.65282501  0.24621361  1
  O  O38  1  0.69850279  0.93341369  0.08239396  1
  O  O39  1  0.80122125  0.17908882  0.39447942  1
  O  O40  1  0.87675144  0.84546077  0.49283862  1
  O  O41  1  0.90656899  0.53798397  0.51766440  1
  O  O42  1  0.93508809  0.19416330  0.11648129  1
  O  O43  1  0.97403713  0.82447914  0.14715264  1
