# generated using pymatgen
data_Na7(WO3)13
_symmetry_space_group_name_H-M   'P 1'
_cell_length_a   16.17129140
_cell_length_b   9.63349715
_cell_length_c   5.55038875
_cell_angle_alpha   106.64631307
_cell_angle_beta   80.20870211
_cell_angle_gamma   78.64944174
_symmetry_Int_Tables_number   1
_chemical_formula_structural   Na7(WO3)13
_chemical_formula_sum   'Na7 W13 O39'
_cell_volume   788.28068340
_cell_formula_units_Z   1
loop_
 _symmetry_equiv_pos_site_id
 _symmetry_equiv_pos_as_xyz
  1  'x, y, z'
loop_
 _atom_site_type_symbol
 _atom_site_label
 _atom_site_symmetry_multiplicity
 _atom_site_fract_x
 _atom_site_fract_y
 _atom_site_fract_z
 _atom_site_occupancy
  Na  Na0  1  0.46381912  0.15156963  0.84557449  1
  Na  Na1  1  0.91942960  0.30906470  0.69624475  1
  Na  Na2  1  0.61542664  0.53820405  0.46109250  1
  Na  Na3  1  0.15570588  0.38395663  0.61367554  1
  Na  Na4  1  0.31002787  0.76894689  0.22893596  1
  Na  Na5  1  0.76888336  0.92313382  0.07539505  1
  Na  Na6  1  0.07540976  0.69324509  0.30941932  1
  W  W7  1  0.57756615  0.19144941  0.30926611  1
  W  W8  1  0.73064372  0.57590588  0.92444670  1
  W  W9  1  0.34655897  0.11351889  0.38293073  1
  W  W10  1  0.11626010  0.03886242  0.46229062  1
  W  W11  1  0.95948490  0.65632734  0.84675089  1
  W  W12  1  0.80664131  0.27102730  0.23110830  1
  W  W13  1  0.19235931  0.73241500  0.77139046  1
  W  W14  1  0.27175311  0.41939281  0.07323967  1
  W  W15  1  0.42361715  0.80828499  0.69066881  1
  W  W16  1  0.65499514  0.88186393  0.61547744  1
  W  W17  1  0.03781516  0.34448423  0.15297637  1
  W  W18  1  0.88492626  0.96426986  0.53661232  1
  W  W19  1  0.50033839  0.50041888  0.00050241  1
  O  O20  1  0.84638579  0.10913849  0.89021156  1
  O  O21  1  0.61210694  0.04229121  0.96214680  1
  O  O22  1  0.84637052  0.11018059  0.38985624  1
  O  O23  1  0.61290519  0.04050583  0.46410838  1
  O  O24  1  0.68990972  0.22657652  0.26223398  1
  O  O25  1  0.46060314  0.15292567  0.34130244  1
  O  O26  1  0.23450999  0.07691900  0.42024862  1
  O  O27  1  0.30590483  0.27544881  0.73707706  1
  O  O28  1  0.99754027  0.00004718  0.50793101  1
  O  O29  1  0.77112143  0.41402113  0.56701384  1
  O  O30  1  0.92634065  0.30619348  0.18773627  1
  O  O31  1  0.84279058  0.61638998  0.88450589  1
  O  O32  1  0.53804267  0.34261127  0.64092497  1
  O  O33  1  0.07693342  0.20186975  0.81166022  1
  O  O34  1  0.61744200  0.54085401  0.95757003  1
  O  O35  1  0.22847850  0.57948422  0.92573763  1
  O  O36  1  0.69035559  0.73922380  0.77348201  1
  O  O37  1  0.07795581  0.19521037  0.31483437  1
  O  O38  1  0.46211646  0.65062958  0.84763449  1
  O  O39  1  0.53689742  0.34485475  0.14691417  1
  O  O40  1  0.30518414  0.27597614  0.23264185  1
  O  O41  1  0.92308784  0.80608554  0.69539995  1
  O  O42  1  0.77085049  0.41823251  0.06830555  1
  O  O43  1  0.38074506  0.46481050  0.04257890  1
  O  O44  1  0.30857083  0.76642010  0.72729216  1
  O  O45  1  0.53859045  0.84762813  0.65869031  1
  O  O46  1  0.76698801  0.92756527  0.58880165  1
  O  O47  1  0.15266848  0.39230419  0.11956486  1
  O  O48  1  0.22818136  0.58316332  0.41998825  1
  O  O49  1  0.00343047  0.49433959  0.49338571  1
  O  O50  1  0.08060920  0.68926769  0.79972882  1
  O  O51  1  0.69061705  0.73949473  0.27936761  1
  O  O52  1  0.92014419  0.80851761  0.20719860  1
  O  O53  1  0.46351932  0.65332588  0.35723235  1
  O  O54  1  0.38699254  0.95567823  0.53838588  1
  O  O55  1  0.00223162  0.50077525  0.99499042  1
  O  O56  1  0.15570727  0.88304839  0.60630849  1
  O  O57  1  0.38669137  0.95299195  0.03043970  1
  O  O58  1  0.15651648  0.87788960  0.10933552  1
