# generated using pymatgen
data_K2CoP4(HO2)8
_symmetry_space_group_name_H-M   'P 1'
_cell_length_a   9.83883836
_cell_length_b   11.12290762
_cell_length_c   13.45935415
_cell_angle_alpha   90.00000000
_cell_angle_beta   90.00000000
_cell_angle_gamma   90.00000000
_symmetry_Int_Tables_number   1
_chemical_formula_structural   K2CoP4(HO2)8
_chemical_formula_sum   'K8 Co4 P16 H32 O64'
_cell_volume   1472.94447808
_cell_formula_units_Z   4
loop_
 _symmetry_equiv_pos_site_id
 _symmetry_equiv_pos_as_xyz
  1  'x, y, z'
loop_
 _atom_site_type_symbol
 _atom_site_label
 _atom_site_symmetry_multiplicity
 _atom_site_fract_x
 _atom_site_fract_y
 _atom_site_fract_z
 _atom_site_occupancy
  K  K0  1  0.05262038  0.25000000  0.60348903  1
  K  K1  1  0.24782017  0.25000000  0.12434071  1
  K  K2  1  0.25217983  0.75000000  0.62434071  1
  K  K3  1  0.44737962  0.75000000  0.10348903  1
  K  K4  1  0.55262038  0.25000000  0.89651097  1
  K  K5  1  0.74782017  0.25000000  0.37565929  1
  K  K6  1  0.75217983  0.75000000  0.87565929  1
  K  K7  1  0.94737962  0.75000000  0.39651097  1
  Co  Co8  1  0.16548465  0.25000000  0.86029022  1
  Co  Co9  1  0.33451535  0.75000000  0.36029022  1
  Co  Co10  1  0.66548465  0.25000000  0.63970978  1
  Co  Co11  1  0.83451535  0.75000000  0.13970978  1
  P  P12  1  0.06044781  0.51774205  0.77574284  1
  P  P13  1  0.06044781  0.98225795  0.77574284  1
  P  P14  1  0.24859550  0.01571683  0.44275271  1
  P  P15  1  0.24859550  0.48428317  0.44275271  1
  P  P16  1  0.25140450  0.51571683  0.94275271  1
  P  P17  1  0.25140450  0.98428317  0.94275271  1
  P  P18  1  0.43955219  0.48225795  0.27574284  1
  P  P19  1  0.43955219  0.01774205  0.27574284  1
  P  P20  1  0.56044781  0.51774205  0.72425716  1
  P  P21  1  0.56044781  0.98225795  0.72425716  1
  P  P22  1  0.74859550  0.01571683  0.05724729  1
  P  P23  1  0.74859550  0.48428317  0.05724729  1
  P  P24  1  0.75140450  0.51571683  0.55724729  1
  P  P25  1  0.75140450  0.98428317  0.55724729  1
  P  P26  1  0.93955219  0.01774205  0.22425716  1
  P  P27  1  0.93955219  0.48225795  0.22425716  1
  H  H28  1  0.03914658  0.67823348  0.02086207  1
  H  H29  1  0.03914658  0.82176652  0.02086207  1
  H  H30  1  0.04075856  0.08079207  0.40116733  1
  H  H31  1  0.04075856  0.41920793  0.40116733  1
  H  H32  1  0.10000541  0.02307126  0.10919414  1
  H  H33  1  0.10000541  0.47692874  0.10919414  1
  H  H34  1  0.13559465  0.68105535  0.22347688  1
  H  H35  1  0.13559465  0.81894465  0.22347688  1
  H  H36  1  0.36440535  0.18105535  0.72347688  1
  H  H37  1  0.36440535  0.31894465  0.72347688  1
  H  H38  1  0.39999459  0.52307126  0.60919414  1
  H  H39  1  0.39999459  0.97692874  0.60919414  1
  H  H40  1  0.45924144  0.58079207  0.90116733  1
  H  H41  1  0.45924144  0.91920793  0.90116733  1
  H  H42  1  0.46085342  0.17823348  0.52086207  1
  H  H43  1  0.46085342  0.32176652  0.52086207  1
  H  H44  1  0.53914658  0.82176652  0.47913793  1
  H  H45  1  0.53914658  0.67823348  0.47913793  1
  H  H46  1  0.54075856  0.08079207  0.09883267  1
  H  H47  1  0.54075856  0.41920793  0.09883267  1
  H  H48  1  0.60000541  0.02307126  0.39080586  1
  H  H49  1  0.60000541  0.47692874  0.39080586  1
  H  H50  1  0.63559465  0.81894465  0.27652312  1
  H  H51  1  0.63559465  0.68105535  0.27652312  1
  H  H52  1  0.86440535  0.18105535  0.77652312  1
  H  H53  1  0.86440535  0.31894465  0.77652312  1
  H  H54  1  0.89999459  0.52307126  0.89080586  1
  H  H55  1  0.89999459  0.97692874  0.89080586  1
  H  H56  1  0.95924144  0.91920793  0.59883267  1
  H  H57  1  0.95924144  0.58079207  0.59883267  1
  H  H58  1  0.96085342  0.17823348  0.97913793  1
  H  H59  1  0.96085342  0.32176652  0.97913793  1
  O  O60  1  0.02101074  0.25000000  0.97474501  1
  O  O61  1  0.05161204  0.11895056  0.78167062  1
  O  O62  1  0.05161204  0.38104944  0.78167062  1
  O  O63  1  0.06525467  0.07392342  0.16841314  1
  O  O64  1  0.06525467  0.42607658  0.16841314  1
  O  O65  1  0.07374932  0.57250378  0.67360266  1
  O  O66  1  0.07374932  0.92749622  0.67360266  1
  O  O67  1  0.11587985  0.09300819  0.45431566  1
  O  O68  1  0.11587985  0.40699181  0.45431566  1
  O  O69  1  0.15179741  0.55275773  0.02297676  1
  O  O70  1  0.15179741  0.94724227  0.02297676  1
  O  O71  1  0.19418248  0.56267946  0.83570595  1
  O  O72  1  0.19418248  0.93732054  0.83570595  1
  O  O73  1  0.19740496  0.75000000  0.23307345  1
  O  O74  1  0.21753238  0.61802155  0.43390579  1
  O  O75  1  0.21753238  0.88197845  0.43390579  1
  O  O76  1  0.28246762  0.11802155  0.93390579  1
  O  O77  1  0.28246762  0.38197845  0.93390579  1
  O  O78  1  0.30259504  0.25000000  0.73307345  1
  O  O79  1  0.30581752  0.06267946  0.33570595  1
  O  O80  1  0.30581752  0.43732054  0.33570595  1
  O  O81  1  0.34820259  0.05275773  0.52297676  1
  O  O82  1  0.34820259  0.44724227  0.52297676  1
  O  O83  1  0.38412015  0.59300819  0.95431566  1
  O  O84  1  0.38412015  0.90699181  0.95431566  1
  O  O85  1  0.42625068  0.42749622  0.17360266  1
  O  O86  1  0.42625068  0.07250378  0.17360266  1
  O  O87  1  0.43474533  0.57392342  0.66841314  1
  O  O88  1  0.43474533  0.92607658  0.66841314  1
  O  O89  1  0.44838796  0.61895056  0.28167062  1
  O  O90  1  0.44838796  0.88104944  0.28167062  1
  O  O91  1  0.47898926  0.75000000  0.47474501  1
  O  O92  1  0.52101074  0.25000000  0.52525499  1
  O  O93  1  0.55161204  0.11895056  0.71832938  1
  O  O94  1  0.55161204  0.38104944  0.71832938  1
  O  O95  1  0.56525467  0.07392342  0.33158686  1
  O  O96  1  0.56525467  0.42607658  0.33158686  1
  O  O97  1  0.57374932  0.57250378  0.82639734  1
  O  O98  1  0.57374932  0.92749622  0.82639734  1
  O  O99  1  0.61587985  0.09300819  0.04568434  1
  O  O100  1  0.61587985  0.40699181  0.04568434  1
  O  O101  1  0.65179741  0.55275773  0.47702324  1
  O  O102  1  0.65179741  0.94724227  0.47702324  1
  O  O103  1  0.69418248  0.56267946  0.66429405  1
  O  O104  1  0.69418248  0.93732054  0.66429405  1
  O  O105  1  0.69740496  0.75000000  0.26692655  1
  O  O106  1  0.71753238  0.61802155  0.06609421  1
  O  O107  1  0.71753238  0.88197845  0.06609421  1
  O  O108  1  0.78246762  0.11802155  0.56609421  1
  O  O109  1  0.78246762  0.38197845  0.56609421  1
  O  O110  1  0.80259504  0.25000000  0.76692655  1
  O  O111  1  0.80581752  0.06267946  0.16429405  1
  O  O112  1  0.80581752  0.43732054  0.16429405  1
  O  O113  1  0.84820259  0.05275773  0.97702324  1
  O  O114  1  0.84820259  0.44724227  0.97702324  1
  O  O115  1  0.88412015  0.59300819  0.54568434  1
  O  O116  1  0.88412015  0.90699181  0.54568434  1
  O  O117  1  0.92625068  0.07250378  0.32639734  1
  O  O118  1  0.92625068  0.42749622  0.32639734  1
  O  O119  1  0.93474533  0.57392342  0.83158686  1
  O  O120  1  0.93474533  0.92607658  0.83158686  1
  O  O121  1  0.94838796  0.61895056  0.21832938  1
  O  O122  1  0.94838796  0.88104944  0.21832938  1
  O  O123  1  0.97898926  0.75000000  0.02525499  1
