# generated using pymatgen
data_Li2VCrP2(HO5)2
_symmetry_space_group_name_H-M   'P 1'
_cell_length_a   10.81995294
_cell_length_b   7.38183933
_cell_length_c   5.16801600
_cell_angle_alpha   108.95245482
_cell_angle_beta   97.77703066
_cell_angle_gamma   106.30593170
_symmetry_Int_Tables_number   1
_chemical_formula_structural   Li2VCrP2(HO5)2
_chemical_formula_sum   'Li4 V2 Cr2 P4 H4 O20'
_cell_volume   362.84253912
_cell_formula_units_Z   2
loop_
 _symmetry_equiv_pos_site_id
 _symmetry_equiv_pos_as_xyz
  1  'x, y, z'
loop_
 _atom_site_type_symbol
 _atom_site_label
 _atom_site_symmetry_multiplicity
 _atom_site_fract_x
 _atom_site_fract_y
 _atom_site_fract_z
 _atom_site_occupancy
  Li  Li0  1  0.19905596  0.82237213  0.74726621  1
  Li  Li1  1  0.30201437  0.17653357  0.25335525  1
  Li  Li2  1  0.69798563  0.82346643  0.74664475  1
  Li  Li3  1  0.80094404  0.17762787  0.25273379  1
  V  V4  1  0.00000000  0.00000000  0.00000000  1
  V  V5  1  0.50000000  0.50000000  0.00000000  1
  Cr  Cr6  1  0.00000000  0.50000000  0.00000000  1
  Cr  Cr7  1  0.50000000  0.00000000  0.00000000  1
  P  P8  1  0.18029579  0.23318200  0.67811744  1
  P  P9  1  0.31973006  0.76872158  0.32417165  1
  P  P10  1  0.68026994  0.23127842  0.67582835  1
  P  P11  1  0.81970421  0.76681800  0.32188256  1
  H  H12  1  0.02929180  0.34158221  0.36022553  1
  H  H13  1  0.47023945  0.66291336  0.64060801  1
  H  H14  1  0.52976055  0.33708664  0.35939199  1
  H  H15  1  0.97070820  0.65841779  0.63977447  1
  O  O16  1  0.02346295  0.72221462  0.83886954  1
  O  O17  1  0.10179492  0.38133486  0.72729463  1
  O  O18  1  0.17173812  0.66031478  0.30589173  1
  O  O19  1  0.12683840  0.07315592  0.37144749  1
  O  O20  1  0.17001867  0.12013972  0.88740616  1
  O  O21  1  0.33046689  0.88056920  0.11396037  1
  O  O22  1  0.37416427  0.92882770  0.63141901  1
  O  O23  1  0.32792652  0.34359652  0.69652377  1
  O  O24  1  0.39770493  0.61925373  0.27408446  1
  O  O25  1  0.52552463  0.72802329  0.83731135  1
  O  O26  1  0.47447537  0.27197671  0.16268865  1
  O  O27  1  0.60229507  0.38074627  0.72591554  1
  O  O28  1  0.67207348  0.65640348  0.30347623  1
  O  O29  1  0.62583573  0.07117230  0.36858099  1
  O  O30  1  0.66953311  0.11943080  0.88603963  1
  O  O31  1  0.82998133  0.87986028  0.11259384  1
  O  O32  1  0.87316160  0.92684408  0.62855251  1
  O  O33  1  0.82826188  0.33968522  0.69410827  1
  O  O34  1  0.89820508  0.61866514  0.27270537  1
  O  O35  1  0.97653705  0.27778538  0.16113046  1
