# generated using pymatgen
data_Li4CrFe3O8
_symmetry_space_group_name_H-M   'P 1'
_cell_length_a   5.96888990
_cell_length_b   5.99512334
_cell_length_c   8.44963375
_cell_angle_alpha   89.72618975
_cell_angle_beta   45.14009845
_cell_angle_gamma   119.92577378
_symmetry_Int_Tables_number   1
_chemical_formula_structural   Li4CrFe3O8
_chemical_formula_sum   'Li4 Cr1 Fe3 O8'
_cell_volume   151.23626555
_cell_formula_units_Z   1
loop_
 _symmetry_equiv_pos_site_id
 _symmetry_equiv_pos_as_xyz
  1  'x, y, z'
loop_
 _atom_site_type_symbol
 _atom_site_label
 _atom_site_symmetry_multiplicity
 _atom_site_fract_x
 _atom_site_fract_y
 _atom_site_fract_z
 _atom_site_occupancy
  Li  Li0  1  0.99973066  0.50007757  0.00003964  1
  Li  Li1  1  0.99990391  0.00000297  0.50013644  1
  Li  Li2  1  0.49791715  0.49965721  0.00080549  1
  Li  Li3  1  0.49908028  0.99962585  0.50043958  1
  Cr  Cr4  1  0.99992040  0.00003407  0.00000466  1
  Fe  Fe5  1  0.99992242  0.49998790  0.50002819  1
  Fe  Fe6  1  0.49990940  0.00028888  0.00010596  1
  Fe  Fe7  1  0.49992591  0.50014408  0.50007102  1
  O  O8  1  0.99985229  0.51525777  0.25741165  1
  O  O9  1  0.49791103  0.01436135  0.75793285  1
  O  O10  1  0.99978650  0.01449324  0.75793339  1
  O  O11  1  0.50181839  0.51628600  0.25594996  1
  O  O12  1  0.50191619  0.98573810  0.24219411  1
  O  O13  1  0.00004087  0.48506875  0.74266617  1
  O  O14  1  0.49793267  0.48375816  0.74418003  1
  O  O15  1  0.99986494  0.98571911  0.24219386  1
