# generated using pymatgen
data_LiVCrP2(HO5)2
_symmetry_space_group_name_H-M   'P 1'
_cell_length_a   7.44060728
_cell_length_b   11.02001228
_cell_length_c   6.88595142
_cell_angle_alpha   72.79959472
_cell_angle_beta   89.38131881
_cell_angle_gamma   81.32980851
_symmetry_Int_Tables_number   1
_chemical_formula_structural   LiVCrP2(HO5)2
_chemical_formula_sum   'Li3 V3 Cr3 P6 H6 O30'
_cell_volume   532.86093754
_cell_formula_units_Z   3
loop_
 _symmetry_equiv_pos_site_id
 _symmetry_equiv_pos_as_xyz
  1  'x, y, z'
loop_
 _atom_site_type_symbol
 _atom_site_label
 _atom_site_symmetry_multiplicity
 _atom_site_fract_x
 _atom_site_fract_y
 _atom_site_fract_z
 _atom_site_occupancy
  Li  Li0  1  0.68833201  0.15950238  0.75008332  1
  Li  Li1  1  0.64766173  0.50637964  0.91580146  1
  Li  Li2  1  0.31090595  0.83997592  0.24971876  1
  V  V3  1  0.66772891  0.83459154  0.83016277  1
  V  V4  1  0.33470089  0.16686780  0.17172600  1
  V  V5  1  0.00086733  0.50122470  0.49684036  1
  Cr  Cr6  1  0.66823693  0.33297610  0.33398119  1
  Cr  Cr7  1  0.33090154  0.66529244  0.66822954  1
  Cr  Cr8  1  0.00139038  0.99969361  0.00036696  1
  P  P9  1  0.92705913  0.30035810  0.94712506  1
  P  P10  1  0.74262390  0.03244847  0.38361817  1
  P  P11  1  0.40687587  0.36510357  0.71963172  1
  P  P12  1  0.59403410  0.63477741  0.28067599  1
  P  P13  1  0.25841023  0.96641517  0.61622449  1
  P  P14  1  0.07569369  0.70004094  0.05090798  1
  H  H15  1  0.32838046  0.01723950  0.95579296  1
  H  H16  1  0.99917612  0.33888967  0.30942053  1
  H  H17  1  0.66239899  0.68230810  0.62346552  1
  H  H18  1  0.33465292  0.32870823  0.35821442  1
  H  H19  1  0.00107209  0.66020679  0.69264067  1
  H  H20  1  0.67167589  0.98342114  0.04483907  1
  O  O21  1  0.92335236  0.18765911  0.85990123  1
  O  O22  1  0.91153425  0.42956498  0.77225231  1
  O  O23  1  0.42018247  0.23558732  0.89504063  1
  O  O24  1  0.89980931  0.71815718  0.91378814  1
  O  O25  1  0.72948768  0.14402666  0.47702111  1
  O  O26  1  0.91251577  0.02143864  0.26253273  1
  O  O27  1  0.41185333  0.47754635  0.80687978  1
  O  O28  1  0.91318812  0.36915224  0.40102385  1
  O  O29  1  0.57926304  0.34585959  0.59966437  1
  O  O30  1  0.57098087  0.04800918  0.24120699  1
  O  O31  1  0.74797021  0.97170087  0.93045850  1
  O  O32  1  0.58656211  0.69386434  0.73827777  1
  O  O33  1  0.24360315  0.68639146  0.92692121  1
  O  O34  1  0.25458548  0.09290796  0.43699832  1
  O  O35  1  0.23539893  0.38397828  0.57944750  1
  O  O36  1  0.76189041  0.61792010  0.42626116  1
  O  O37  1  0.74474552  0.90549552  0.56302973  1
  O  O38  1  0.75522425  0.31939626  0.06843507  1
  O  O39  1  0.42081694  0.29749552  0.26717351  1
  O  O40  1  0.25294173  0.02752098  0.07107293  1
  O  O41  1  0.43086221  0.95114824  0.75804486  1
  O  O42  1  0.41994203  0.65153728  0.39836620  1
  O  O43  1  0.08739365  0.62939567  0.60184082  1
  O  O44  1  0.60417842  0.52273237  0.18975562  1
  O  O45  1  0.08877868  0.97788060  0.73783719  1
  O  O46  1  0.27300060  0.85411754  0.52397797  1
  O  O47  1  0.09969820  0.28159463  0.08608814  1
  O  O48  1  0.58088414  0.76443689  0.10499651  1
  O  O49  1  0.07905095  0.57362363  0.22905815  1
  O  O50  1  0.07594618  0.81246239  0.14077977  1
