# generated using pymatgen
data_V4OF11
_symmetry_space_group_name_H-M   'P 1'
_cell_length_a   5.25772668
_cell_length_b   5.46642019
_cell_length_c   17.51291659
_cell_angle_alpha   91.58080677
_cell_angle_beta   98.81247229
_cell_angle_gamma   60.99764143
_symmetry_Int_Tables_number   1
_chemical_formula_structural   V4OF11
_chemical_formula_sum   'V8 O2 F22'
_cell_volume   434.38699995
_cell_formula_units_Z   2
loop_
 _symmetry_equiv_pos_site_id
 _symmetry_equiv_pos_as_xyz
  1  'x, y, z'
loop_
 _atom_site_type_symbol
 _atom_site_label
 _atom_site_symmetry_multiplicity
 _atom_site_fract_x
 _atom_site_fract_y
 _atom_site_fract_z
 _atom_site_occupancy
  V  V0  1  0.77387377  0.59729587  0.12050723  1
  V  V1  1  0.74175370  0.12977443  0.62438097  1
  V  V2  1  0.51221462  0.23854549  0.24971803  1
  V  V3  1  0.49642176  0.75518950  0.74991613  1
  V  V4  1  0.27921835  0.85794749  0.38171468  1
  V  V5  1  0.24641072  0.38048431  0.87543304  1
  V  V6  1  0.99785677  0.00962630  0.00253533  1
  V  V7  1  0.98790990  0.50518957  0.49818724  1
  O  O8  1  0.94976518  0.32360068  0.06593435  1
  O  O9  1  0.56974662  0.71415787  0.45392726  1
  F  F10  1  0.93153462  0.82908778  0.09000129  1
  F  F11  1  0.97337871  0.81699383  0.56228262  1
  F  F12  1  0.54608622  0.92264992  0.18541716  1
  F  F13  1  0.93637743  0.02882474  0.29231219  1
  F  F14  1  0.91669350  0.34629280  0.58631958  1
  F  F15  1  0.92291486  0.54061107  0.78646624  1
  F  F16  1  0.42477548  0.79730227  0.03857974  1
  F  F17  1  0.57288246  0.41788137  0.16380409  1
  F  F18  1  0.56961577  0.91200351  0.66115577  1
  F  F19  1  0.47124080  0.56393692  0.31030286  1
  F  F20  1  0.51577790  0.43981058  0.68706493  1
  F  F21  1  0.42046038  0.08640163  0.33618877  1
  F  F22  1  0.41654376  0.29147347  0.53654132  1
  F  F23  1  0.42510696  0.59037638  0.83903984  1
  F  F24  1  0.57473966  0.20928156  0.96443690  1
  F  F25  1  0.07915580  0.65858084  0.41162144  1
  F  F26  1  0.07943622  0.45670569  0.21207253  1
  F  F27  1  0.06892846  0.96857223  0.71308161  1
  F  F28  1  0.47599434  0.06642566  0.81250693  1
  F  F29  1  0.02639349  0.69528280  0.93924763  1
  F  F30  1  0.02342864  0.18007906  0.43735553  1
  F  F31  1  0.07336315  0.16961339  0.91194578  1
