# generated using pymatgen
data_Li2VCrP2(HO5)2
_symmetry_space_group_name_H-M   'P 1'
_cell_length_a   5.41342288
_cell_length_b   7.36308288
_cell_length_c   14.31623025
_cell_angle_alpha   86.44789573
_cell_angle_beta   85.15870942
_cell_angle_gamma   106.32025169
_symmetry_Int_Tables_number   1
_chemical_formula_structural   Li2VCrP2(HO5)2
_chemical_formula_sum   'Li6 V3 Cr3 P6 H6 O30'
_cell_volume   543.49612914
_cell_formula_units_Z   3
loop_
 _symmetry_equiv_pos_site_id
 _symmetry_equiv_pos_as_xyz
  1  'x, y, z'
loop_
 _atom_site_type_symbol
 _atom_site_label
 _atom_site_symmetry_multiplicity
 _atom_site_fract_x
 _atom_site_fract_y
 _atom_site_fract_z
 _atom_site_occupancy
  Li  Li0  1  0.14861604  0.57362977  0.24867058  1
  Li  Li1  1  0.18457255  0.75972596  0.41781270  1
  Li  Li2  1  0.48204988  0.90694812  0.91550686  1
  Li  Li3  1  0.51808601  0.09304654  0.08467050  1
  Li  Li4  1  0.81536838  0.24077530  0.58224758  1
  Li  Li5  1  0.85128918  0.42588555  0.75106223  1
  V  V6  1  0.00022506  0.00017748  0.00005338  1
  V  V7  1  0.33333143  0.83334677  0.66665056  1
  V  V8  1  0.66648092  0.66650264  0.33327464  1
  Cr  Cr9  1  0.99960918  0.49988050  -0.00005945  1
  Cr  Cr10  1  0.33321792  0.33327620  0.66663227  1
  Cr  Cr11  1  0.66709139  0.16678443  0.33354082  1
  P  P12  1  0.19790793  0.32541175  0.44116196  1
  P  P13  1  0.13638504  0.00810767  0.22637081  1
  P  P14  1  0.53029337  0.65858904  0.10702107  1
  P  P15  1  0.46880597  0.34128253  0.89212739  1
  P  P16  1  0.86548848  0.99397461  0.77415257  1
  P  P17  1  0.80118952  0.67266564  0.55915600  1
  H  H18  1  0.06137930  0.77934611  0.87991812  1
  H  H19  1  0.27119399  0.55054200  0.78664739  1
  H  H20  1  0.60529723  0.88728567  0.45340694  1
  H  H21  1  0.39548216  0.11614086  0.54665485  1
  H  H22  1  0.72861131  0.44615520  0.21313799  1
  H  H23  1  0.93803535  0.22050482  0.12023023  1
  O  O24  1  0.13086896  0.95023783  0.12420269  1
  O  O25  1  0.04472286  0.82434197  0.29616792  1
  O  O26  1  0.03664031  0.86069489  0.75829572  1
  O  O27  1  0.09081351  0.77684147  0.56557436  1
  O  O28  1  0.10079818  0.77655288  0.94633419  1
  O  O29  1  0.24078093  0.55610323  0.10134650  1
  O  O30  1  0.28865242  0.50904584  0.37112180  1
  O  O31  1  0.20498498  0.38405335  0.54338403  1
  O  O32  1  0.23004983  0.55284086  0.72051896  1
  O  O33  1  0.62195943  0.84238532  0.03715677  1
  O  O34  1  0.53572765  0.71640535  0.20910574  1
  O  O35  1  0.56593689  0.89011737  0.38701307  1
  O  O36  1  0.29455460  0.47277434  0.90898620  1
  O  O37  1  0.37206355  0.19384380  0.42436582  1
  O  O38  1  0.57587168  0.88985995  0.76773868  1
  O  O39  1  0.42593296  0.11057271  0.23200266  1
  O  O40  1  0.63004775  0.80599198  0.57501525  1
  O  O41  1  0.70526580  0.52726886  0.09084366  1
  O  O42  1  0.43660956  0.11384249  0.61278479  1
  O  O43  1  0.46168446  0.28264551  0.78993107  1
  O  O44  1  0.37797912  0.15753324  0.96221228  1
  O  O45  1  0.76742165  0.44327103  0.27959547  1
  O  O46  1  0.79724936  0.61545470  0.45707787  1
  O  O47  1  0.70997448  0.49020919  0.62945539  1
  O  O48  1  0.75836338  0.44339900  0.89801732  1
  O  O49  1  0.89919517  0.22339167  0.05375030  1
  O  O50  1  0.90832488  0.22324666  0.43533849  1
  O  O51  1  0.96138937  0.13944123  0.24249683  1
  O  O52  1  0.95666245  0.17644903  0.70386760  1
  O  O53  1  0.86946622  0.05120107  0.87625656  1
