# generated using pymatgen
data_V4(OF3)3
_symmetry_space_group_name_H-M   'P 1'
_cell_length_a   5.27861524
_cell_length_b   5.37811231
_cell_length_c   9.04521248
_cell_angle_alpha   74.41647863
_cell_angle_beta   90.07251409
_cell_angle_gamma   61.20814441
_symmetry_Int_Tables_number   1
_chemical_formula_structural   V4(OF3)3
_chemical_formula_sum   'V4 O3 F9'
_cell_volume   214.15501542
_cell_formula_units_Z   1
loop_
 _symmetry_equiv_pos_site_id
 _symmetry_equiv_pos_as_xyz
  1  'x, y, z'
loop_
 _atom_site_type_symbol
 _atom_site_label
 _atom_site_symmetry_multiplicity
 _atom_site_fract_x
 _atom_site_fract_y
 _atom_site_fract_z
 _atom_site_occupancy
  V  V0  1  0.74967827  0.50078559  0.25021978  1
  V  V1  1  0.49866859  0.97440254  0.49418733  1
  V  V2  1  0.26453270  0.51996672  0.74470648  1
  V  V3  1  0.00057725  0.02578310  0.00724135  1
  O  O4  1  0.96038536  0.23871169  0.12010684  1
  O  O5  1  0.54001291  0.76250469  0.37926602  1
  O  O6  1  0.40677925  0.73850440  0.66946221  1
  F  F7  1  0.91830330  0.74949015  0.58163077  1
  F  F8  1  0.92764484  0.74433849  0.16898926  1
  F  F9  1  0.42487783  0.74986893  0.07580764  1
  F  F10  1  0.57271691  0.25708877  0.33172447  1
  F  F11  1  0.57812010  0.24198966  0.92157856  1
  F  F12  1  0.46136772  0.23918601  0.62484096  1
  F  F13  1  0.03836307  0.74885842  0.88075430  1
  F  F14  1  0.08348695  0.25583842  0.82590151  1
  F  F15  1  0.07448497  0.25268242  0.42358151  1
