# generated using pymatgen
data_KTi6O12
_symmetry_space_group_name_H-M   'P 1'
_cell_length_a   8.54028328
_cell_length_b   8.54028328
_cell_length_c   8.54028328
_cell_angle_alpha   105.93038360
_cell_angle_beta   116.81181737
_cell_angle_gamma   105.93038360
_symmetry_Int_Tables_number   1
_chemical_formula_structural   KTi6O12
_chemical_formula_sum   'K2 Ti12 O24'
_cell_volume   473.53216487
_cell_formula_units_Z   2
loop_
 _symmetry_equiv_pos_site_id
 _symmetry_equiv_pos_as_xyz
  1  'x, y, z'
loop_
 _atom_site_type_symbol
 _atom_site_label
 _atom_site_symmetry_multiplicity
 _atom_site_fract_x
 _atom_site_fract_y
 _atom_site_fract_z
 _atom_site_occupancy
  K  K0  1  0.89375840  0.00000000  0.89375840  1
  K  K1  1  0.43957560  0.00000000  0.43957560  1
  Ti  Ti2  1  0.83486523  0.81841637  0.31688414  1
  Ti  Ti3  1  0.98327219  0.48352146  0.16587587  1
  Ti  Ti4  1  0.35006081  0.51647854  0.16745713  1
  Ti  Ti5  1  0.68235541  0.51647854  0.49975074  1
  Ti  Ti6  1  0.83358226  0.18260368  0.35006081  1
  Ti  Ti7  1  0.49846777  0.18158363  0.01644886  1
  Ti  Ti8  1  0.49975074  0.81739632  0.98327219  1
  Ti  Ti9  1  0.16745713  0.81739632  0.65097859  1
  Ti  Ti10  1  0.31688414  0.48201891  0.49846777  1
  Ti  Ti11  1  0.65097859  0.48352146  0.83358226  1
  Ti  Ti12  1  0.01644886  0.51798109  0.83486523  1
  Ti  Ti13  1  0.16587587  0.18260368  0.68235541  1
  O  O14  1  0.79465261  0.95112178  0.15582980  1
  O  O15  1  0.83219983  0.62580558  0.12693875  1
  O  O16  1  0.53963431  0.70612141  0.16622298  1
  O  O17  1  0.87323143  0.70612141  0.49982010  1
  O  O18  1  0.79369869  0.29387859  0.16711002  1
  O  O19  1  0.84353082  0.63882281  0.79465261  1
  O  O20  1  0.51091128  0.63979748  0.46221919  1
  O  O21  1  0.17750420  0.63882281  0.12862499  1
  O  O22  1  0.50113417  0.37419442  0.20639425  1
  O  O23  1  0.83351290  0.37341133  0.53963431  1
  O  O24  1  0.46221919  0.95130791  0.82242172  1
  O  O25  1  0.12862499  0.95112178  0.48980218  1
  O  O26  1  0.87111381  0.04869209  0.51091128  1
  O  O27  1  0.53868139  0.04887822  0.17750420  1
  O  O28  1  0.16622298  0.62658867  0.46010157  1
  O  O29  1  0.49982010  0.62658867  0.79369869  1
  O  O30  1  0.82242172  0.36020252  0.87111381  1
  O  O31  1  0.15582980  0.36117719  0.20470801  1
  O  O32  1  0.48980218  0.36117719  0.53868139  1
  O  O33  1  0.20639425  0.70526008  0.83219983  1
  O  O34  1  0.12693875  0.29473992  0.50113417  1
  O  O35  1  0.46010157  0.29387859  0.83351290  1
  O  O36  1  0.16711002  0.37341133  0.87323143  1
  O  O37  1  0.20470801  0.04887822  0.84353082  1
