# generated using pymatgen
data_Li4P5HO15
_symmetry_space_group_name_H-M   'P 1'
_cell_length_a   6.72345434
_cell_length_b   7.34789563
_cell_length_c   11.54445721
_cell_angle_alpha   72.69883423
_cell_angle_beta   83.29545320
_cell_angle_gamma   85.40146572
_symmetry_Int_Tables_number   1
_chemical_formula_structural   Li4P5HO15
_chemical_formula_sum   'Li8 P10 H2 O30'
_cell_volume   540.18322468
_cell_formula_units_Z   2
loop_
 _symmetry_equiv_pos_site_id
 _symmetry_equiv_pos_as_xyz
  1  'x, y, z'
loop_
 _atom_site_type_symbol
 _atom_site_label
 _atom_site_symmetry_multiplicity
 _atom_site_fract_x
 _atom_site_fract_y
 _atom_site_fract_z
 _atom_site_occupancy
  Li  Li0  1  0.31344504  0.31121441  0.73631818  1
  Li  Li1  1  0.42485421  0.39653796  0.17612070  1
  Li  Li2  1  0.27906437  0.28756522  0.98808278  1
  Li  Li3  1  0.38524753  0.36124410  0.44487872  1
  Li  Li4  1  0.61475247  0.63875590  0.55512128  1
  Li  Li5  1  0.72093563  0.71243478  0.01191722  1
  Li  Li6  1  0.57514579  0.60346204  0.82387930  1
  Li  Li7  1  0.68655496  0.68878559  0.26368182  1
  P  P8  1  0.07249047  0.65622028  0.83016183  1
  P  P9  1  0.20063992  0.75958741  0.22718407  1
  P  P10  1  0.14395130  0.72142128  0.56296312  1
  P  P11  1  0.39044477  0.97505632  0.35929095  1
  P  P12  1  0.29091432  0.87583800  0.95184849  1
  P  P13  1  0.70908568  0.12416200  0.04815151  1
  P  P14  1  0.60955523  0.02494368  0.64070905  1
  P  P15  1  0.85604870  0.27857872  0.43703688  1
  P  P16  1  0.79936008  0.24041259  0.77281493  1
  P  P17  1  0.92750953  0.34377972  0.16983817  1
  H  H18  1  0.04206694  0.29694884  0.57693477  1
  H  H19  1  0.95793306  0.70305116  0.42306523  1
  O  O20  1  0.00539568  0.28367522  0.70659179  1
  O  O21  1  0.05644392  0.30981112  0.48263466  1
  O  O22  1  0.13778258  0.39446130  0.12012815  1
  O  O23  1  0.16824866  0.83648948  0.08578961  1
  O  O24  1  0.07457056  0.77223384  0.68536763  1
  O  O25  1  0.11956969  0.83059277  0.87856078  1
  O  O26  1  0.21837842  0.92086365  0.47572172  1
  O  O27  1  0.27113506  0.95151519  0.25051251  1
  O  O28  1  0.23999452  0.50477724  0.84390904  1
  O  O29  1  0.30450653  0.56540204  0.57155116  1
  O  O30  1  0.36617541  0.60666937  0.25437573  1
  O  O31  1  0.42100387  0.18323941  0.33314670  1
  O  O32  1  0.32036363  0.08578830  0.90380978  1
  O  O33  1  0.53742681  0.26832265  0.04688338  1
  O  O34  1  0.43624204  0.16803718  0.61621952  1
  O  O35  1  0.56375796  0.83196282  0.38378048  1
  O  O36  1  0.46257319  0.73167735  0.95311662  1
  O  O37  1  0.67963637  0.91421170  0.09619022  1
  O  O38  1  0.57899613  0.81676059  0.66685330  1
  O  O39  1  0.63382459  0.39333063  0.74562427  1
  O  O40  1  0.69549347  0.43459796  0.42844884  1
  O  O41  1  0.76000548  0.49522276  0.15609096  1
  O  O42  1  0.72886494  0.04848481  0.74948649  1
  O  O43  1  0.78162158  0.07913635  0.52427828  1
  O  O44  1  0.88043031  0.16940723  0.12143922  1
  O  O45  1  0.92542944  0.22776616  0.31463237  1
  O  O46  1  0.83175134  0.16351052  0.91421039  1
  O  O47  1  0.86221742  0.60553870  0.87987185  1
  O  O48  1  0.94355608  0.69018888  0.51736534  1
  O  O49  1  0.99460432  0.71632478  0.29340821  1
