# generated using pymatgen
data_V4(OF3)3
_symmetry_space_group_name_H-M   'P 1'
_cell_length_a   5.24546100
_cell_length_b   5.38658228
_cell_length_c   17.40674557
_cell_angle_alpha   91.56759279
_cell_angle_beta   98.81654017
_cell_angle_gamma   61.23931867
_symmetry_Int_Tables_number   1
_chemical_formula_structural   V4(OF3)3
_chemical_formula_sum   'V8 O6 F18'
_cell_volume   425.45011926
_cell_formula_units_Z   2
loop_
 _symmetry_equiv_pos_site_id
 _symmetry_equiv_pos_as_xyz
  1  'x, y, z'
loop_
 _atom_site_type_symbol
 _atom_site_label
 _atom_site_symmetry_multiplicity
 _atom_site_fract_x
 _atom_site_fract_y
 _atom_site_fract_z
 _atom_site_occupancy
  V  V0  1  0.74805213  0.62771684  0.12515938  1
  V  V1  1  0.78239472  0.10228994  0.63053725  1
  V  V2  1  0.49898848  0.22021182  0.24688019  1
  V  V3  1  0.48580252  0.75261761  0.75084148  1
  V  V4  1  0.26894636  0.88880784  0.37256703  1
  V  V5  1  0.25565082  0.40269163  0.87330135  1
  V  V6  1  0.99718446  0.03400860  0.00406438  1
  V  V7  1  0.01016475  0.52139518  0.50448465  1
  O  O8  1  0.95976789  0.30202627  0.06016142  1
  O  O9  1  0.96133276  0.79891587  0.55968795  1
  O  O10  1  0.53823492  0.95271251  0.18954319  1
  O  O11  1  0.41171839  0.07053326  0.33528602  1
  O  O12  1  0.39516877  0.58323690  0.83449762  1
  O  O13  1  0.07355425  0.95929611  0.70317947  1
  F  F14  1  0.92905029  0.83063846  0.08495487  1
  F  F15  1  0.92108680  0.03977290  0.29063264  1
  F  F16  1  0.92297353  0.33383759  0.58503752  1
  F  F17  1  0.91071622  0.53482005  0.78925366  1
  F  F18  1  0.42312728  0.79073136  0.03677198  1
  F  F19  1  0.56961253  0.42362839  0.16534853  1
  F  F20  1  0.57998359  0.91184921  0.66310016  1
  F  F21  1  0.58506699  0.69527869  0.46077445  1
  F  F22  1  0.46318565  0.55081514  0.31233192  1
  F  F23  1  0.52746775  0.43141423  0.68588351  1
  F  F24  1  0.43366278  0.28105023  0.54050760  1
  F  F25  1  0.57091293  0.21094556  0.96161174  1
  F  F26  1  0.08661825  0.66496437  0.41326274  1
  F  F27  1  0.07299070  0.46373727  0.21277755  1
  F  F28  1  0.46956760  0.06265880  0.81438965  1
  F  F29  1  0.02642563  0.69855886  0.93985400  1
  F  F30  1  0.04219619  0.18653172  0.44106988  1
  F  F31  1  0.07839307  0.17230881  0.91224524  1
