# generated using pymatgen
data_LiCo2(PO4)2
_symmetry_space_group_name_H-M   'P 1'
_cell_length_a   10.24631286
_cell_length_b   6.63212241
_cell_length_c   5.11633454
_cell_angle_alpha   90.00000000
_cell_angle_beta   87.98548009
_cell_angle_gamma   90.00000000
_symmetry_Int_Tables_number   1
_chemical_formula_structural   LiCo2(PO4)2
_chemical_formula_sum   'Li2 Co4 P4 O16'
_cell_volume   347.46461348
_cell_formula_units_Z   2
loop_
 _symmetry_equiv_pos_site_id
 _symmetry_equiv_pos_as_xyz
  1  'x, y, z'
loop_
 _atom_site_type_symbol
 _atom_site_label
 _atom_site_symmetry_multiplicity
 _atom_site_fract_x
 _atom_site_fract_y
 _atom_site_fract_z
 _atom_site_occupancy
  Li  Li0  1  0.35980545  0.00458112  0.73974844  1
  Li  Li1  1  0.85980545  0.49541888  0.73974844  1
  Co  Co2  1  0.16774720  0.01645885  0.25166593  1
  Co  Co3  1  0.32727476  0.50540259  0.75134468  1
  Co  Co4  1  0.66774720  0.48354115  0.25166593  1
  Co  Co5  1  0.82727476  0.99459741  0.75134468  1
  P  P6  1  0.09497526  0.76884394  0.75758018  1
  P  P7  1  0.40494208  0.27041793  0.24136290  1
  P  P8  1  0.59497526  0.73115606  0.75758018  1
  P  P9  1  0.90494208  0.22958207  0.24136290  1
  O  O10  1  0.05430147  0.23260827  0.18914593  1
  O  O11  1  0.11326716  0.79706562  0.05396180  1
  O  O12  1  0.15137656  0.56491239  0.67141863  1
  O  O13  1  0.17115756  0.94489779  0.61492772  1
  O  O14  1  0.34277242  0.45469299  0.11603907  1
  O  O15  1  0.34574939  0.07363456  0.12514592  1
  O  O16  1  0.37272474  0.26987437  0.54110437  1
  O  O17  1  0.44813393  0.72979362  0.69278844  1
  O  O18  1  0.55430147  0.26739173  0.18914593  1
  O  O19  1  0.61326716  0.70293438  0.05396180  1
  O  O20  1  0.65137656  0.93508761  0.67141863  1
  O  O21  1  0.67115756  0.55510221  0.61492772  1
  O  O22  1  0.84277242  0.04530701  0.11603907  1
  O  O23  1  0.84574939  0.42636544  0.12514592  1
  O  O24  1  0.87272474  0.23012563  0.54110437  1
  O  O25  1  0.94813393  0.77020638  0.69278844  1
