# generated using pymatgen
data_Li4CrFe3O8
_symmetry_space_group_name_H-M   'P 1'
_cell_length_a   5.19167276
_cell_length_b   5.96698400
_cell_length_c   5.96527502
_cell_angle_alpha   119.99065862
_cell_angle_beta   90.00006151
_cell_angle_gamma   73.28167937
_symmetry_Int_Tables_number   1
_chemical_formula_structural   Li4CrFe3O8
_chemical_formula_sum   'Li4 Cr1 Fe3 O8'
_cell_volume   150.96708861
_cell_formula_units_Z   1
loop_
 _symmetry_equiv_pos_site_id
 _symmetry_equiv_pos_as_xyz
  1  'x, y, z'
loop_
 _atom_site_type_symbol
 _atom_site_label
 _atom_site_symmetry_multiplicity
 _atom_site_fract_x
 _atom_site_fract_y
 _atom_site_fract_z
 _atom_site_occupancy
  Li  Li0  1  0.00226934  0.99830668  0.49915334  1
  Li  Li1  1  0.99773066  0.00169332  0.00084666  1
  Li  Li2  1  1.00000000  0.50000000  0.49854590  1
  Li  Li3  1  0.00000000  0.50000000  0.00145410  1
  Cr  Cr4  1  0.50000000  0.50000000  0.25000000  1
  Fe  Fe5  1  0.50000000  0.00000000  0.75000000  1
  Fe  Fe6  1  0.50000000  0.00000000  0.25000000  1
  Fe  Fe7  1  0.50000000  0.50000000  0.75000000  1
  O  O8  1  0.27116072  0.24285806  0.62142803  1
  O  O9  1  0.72825884  0.25800540  0.88004162  1
  O  O10  1  0.27295416  0.24378269  0.12189185  1
  O  O11  1  0.72825984  0.25800540  0.37796478  1
  O  O12  1  0.27174016  0.74199460  0.61995938  1
  O  O13  1  0.72883928  0.75714094  0.87857097  1
  O  O14  1  0.27174016  0.74199460  0.12203522  1
  O  O15  1  0.72704584  0.75621731  0.37810815  1
