# generated using pymatgen
data_Li2CrFeO4
_symmetry_space_group_name_H-M   'P 1'
_cell_length_a   5.15944727
_cell_length_b   9.90749179
_cell_length_c   2.97296702
_cell_angle_alpha   98.51906554
_cell_angle_beta   90.03585638
_cell_angle_gamma   84.61759309
_symmetry_Int_Tables_number   1
_chemical_formula_structural   Li2CrFeO4
_chemical_formula_sum   'Li4 Cr2 Fe2 O8'
_cell_volume   149.61669618
_cell_formula_units_Z   2
loop_
 _symmetry_equiv_pos_site_id
 _symmetry_equiv_pos_as_xyz
  1  'x, y, z'
loop_
 _atom_site_type_symbol
 _atom_site_label
 _atom_site_symmetry_multiplicity
 _atom_site_fract_x
 _atom_site_fract_y
 _atom_site_fract_z
 _atom_site_occupancy
  Li  Li0  1  0.00528907  0.99839773  0.00530569  1
  Li  Li1  1  0.24438512  0.50115335  0.25496572  1
  Li  Li2  1  0.50641411  0.00045714  0.50858347  1
  Li  Li3  1  0.74753876  0.50056005  0.74808600  1
  Cr  Cr4  1  0.62595300  0.25056926  0.12582789  1
  Cr  Cr5  1  0.37365449  0.75057440  0.88370595  1
  Fe  Fe6  1  0.12614418  0.25032841  0.62503854  1
  Fe  Fe7  1  0.87350048  0.75023490  0.38654129  1
  O  O8  1  0.31524563  0.13589392  0.07168281  1
  O  O9  1  0.06203355  0.63616413  0.82912273  1
  O  O10  1  0.18736101  0.86316808  0.43951274  1
  O  O11  1  0.55831899  0.63858333  0.32725582  1
  O  O12  1  0.43917652  0.36317639  0.67999927  1
  O  O13  1  0.93628803  0.36497928  0.18341237  1
  O  O14  1  0.68601203  0.86434552  0.94268736  1
  O  O15  1  0.81268105  0.13779511  0.57114235  1
