# generated using pymatgen
data_LiMgCr3Se2(SO6)4
_symmetry_space_group_name_H-M   'P 1'
_cell_length_a   8.43104990
_cell_length_b   8.95166120
_cell_length_c   8.42248754
_cell_angle_alpha   117.49586952
_cell_angle_beta   60.51101319
_cell_angle_gamma   117.42879015
_symmetry_Int_Tables_number   1
_chemical_formula_structural   LiMgCr3Se2(SO6)4
_chemical_formula_sum   'Li1 Mg1 Cr3 Se2 S4 O24'
_cell_volume   467.85516432
_cell_formula_units_Z   1
loop_
 _symmetry_equiv_pos_site_id
 _symmetry_equiv_pos_as_xyz
  1  'x, y, z'
loop_
 _atom_site_type_symbol
 _atom_site_label
 _atom_site_symmetry_multiplicity
 _atom_site_fract_x
 _atom_site_fract_y
 _atom_site_fract_z
 _atom_site_occupancy
  Li  Li0  1  0.76209045  0.37175207  0.42334072  1
  Mg  Mg1  1  0.15354897  0.43754637  0.14291955  1
  Cr  Cr2  1  0.35068786  0.06774130  0.35663620  1
  Cr  Cr3  1  0.65076549  0.93548898  0.64528887  1
  Cr  Cr4  1  0.84760344  0.54525929  0.84553754  1
  Se  Se5  1  0.53805653  0.74560855  0.25336563  1
  Se  Se6  1  0.25363394  0.74748514  0.95423048  1
  S  S7  1  0.03606655  0.25245590  0.47102803  1
  S  S8  1  0.74498068  0.25215425  0.03918651  1
  S  S9  1  0.46504993  0.24550088  0.74316305  1
  S  S10  1  0.95835637  0.74920652  0.54064133  1
  O  O11  1  0.30291338  0.94568626  0.11427271  1
  O  O12  1  0.11102503  0.91304833  0.50498169  1
  O  O13  1  0.00207563  0.29578255  0.34194346  1
  O  O14  1  0.02184302  0.39567429  0.65802747  1
  O  O15  1  0.02533873  0.70550888  0.99068973  1
  O  O16  1  0.32966333  0.59321599  0.29792467  1
  O  O17  1  0.52258522  0.94450343  0.30503802  1
  O  O18  1  0.23028685  0.23639323  0.38554962  1
  O  O19  1  0.68250932  0.70340839  0.02341303  1
  O  O20  1  0.39292442  0.76717405  0.73550435  1
  O  O21  1  0.64883939  0.76917802  0.38587724  1
  O  O22  1  0.29483808  0.59521795  0.97363428  1
  O  O23  1  0.71346056  0.39259840  0.01921637  1
  O  O24  1  0.38559684  0.23041024  0.61112164  1
  O  O25  1  0.61427755  0.24005577  0.23939110  1
  O  O26  1  0.34012680  0.29345713  0.94150451  1
  O  O27  1  0.76828745  0.77797229  0.63212819  1
  O  O28  1  0.49605108  0.07761824  0.69222691  1
  O  O29  1  0.65798648  0.38817167  0.70338667  1
  O  O30  1  0.94107912  0.29705062  0.02442029  1
  O  O31  1  0.96170246  0.59882369  0.36062308  1
  O  O32  1  0.98301984  0.70551633  0.67549171  1
  O  O33  1  0.89381188  0.08251360  0.49850039  1
  O  O34  1  0.69231634  0.08042142  0.89869195  1
