# generated using pymatgen
data_Li2CrFeO4
_symmetry_space_group_name_H-M   'P 1'
_cell_length_a   5.17358834
_cell_length_b   5.95031221
_cell_length_c   5.15322682
_cell_angle_alpha   89.97635118
_cell_angle_beta   80.42123497
_cell_angle_gamma   73.24841121
_symmetry_Int_Tables_number   1
_chemical_formula_structural   Li2CrFeO4
_chemical_formula_sum   'Li4 Cr2 Fe2 O8'
_cell_volume   149.59924537
_cell_formula_units_Z   2
loop_
 _symmetry_equiv_pos_site_id
 _symmetry_equiv_pos_as_xyz
  1  'x, y, z'
loop_
 _atom_site_type_symbol
 _atom_site_label
 _atom_site_symmetry_multiplicity
 _atom_site_fract_x
 _atom_site_fract_y
 _atom_site_fract_z
 _atom_site_occupancy
  Li  Li0  1  0.99997091  0.00002486  0.00001720  1
  Li  Li1  1  0.00117457  0.24874519  0.50084803  1
  Li  Li2  1  0.00001317  0.49992346  0.00004081  1
  Li  Li3  1  0.99884305  0.75119820  0.49909340  1
  Cr  Cr4  1  0.49879012  0.12494489  0.75012471  1
  Cr  Cr5  1  0.50122605  0.87512151  0.24987541  1
  Fe  Fe6  1  0.49941348  0.37502243  0.24997857  1
  Fe  Fe7  1  0.50056119  0.62501258  0.75003413  1
  O  O8  1  0.27409833  0.18027765  0.11975004  1
  O  O9  1  0.72463230  0.06837525  0.38090603  1
  O  O10  1  0.27138322  0.43063133  0.62346469  1
  O  O11  1  0.72697346  0.31601405  0.87697692  1
  O  O12  1  0.27303624  0.68397205  0.12305486  1
  O  O13  1  0.72861359  0.56936078  0.37652771  1
  O  O14  1  0.27539625  0.93164007  0.61907848  1
  O  O15  1  0.72587506  0.81973570  0.88022801  1
