# generated using pymatgen
data_Li9(NiO2)10
_symmetry_space_group_name_H-M   'P 1'
_cell_length_a   7.58847632
_cell_length_b   7.58654536
_cell_length_c   6.42523952
_cell_angle_alpha   91.19018920
_cell_angle_beta   91.22775908
_cell_angle_gamma   67.59699213
_symmetry_Int_Tables_number   1
_chemical_formula_structural   Li9(NiO2)10
_chemical_formula_sum   'Li9 Ni10 O20'
_cell_volume   341.87473095
_cell_formula_units_Z   1
loop_
 _symmetry_equiv_pos_site_id
 _symmetry_equiv_pos_as_xyz
  1  'x, y, z'
loop_
 _atom_site_type_symbol
 _atom_site_label
 _atom_site_symmetry_multiplicity
 _atom_site_fract_x
 _atom_site_fract_y
 _atom_site_fract_z
 _atom_site_occupancy
  Li  Li0  1  0.80910559  0.30995796  0.30738609  1
  Li  Li1  1  0.80588738  0.79020520  0.79478582  1
  Li  Li2  1  0.60894568  0.59600270  0.59866965  1
  Li  Li3  1  0.60022892  0.10401322  0.10470530  1
  Li  Li4  1  0.39977108  0.89598678  0.89529470  1
  Li  Li5  1  0.39105432  0.40399730  0.40133035  1
  Li  Li6  1  0.19089441  0.69004204  0.69261391  1
  Li  Li7  1  0.19411262  0.20979480  0.20521418  1
  Li  Li8  1  0.00000000  0.00000000  0.00000000  1
  Ni  Ni9  1  0.89963934  0.89994352  0.40163206  1
  Ni  Ni10  1  0.89879489  0.40074247  0.89767973  1
  Ni  Ni11  1  0.70098542  0.69952280  0.20024459  1
  Ni  Ni12  1  0.50000000  0.50000000  0.00000000  1
  Ni  Ni13  1  0.69980453  0.19743158  0.70201775  1
  Ni  Ni14  1  0.30019547  0.80256842  0.29798225  1
  Ni  Ni15  1  0.50000000  0.00000000  0.50000000  1
  Ni  Ni16  1  0.10120511  0.59925753  0.10232027  1
  Ni  Ni17  1  0.29901458  0.30047720  0.79975541  1
  Ni  Ni18  1  0.10036066  0.10005648  0.59836794  1
  O  O19  1  0.95510047  0.95175692  0.67929050  1
  O  O20  1  0.84235048  0.84682147  0.12356171  1
  O  O21  1  0.95211298  0.45564828  0.17426722  1
  O  O22  1  0.72788415  0.77969320  0.48620829  1
  O  O23  1  0.84265136  0.33926506  0.62093034  1
  O  O24  1  0.64428391  0.64481548  0.91618422  1
  O  O25  1  0.64058800  0.14608449  0.42118084  1
  O  O26  1  0.44563940  0.94881989  0.22155807  1
  O  O27  1  0.75574122  0.25184117  0.98149719  1
  O  O28  1  0.55827905  0.55507588  0.27897865  1
  O  O29  1  0.44172095  0.44492412  0.72102135  1
  O  O30  1  0.35571609  0.35518452  0.08381578  1
  O  O31  1  0.35941200  0.85391551  0.57881916  1
  O  O32  1  0.55436060  0.05118011  0.77844193  1
  O  O33  1  0.24425878  0.74815883  0.01850281  1
  O  O34  1  0.15734864  0.66073494  0.37906966  1
  O  O35  1  0.27211585  0.22030680  0.51379171  1
  O  O36  1  0.15764952  0.15317853  0.87643829  1
  O  O37  1  0.04489953  0.04824308  0.32070950  1
  O  O38  1  0.04788702  0.54435172  0.82573278  1
