# generated using pymatgen
data_SnH10Cl4O5
_symmetry_space_group_name_H-M   'P 1'
_cell_length_a   8.03028795
_cell_length_b   8.03028795
_cell_length_c   8.77589543
_cell_angle_alpha   79.65526075
_cell_angle_beta   100.34473925
_cell_angle_gamma   102.11061055
_symmetry_Int_Tables_number   1
_chemical_formula_structural   SnH10Cl4O5
_chemical_formula_sum   'Sn2 H20 Cl8 O10'
_cell_volume   538.37333683
_cell_formula_units_Z   2
loop_
 _symmetry_equiv_pos_site_id
 _symmetry_equiv_pos_as_xyz
  1  'x, y, z'
loop_
 _atom_site_type_symbol
 _atom_site_label
 _atom_site_symmetry_multiplicity
 _atom_site_fract_x
 _atom_site_fract_y
 _atom_site_fract_z
 _atom_site_occupancy
  Sn  Sn0  1  0.74535049  0.74535049  0.75000000  1
  Sn  Sn1  1  0.25464951  0.25464951  0.25000000  1
  H  H2  1  0.14572902  0.58268867  0.76058065  1
  H  H3  1  0.41731133  0.85427098  0.26058065  1
  H  H4  1  0.21767815  0.41113631  0.77864148  1
  H  H5  1  0.39671359  0.62656822  0.67038172  1
  H  H6  1  0.47422793  0.69883519  0.49802110  1
  H  H7  1  0.58886369  0.78232185  0.27864148  1
  H  H8  1  0.37343178  0.60328641  0.17038172  1
  H  H9  1  0.10826953  0.15770950  0.65985590  1
  H  H10  1  0.15770950  0.10826953  0.84014410  1
  H  H11  1  0.30116481  0.52577207  0.99802110  1
  H  H12  1  0.69883519  0.47422793  0.00197890  1
  H  H13  1  0.84229050  0.89173047  0.15985590  1
  H  H14  1  0.89173047  0.84229050  0.34014410  1
  H  H15  1  0.62656822  0.39671359  0.82961828  1
  H  H16  1  0.41113631  0.21767815  0.72135852  1
  H  H17  1  0.52577207  0.30116481  0.50197890  1
  H  H18  1  0.60328641  0.37343178  0.32961828  1
  H  H19  1  0.78232185  0.58886369  0.22135852  1
  H  H20  1  0.58268867  0.14572902  0.73941935  1
  H  H21  1  0.85427098  0.41731133  0.23941935  1
  Cl  Cl22  1  0.01285032  0.78879953  0.92939859  1
  Cl  Cl23  1  0.21120047  0.98714968  0.42939859  1
  Cl  Cl24  1  0.58870128  0.86648928  0.90188492  1
  Cl  Cl25  1  0.13351072  0.41129872  0.40188492  1
  Cl  Cl26  1  0.86648928  0.58870128  0.59811508  1
  Cl  Cl27  1  0.41129872  0.13351072  0.09811508  1
  Cl  Cl28  1  0.78879953  0.01285032  0.57060141  1
  Cl  Cl29  1  0.98714968  0.21120047  0.07060141  1
  O  O30  1  0.25096513  0.53413699  0.79657603  1
  O  O31  1  0.46586301  0.74903487  0.29657603  1
  O  O32  1  0.49993300  0.65933361  0.61361532  1
  O  O33  1  0.19187856  0.19187856  0.75000000  1
  O  O34  1  0.34066639  0.50006700  0.11361532  1
  O  O35  1  0.65933361  0.49993300  0.88638468  1
  O  O36  1  0.80812144  0.80812144  0.25000000  1
  O  O37  1  0.50006700  0.34066639  0.38638468  1
  O  O38  1  0.53413699  0.25096513  0.70342397  1
  O  O39  1  0.74903487  0.46586301  0.20342397  1
