# generated using pymatgen
data_Li2VCrP2(O4F)2
_symmetry_space_group_name_H-M   'P 1'
_cell_length_a   5.22741344
_cell_length_b   5.37250041
_cell_length_c   7.40597860
_cell_angle_alpha   109.72509720
_cell_angle_beta   106.72323412
_cell_angle_gamma   98.17456939
_symmetry_Int_Tables_number   1
_chemical_formula_structural   Li2VCrP2(O4F)2
_chemical_formula_sum   'Li2 V1 Cr1 P2 O8 F2'
_cell_volume   180.77963922
_cell_formula_units_Z   1
loop_
 _symmetry_equiv_pos_site_id
 _symmetry_equiv_pos_as_xyz
  1  'x, y, z'
loop_
 _atom_site_type_symbol
 _atom_site_label
 _atom_site_symmetry_multiplicity
 _atom_site_fract_x
 _atom_site_fract_y
 _atom_site_fract_z
 _atom_site_occupancy
  Li  Li0  1  0.08193689  0.42751688  0.81092530  1
  Li  Li1  1  0.91806311  0.57248312  0.18907470  1
  V  V2  1  0.00000000  0.00000000  0.00000000  1
  Cr  Cr3  1  0.50000000  0.50000000  0.50000000  1
  P  P4  1  0.43936402  0.12023508  0.76014007  1
  P  P5  1  0.56063598  0.87976492  0.23985993  1
  O  O6  1  0.28217285  0.16120400  0.91327411  1
  O  O7  1  0.35685077  0.82144492  0.60815051  1
  O  O8  1  0.34846442  0.31662779  0.65665271  1
  O  O9  1  0.24028469  0.77662598  0.11172070  1
  O  O10  1  0.75971531  0.22337402  0.88827930  1
  O  O11  1  0.65153558  0.68337221  0.34334729  1
  O  O12  1  0.64314923  0.17855508  0.39184949  1
  O  O13  1  0.71782715  0.83879600  0.08672589  1
  F  F14  1  0.13941661  0.33809887  0.26715861  1
  F  F15  1  0.86058339  0.66190113  0.73284139  1
