# generated using pymatgen
data_Y13Tm3O24
_symmetry_space_group_name_H-M   'P 1'
_cell_length_a   9.24103457
_cell_length_b   9.24915311
_cell_length_c   9.23581248
_cell_angle_alpha   109.48098407
_cell_angle_beta   109.42393201
_cell_angle_gamma   109.49443391
_symmetry_Int_Tables_number   1
_chemical_formula_structural   Y13Tm3O24
_chemical_formula_sum   'Y13 Tm3 O24'
_cell_volume   607.78828566
_cell_formula_units_Z   1
loop_
 _symmetry_equiv_pos_site_id
 _symmetry_equiv_pos_as_xyz
  1  'x, y, z'
loop_
 _atom_site_type_symbol
 _atom_site_label
 _atom_site_symmetry_multiplicity
 _atom_site_fract_x
 _atom_site_fract_y
 _atom_site_fract_z
 _atom_site_occupancy
  Y  Y0  1  0.96810672  0.24967861  0.21768842  1
  Y  Y1  1  0.49969984  0.99998020  0.00099543  1
  Y  Y2  1  0.78389969  0.03262987  0.74924885  1
  Y  Y3  1  0.71677547  0.46752271  0.25126758  1
  Y  Y4  1  0.74861946  0.28280440  0.53277184  1
  Y  Y5  1  0.75091197  0.78362639  0.03388211  1
  Y  Y6  1  0.00042447  0.50096050  0.00050452  1
  Y  Y7  1  0.53435765  0.75046768  0.28467746  1
  Y  Y8  1  0.46448384  0.24910764  0.71409953  1
  Y  Y9  1  0.25036881  0.71723730  0.46654796  1
  Y  Y10  1  0.24982245  0.21602937  0.96681539  1
  Y  Y11  1  0.28327707  0.53252554  0.74877666  1
  Y  Y12  1  0.03260986  0.75034044  0.78348866  1
  Tm  Tm13  1  0.49884923  0.49859107  0.49892568  1
  Tm  Tm14  1  0.00053858  0.99989752  0.49944442  1
  Tm  Tm15  1  0.21546386  0.96672179  0.25067857  1
  O  O16  1  0.73905962  0.22873260  0.27143329  1
  O  O17  1  0.76509128  0.03299277  0.48976286  1
  O  O18  1  0.96812985  0.51016141  0.23920173  1
  O  O19  1  0.27077784  0.01008303  0.04558145  1
  O  O20  1  0.46300197  0.22805648  0.45338218  1
  O  O21  1  0.77499948  0.73184322  0.26515842  1
  O  O22  1  0.45684373  0.46732140  0.23161917  1
  O  O23  1  0.04277425  0.27181710  0.01009808  1
  O  O24  1  0.76713638  0.54245172  0.53350344  1
  O  O25  1  0.72806114  0.26079598  0.77096105  1
  O  O26  1  0.01269248  0.04244470  0.27446100  1
  O  O27  1  0.48958720  0.76027939  0.03212664  1
  O  O28  1  0.50985391  0.23880549  0.96746881  1
  O  O29  1  0.99074898  0.95700448  0.72480815  1
  O  O30  1  0.27212214  0.74346398  0.22978668  1
  O  O31  1  0.23230121  0.45735619  0.46693189  1
  O  O32  1  0.54352011  0.53256305  0.76793331  1
  O  O33  1  0.96033796  0.73122593  0.99335981  1
  O  O34  1  0.53319578  0.76798702  0.54312729  1
  O  O35  1  0.22497743  0.26810926  0.73484603  1
  O  O36  1  0.03181456  0.48977753  0.76078469  1
  O  O37  1  0.72891349  0.98980452  0.95800771  1
  O  O38  1  0.23458368  0.96672102  0.50685832  1
  O  O39  1  0.26126656  0.77208271  0.72898488  1
