# generated using pymatgen
data_Ho2(SO4)3
_symmetry_space_group_name_H-M   'P 1'
_cell_length_a   12.89413276
_cell_length_b   9.26933327
_cell_length_c   9.36124184
_cell_angle_alpha   90.00000000
_cell_angle_beta   90.00000000
_cell_angle_gamma   90.00000000
_symmetry_Int_Tables_number   1
_chemical_formula_structural   Ho2(SO4)3
_chemical_formula_sum   'Ho8 S12 O48'
_cell_volume   1118.85575372
_cell_formula_units_Z   4
loop_
 _symmetry_equiv_pos_site_id
 _symmetry_equiv_pos_as_xyz
  1  'x, y, z'
loop_
 _atom_site_type_symbol
 _atom_site_label
 _atom_site_symmetry_multiplicity
 _atom_site_fract_x
 _atom_site_fract_y
 _atom_site_fract_z
 _atom_site_occupancy
  Ho  Ho0  1  0.11734272  0.24941039  0.96281115  1
  Ho  Ho1  1  0.11734272  0.75058961  0.46281115  1
  Ho  Ho2  1  0.38265728  0.25058961  0.46281115  1
  Ho  Ho3  1  0.38265728  0.74941039  0.96281115  1
  Ho  Ho4  1  0.61734272  0.25058961  0.03718885  1
  Ho  Ho5  1  0.61734272  0.74941039  0.53718885  1
  Ho  Ho6  1  0.88265728  0.24941039  0.53718885  1
  Ho  Ho7  1  0.88265728  0.75058961  0.03718885  1
  S  S8  1  0.00000000  0.03538965  0.25000000  1
  S  S9  1  0.00000000  0.96461035  0.75000000  1
  S  S10  1  0.14621062  0.39359753  0.61115507  1
  S  S11  1  0.14621062  0.60640247  0.11115507  1
  S  S12  1  0.35378938  0.10640247  0.11115507  1
  S  S13  1  0.35378938  0.89359753  0.61115507  1
  S  S14  1  0.50000000  0.46461035  0.75000000  1
  S  S15  1  0.50000000  0.53538965  0.25000000  1
  S  S16  1  0.64621062  0.10640247  0.38884493  1
  S  S17  1  0.64621062  0.89359753  0.88884493  1
  S  S18  1  0.85378938  0.39359753  0.88884493  1
  S  S19  1  0.85378938  0.60640247  0.38884493  1
  O  O20  1  0.04178602  0.66330013  0.07625975  1
  O  O21  1  0.04178602  0.33669987  0.57625975  1
  O  O22  1  0.05955053  0.87191502  0.65092623  1
  O  O23  1  0.05955053  0.12808498  0.15092623  1
  O  O24  1  0.07370939  0.05624625  0.83099384  1
  O  O25  1  0.07370939  0.94375375  0.33099384  1
  O  O26  1  0.14758844  0.44757797  0.09359548  1
  O  O27  1  0.14758844  0.55242203  0.59359548  1
  O  O28  1  0.17281617  0.35781657  0.76122724  1
  O  O29  1  0.17281617  0.64218343  0.26122724  1
  O  O30  1  0.22294648  0.32760722  0.51292129  1
  O  O31  1  0.22294648  0.67239278  0.01292129  1
  O  O32  1  0.27705352  0.17239278  0.01292129  1
  O  O33  1  0.27705352  0.82760722  0.51292129  1
  O  O34  1  0.32718383  0.85781657  0.76122724  1
  O  O35  1  0.32718383  0.14218343  0.26122724  1
  O  O36  1  0.35241156  0.05242203  0.59359548  1
  O  O37  1  0.35241156  0.94757797  0.09359548  1
  O  O38  1  0.42629061  0.44375375  0.33099384  1
  O  O39  1  0.42629061  0.55624625  0.83099384  1
  O  O40  1  0.44044947  0.37191502  0.65092623  1
  O  O41  1  0.44044947  0.62808498  0.15092623  1
  O  O42  1  0.45821398  0.16330013  0.07625975  1
  O  O43  1  0.45821398  0.83669987  0.57625975  1
  O  O44  1  0.54178602  0.16330013  0.42374025  1
  O  O45  1  0.54178602  0.83669987  0.92374025  1
  O  O46  1  0.55955053  0.62808498  0.34907377  1
  O  O47  1  0.55955053  0.37191502  0.84907377  1
  O  O48  1  0.57370939  0.44375375  0.16900616  1
  O  O49  1  0.57370939  0.55624625  0.66900616  1
  O  O50  1  0.64758844  0.05242203  0.90640452  1
  O  O51  1  0.64758844  0.94757797  0.40640452  1
  O  O52  1  0.67281617  0.14218343  0.23877276  1
  O  O53  1  0.67281617  0.85781657  0.73877276  1
  O  O54  1  0.72294648  0.17239278  0.48707871  1
  O  O55  1  0.72294648  0.82760722  0.98707871  1
  O  O56  1  0.77705352  0.32760722  0.98707871  1
  O  O57  1  0.77705352  0.67239278  0.48707871  1
  O  O58  1  0.82718383  0.35781657  0.73877276  1
  O  O59  1  0.82718383  0.64218343  0.23877276  1
  O  O60  1  0.85241156  0.44757797  0.40640452  1
  O  O61  1  0.85241156  0.55242203  0.90640452  1
  O  O62  1  0.92629061  0.05624625  0.66900616  1
  O  O63  1  0.92629061  0.94375375  0.16900616  1
  O  O64  1  0.94044947  0.12808498  0.34907377  1
  O  O65  1  0.94044947  0.87191502  0.84907377  1
  O  O66  1  0.95821398  0.33669987  0.92374025  1
  O  O67  1  0.95821398  0.66330013  0.42374025  1
