# generated using pymatgen
data_Rb17Fe5O16
_symmetry_space_group_name_H-M   'P 1'
_cell_length_a   7.11410629
_cell_length_b   19.16534889
_cell_length_c   7.12597981
_cell_angle_alpha   95.25117796
_cell_angle_beta   60.45416554
_cell_angle_gamma   100.69600737
_symmetry_Int_Tables_number   1
_chemical_formula_structural   Rb17Fe5O16
_chemical_formula_sum   'Rb17 Fe5 O16'
_cell_volume   830.55774383
_cell_formula_units_Z   1
loop_
 _symmetry_equiv_pos_site_id
 _symmetry_equiv_pos_as_xyz
  1  'x, y, z'
loop_
 _atom_site_type_symbol
 _atom_site_label
 _atom_site_symmetry_multiplicity
 _atom_site_fract_x
 _atom_site_fract_y
 _atom_site_fract_z
 _atom_site_occupancy
  Rb  Rb0  1  0.40372577  0.72257536  0.05372974  1
  Rb  Rb1  1  0.49057690  0.90745803  0.07321046  1
  Rb  Rb2  1  0.31631617  0.53310920  0.07108007  1
  Rb  Rb3  1  0.08237451  0.17059578  0.19284972  1
  Rb  Rb4  1  0.16874336  0.33750423  0.46832501  1
  Rb  Rb5  1  0.31815667  0.72657993  0.59643937  1
  Rb  Rb6  1  0.22287091  0.54871535  0.61508832  1
  Rb  Rb7  1  0.41055407  0.90866419  0.61364781  1
  Rb  Rb8  1  0.68115041  0.27742464  0.05372974  1
  Rb  Rb9  1  0.58311887  0.09254197  0.07321046  1
  Rb  Rb10  1  0.78320697  0.46689080  0.07108007  1
  Rb  Rb11  1  0.91177873  0.82940422  0.19284972  1
  Rb  Rb12  1  0.83123913  0.66249577  0.46832501  1
  Rb  Rb13  1  0.59157774  0.27342007  0.59643937  1
  Rb  Rb14  1  0.67415556  0.45128465  0.61508832  1
  Rb  Rb15  1  0.50189088  0.09133581  0.61364781  1
  Rb  Rb16  1  0.99742651  0.00000000  0.48530085  1
  Fe  Fe17  1  0.99623081  0.00000000  0.98902823  1
  Fe  Fe18  1  0.08604341  0.17850253  0.68995638  1
  Fe  Fe19  1  0.17737296  0.35676985  0.98280633  1
  Fe  Fe20  1  0.90754088  0.82149747  0.68995638  1
  Fe  Fe21  1  0.82060311  0.64323015  0.98280633  1
  O  O22  1  0.07260219  0.62983472  0.00050938  1
  O  O23  1  0.16024866  0.81610428  0.41671414  1
  O  O24  1  0.44276746  0.37016528  0.00050938  1
  O  O25  1  0.25340998  0.00000000  0.00692014  1
  O  O26  1  0.55733350  0.63124745  0.25559020  1
  O  O27  1  0.21357522  0.42597196  0.78410256  1
  O  O28  1  0.04000061  0.08669436  0.83049510  1
  O  O29  1  0.12900640  0.25850076  0.86661453  1
  O  O30  1  0.34414438  0.18389572  0.41671414  1
  O  O31  1  0.64842495  0.81568948  0.67078235  1
  O  O32  1  0.92608605  0.36875255  0.25559020  1
  O  O33  1  0.73959666  0.00000000  0.26136782  1
  O  O34  1  0.78760326  0.57402804  0.78410256  1
  O  O35  1  0.95330624  0.91330564  0.83049510  1
  O  O36  1  0.87050563  0.74149924  0.86661453  1
  O  O37  1  0.83273447  0.18431052  0.67078235  1
