# generated using pymatgen
data_Li4Fe3Ni(PO4)4
_symmetry_space_group_name_H-M   'P 1'
_cell_length_a   4.74194444
_cell_length_b   10.37245274
_cell_length_c   6.06379954
_cell_angle_alpha   90.00000000
_cell_angle_beta   90.00000000
_cell_angle_gamma   90.31824110
_symmetry_Int_Tables_number   1
_chemical_formula_structural   Li4Fe3Ni(PO4)4
_chemical_formula_sum   'Li4 Fe3 Ni1 P4 O16'
_cell_volume   298.24698544
_cell_formula_units_Z   1
loop_
 _symmetry_equiv_pos_site_id
 _symmetry_equiv_pos_as_xyz
  1  'x, y, z'
loop_
 _atom_site_type_symbol
 _atom_site_label
 _atom_site_symmetry_multiplicity
 _atom_site_fract_x
 _atom_site_fract_y
 _atom_site_fract_z
 _atom_site_occupancy
  Li  Li0  1  0.99931310  0.99751656  0.00056947  1
  Li  Li1  1  0.99931310  0.99751656  0.49943053  1
  Li  Li2  1  0.49989675  0.50291192  0.50141525  1
  Li  Li3  1  0.49989675  0.50291192  0.99858475  1
  Fe  Fe4  1  0.47569322  0.21945628  0.75000000  1
  Fe  Fe5  1  0.52360943  0.77982474  0.25000000  1
  Fe  Fe6  1  0.97385902  0.28169949  0.25000000  1
  Ni  Ni7  1  0.01718945  0.72166007  0.75000000  1
  P  P8  1  0.08322701  0.59526619  0.25000000  1
  P  P9  1  0.41615614  0.09433344  0.25000000  1
  P  P10  1  0.58129577  0.90299682  0.75000000  1
  P  P11  1  0.92040317  0.40815626  0.75000000  1
  O  O12  1  0.20662457  0.45660779  0.25000000  1
  O  O13  1  0.21746287  0.66504470  0.04397573  1
  O  O14  1  0.21746287  0.66504470  0.45602427  1
  O  O15  1  0.24404401  0.40424547  0.75000000  1
  O  O16  1  0.25664569  0.89824588  0.75000000  1
  O  O17  1  0.28289865  0.16470028  0.04609840  1
  O  O18  1  0.28289865  0.16470028  0.45390160  1
  O  O19  1  0.29260428  0.95518867  0.25000000  1
  O  O20  1  0.70280210  0.04232878  0.75000000  1
  O  O21  1  0.71937297  0.83250056  0.54768097  1
  O  O22  1  0.71937297  0.83250056  0.95231903  1
  O  O23  1  0.74026107  0.09693286  0.25000000  1
  O  O24  1  0.75875244  0.59686827  0.25000000  1
  O  O25  1  0.78398789  0.33668397  0.54704001  1
  O  O26  1  0.78398789  0.33668397  0.95295999  1
  O  O27  1  0.80096816  0.54747200  0.75000000  1
