# generated using pymatgen
data_Dy2WO6
_symmetry_space_group_name_H-M   'P 1'
_cell_length_a   5.59483993
_cell_length_b   10.66344779
_cell_length_c   16.09988396
_cell_angle_alpha   90.00000000
_cell_angle_beta   90.00000000
_cell_angle_gamma   90.00000000
_symmetry_Int_Tables_number   1
_chemical_formula_structural   Dy2WO6
_chemical_formula_sum   'Dy16 W8 O48'
_cell_volume   960.52364116
_cell_formula_units_Z   8
loop_
 _symmetry_equiv_pos_site_id
 _symmetry_equiv_pos_as_xyz
  1  'x, y, z'
loop_
 _atom_site_type_symbol
 _atom_site_label
 _atom_site_symmetry_multiplicity
 _atom_site_fract_x
 _atom_site_fract_y
 _atom_site_fract_z
 _atom_site_occupancy
  Dy  Dy0  1  0.40134976  0.64165314  0.56248728  1
  Dy  Dy1  1  0.90134976  0.35834686  0.93751272  1
  Dy  Dy2  1  0.59865024  0.85834686  0.06248728  1
  Dy  Dy3  1  0.09865024  0.14165314  0.43751272  1
  Dy  Dy4  1  0.59865024  0.35834686  0.43751272  1
  Dy  Dy5  1  0.09865024  0.64165314  0.06248728  1
  Dy  Dy6  1  0.40134976  0.14165314  0.93751272  1
  Dy  Dy7  1  0.90134976  0.85834686  0.56248728  1
  Dy  Dy8  1  0.45439476  0.85599325  0.72941983  1
  Dy  Dy9  1  0.95439476  0.14400675  0.77058017  1
  Dy  Dy10  1  0.54560524  0.64400675  0.22941983  1
  Dy  Dy11  1  0.04560524  0.35599325  0.27058017  1
  Dy  Dy12  1  0.54560524  0.14400675  0.27058017  1
  Dy  Dy13  1  0.04560524  0.85599325  0.22941983  1
  Dy  Dy14  1  0.45439476  0.35599325  0.77058017  1
  Dy  Dy15  1  0.95439476  0.64400675  0.72941983  1
  W  W16  1  0.38942964  0.62166905  0.87968649  1
  W  W17  1  0.88942964  0.37833095  0.62031351  1
  W  W18  1  0.61057036  0.87833095  0.37968649  1
  W  W19  1  0.11057036  0.12166905  0.12031351  1
  W  W20  1  0.61057036  0.37833095  0.12031351  1
  W  W21  1  0.11057036  0.62166905  0.37968649  1
  W  W22  1  0.38942964  0.12166905  0.62031351  1
  W  W23  1  0.88942964  0.87833095  0.87968649  1
  O  O24  1  0.09322509  0.51270969  0.60697085  1
  O  O25  1  0.59322509  0.48729031  0.89302915  1
  O  O26  1  0.90677491  0.98729031  0.10697085  1
  O  O27  1  0.40677491  0.01270969  0.39302915  1
  O  O28  1  0.90677491  0.48729031  0.39302915  1
  O  O29  1  0.40677491  0.51270969  0.10697085  1
  O  O30  1  0.09322509  0.01270969  0.89302915  1
  O  O31  1  0.59322509  0.98729031  0.60697085  1
  O  O32  1  0.42257128  0.71234858  0.97939325  1
  O  O33  1  0.92257128  0.28765142  0.52060675  1
  O  O34  1  0.57742872  0.78765142  0.47939325  1
  O  O35  1  0.07742872  0.21234858  0.02060675  1
  O  O36  1  0.57742872  0.28765142  0.02060675  1
  O  O37  1  0.07742872  0.71234858  0.47939325  1
  O  O38  1  0.42257128  0.21234858  0.52060675  1
  O  O39  1  0.92257128  0.78765142  0.97939325  1
  O  O40  1  0.11664447  0.54338670  0.92603604  1
  O  O41  1  0.61664447  0.45661330  0.57396396  1
  O  O42  1  0.88335553  0.95661330  0.42603604  1
  O  O43  1  0.38335553  0.04338670  0.07396396  1
  O  O44  1  0.88335553  0.45661330  0.07396396  1
  O  O45  1  0.38335553  0.54338670  0.42603604  1
  O  O46  1  0.11664447  0.04338670  0.57396396  1
  O  O47  1  0.61664447  0.95661330  0.92603604  1
  O  O48  1  0.32452124  0.55935286  0.76707478  1
  O  O49  1  0.82452124  0.44064714  0.73292522  1
  O  O50  1  0.67547876  0.94064714  0.26707478  1
  O  O51  1  0.17547876  0.05935286  0.23292522  1
  O  O52  1  0.67547876  0.44064714  0.23292522  1
  O  O53  1  0.17547876  0.55935286  0.26707478  1
  O  O54  1  0.32452124  0.05935286  0.73292522  1
  O  O55  1  0.82452124  0.94064714  0.76707478  1
  O  O56  1  0.16377963  0.76845014  0.82894252  1
  O  O57  1  0.66377963  0.23154986  0.67105748  1
  O  O58  1  0.83622037  0.73154986  0.32894252  1
  O  O59  1  0.33622037  0.26845014  0.17105748  1
  O  O60  1  0.83622037  0.23154986  0.17105748  1
  O  O61  1  0.33622037  0.76845014  0.32894252  1
  O  O62  1  0.16377963  0.26845014  0.67105748  1
  O  O63  1  0.66377963  0.73154986  0.82894252  1
  O  O64  1  0.17998366  0.77004701  0.64653199  1
  O  O65  1  0.67998366  0.22995299  0.85346801  1
  O  O66  1  0.82001634  0.72995299  0.14653199  1
  O  O67  1  0.32001634  0.27004701  0.35346801  1
  O  O68  1  0.82001634  0.22995299  0.35346801  1
  O  O69  1  0.32001634  0.77004701  0.14653199  1
  O  O70  1  0.17998366  0.27004701  0.85346801  1
  O  O71  1  0.67998366  0.72995299  0.64653199  1
