# generated using pymatgen
data_LiCrO2
_symmetry_space_group_name_H-M   'P 1'
_cell_length_a   5.92107943
_cell_length_b   5.92108020
_cell_length_c   5.92121195
_cell_angle_alpha   59.99925934
_cell_angle_beta   59.99925887
_cell_angle_gamma   60.00147617
_symmetry_Int_Tables_number   1
_chemical_formula_structural   LiCrO2
_chemical_formula_sum   'Li4 Cr4 O8'
_cell_volume   146.79032130
_cell_formula_units_Z   4
loop_
 _symmetry_equiv_pos_site_id
 _symmetry_equiv_pos_as_xyz
  1  'x, y, z'
loop_
 _atom_site_type_symbol
 _atom_site_label
 _atom_site_symmetry_multiplicity
 _atom_site_fract_x
 _atom_site_fract_y
 _atom_site_fract_z
 _atom_site_occupancy
  Li  Li0  1  0.00000000  0.50000000  0.50000000  1
  Li  Li1  1  0.50000000  0.00000000  0.50000000  1
  Li  Li2  1  0.50000000  0.50000000  0.00000000  1
  Li  Li3  1  0.50000000  0.50000000  0.50000000  1
  Cr  Cr4  1  0.00000000  0.00000000  0.00000000  1
  Cr  Cr5  1  0.00000000  0.00000000  0.50000000  1
  Cr  Cr6  1  0.00000000  0.50000000  0.00000000  1
  Cr  Cr7  1  0.50000000  0.00000000  0.00000000  1
  O  O8  1  0.24202321  0.24202321  0.24200369  1
  O  O9  1  0.24200369  0.77395090  0.24202321  1
  O  O10  1  0.24202321  0.24202321  0.77395090  1
  O  O11  1  0.22604910  0.75799631  0.75797679  1
  O  O12  1  0.77395090  0.24200369  0.24202321  1
  O  O13  1  0.75797679  0.75797679  0.22604910  1
  O  O14  1  0.75799631  0.22604910  0.75797679  1
  O  O15  1  0.75797679  0.75797679  0.75799631  1
