# generated using pymatgen
data_Li6Hf2O7
_symmetry_space_group_name_H-M   'P 1'
_cell_length_a   10.35216736
_cell_length_b   6.04786748
_cell_length_c   5.35198619
_cell_angle_alpha   90.00000000
_cell_angle_beta   110.29703967
_cell_angle_gamma   90.00000000
_symmetry_Int_Tables_number   1
_chemical_formula_structural   Li6Hf2O7
_chemical_formula_sum   'Li12 Hf4 O14'
_cell_volume   314.27385078
_cell_formula_units_Z   2
loop_
 _symmetry_equiv_pos_site_id
 _symmetry_equiv_pos_as_xyz
  1  'x, y, z'
loop_
 _atom_site_type_symbol
 _atom_site_label
 _atom_site_symmetry_multiplicity
 _atom_site_fract_x
 _atom_site_fract_y
 _atom_site_fract_z
 _atom_site_occupancy
  Li  Li0  1  0.14313258  0.78506054  0.78916991  1
  Li  Li1  1  0.13740670  0.23640489  0.78403711  1
  Li  Li2  1  0.12421044  0.49730430  0.16022942  1
  Li  Li3  1  0.37578956  0.99730430  0.83977058  1
  Li  Li4  1  0.36259330  0.73640489  0.21596289  1
  Li  Li5  1  0.35686742  0.28506054  0.21083009  1
  Li  Li6  1  0.64313258  0.71493946  0.78916991  1
  Li  Li7  1  0.63740670  0.26359511  0.78403711  1
  Li  Li8  1  0.62421044  0.00269570  0.16022942  1
  Li  Li9  1  0.87578956  0.50269570  0.83977058  1
  Li  Li10  1  0.86259330  0.76359511  0.21596289  1
  Li  Li11  1  0.85686742  0.21493946  0.21083009  1
  Hf  Hf12  1  0.13383405  0.00873338  0.27007935  1
  Hf  Hf13  1  0.36616595  0.50873338  0.72992065  1
  Hf  Hf14  1  0.63383405  0.49126662  0.27007935  1
  Hf  Hf15  1  0.86616595  0.99126662  0.72992065  1
  O  O16  1  0.00000000  0.00000000  0.50000000  1
  O  O17  1  0.00414743  0.76796617  0.01125893  1
  O  O18  1  0.24459773  0.51056196  0.95468942  1
  O  O19  1  0.23636297  0.28197355  0.47881120  1
  O  O20  1  0.26363703  0.78197355  0.52118880  1
  O  O21  1  0.25540227  0.01056196  0.04531058  1
  O  O22  1  0.49585257  0.26796617  0.98874107  1
  O  O23  1  0.50000000  0.50000000  0.50000000  1
  O  O24  1  0.50414743  0.73203383  0.01125893  1
  O  O25  1  0.74459773  0.98943804  0.95468942  1
  O  O26  1  0.73636297  0.21802645  0.47881120  1
  O  O27  1  0.76363703  0.71802645  0.52118880  1
  O  O28  1  0.75540227  0.48943804  0.04531058  1
  O  O29  1  0.99585257  0.23203383  0.98874107  1
