# generated using pymatgen
data_Na3MnSiCO7
_symmetry_space_group_name_H-M   'P 1'
_cell_length_a   9.15891175
_cell_length_b   6.49056337
_cell_length_c   5.31201909
_cell_angle_alpha   90.00000000
_cell_angle_beta   88.43678299
_cell_angle_gamma   90.00000000
_symmetry_Int_Tables_number   1
_chemical_formula_structural   Na3MnSiCO7
_chemical_formula_sum   'Na6 Mn2 Si2 C2 O14'
_cell_volume   315.66340496
_cell_formula_units_Z   2
loop_
 _symmetry_equiv_pos_site_id
 _symmetry_equiv_pos_as_xyz
  1  'x, y, z'
loop_
 _atom_site_type_symbol
 _atom_site_label
 _atom_site_symmetry_multiplicity
 _atom_site_fract_x
 _atom_site_fract_y
 _atom_site_fract_z
 _atom_site_occupancy
  Na  Na0  1  0.08794629  0.25000000  0.77465665  1
  Na  Na1  1  0.26718368  0.00786275  0.25613899  1
  Na  Na2  1  0.26718368  0.49213725  0.25613899  1
  Na  Na3  1  0.73281632  0.50786275  0.74386101  1
  Na  Na4  1  0.73281632  0.99213725  0.74386101  1
  Na  Na5  1  0.91205371  0.75000000  0.22534335  1
  Mn  Mn6  1  0.35191197  0.75000000  0.78125861  1
  Mn  Mn7  1  0.64808803  0.25000000  0.21874139  1
  Si  Si8  1  0.42776247  0.25000000  0.69756439  1
  Si  Si9  1  0.57223753  0.75000000  0.30243561  1
  C  C10  1  0.05726193  0.75000000  0.71562095  1
  C  C11  1  0.94273807  0.25000000  0.28437905  1
  O  O12  1  0.08323423  0.25000000  0.25185037  1
  O  O13  1  0.13772254  0.75000000  0.91693634  1
  O  O14  1  0.11933136  0.75000000  0.49532340  1
  O  O15  1  0.31985910  0.05027547  0.76088509  1
  O  O16  1  0.31985910  0.44972453  0.76088509  1
  O  O17  1  0.45992638  0.25000000  0.38746513  1
  O  O18  1  0.42120804  0.75000000  0.15295230  1
  O  O19  1  0.57879196  0.25000000  0.84704770  1
  O  O20  1  0.54007362  0.75000000  0.61253487  1
  O  O21  1  0.68014090  0.55027547  0.23911491  1
  O  O22  1  0.68014090  0.94972453  0.23911491  1
  O  O23  1  0.88066864  0.25000000  0.50467660  1
  O  O24  1  0.86227746  0.25000000  0.08306366  1
  O  O25  1  0.91676577  0.75000000  0.74814963  1
