# generated using pymatgen
data_Ho2(SeO4)3
_symmetry_space_group_name_H-M   'P 1'
_cell_length_a   13.42768212
_cell_length_b   9.65628705
_cell_length_c   9.74681607
_cell_angle_alpha   90.00000000
_cell_angle_beta   90.00000000
_cell_angle_gamma   90.00000000
_symmetry_Int_Tables_number   1
_chemical_formula_structural   Ho2(SeO4)3
_chemical_formula_sum   'Ho8 Se12 O48'
_cell_volume   1263.78730812
_cell_formula_units_Z   4
loop_
 _symmetry_equiv_pos_site_id
 _symmetry_equiv_pos_as_xyz
  1  'x, y, z'
loop_
 _atom_site_type_symbol
 _atom_site_label
 _atom_site_symmetry_multiplicity
 _atom_site_fract_x
 _atom_site_fract_y
 _atom_site_fract_z
 _atom_site_occupancy
  Ho  Ho0  1  0.11773845  0.24976902  0.96226374  1
  Ho  Ho1  1  0.11773845  0.75023098  0.46226374  1
  Ho  Ho2  1  0.38226155  0.25023098  0.46226374  1
  Ho  Ho3  1  0.38226155  0.74976902  0.96226374  1
  Ho  Ho4  1  0.61773845  0.25023098  0.03773626  1
  Ho  Ho5  1  0.61773845  0.74976902  0.53773626  1
  Ho  Ho6  1  0.88226155  0.24976902  0.53773626  1
  Ho  Ho7  1  0.88226155  0.75023098  0.03773626  1
  Se  Se8  1  0.00000000  0.03499889  0.25000000  1
  Se  Se9  1  0.00000000  0.96500111  0.75000000  1
  Se  Se10  1  0.14668062  0.39390094  0.61156506  1
  Se  Se11  1  0.14668062  0.60609906  0.11156506  1
  Se  Se12  1  0.35331938  0.10609906  0.11156506  1
  Se  Se13  1  0.35331938  0.89390094  0.61156506  1
  Se  Se14  1  0.50000000  0.46500111  0.75000000  1
  Se  Se15  1  0.50000000  0.53499889  0.25000000  1
  Se  Se16  1  0.64668062  0.10609906  0.38843494  1
  Se  Se17  1  0.64668062  0.89390094  0.88843494  1
  Se  Se18  1  0.85331938  0.39390094  0.88843494  1
  Se  Se19  1  0.85331938  0.60609906  0.38843494  1
  O  O20  1  0.03423948  0.66731521  0.07387821  1
  O  O21  1  0.03423948  0.33268479  0.57387821  1
  O  O22  1  0.06476800  0.86473290  0.64478775  1
  O  O23  1  0.06476800  0.13526710  0.14478775  1
  O  O24  1  0.08057711  0.06235267  0.83665176  1
  O  O25  1  0.08057711  0.93764733  0.33665176  1
  O  O26  1  0.14836908  0.43502579  0.09423617  1
  O  O27  1  0.14836908  0.56497421  0.59423617  1
  O  O28  1  0.17628587  0.35604921  0.77316536  1
  O  O29  1  0.17628587  0.64395079  0.27316536  1
  O  O30  1  0.22746362  0.32234687  0.50354554  1
  O  O31  1  0.22746362  0.67765313  0.00354554  1
  O  O32  1  0.27253638  0.17765313  0.00354554  1
  O  O33  1  0.27253638  0.82234687  0.50354554  1
  O  O34  1  0.32371413  0.85604921  0.77316536  1
  O  O35  1  0.32371413  0.14395079  0.27316536  1
  O  O36  1  0.35163092  0.06497421  0.59423617  1
  O  O37  1  0.35163092  0.93502579  0.09423617  1
  O  O38  1  0.41942289  0.43764733  0.33665176  1
  O  O39  1  0.41942289  0.56235267  0.83665176  1
  O  O40  1  0.43523200  0.36473290  0.64478775  1
  O  O41  1  0.43523200  0.63526710  0.14478775  1
  O  O42  1  0.46576052  0.16731521  0.07387821  1
  O  O43  1  0.46576052  0.83268479  0.57387821  1
  O  O44  1  0.53423948  0.16731521  0.42612179  1
  O  O45  1  0.53423948  0.83268479  0.92612179  1
  O  O46  1  0.56476800  0.63526710  0.35521225  1
  O  O47  1  0.56476800  0.36473290  0.85521225  1
  O  O48  1  0.58057711  0.43764733  0.16334824  1
  O  O49  1  0.58057711  0.56235267  0.66334824  1
  O  O50  1  0.64836908  0.06497421  0.90576383  1
  O  O51  1  0.64836908  0.93502579  0.40576383  1
  O  O52  1  0.67628587  0.14395079  0.22683464  1
  O  O53  1  0.67628587  0.85604921  0.72683464  1
  O  O54  1  0.72746362  0.17765313  0.49645446  1
  O  O55  1  0.72746362  0.82234687  0.99645446  1
  O  O56  1  0.77253638  0.32234687  0.99645446  1
  O  O57  1  0.77253638  0.67765313  0.49645446  1
  O  O58  1  0.82371413  0.35604921  0.72683464  1
  O  O59  1  0.82371413  0.64395079  0.22683464  1
  O  O60  1  0.85163092  0.43502579  0.40576383  1
  O  O61  1  0.85163092  0.56497421  0.90576383  1
  O  O62  1  0.91942289  0.06235267  0.66334824  1
  O  O63  1  0.91942289  0.93764733  0.16334824  1
  O  O64  1  0.93523200  0.13526710  0.35521225  1
  O  O65  1  0.93523200  0.86473290  0.85521225  1
  O  O66  1  0.96576052  0.33268479  0.92612179  1
  O  O67  1  0.96576052  0.66731521  0.42612179  1
