# generated using pymatgen
data_Sr4LaCl11
_symmetry_space_group_name_H-M   'P 1'
_cell_length_a   4.92282220
_cell_length_b   4.92282220
_cell_length_c   18.37804228
_cell_angle_alpha   97.69687705
_cell_angle_beta   82.30312295
_cell_angle_gamma   90.00000000
_symmetry_Int_Tables_number   1
_chemical_formula_structural   Sr4LaCl11
_chemical_formula_sum   'Sr4 La1 Cl11'
_cell_volume   437.31469618
_cell_formula_units_Z   1
loop_
 _symmetry_equiv_pos_site_id
 _symmetry_equiv_pos_as_xyz
  1  'x, y, z'
loop_
 _atom_site_type_symbol
 _atom_site_label
 _atom_site_symmetry_multiplicity
 _atom_site_fract_x
 _atom_site_fract_y
 _atom_site_fract_z
 _atom_site_occupancy
  Sr  Sr0  1  0.00227948  0.99772052  0.99544104  1
  Sr  Sr1  1  0.79772052  0.20227948  0.40455896  1
  Sr  Sr2  1  0.19951888  0.80048112  0.60096224  1
  Sr  Sr3  1  0.60048112  0.39951888  0.79903776  1
  La  La4  1  0.40000000  0.60000000  0.20000000  1
  Cl  Cl5  1  0.55133444  0.94866556  0.89733111  1
  Cl  Cl6  1  0.74866556  0.75133444  0.50266889  1
  Cl  Cl7  1  0.15000000  0.35000000  0.70000000  1
  Cl  Cl8  1  0.95498443  0.54501557  0.09003113  1
  Cl  Cl9  1  0.34501557  0.15498443  0.30996887  1
  Cl  Cl10  1  0.45498443  0.04501557  0.09003113  1
  Cl  Cl11  1  0.65000000  0.85000000  0.70000000  1
  Cl  Cl12  1  0.05133444  0.44866556  0.89733111  1
  Cl  Cl13  1  0.84501557  0.65498443  0.30996887  1
  Cl  Cl14  1  0.24866556  0.25133444  0.50266889  1
  Cl  Cl15  1  0.90000000  0.10000000  0.20000000  1
