# generated using pymatgen
data_Sm3TaO7
_symmetry_space_group_name_H-M   'P 1'
_cell_length_a   7.59720762
_cell_length_b   10.83912184
_cell_length_c   7.67783791
_cell_angle_alpha   90.00000000
_cell_angle_beta   90.00000000
_cell_angle_gamma   90.00000000
_symmetry_Int_Tables_number   1
_chemical_formula_structural   Sm3TaO7
_chemical_formula_sum   'Sm12 Ta4 O28'
_cell_volume   632.24737165
_cell_formula_units_Z   4
loop_
 _symmetry_equiv_pos_site_id
 _symmetry_equiv_pos_as_xyz
  1  'x, y, z'
loop_
 _atom_site_type_symbol
 _atom_site_label
 _atom_site_symmetry_multiplicity
 _atom_site_fract_x
 _atom_site_fract_y
 _atom_site_fract_z
 _atom_site_occupancy
  Sm  Sm0  1  0.01214511  0.25000000  0.79420800  1
  Sm  Sm1  1  0.25164078  0.52193720  0.96240485  1
  Sm  Sm2  1  0.25164078  0.97806280  0.96240485  1
  Sm  Sm3  1  0.24835922  0.02193720  0.46240485  1
  Sm  Sm4  1  0.24835922  0.47806280  0.46240485  1
  Sm  Sm5  1  0.48785489  0.75000000  0.29420800  1
  Sm  Sm6  1  0.51214511  0.25000000  0.70579200  1
  Sm  Sm7  1  0.75164078  0.52193720  0.53759515  1
  Sm  Sm8  1  0.75164078  0.97806280  0.53759515  1
  Sm  Sm9  1  0.74835922  0.02193720  0.03759515  1
  Sm  Sm10  1  0.74835922  0.47806280  0.03759515  1
  Sm  Sm11  1  0.98785489  0.75000000  0.20579200  1
  Ta  Ta12  1  0.99897979  0.75000000  0.74879677  1
  Ta  Ta13  1  0.50102021  0.25000000  0.24879677  1
  Ta  Ta14  1  0.49897979  0.75000000  0.75120323  1
  Ta  Ta15  1  0.00102021  0.25000000  0.25120323  1
  O  O16  1  0.03412103  0.12605561  0.05045806  1
  O  O17  1  0.03412103  0.37394439  0.05045806  1
  O  O18  1  0.03942100  0.61414982  0.58657635  1
  O  O19  1  0.03942100  0.88585018  0.58657635  1
  O  O20  1  0.24753914  0.25000000  0.32535198  1
  O  O21  1  0.25528125  0.11682505  0.73101206  1
  O  O22  1  0.25528125  0.38317495  0.73101206  1
  O  O23  1  0.24471875  0.61682505  0.23101206  1
  O  O24  1  0.24471875  0.88317495  0.23101206  1
  O  O25  1  0.25246086  0.75000000  0.82535198  1
  O  O26  1  0.46057900  0.11414982  0.08657635  1
  O  O27  1  0.46057900  0.38585018  0.08657635  1
  O  O28  1  0.46587897  0.62605561  0.55045806  1
  O  O29  1  0.46587897  0.87394439  0.55045806  1
  O  O30  1  0.53412103  0.12605561  0.44954194  1
  O  O31  1  0.53412103  0.37394439  0.44954194  1
  O  O32  1  0.53942100  0.61414982  0.91342365  1
  O  O33  1  0.53942100  0.88585018  0.91342365  1
  O  O34  1  0.74753914  0.25000000  0.17464802  1
  O  O35  1  0.75528125  0.11682505  0.76898794  1
  O  O36  1  0.75528125  0.38317495  0.76898794  1
  O  O37  1  0.74471875  0.61682505  0.26898794  1
  O  O38  1  0.74471875  0.88317495  0.26898794  1
  O  O39  1  0.75246086  0.75000000  0.67464802  1
  O  O40  1  0.96057900  0.11414982  0.41342365  1
  O  O41  1  0.96057900  0.38585018  0.41342365  1
  O  O42  1  0.96587897  0.62605561  0.94954194  1
  O  O43  1  0.96587897  0.87394439  0.94954194  1
