# generated using pymatgen
data_LiV(OF)2
_symmetry_space_group_name_H-M   'P 1'
_cell_length_a   6.25230066
_cell_length_b   3.52309001
_cell_length_c   6.78319013
_cell_angle_alpha   90.00000000
_cell_angle_beta   109.77837763
_cell_angle_gamma   90.00000000
_symmetry_Int_Tables_number   1
_chemical_formula_structural   LiV(OF)2
_chemical_formula_sum   'Li2 V2 O4 F4'
_cell_volume   140.60188599
_cell_formula_units_Z   2
loop_
 _symmetry_equiv_pos_site_id
 _symmetry_equiv_pos_as_xyz
  1  'x, y, z'
loop_
 _atom_site_type_symbol
 _atom_site_label
 _atom_site_symmetry_multiplicity
 _atom_site_fract_x
 _atom_site_fract_y
 _atom_site_fract_z
 _atom_site_occupancy
  Li  Li0  1  0.34979484  0.24513976  0.79809607  1
  Li  Li1  1  0.65020516  0.74513976  0.20190393  1
  V  V2  1  0.14341199  0.24472335  0.22832244  1
  V  V3  1  0.85658801  0.74472335  0.77167756  1
  O  O4  1  0.09531133  0.73899212  0.14801442  1
  O  O5  1  0.29340340  0.24461877  0.47591576  1
  O  O6  1  0.70659660  0.74461877  0.52408424  1
  O  O7  1  0.90468867  0.23899212  0.85198558  1
  F  F8  1  0.15208926  0.73514174  0.75124611  1
  F  F9  1  0.61097992  0.73238026  0.88615484  1
  F  F10  1  0.38902008  0.23238026  0.11384516  1
  F  F11  1  0.84791074  0.23514174  0.24875389  1
