# generated using pymatgen
data_Ba2P6O17
_symmetry_space_group_name_H-M   'P 1'
_cell_length_a   7.52322371
_cell_length_b   7.47999477
_cell_length_c   13.71854258
_cell_angle_alpha   90.00000000
_cell_angle_beta   90.00000000
_cell_angle_gamma   105.08078265
_symmetry_Int_Tables_number   1
_chemical_formula_structural   Ba2P6O17
_chemical_formula_sum   'Ba4 P12 O34'
_cell_volume   745.40532368
_cell_formula_units_Z   2
loop_
 _symmetry_equiv_pos_site_id
 _symmetry_equiv_pos_as_xyz
  1  'x, y, z'
loop_
 _atom_site_type_symbol
 _atom_site_label
 _atom_site_symmetry_multiplicity
 _atom_site_fract_x
 _atom_site_fract_y
 _atom_site_fract_z
 _atom_site_occupancy
  Ba  Ba0  1  0.20220359  0.87996381  0.71821800  1
  Ba  Ba1  1  0.21666552  0.16882823  0.00656777  1
  Ba  Ba2  1  0.78333448  0.83117177  0.50656777  1
  Ba  Ba3  1  0.79779641  0.12003619  0.21821800  1
  P  P4  1  0.00488249  0.60389643  0.93856282  1
  P  P5  1  0.25125132  0.94066451  0.22838832  1
  P  P6  1  0.24229846  0.52571861  0.26002522  1
  P  P7  1  0.33666581  0.38571975  0.74884078  1
  P  P8  1  0.33871679  0.38367573  0.53560736  1
  P  P9  1  0.31926938  0.00648648  0.44609153  1
  P  P10  1  0.68073062  0.99351352  0.94609153  1
  P  P11  1  0.66128321  0.61632427  0.03560736  1
  P  P12  1  0.66333419  0.61428025  0.24884078  1
  P  P13  1  0.75770154  0.47428139  0.76002522  1
  P  P14  1  0.74874868  0.05933549  0.72838832  1
  P  P15  1  0.99511751  0.39610357  0.43856282  1
  O  O16  1  0.08498087  0.95701062  0.17266465  1
  O  O17  1  0.06867295  0.79776755  0.90042085  1
  O  O18  1  0.17662800  0.92170484  0.52091619  1
  O  O19  1  0.21168809  0.96884044  0.34222079  1
  O  O20  1  0.15175059  0.52585168  0.36373813  1
  O  O21  1  0.13019518  0.39119630  0.53177249  1
  O  O22  1  0.13420724  0.49487059  0.96789735  1
  O  O23  1  0.14721203  0.37201629  0.19498394  1
  O  O24  1  0.25610160  0.72343811  0.21830502  1
  O  O25  1  0.24337143  0.53651460  0.73901338  1
  O  O26  1  0.26325050  0.21930643  0.81137184  1
  O  O27  1  0.50186434  0.96596900  0.43948733  1
  O  O28  1  0.35578234  0.29318196  0.63981410  1
  O  O29  1  0.36060901  0.23557021  0.45751824  1
  O  O30  1  0.56445757  0.94449625  0.69649244  1
  O  O31  1  0.44890018  0.52196549  0.27997991  1
  O  O32  1  0.47003396  0.56563878  0.52271155  1
  O  O33  1  0.52996604  0.43436122  0.02271155  1
  O  O34  1  0.55109982  0.47803451  0.77997991  1
  O  O35  1  0.43554243  0.05550375  0.19649244  1
  O  O36  1  0.63939099  0.76442979  0.95751824  1
  O  O37  1  0.64421766  0.70681804  0.13981410  1
  O  O38  1  0.49813566  0.03403100  0.93948733  1
  O  O39  1  0.73674950  0.78069357  0.31137184  1
  O  O40  1  0.75662857  0.46348540  0.23901338  1
  O  O41  1  0.74389840  0.27656189  0.71830502  1
  O  O42  1  0.85278797  0.62798371  0.69498394  1
  O  O43  1  0.86579276  0.50512941  0.46789735  1
  O  O44  1  0.86980482  0.60880370  0.03177249  1
  O  O45  1  0.84824941  0.47414832  0.86373813  1
  O  O46  1  0.78831191  0.03115956  0.84222079  1
  O  O47  1  0.82337200  0.07829516  0.02091619  1
  O  O48  1  0.93132705  0.20223245  0.40042085  1
  O  O49  1  0.91501913  0.04298938  0.67266465  1
