# generated using pymatgen
data_CaAsO4
_symmetry_space_group_name_H-M   'P 1'
_cell_length_a   7.01510365
_cell_length_b   7.02985409
_cell_length_c   7.27812619
_cell_angle_alpha   76.12967601
_cell_angle_beta   81.35795536
_cell_angle_gamma   85.56075267
_symmetry_Int_Tables_number   1
_chemical_formula_structural   CaAsO4
_chemical_formula_sum   'Ca4 As4 O16'
_cell_volume   344.17948536
_cell_formula_units_Z   4
loop_
 _symmetry_equiv_pos_site_id
 _symmetry_equiv_pos_as_xyz
  1  'x, y, z'
loop_
 _atom_site_type_symbol
 _atom_site_label
 _atom_site_symmetry_multiplicity
 _atom_site_fract_x
 _atom_site_fract_y
 _atom_site_fract_z
 _atom_site_occupancy
  Ca  Ca0  1  0.56780172  0.68364295  0.26767113  1
  Ca  Ca1  1  0.43219828  0.31635705  0.73232887  1
  Ca  Ca2  1  0.15631503  0.81243424  0.65301014  1
  Ca  Ca3  1  0.84368497  0.18756576  0.34698986  1
  As  As4  1  0.62217872  0.79679356  0.71123258  1
  As  As5  1  0.37782128  0.20320644  0.28876742  1
  As  As6  1  0.06488922  0.71029839  0.19196432  1
  As  As7  1  0.93511078  0.28970161  0.80803568  1
  O  O8  1  0.66486116  0.68687195  0.94224425  1
  O  O9  1  0.33513884  0.31312805  0.05775575  1
  O  O10  1  0.50152222  0.64900539  0.61408102  1
  O  O11  1  0.49847778  0.35099461  0.38591898  1
  O  O12  1  0.83447825  0.87060229  0.57168172  1
  O  O13  1  0.16552175  0.12939771  0.42831828  1
  O  O14  1  0.45720638  0.98586224  0.73046229  1
  O  O15  1  0.54279362  0.01413776  0.26953771  1
  O  O16  1  0.19780503  0.66685589  0.98478912  1
  O  O17  1  0.80219497  0.33314411  0.01521088  1
  O  O18  1  0.89121296  0.54175703  0.28595219  1
  O  O19  1  0.10878704  0.45824297  0.71404781  1
  O  O20  1  0.93370438  0.93457857  0.14381475  1
  O  O21  1  0.06629562  0.06542143  0.85618525  1
  O  O22  1  0.22433798  0.71627999  0.34599300  1
  O  O23  1  0.77566202  0.28372001  0.65400700  1
