# generated using pymatgen
data_Ba6Ti7Nb9O42
_symmetry_space_group_name_H-M   'P 1'
_cell_length_a   9.20245077
_cell_length_b   9.21765630
_cell_length_c   11.94856436
_cell_angle_alpha   89.98238655
_cell_angle_beta   90.00904413
_cell_angle_gamma   120.05418880
_symmetry_Int_Tables_number   1
_chemical_formula_structural   Ba6Ti7Nb9O42
_chemical_formula_sum   'Ba6 Ti7 Nb9 O42'
_cell_volume   877.26933669
_cell_formula_units_Z   1
loop_
 _symmetry_equiv_pos_site_id
 _symmetry_equiv_pos_as_xyz
  1  'x, y, z'
loop_
 _atom_site_type_symbol
 _atom_site_label
 _atom_site_symmetry_multiplicity
 _atom_site_fract_x
 _atom_site_fract_y
 _atom_site_fract_z
 _atom_site_occupancy
  Ba  Ba0  1  0.00000649  0.59614963  0.24476211  1
  Ba  Ba1  1  0.00000455  0.41125491  0.75094487  1
  Ba  Ba2  1  0.40662031  0.40625334  0.24501558  1
  Ba  Ba3  1  0.59921922  0.59553923  0.75007876  1
  Ba  Ba4  1  0.40079353  0.99631889  0.75008298  1
  Ba  Ba5  1  0.59336805  0.99963202  0.24501890  1
  Ti  Ti6  1  0.00000293  0.74955132  0.90905994  1
  Ti  Ti7  1  0.00003046  0.76160386  0.60017711  1
  Ti  Ti8  1  0.99998436  0.24208132  0.09306254  1
  Ti  Ti9  1  0.24138534  0.24155173  0.59358684  1
  Ti  Ti10  1  0.24059284  0.99617201  0.08994052  1
  Ti  Ti11  1  0.75941509  0.75559635  0.08994320  1
  Ti  Ti12  1  0.75864354  0.00020239  0.59358605  1
  Nb  Nb13  1  0.00000567  0.24846760  0.40633629  1
  Nb  Nb14  1  0.32988012  0.66536715  0.00557117  1
  Nb  Nb15  1  0.33345689  0.66680588  0.50914704  1
  Nb  Nb16  1  0.24669737  0.24411665  0.90701078  1
  Nb  Nb17  1  0.24572233  0.99823940  0.40492647  1
  Nb  Nb18  1  0.75428911  0.75251711  0.40494663  1
  Nb  Nb19  1  0.67011323  0.33550313  0.00556782  1
  Nb  Nb20  1  0.66658160  0.33337726  0.50914593  1
  Nb  Nb21  1  0.75329284  0.99741310  0.90700201  1
  O  O22  1  0.99998730  0.79856183  0.07261480  1
  O  O23  1  0.00000122  0.79601934  0.42526630  1
  O  O24  1  0.00000592  0.78772465  0.75163337  1
  O  O25  1  0.16747193  0.68816799  0.59982557  1
  O  O26  1  0.16736093  0.68701597  0.90171055  1
  O  O27  1  0.99999545  0.20635043  0.24850204  1
  O  O28  1  0.00000786  0.20141149  0.57551934  1
  O  O29  1  -0.00000103  0.20618147  0.92552292  1
  O  O30  1  0.31221927  0.83277034  0.10151634  1
  O  O31  1  0.31586708  0.83110075  0.39880518  1
  O  O32  1  0.16720618  0.47915755  0.10032330  1
  O  O33  1  0.16910110  0.48477833  0.39878593  1
  O  O34  1  0.31454838  0.48373169  0.89933197  1
  O  O35  1  0.31238519  0.47894843  0.59965309  1
  O  O36  1  0.52131834  0.83352335  0.60006918  1
  O  O37  1  0.51531428  0.83179152  0.89734998  1
  O  O38  1  0.19997897  0.20140966  0.07552398  1
  O  O39  1  0.20531102  0.20508114  0.42597272  1
  O  O40  1  0.20577269  0.20568353  0.74846599  1
  O  O41  1  0.52217598  0.68928978  0.09673003  1
  O  O42  1  0.51594364  0.68459133  0.39945116  1
  O  O43  1  0.19945878  0.99963463  0.57600607  1
  O  O44  1  0.20386339  -0.00011015  0.92586137  1
  O  O45  1  0.20599011  0.99920199  0.24762359  1
  O  O46  1  0.48468372  0.31648045  0.89734315  1
  O  O47  1  0.47869174  0.31220746  0.60007494  1
  O  O48  1  0.79399303  0.79320235  0.24763111  1
  O  O49  1  0.80052260  0.80014771  0.57600446  1
  O  O50  1  0.79611184  0.79600897  0.92586330  1
  O  O51  1  0.47780438  0.16711343  0.09672639  1
  O  O52  1  0.48404685  0.16865146  0.39945181  1
  O  O53  1  0.68413031  0.51522735  0.39879719  1
  O  O54  1  0.68776657  0.52053724  0.10151393  1
  O  O55  1  0.83252620  0.52069835  0.59982115  1
  O  O56  1  0.83263282  0.51965078  0.90173196  1
  O  O57  1  0.68762428  0.16656679  0.59965801  1
  O  O58  1  0.68544492  0.16917865  0.89931891  1
  O  O59  1  0.83088632  0.31566576  0.39877980  1
  O  O60  1  0.83278681  0.31194636  0.10033024  1
  O  O61  1  0.79423610  0.99990590  0.74846715  1
  O  O62  1  0.79469801  0.99976949  0.42597779  1
  O  O63  1  0.80001862  0.00141218  0.07552944  1
