# generated using pymatgen
data_Cr3(FeO6)2
_symmetry_space_group_name_H-M   'P 1'
_cell_length_a   12.52912202
_cell_length_b   9.12073277
_cell_length_c   9.01333950
_cell_angle_alpha   90.00000000
_cell_angle_beta   90.00000000
_cell_angle_gamma   90.00000000
_symmetry_Int_Tables_number   1
_chemical_formula_structural   Cr3(FeO6)2
_chemical_formula_sum   'Cr12 Fe8 O48'
_cell_volume   1029.99733243
_cell_formula_units_Z   4
loop_
 _symmetry_equiv_pos_site_id
 _symmetry_equiv_pos_as_xyz
  1  'x, y, z'
loop_
 _atom_site_type_symbol
 _atom_site_label
 _atom_site_symmetry_multiplicity
 _atom_site_fract_x
 _atom_site_fract_y
 _atom_site_fract_z
 _atom_site_occupancy
  Cr  Cr0  1  0.00000000  0.46235268  0.25000000  1
  Cr  Cr1  1  0.00000000  0.53764732  0.75000000  1
  Cr  Cr2  1  0.14378699  0.10283350  0.60621347  1
  Cr  Cr3  1  0.14378699  0.89716650  0.10621347  1
  Cr  Cr4  1  0.35621301  0.39716650  0.10621347  1
  Cr  Cr5  1  0.35621301  0.60283350  0.60621347  1
  Cr  Cr6  1  0.50000000  0.03764732  0.75000000  1
  Cr  Cr7  1  0.50000000  0.96235268  0.25000000  1
  Cr  Cr8  1  0.64378699  0.39716650  0.39378653  1
  Cr  Cr9  1  0.64378699  0.60283350  0.89378653  1
  Cr  Cr10  1  0.85621301  0.10283350  0.89378653  1
  Cr  Cr11  1  0.85621301  0.89716650  0.39378653  1
  Fe  Fe12  1  0.12298510  0.25046257  0.96977939  1
  Fe  Fe13  1  0.12298510  0.74953743  0.46977939  1
  Fe  Fe14  1  0.37701490  0.75046257  0.96977939  1
  Fe  Fe15  1  0.37701490  0.24953743  0.46977939  1
  Fe  Fe16  1  0.62298510  0.24953743  0.03022061  1
  Fe  Fe17  1  0.62298510  0.75046257  0.53022061  1
  Fe  Fe18  1  0.87701490  0.25046257  0.53022061  1
  Fe  Fe19  1  0.87701490  0.74953743  0.03022061  1
  O  O20  1  0.01984561  0.15093694  0.56437361  1
  O  O21  1  0.01984561  0.84906306  0.06437361  1
  O  O22  1  0.06833982  0.56799928  0.36602948  1
  O  O23  1  0.06833982  0.43200072  0.86602948  1
  O  O24  1  0.08494763  0.35582210  0.15755683  1
  O  O25  1  0.08494763  0.64417790  0.65755683  1
  O  O26  1  0.15882649  0.07860385  0.09882758  1
  O  O27  1  0.15882649  0.92139615  0.59882758  1
  O  O28  1  0.17273643  0.16011404  0.77664197  1
  O  O29  1  0.17273643  0.83988596  0.27664197  1
  O  O30  1  0.22686060  0.82242744  0.98303942  1
  O  O31  1  0.22686060  0.17757256  0.48303942  1
  O  O32  1  0.27313940  0.32242744  0.98303942  1
  O  O33  1  0.27313940  0.67757256  0.48303942  1
  O  O34  1  0.32726357  0.66011404  0.77664197  1
  O  O35  1  0.32726357  0.33988596  0.27664197  1
  O  O36  1  0.34117351  0.42139615  0.59882758  1
  O  O37  1  0.34117351  0.57860385  0.09882758  1
  O  O38  1  0.41505237  0.14417790  0.65755683  1
  O  O39  1  0.41505237  0.85582210  0.15755683  1
  O  O40  1  0.43166018  0.06799928  0.36602948  1
  O  O41  1  0.43166018  0.93200072  0.86602948  1
  O  O42  1  0.48015439  0.65093694  0.56437361  1
  O  O43  1  0.48015439  0.34906306  0.06437361  1
  O  O44  1  0.51984561  0.34906306  0.43562639  1
  O  O45  1  0.51984561  0.65093694  0.93562639  1
  O  O46  1  0.56833982  0.06799928  0.13397052  1
  O  O47  1  0.56833982  0.93200072  0.63397052  1
  O  O48  1  0.58494763  0.14417790  0.84244317  1
  O  O49  1  0.58494763  0.85582210  0.34244317  1
  O  O50  1  0.65882649  0.42139615  0.90117242  1
  O  O51  1  0.65882649  0.57860385  0.40117242  1
  O  O52  1  0.67273643  0.33988596  0.22335803  1
  O  O53  1  0.67273643  0.66011404  0.72335803  1
  O  O54  1  0.72686060  0.32242744  0.51696058  1
  O  O55  1  0.72686060  0.67757256  0.01696058  1
  O  O56  1  0.77313940  0.17757256  0.01696058  1
  O  O57  1  0.77313940  0.82242744  0.51696058  1
  O  O58  1  0.82726357  0.16011404  0.72335803  1
  O  O59  1  0.82726357  0.83988596  0.22335803  1
  O  O60  1  0.84117351  0.07860385  0.40117242  1
  O  O61  1  0.84117351  0.92139615  0.90117242  1
  O  O62  1  0.91505237  0.35582210  0.34244317  1
  O  O63  1  0.91505237  0.64417790  0.84244317  1
  O  O64  1  0.93166018  0.43200072  0.63397052  1
  O  O65  1  0.93166018  0.56799928  0.13397052  1
  O  O66  1  0.98015439  0.15093694  0.93562639  1
  O  O67  1  0.98015439  0.84906306  0.43562639  1
