# generated using pymatgen
data_Sr2LiSiN3
_symmetry_space_group_name_H-M   'P 1'
_cell_length_a   7.58826613
_cell_length_b   7.58826613
_cell_length_c   9.45411758
_cell_angle_alpha   66.42179806
_cell_angle_beta   66.42179806
_cell_angle_gamma   89.64604047
_symmetry_Int_Tables_number   1
_chemical_formula_structural   Sr2LiSiN3
_chemical_formula_sum   'Sr8 Li4 Si4 N12'
_cell_volume   449.55060646
_cell_formula_units_Z   4
loop_
 _symmetry_equiv_pos_site_id
 _symmetry_equiv_pos_as_xyz
  1  'x, y, z'
loop_
 _atom_site_type_symbol
 _atom_site_label
 _atom_site_symmetry_multiplicity
 _atom_site_fract_x
 _atom_site_fract_y
 _atom_site_fract_z
 _atom_site_occupancy
  Sr  Sr0  1  0.58817275  0.34702248  0.78639834  1
  Sr  Sr1  1  0.57590567  0.84549018  0.82125667  1
  Sr  Sr2  1  0.15450982  0.42409433  0.17874333  1
  Sr  Sr3  1  0.65297752  0.41182725  0.21360166  1
  Sr  Sr4  1  0.08898203  0.31783098  0.85239808  1
  Sr  Sr5  1  0.09572727  0.83173067  0.84331922  1
  Sr  Sr6  1  0.16826933  0.90427273  0.15668078  1
  Sr  Sr7  1  0.68216902  0.91101797  0.14760192  1
  Li  Li8  1  0.48044670  0.71105142  0.58889147  1
  Li  Li9  1  0.95304288  0.72696779  0.54681307  1
  Li  Li10  1  0.28894858  0.51955330  0.41110853  1
  Li  Li11  1  0.27303221  0.04695712  0.45318693  1
  Si  Si12  1  0.42590187  0.19993965  0.59673843  1
  Si  Si13  1  0.97604293  0.20153720  0.60103580  1
  Si  Si14  1  0.80006035  0.57409813  0.40326157  1
  Si  Si15  1  0.79846280  0.02395707  0.39896420  1
  N  N16  1  0.56346201  0.43653799  0.50000000  1
  N  N17  1  0.95327885  0.04672115  0.50000000  1
  N  N18  1  0.55114965  0.05622524  0.49303945  1
  N  N19  1  0.94377476  0.44885035  0.50696055  1
  N  N20  1  0.22561832  0.22764837  0.55080204  1
  N  N21  1  0.77235163  0.77438168  0.44919796  1
  N  N22  1  0.34353447  0.08941923  0.82066175  1
  N  N23  1  0.83204505  0.09104542  0.82199321  1
  N  N24  1  0.91058077  0.65646553  0.17933825  1
  N  N25  1  0.90895458  0.16795495  0.17800679  1
  N  N26  1  0.31261452  0.57401631  0.84697446  1
  N  N27  1  0.42598369  0.68738548  0.15302554  1
