# generated using pymatgen
data_AlNiH16N(OF)6
_symmetry_space_group_name_H-M   'P 1'
_cell_length_a   12.67371116
_cell_length_b   6.52850807
_cell_length_c   12.81346435
_cell_angle_alpha   90.00000000
_cell_angle_beta   94.67076984
_cell_angle_gamma   90.00000000
_symmetry_Int_Tables_number   1
_chemical_formula_structural   AlNiH16N(OF)6
_chemical_formula_sum   'Al4 Ni4 H64 N4 O24 F24'
_cell_volume   1056.67066001
_cell_formula_units_Z   4
loop_
 _symmetry_equiv_pos_site_id
 _symmetry_equiv_pos_as_xyz
  1  'x, y, z'
loop_
 _atom_site_type_symbol
 _atom_site_label
 _atom_site_symmetry_multiplicity
 _atom_site_fract_x
 _atom_site_fract_y
 _atom_site_fract_z
 _atom_site_occupancy
  Al  Al0  1  0.00000000  0.00000000  0.50000000  1
  Al  Al1  1  0.00000000  0.50000000  0.00000000  1
  Al  Al2  1  0.50000000  0.00000000  0.50000000  1
  Al  Al3  1  0.50000000  0.50000000  0.00000000  1
  Ni  Ni4  1  0.23093803  0.53548369  0.69315914  1
  Ni  Ni5  1  0.23093803  0.96451631  0.19315914  1
  Ni  Ni6  1  0.76906197  0.03548369  0.80684086  1
  Ni  Ni7  1  0.76906197  0.46451631  0.30684086  1
  H  H8  1  0.02879434  0.59168936  0.63088183  1
  H  H9  1  0.04515664  0.35131501  0.62359867  1
  H  H10  1  0.02879434  0.90831064  0.13088183  1
  H  H11  1  0.04515664  0.14868499  0.12359867  1
  H  H12  1  0.12697041  0.78253644  0.80665979  1
  H  H13  1  0.14209588  0.90257475  0.69893486  1
  H  H14  1  0.15358546  0.36946671  0.86074679  1
  H  H15  1  0.12697041  0.71746356  0.30665979  1
  H  H16  1  0.14209588  0.59742525  0.19893486  1
  H  H17  1  0.15358546  0.13053329  0.36074679  1
  H  H18  1  0.17111420  0.69747252  0.50646126  1
  H  H19  1  0.17111420  0.80252748  0.00646126  1
  H  H20  1  0.22919661  0.17280055  0.61099103  1
  H  H21  1  0.26875461  0.46005827  0.89548972  1
  H  H22  1  0.22919661  0.32719945  0.11099103  1
  H  H23  1  0.26875461  0.03994173  0.39548972  1
  H  H24  1  0.31393337  0.00361467  0.94072221  1
  H  H25  1  0.28854030  0.76794939  0.53342130  1
  H  H26  1  0.31158882  0.97965161  0.81123168  1
  H  H27  1  0.31393337  0.49638533  0.44072221  1
  H  H28  1  0.28854030  0.73205061  0.03342130  1
  H  H29  1  0.31158882  0.52034839  0.31123168  1
  H  H30  1  0.35072538  0.24857960  0.60862772  1
  H  H31  1  0.39117303  0.15948107  0.87247722  1
  H  H32  1  0.35072538  0.25142040  0.10862772  1
  H  H33  1  0.42067409  0.90670017  0.88948237  1
  H  H34  1  0.42911166  0.54937829  0.77840321  1
  H  H35  1  0.39117303  0.34051893  0.37247722  1
  H  H36  1  0.42641895  0.72375782  0.68906577  1
  H  H37  1  0.42067409  0.59329983  0.38948237  1
  H  H38  1  0.42911166  0.95062171  0.27840321  1
  H  H39  1  0.42641895  0.77624218  0.18906577  1
  H  H40  1  0.57358105  0.22375782  0.81093423  1
  H  H41  1  0.57088834  0.04937829  0.72159679  1
  H  H42  1  0.57932591  0.40670017  0.61051763  1
  H  H43  1  0.57358105  0.27624218  0.31093423  1
  H  H44  1  0.60882697  0.65948107  0.62752278  1
  H  H45  1  0.57088834  0.45062171  0.22159679  1
  H  H46  1  0.57932591  0.09329983  0.11051763  1
  H  H47  1  0.64927462  0.74857960  0.89137228  1
  H  H48  1  0.60882697  0.84051893  0.12752278  1
  H  H49  1  0.64927462  0.75142040  0.39137228  1
  H  H50  1  0.68841118  0.47965161  0.68876832  1
  H  H51  1  0.71145970  0.26794939  0.96657870  1
  H  H52  1  0.68606663  0.50361467  0.55927779  1
  H  H53  1  0.68841118  0.02034839  0.18876832  1
  H  H54  1  0.71145970  0.23205061  0.46657870  1
  H  H55  1  0.68606663  0.99638533  0.05927779  1
  H  H56  1  0.73124539  0.96005827  0.60451028  1
  H  H57  1  0.77080339  0.67280055  0.88900897  1
  H  H58  1  0.73124539  0.53994173  0.10451028  1
  H  H59  1  0.77080339  0.82719945  0.38900897  1
  H  H60  1  0.82888580  0.19747252  0.99353874  1
  H  H61  1  0.82888580  0.30252748  0.49353874  1
  H  H62  1  0.84641454  0.86946671  0.63925321  1
  H  H63  1  0.85790412  0.40257475  0.80106514  1
  H  H64  1  0.87302959  0.28253644  0.69334021  1
  H  H65  1  0.84641454  0.63053329  0.13925321  1
  H  H66  1  0.85790412  0.09742525  0.30106514  1
  H  H67  1  0.87302959  0.21746356  0.19334021  1
  H  H68  1  0.95484336  0.85131501  0.87640133  1
  H  H69  1  0.97120566  0.09168936  0.86911817  1
  H  H70  1  0.95484336  0.64868499  0.37640133  1
  H  H71  1  0.97120566  0.40831064  0.36911817  1
  N  N72  1  0.36001914  0.01404516  0.87757309  1
  N  N73  1  0.36001914  0.48595484  0.37757309  1
  N  N74  1  0.63998086  0.51404516  0.62242691  1
  N  N75  1  0.63998086  0.98595484  0.12242691  1
  O  O76  1  0.07246509  0.47547225  0.65948773  1
  O  O77  1  0.07246509  0.02452775  0.15948773  1
  O  O78  1  0.17764080  0.81474318  0.75464262  1
  O  O79  1  0.17764080  0.68525682  0.25464262  1
  O  O80  1  0.22529897  0.39544028  0.83713787  1
  O  O81  1  0.23975461  0.65031489  0.54197530  1
  O  O82  1  0.22529897  0.10455972  0.33713787  1
  O  O83  1  0.23975461  0.84968511  0.04197530  1
  O  O84  1  0.28643560  0.25561350  0.64721680  1
  O  O85  1  0.28643560  0.24438650  0.14721680  1
  O  O86  1  0.38271068  0.63893712  0.73264824  1
  O  O87  1  0.38271068  0.86106288  0.23264824  1
  O  O88  1  0.61729032  0.13893712  0.76735176  1
  O  O89  1  0.61729032  0.36106288  0.26735176  1
  O  O90  1  0.71356440  0.75561350  0.85278320  1
  O  O91  1  0.71356440  0.74438650  0.35278320  1
  O  O92  1  0.76024539  0.15031489  0.95802470  1
  O  O93  1  0.77470103  0.89544028  0.66286213  1
  O  O94  1  0.76024539  0.34968511  0.45802470  1
  O  O95  1  0.77470103  0.60455972  0.16286213  1
  O  O96  1  0.82235920  0.31474318  0.74535738  1
  O  O97  1  0.82235920  0.18525682  0.24535738  1
  O  O98  1  0.92753491  0.97547225  0.84051227  1
  O  O99  1  0.92753491  0.52452775  0.34051227  1
  F  F100  1  0.04273086  0.30376364  0.91055025  1
  F  F101  1  0.07086360  0.70164862  0.93134491  1
  F  F102  1  0.04273086  0.19623636  0.41055025  1
  F  F103  1  0.07086360  0.79835138  0.43134491  1
  F  F104  1  0.11754416  0.04417935  0.58999015  1
  F  F105  1  0.11754416  0.45582065  0.08999015  1
  F  F106  1  0.35840320  0.55558648  0.98724262  1
  F  F107  1  0.35840320  0.94441352  0.48724262  1
  F  F108  1  0.48770862  0.38067538  0.86748755  1
  F  F109  1  0.47226496  0.24719559  0.55867523  1
  F  F110  1  0.52773504  0.74719559  0.94132477  1
  F  F111  1  0.51229138  0.88067538  0.63251245  1
  F  F112  1  0.48770862  0.11932462  0.36748755  1
  F  F113  1  0.47226496  0.25280441  0.05867523  1
  F  F114  1  0.52773504  0.75280441  0.44132477  1
  F  F115  1  0.51229138  0.61932462  0.13251245  1
  F  F116  1  0.64159680  0.05558648  0.51275738  1
  F  F117  1  0.64159680  0.44441352  0.01275738  1
  F  F118  1  0.88245584  0.54417935  0.91000985  1
  F  F119  1  0.88245584  0.95582065  0.41000985  1
  F  F120  1  0.92913640  0.20164862  0.56865509  1
  F  F121  1  0.95726914  0.80376364  0.58944975  1
  F  F122  1  0.92913640  0.29835138  0.06865509  1
  F  F123  1  0.95726914  0.69623636  0.08944975  1
