# generated using pymatgen
data_Li6Mn5Fe(BO3)6
_symmetry_space_group_name_H-M   'P 1'
_cell_length_a   8.26784329
_cell_length_b   14.33766083
_cell_length_c   3.18491251
_cell_angle_alpha   90.00000000
_cell_angle_beta   90.00000000
_cell_angle_gamma   89.94693347
_symmetry_Int_Tables_number   1
_chemical_formula_structural   Li6Mn5Fe(BO3)6
_chemical_formula_sum   'Li6 Mn5 Fe1 B6 O18'
_cell_volume   377.54424896
_cell_formula_units_Z   1
loop_
 _symmetry_equiv_pos_site_id
 _symmetry_equiv_pos_as_xyz
  1  'x, y, z'
loop_
 _atom_site_type_symbol
 _atom_site_label
 _atom_site_symmetry_multiplicity
 _atom_site_fract_x
 _atom_site_fract_y
 _atom_site_fract_z
 _atom_site_occupancy
  Li  Li0  1  0.29289504  0.99093476  0.50000000  1
  Li  Li1  1  0.34060750  0.35830890  0.50000000  1
  Li  Li2  1  0.36740584  0.65116713  0.50000000  1
  Li  Li3  1  0.79268107  0.49221929  0.50000000  1
  Li  Li4  1  0.84031672  0.85770415  0.50000000  1
  Li  Li5  1  0.86687096  0.15061524  0.50000000  1
  Mn  Mn6  1  0.13370531  0.50635570  0.00000000  1
  Mn  Mn7  1  0.17371131  0.81421829  0.00000000  1
  Mn  Mn8  1  0.19136385  0.17954471  0.00000000  1
  Mn  Mn9  1  0.63479687  0.00567642  0.00000000  1
  Mn  Mn10  1  0.67392536  0.31419727  0.00000000  1
  Fe  Fe11  1  0.68715433  0.67922658  0.00000000  1
  B  B12  1  0.99786260  0.66702483  0.50000000  1
  B  B13  1  0.00002953  0.99989876  0.00000000  1
  B  B14  1  0.99992790  0.33344399  0.50000000  1
  B  B15  1  0.50009130  0.16663847  0.50000000  1
  B  B16  1  0.50150733  0.50021290  0.00000000  1
  B  B17  1  0.50111184  0.83230220  0.50000000  1
  O  O18  1  0.01028636  0.43014469  0.50000000  1
  O  O19  1  0.01409862  0.76378541  0.50000000  1
  O  O20  1  0.13673021  0.61124068  0.50000000  1
  O  O21  1  0.14004607  0.27983754  0.50000000  1
  O  O22  1  0.15477426  0.96098473  0.00000000  1
  O  O23  1  0.34782023  0.12516920  0.50000000  1
  O  O24  1  0.34997869  0.79009948  0.50000000  1
  O  O25  1  0.36467134  0.44353121  0.00000000  1
  O  O26  1  0.48536199  0.59746547  0.00000000  1
  O  O27  1  0.51222753  0.92909695  0.50000000  1
  O  O28  1  0.51387068  0.26347938  0.50000000  1
  O  O29  1  0.63840153  0.11116518  0.50000000  1
  O  O30  1  0.64046020  0.77779531  0.50000000  1
  O  O31  1  0.65517227  0.46067500  0.00000000  1
  O  O32  1  0.84502504  0.62681029  0.50000000  1
  O  O33  1  0.84965146  0.29024504  0.50000000  1
  O  O34  1  0.86440008  0.94211228  0.00000000  1
  O  O35  1  0.98105881  0.09667256  0.00000000  1
