# generated using pymatgen
data_V4OF11
_symmetry_space_group_name_H-M   'P 1'
_cell_length_a   5.24802761
_cell_length_b   5.48508184
_cell_length_c   17.47820710
_cell_angle_alpha   91.36742022
_cell_angle_beta   99.09717191
_cell_angle_gamma   61.10425417
_symmetry_Int_Tables_number   1
_chemical_formula_structural   V4OF11
_chemical_formula_sum   'V8 O2 F22'
_cell_volume   434.14179822
_cell_formula_units_Z   2
loop_
 _symmetry_equiv_pos_site_id
 _symmetry_equiv_pos_as_xyz
  1  'x, y, z'
loop_
 _atom_site_type_symbol
 _atom_site_label
 _atom_site_symmetry_multiplicity
 _atom_site_fract_x
 _atom_site_fract_y
 _atom_site_fract_z
 _atom_site_occupancy
  V  V0  1  0.72382073  0.63769526  0.11809700  1
  V  V1  1  0.77617927  0.11230474  0.63190300  1
  V  V2  1  0.49303107  0.25362451  0.24897187  1
  V  V3  1  0.48965338  0.75531661  0.74867501  1
  V  V4  1  0.25000000  0.87500000  0.37500000  1
  V  V5  1  0.25000000  0.37500000  0.87500000  1
  V  V6  1  0.01034662  0.99468339  0.00132499  1
  V  V7  1  0.00696893  0.49637549  0.50102813  1
  O  O8  1  0.43051558  0.78560673  0.04527572  1
  O  O9  1  0.06948442  0.96439327  0.70472428  1
  F  F10  1  0.92425832  0.83645021  0.08846276  1
  F  F11  1  0.97655304  0.31691108  0.06232560  1
  F  F12  1  0.97251191  0.81798607  0.56122413  1
  F  F13  1  0.52748809  0.93201393  0.18877587  1
  F  F14  1  0.92506251  0.03824754  0.28668225  1
  F  F15  1  0.92130893  0.34010334  0.58800071  1
  F  F16  1  0.92092987  0.53944609  0.78684542  1
  F  F17  1  0.57869107  0.40989666  0.16199929  1
  F  F18  1  0.57574168  0.91354979  0.66153724  1
  F  F19  1  0.57493749  0.71175246  0.46331775  1
  F  F20  1  0.47558889  0.56244509  0.31196746  1
  F  F21  1  0.52344696  0.43308892  0.68767440  1
  F  F22  1  0.42449231  0.09075990  0.33728345  1
  F  F23  1  0.43825145  0.28022743  0.54207928  1
  F  F24  1  0.42423819  0.59088539  0.83781166  1
  F  F25  1  0.57907013  0.21055391  0.96315458  1
  F  F26  1  0.07550769  0.65924010  0.41271655  1
  F  F27  1  0.06174855  0.46977257  0.20792072  1
  F  F28  1  0.47607635  0.06335212  0.81252964  1
  F  F29  1  0.02392365  0.68664788  0.93747036  1
  F  F30  1  0.02441111  0.18755491  0.43803254  1
  F  F31  1  0.07576181  0.15911461  0.91218834  1
