# generated using pymatgen
data_CuSb3(PO4)6
_symmetry_space_group_name_H-M   'P 1'
_cell_length_a   8.87639079
_cell_length_b   8.87639056
_cell_length_c   8.87639132
_cell_angle_alpha   57.96477215
_cell_angle_beta   57.96477397
_cell_angle_gamma   57.96476946
_symmetry_Int_Tables_number   1
_chemical_formula_structural   CuSb3(PO4)6
_chemical_formula_sum   'Cu1 Sb3 P6 O24'
_cell_volume   471.43984571
_cell_formula_units_Z   1
loop_
 _symmetry_equiv_pos_site_id
 _symmetry_equiv_pos_as_xyz
  1  'x, y, z'
loop_
 _atom_site_type_symbol
 _atom_site_label
 _atom_site_symmetry_multiplicity
 _atom_site_fract_x
 _atom_site_fract_y
 _atom_site_fract_z
 _atom_site_occupancy
  Cu  Cu0  1  0.85518699  0.85518699  0.85518699  1
  Sb  Sb1  1  0.14314497  0.14314497  0.14314497  1
  Sb  Sb2  1  0.35649984  0.35649984  0.35649984  1
  Sb  Sb3  1  0.64337540  0.64337540  0.64337540  1
  P  P4  1  0.03602247  0.75156075  0.46769656  1
  P  P5  1  0.46769656  0.03602247  0.75156075  1
  P  P6  1  0.75156075  0.46769656  0.03602247  1
  P  P7  1  0.24453639  0.54314738  0.96059016  1
  P  P8  1  0.54314738  0.96059016  0.24453639  1
  P  P9  1  0.96059016  0.24453639  0.54314738  1
  O  O10  1  0.13270808  0.27670631  0.51277767  1
  O  O11  1  0.27670631  0.51277767  0.13270808  1
  O  O12  1  0.05921394  0.92397092  0.27994255  1
  O  O13  1  0.51277767  0.13270808  0.27670631  1
  O  O14  1  0.21851531  0.57593349  0.43962241  1
  O  O15  1  0.01421270  0.77447423  0.63482167  1
  O  O16  1  0.27994255  0.05921394  0.92397092  1
  O  O17  1  0.43962241  0.21851531  0.57593349  1
  O  O18  1  0.57593349  0.43962241  0.21851531  1
  O  O19  1  0.22806454  0.36417349  0.98588179  1
  O  O20  1  0.07353097  0.71996491  0.94238496  1
  O  O21  1  0.36417349  0.98588179  0.22806454  1
  O  O22  1  0.63482167  0.01421270  0.77447423  1
  O  O23  1  0.92397092  0.27994255  0.05921394  1
  O  O24  1  0.77447423  0.63482167  0.01421270  1
  O  O25  1  0.42667954  0.55620256  0.78219994  1
  O  O26  1  0.55620256  0.78219994  0.42667954  1
  O  O27  1  0.71996491  0.94238496  0.07353097  1
  O  O28  1  0.98588179  0.22806454  0.36417349  1
  O  O29  1  0.78219994  0.42667954  0.55620256  1
  O  O30  1  0.48416393  0.86708750  0.72500469  1
  O  O31  1  0.94238496  0.07353097  0.71996491  1
  O  O32  1  0.72500469  0.48416393  0.86708750  1
  O  O33  1  0.86708750  0.72500469  0.48416393  1
