# generated using pymatgen
data_Li2MnFe(BO3)2
_symmetry_space_group_name_H-M   'P 1'
_cell_length_a   5.23554732
_cell_length_b   5.23554707
_cell_length_c   10.45933285
_cell_angle_alpha   89.33558329
_cell_angle_beta   90.66441390
_cell_angle_gamma   60.20728867
_symmetry_Int_Tables_number   1
_chemical_formula_structural   Li2MnFe(BO3)2
_chemical_formula_sum   'Li4 Mn2 Fe2 B4 O12'
_cell_volume   248.74023191
_cell_formula_units_Z   2
loop_
 _symmetry_equiv_pos_site_id
 _symmetry_equiv_pos_as_xyz
  1  'x, y, z'
loop_
 _atom_site_type_symbol
 _atom_site_label
 _atom_site_symmetry_multiplicity
 _atom_site_fract_x
 _atom_site_fract_y
 _atom_site_fract_z
 _atom_site_occupancy
  Li  Li0  1  0.32178671  0.65233955  0.33182056  1
  Li  Li1  1  0.34766045  0.67821329  0.83182056  1
  Li  Li2  1  0.65330432  0.33744022  0.58387325  1
  Li  Li3  1  0.66255978  0.34669568  0.08387325  1
  Mn  Mn4  1  0.32782524  0.00611032  0.11621167  1
  Mn  Mn5  1  0.99388968  0.67217476  0.61621167  1
  Fe  Fe6  1  0.68208026  0.00435523  0.86779558  1
  Fe  Fe7  1  0.99564477  0.31791974  0.36779558  1
  B  B8  1  0.00232938  0.33940673  0.87360438  1
  B  B9  1  0.33438560  0.00474838  0.62458963  1
  B  B10  1  0.66059327  0.99767062  0.37360438  1
  B  B11  1  0.99525162  0.66561440  0.12458963  1
  O  O12  1  0.07095260  0.24672768  0.58124378  1
  O  O13  1  0.25781972  0.07099082  0.90154698  1
  O  O14  1  0.02190059  0.58426659  0.83512702  1
  O  O15  1  0.57647871  0.03859036  0.65569014  1
  O  O16  1  0.26901895  0.64186768  0.13895231  1
  O  O17  1  0.35813232  0.73098105  0.63895231  1
  O  O18  1  0.63942769  0.27106721  0.38764472  1
  O  O19  1  0.72893279  0.36057231  0.88764472  1
  O  O20  1  0.41573341  0.97809941  0.33512702  1
  O  O21  1  0.96140964  0.42352129  0.15569014  1
  O  O22  1  0.75327232  0.92904740  0.08124378  1
  O  O23  1  0.92900918  0.74218028  0.40154698  1
