# generated using pymatgen
data_Li2Ti6Zn3O16
_symmetry_space_group_name_H-M   'P 1'
_cell_length_a   8.45611331
_cell_length_b   8.46209931
_cell_length_c   8.46251578
_cell_angle_alpha   89.99991235
_cell_angle_beta   90.00030550
_cell_angle_gamma   89.55633110
_symmetry_Int_Tables_number   1
_chemical_formula_structural   Li2Ti6Zn3O16
_chemical_formula_sum   'Li4 Ti12 Zn6 O32'
_cell_volume   605.52960733
_cell_formula_units_Z   2
loop_
 _symmetry_equiv_pos_site_id
 _symmetry_equiv_pos_as_xyz
  1  'x, y, z'
loop_
 _atom_site_type_symbol
 _atom_site_label
 _atom_site_symmetry_multiplicity
 _atom_site_fract_x
 _atom_site_fract_y
 _atom_site_fract_z
 _atom_site_occupancy
  Li  Li0  1  0.50302589  0.00199141  0.49557174  1
  Li  Li1  1  0.62435192  0.62542233  0.62457073  1
  Li  Li2  1  0.87565830  0.37458475  0.12457588  1
  Li  Li3  1  0.99698593  0.99801374  0.99556888  1
  Ti  Ti4  1  0.11888835  0.63436998  0.13380052  1
  Ti  Ti5  1  0.12697560  0.35895872  0.88451253  1
  Ti  Ti6  1  0.13872241  0.11238942  0.62715726  1
  Ti  Ti7  1  0.36130140  0.88763141  0.12715845  1
  Ti  Ti8  1  0.37303732  0.64105027  0.38450387  1
  Ti  Ti9  1  0.38111631  0.36565550  0.63380051  1
  Ti  Ti10  1  0.61511530  0.88183343  0.86208371  1
  Ti  Ti11  1  0.62508711  0.12903430  0.11926382  1
  Ti  Ti12  1  0.63087598  0.37637350  0.37489398  1
  Ti  Ti13  1  0.86912598  0.62362426  0.87488653  1
  Ti  Ti14  1  0.87493283  0.87097613  0.61927841  1
  Ti  Ti15  1  0.88488192  0.11816565  0.36209225  1
  Zn  Zn16  1  0.00221123  0.49615735  0.50095921  1
  Zn  Zn17  1  0.24859450  0.74621301  0.75507596  1
  Zn  Zn18  1  0.25140607  0.25379172  0.25507481  1
  Zn  Zn19  1  0.49779272  0.50384774  0.00096502  1
  Zn  Zn20  1  0.74448490  0.75201235  0.24874675  1
  Zn  Zn21  1  0.75552023  0.24799097  0.74874354  1
  O  O22  1  0.10368845  0.14008130  0.39384927  1
  O  O23  1  0.10790399  0.89260265  0.63822190  1
  O  O24  1  0.10928975  0.61240387  0.88997650  1
  O  O25  1  0.11271544  0.14589955  0.85445877  1
  O  O26  1  0.12822166  0.38902233  0.10630148  1
  O  O27  1  0.13947564  0.36371717  0.63885532  1
  O  O28  1  0.14160282  0.61269691  0.35494684  1
  O  O29  1  0.14448912  0.85678674  0.11295136  1
  O  O30  1  0.35552754  0.14322926  0.61296215  1
  O  O31  1  0.35840236  0.38731081  0.85495079  1
  O  O32  1  0.36053540  0.63629056  0.13886268  1
  O  O33  1  0.37177908  0.61098731  0.60629508  1
  O  O34  1  0.38728818  0.85411756  0.35446096  1
  O  O35  1  0.39071468  0.38760187  0.38997620  1
  O  O36  1  0.39210557  0.10741431  0.13821401  1
  O  O37  1  0.39631511  0.85992191  0.89384798  1
  O  O38  1  0.60819395  0.37298133  0.61164826  1
  O  O39  1  0.60980526  0.60509143  0.37133210  1
  O  O40  1  0.61283384  0.89080468  0.11123703  1
  O  O41  1  0.62154831  0.35775422  0.13812381  1
  O  O42  1  0.63826935  0.10916131  0.89455953  1
  O  O43  1  0.64069299  0.14317991  0.35931031  1
  O  O44  1  0.64081093  0.87701433  0.64439742  1
  O  O45  1  0.64419873  0.63828732  0.87817575  1
  O  O46  1  0.85580455  0.36171311  0.37817991  1
  O  O47  1  0.85919895  0.12298546  0.14440455  1
  O  O48  1  0.85931393  0.85682452  0.85930771  1
  O  O49  1  0.86173558  0.89084297  0.39456534  1
  O  O50  1  0.87846461  0.64224915  0.63812649  1
  O  O51  1  0.88717105  0.10919954  0.61123639  1
  O  O52  1  0.89019860  0.39491393  0.87133179  1
  O  O53  1  0.89181239  0.62702975  0.11164795  1
