# generated using pymatgen
data_K2CoPCO7
_symmetry_space_group_name_H-M   'P 1'
_cell_length_a   9.50697632
_cell_length_b   6.96193297
_cell_length_c   5.53644594
_cell_angle_alpha   90.00000000
_cell_angle_beta   90.59695265
_cell_angle_gamma   90.00000000
_symmetry_Int_Tables_number   1
_chemical_formula_structural   K2CoPCO7
_chemical_formula_sum   'K4 Co2 P2 C2 O14'
_cell_volume   366.42048173
_cell_formula_units_Z   2
loop_
 _symmetry_equiv_pos_site_id
 _symmetry_equiv_pos_as_xyz
  1  'x, y, z'
loop_
 _atom_site_type_symbol
 _atom_site_label
 _atom_site_symmetry_multiplicity
 _atom_site_fract_x
 _atom_site_fract_y
 _atom_site_fract_z
 _atom_site_occupancy
  K  K0  1  0.24527685  0.47944765  0.24336794  1
  K  K1  1  0.24527685  0.02055235  0.24336794  1
  K  K2  1  0.75472315  0.52055235  0.75663206  1
  K  K3  1  0.75472315  0.97944765  0.75663206  1
  Co  Co4  1  0.36329913  0.75000000  0.76942894  1
  Co  Co5  1  0.63670087  0.25000000  0.23057106  1
  P  P6  1  0.43218752  0.25000000  0.72218845  1
  P  P7  1  0.56781248  0.75000000  0.27781155  1
  C  C8  1  0.09926449  0.75000000  0.72767305  1
  C  C9  1  0.90073551  0.25000000  0.27232695  1
  O  O10  1  0.03250956  0.25000000  0.28250720  1
  O  O11  1  0.17176696  0.75000000  0.93218697  1
  O  O12  1  0.18172647  0.75000000  0.54007948  1
  O  O13  1  0.34336820  0.06675956  0.75565697  1
  O  O14  1  0.34336820  0.43324044  0.75565697  1
  O  O15  1  0.43632170  0.75000000  0.10842814  1
  O  O16  1  0.48780554  0.25000000  0.45146196  1
  O  O17  1  0.51219446  0.75000000  0.54853804  1
  O  O18  1  0.56367830  0.25000000  0.89157186  1
  O  O19  1  0.65663180  0.56675956  0.24434303  1
  O  O20  1  0.65663180  0.93324044  0.24434303  1
  O  O21  1  0.81827353  0.25000000  0.45992052  1
  O  O22  1  0.82823304  0.25000000  0.06781303  1
  O  O23  1  0.96749044  0.75000000  0.71749280  1
