# generated using pymatgen
data_Na9LiFe10(SiO3)20
_symmetry_space_group_name_H-M   'P 1'
_cell_length_a   9.80861938
_cell_length_b   11.25028260
_cell_length_c   10.38370218
_cell_angle_alpha   94.86315299
_cell_angle_beta   80.88822591
_cell_angle_gamma   81.74351023
_symmetry_Int_Tables_number   1
_chemical_formula_structural   Na9LiFe10(SiO3)20
_chemical_formula_sum   'Na9 Li1 Fe10 Si20 O60'
_cell_volume   1112.85472015
_cell_formula_units_Z   1
loop_
 _symmetry_equiv_pos_site_id
 _symmetry_equiv_pos_as_xyz
  1  'x, y, z'
loop_
 _atom_site_type_symbol
 _atom_site_label
 _atom_site_symmetry_multiplicity
 _atom_site_fract_x
 _atom_site_fract_y
 _atom_site_fract_z
 _atom_site_occupancy
  Na  Na0  1  0.00933692  0.98135093  0.71268680  1
  Na  Na1  1  0.19061499  0.61874153  0.48738140  1
  Na  Na2  1  0.20930620  0.58134147  0.91260448  1
  Na  Na3  1  0.39049989  0.21865487  0.68748335  1
  Na  Na4  1  0.60944761  0.78128013  0.31263085  1
  Na  Na5  1  0.79071255  0.41863716  0.08736364  1
  Na  Na6  1  0.59071268  0.81875995  0.88742022  1
  Na  Na7  1  0.80942873  0.38118644  0.51243172  1
  Na  Na8  1  0.99056450  0.01872531  0.28734153  1
  Li  Li9  1  0.40725398  0.18550622  0.12101723  1
  Fe  Fe10  1  0.12991189  0.74054244  0.23085206  1
  Fe  Fe11  1  0.07033700  0.85972959  0.96905575  1
  Fe  Fe12  1  0.27042769  0.45862849  0.16863963  1
  Fe  Fe13  1  0.32985886  0.34028714  0.43063037  1
  Fe  Fe14  1  0.47045630  0.05973549  0.36810535  1
  Fe  Fe15  1  0.52966742  0.94071173  0.63113054  1
  Fe  Fe16  1  0.67025600  0.65950906  0.56901623  1
  Fe  Fe17  1  0.72955794  0.54031750  0.83109991  1
  Fe  Fe18  1  0.92979551  0.14039709  0.03080158  1
  Fe  Fe19  1  0.87013276  0.25939722  0.76915549  1
  Si  Si20  1  0.07566372  0.26860580  0.27558010  1
  Si  Si21  1  0.13918492  0.14056064  0.51863633  1
  Si  Si22  1  0.06093223  0.45946560  0.68114993  1
  Si  Si23  1  0.12527081  0.33083732  0.92353006  1
  Si  Si24  1  0.26134139  0.06027215  0.88166481  1
  Si  Si25  1  0.27464153  0.86930500  0.47647894  1
  Si  Si26  1  0.32590399  0.93228438  0.12318238  1
  Si  Si27  1  0.33913731  0.74042410  0.71875145  1
  Si  Si28  1  0.46077759  0.66005410  0.08144856  1
  Si  Si29  1  0.47463959  0.46903994  0.67667059  1
  Si  Si30  1  0.52525471  0.53061106  0.32358406  1
  Si  Si31  1  0.53835640  0.33916701  0.91962589  1
  Si  Si32  1  0.66039519  0.25928054  0.28025246  1
  Si  Si33  1  0.67393273  0.06917510  0.87720261  1
  Si  Si34  1  0.72514666  0.13073034  0.52351701  1
  Si  Si35  1  0.73915747  0.94035770  0.11878391  1
  Si  Si36  1  0.87468691  0.66927194  0.07642240  1
  Si  Si37  1  0.93932687  0.54033695  0.31864883  1
  Si  Si38  1  0.86089809  0.85957072  0.48128988  1
  Si  Si39  1  0.92535454  0.73066425  0.72358950  1
  O  O40  1  0.05161995  0.17620692  0.15595389  1
  O  O41  1  0.05024059  0.19595709  0.40847511  1
  O  O42  1  0.02888517  0.71270206  0.06453120  1
  O  O43  1  0.04984933  0.18100483  0.66495907  1
  O  O44  1  0.14757274  0.42379575  0.04379681  1
  O  O45  1  0.09738831  0.57586564  0.29121495  1
  O  O46  1  0.10337980  0.02398737  0.90886693  1
  O  O47  1  0.04752973  0.60940770  0.70171134  1
  O  O48  1  0.15018620  0.41886213  0.53462022  1
  O  O49  1  0.23179185  0.30925145  0.26117247  1
  O  O50  1  0.17195945  0.88796228  0.13564034  1
  O  O51  1  0.15012747  0.40434029  0.79118601  1
  O  O52  1  0.34920183  0.02718338  0.24141406  1
  O  O53  1  0.15261746  0.99059715  0.49788934  1
  O  O54  1  0.29732330  0.17615153  0.49115012  1
  O  O55  1  0.30319110  0.62353488  0.10864184  1
  O  O56  1  0.24731962  0.21000649  0.90143421  1
  O  O57  1  0.25206643  0.77662369  0.35611686  1
  O  O58  1  0.35016504  0.01899285  0.73515848  1
  O  O59  1  0.24989915  0.79577615  0.60871450  1
  O  O60  1  0.37099864  0.48723991  0.33561808  1
  O  O61  1  0.35096498  0.00676887  0.99198306  1
  O  O62  1  0.24999330  0.78102559  0.86514664  1
  O  O63  1  0.44881097  0.37683041  0.06655337  1
  O  O64  1  0.35257655  0.59040207  0.69818519  1
  O  O65  1  0.50189677  0.22341326  0.30412585  1
  O  O66  1  0.44718253  0.81013375  0.10218217  1
  O  O67  1  0.45209571  0.37636667  0.55612153  1
  O  O68  1  0.44991122  0.39555679  0.80924536  1
  O  O69  1  0.42865005  0.91281842  0.46387720  1
  O  O70  1  0.57095721  0.08750327  0.53537731  1
  O  O71  1  0.54999591  0.60413266  0.19125818  1
  O  O72  1  0.54793781  0.62335467  0.44377987  1
  O  O73  1  0.55086995  0.18953090  0.90059067  1
  O  O74  1  0.49713740  0.77599195  0.69116976  1
  O  O75  1  0.64715971  0.40924123  0.30182403  1
  O  O76  1  0.55002087  0.61914880  0.93515927  1
  O  O77  1  0.75076199  0.21906301  0.13453662  1
  O  O78  1  0.65011397  0.99513904  0.00883772  1
  O  O79  1  0.62875650  0.51251391  0.66451224  1
  O  O80  1  0.74879034  0.20428474  0.39112897  1
  O  O81  1  0.65019035  0.98076205  0.26530158  1
  O  O82  1  0.74784364  0.22346888  0.64375449  1
  O  O83  1  0.75255029  0.79038433  0.09823436  1
  O  O84  1  0.69618044  0.37571707  0.89175440  1
  O  O85  1  0.70288532  0.82397768  0.50877580  1
  O  O86  1  0.84742836  0.00954268  0.50178670  1
  O  O87  1  0.65191916  0.97677982  0.75625620  1
  O  O88  1  0.84997109  0.59565159  0.20868248  1
  O  O89  1  0.82826476  0.11271827  0.86449623  1
  O  O90  1  0.77118842  0.68731013  0.73555644  1
  O  O91  1  0.84987245  0.58084339  0.46493239  1
  O  O92  1  0.95392217  0.39032380  0.29807934  1
  O  O93  1  0.89724329  0.97588720  0.09125483  1
  O  O94  1  0.90282318  0.42394107  0.70879079  1
  O  O95  1  0.85202616  0.57654782  0.95615759  1
  O  O96  1  0.95024124  0.81896841  0.33491867  1
  O  O97  1  0.97110241  0.28749274  0.93543219  1
  O  O98  1  0.95012658  0.80418884  0.59128660  1
  O  O99  1  0.94804074  0.82337336  0.84382930  1
