# generated using pymatgen
data_V2OF5
_symmetry_space_group_name_H-M   'P 1'
_cell_length_a   5.30700610
_cell_length_b   5.43639196
_cell_length_c   17.46092170
_cell_angle_alpha   91.53793259
_cell_angle_beta   98.48260473
_cell_angle_gamma   60.83245257
_symmetry_Int_Tables_number   1
_chemical_formula_structural   V2OF5
_chemical_formula_sum   'V8 O4 F20'
_cell_volume   434.48182735
_cell_formula_units_Z   4
loop_
 _symmetry_equiv_pos_site_id
 _symmetry_equiv_pos_as_xyz
  1  'x, y, z'
loop_
 _atom_site_type_symbol
 _atom_site_label
 _atom_site_symmetry_multiplicity
 _atom_site_fract_x
 _atom_site_fract_y
 _atom_site_fract_z
 _atom_site_occupancy
  V  V0  1  0.75318161  0.62713066  0.12463408  1
  V  V1  1  0.76634389  0.09128585  0.62110544  1
  V  V2  1  0.49979675  0.27473404  0.25456970  1
  V  V3  1  0.49333341  0.73192097  0.75560668  1
  V  V4  1  0.25526290  0.86803829  0.37350192  1
  V  V5  1  0.25125665  0.38645789  0.87461017  1
  V  V6  1  0.00017945  0.03273908  0.00488881  1
  V  V7  1  0.00117357  0.49905418  0.50154899  1
  O  O8  1  0.95250243  0.31023789  0.05894936  1
  O  O9  1  0.94160739  0.81567874  0.56745294  1
  O  O10  1  0.45100314  0.54943168  0.30893669  1
  O  O11  1  0.41760156  0.58694902  0.82695814  1
  F  F12  1  0.92859500  0.83665543  0.08595319  1
  F  F13  1  0.53791550  0.94963306  0.18960311  1
  F  F14  1  0.92390555  0.04603941  0.28750842  1
  F  F15  1  0.92837186  0.31979465  0.58573523  1
  F  F16  1  0.91934968  0.53944463  0.78910771  1
  F  F17  1  0.42242024  0.79952891  0.03804690  1
  F  F18  1  0.57297369  0.41972660  0.16307151  1
  F  F19  1  0.57411438  0.91587413  0.66971867  1
  F  F20  1  0.57613720  0.70048924  0.46068520  1
  F  F21  1  0.54052651  0.43404021  0.68237020  1
  F  F22  1  0.43443521  0.07589819  0.33591481  1
  F  F23  1  0.42456365  0.28493001  0.53911084  1
  F  F24  1  0.58084866  0.20817659  0.96027037  1
  F  F25  1  0.06978531  0.66913379  0.41434575  1
  F  F26  1  0.07903240  0.45144491  0.21065112  1
  F  F27  1  0.07723220  0.96674888  0.71101229  1
  F  F28  1  0.47159177  0.05860701  0.81345859  1
  F  F29  1  0.03904607  0.69969204  0.94020149  1
  F  F30  1  0.03582315  0.18542789  0.43668083  1
  F  F31  1  0.08008723  0.16505512  0.91379288  1
