# generated using pymatgen
data_V4OF11
_symmetry_space_group_name_H-M   'P 1'
_cell_length_a   5.25705175
_cell_length_b   5.46528332
_cell_length_c   17.53990838
_cell_angle_alpha   91.04857988
_cell_angle_beta   98.63572008
_cell_angle_gamma   61.24050861
_symmetry_Int_Tables_number   1
_chemical_formula_structural   V4OF11
_chemical_formula_sum   'V8 O2 F22'
_cell_volume   435.92573638
_cell_formula_units_Z   2
loop_
 _symmetry_equiv_pos_site_id
 _symmetry_equiv_pos_as_xyz
  1  'x, y, z'
loop_
 _atom_site_type_symbol
 _atom_site_label
 _atom_site_symmetry_multiplicity
 _atom_site_fract_x
 _atom_site_fract_y
 _atom_site_fract_z
 _atom_site_occupancy
  V  V0  1  0.72188379  0.63751070  0.11801430  1
  V  V1  1  0.75531622  0.12996602  0.62360881  1
  V  V2  1  0.48787291  0.25152461  0.24916583  1
  V  V3  1  0.50596260  0.75177270  0.74980303  1
  V  V4  1  0.24087378  0.87201556  0.37568656  1
  V  V5  1  0.25880985  0.37265872  0.87527753  1
  V  V6  1  0.01294553  0.99374695  0.00147880  1
  V  V7  1  0.99156776  0.48569540  0.50682879  1
  O  O8  1  0.91747380  0.33706892  0.57835177  1
  O  O9  1  0.43084068  0.78517540  0.04617117  1
  F  F10  1  0.92152867  0.83836585  0.08875167  1
  F  F11  1  0.97497387  0.31853943  0.06168022  1
  F  F12  1  0.98314482  0.80149537  0.56406401  1
  F  F13  1  0.52811587  0.92806851  0.18931577  1
  F  F14  1  0.91604719  0.03723893  0.28829361  1
  F  F15  1  0.93157650  0.53441435  0.78700514  1
  F  F16  1  0.57863887  0.40733302  0.16254921  1
  F  F17  1  0.58214118  0.91670599  0.66242872  1
  F  F18  1  0.57503784  0.71726087  0.46211645  1
  F  F19  1  0.46348237  0.56225952  0.31245331  1
  F  F20  1  0.52757924  0.44116579  0.68691304  1
  F  F21  1  0.41585363  0.08657083  0.33646191  1
  F  F22  1  0.42048118  0.28080386  0.53658437  1
  F  F23  1  0.42902356  0.59000472  0.83818315  1
  F  F24  1  0.58585214  0.20831270  0.96284086  1
  F  F25  1  0.07394355  0.65474116  0.41856194  1
  F  F26  1  0.06095444  0.46575561  0.20682697  1
  F  F27  1  0.07896168  0.96917138  0.71269278  1
  F  F28  1  0.48557335  0.06174463  0.81247452  1
  F  F29  1  0.03251588  0.68508203  0.93822378  1
  F  F30  1  0.01670353  0.19388443  0.43555784  1
  F  F31  1  0.08482773  0.15734804  0.91265714  1
