# generated using pymatgen
data_KRe4O8F13
_symmetry_space_group_name_H-M   'P 1'
_cell_length_a   5.42636600
_cell_length_b   14.36436250
_cell_length_c   5.50963670
_cell_angle_alpha   80.70681963
_cell_angle_beta   90.00000000
_cell_angle_gamma   79.11239904
_symmetry_Int_Tables_number   1
_chemical_formula_structural   KRe4O8F13
_chemical_formula_sum   'K1 Re4 O8 F13'
_cell_volume   415.98399561
_cell_formula_units_Z   1
loop_
 _symmetry_equiv_pos_site_id
 _symmetry_equiv_pos_as_xyz
  1  'x, y, z'
loop_
 _atom_site_type_symbol
 _atom_site_label
 _atom_site_symmetry_multiplicity
 _atom_site_fract_x
 _atom_site_fract_y
 _atom_site_fract_z
 _atom_site_occupancy
  K  K0  1  0.49038271  0.00000000  0.50000000  1
  Re  Re1  1  0.12654198  0.84746697  0.08419878  1
  Re  Re2  1  0.66396020  0.59844447  0.61646501  1
  Re  Re3  1  0.26240467  0.40155553  0.38353499  1
  Re  Re4  1  0.97400895  0.15253303  0.91580122  1
  O  O5  1  0.30328032  0.83765663  0.82697479  1
  O  O6  1  0.08489549  0.73225242  0.17543728  1
  O  O7  1  0.81467931  0.68421464  0.69306544  1
  O  O8  1  0.36336909  0.64172659  0.68993089  1
  O  O9  1  0.00509568  0.35827341  0.31006911  1
  O  O10  1  0.49889295  0.31578536  0.30693456  1
  O  O11  1  0.81714791  0.26774758  0.82456272  1
  O  O12  1  0.14093696  0.16234337  0.17302521  1
  F  F13  1  0.81631793  0.89590197  0.90984021  1
  F  F14  1  0.95244673  0.90343551  0.35397385  1
  F  F15  1  0.41240531  0.84295010  0.28875304  1
  F  F16  1  0.63257144  0.64122101  0.27608539  1
  F  F17  1  0.75096541  0.50507192  0.89568233  1
  F  F18  1  0.01260272  0.52108433  0.50287503  1
  F  F19  1  0.53368706  0.47891567  0.49712497  1
  F  F20  1  0.25603633  0.49492808  0.10431767  1
  F  F21  1  0.27379245  0.35877899  0.72391461  1
  F  F22  1  0.25535541  0.15704990  0.71124696  1
  F  F23  1  0.85588224  0.09656449  0.64602615  1
  F  F24  1  0.71221989  0.10409803  0.09015979  1
  F  F25  1  0.16606986  0.00000000  -0.00000000  1
