# generated using pymatgen
data_NbV3(PO4)6
_symmetry_space_group_name_H-M   'P 1'
_cell_length_a   8.80344774
_cell_length_b   8.80344783
_cell_length_c   8.80344789
_cell_angle_alpha   58.63746456
_cell_angle_beta   58.63746706
_cell_angle_gamma   58.63747001
_symmetry_Int_Tables_number   1
_chemical_formula_structural   NbV3(PO4)6
_chemical_formula_sum   'Nb1 V3 P6 O24'
_cell_volume   467.41451875
_cell_formula_units_Z   1
loop_
 _symmetry_equiv_pos_site_id
 _symmetry_equiv_pos_as_xyz
  1  'x, y, z'
loop_
 _atom_site_type_symbol
 _atom_site_label
 _atom_site_symmetry_multiplicity
 _atom_site_fract_x
 _atom_site_fract_y
 _atom_site_fract_z
 _atom_site_occupancy
  Nb  Nb0  1  0.86063819  0.86063819  0.86063819  1
  V  V1  1  0.14220719  0.14220719  0.14220719  1
  V  V2  1  0.35941441  0.35941441  0.35941441  1
  V  V3  1  0.64258283  0.64258283  0.64258283  1
  P  P4  1  0.03559320  0.74998139  0.45975567  1
  P  P5  1  0.45975567  0.03559320  0.74998139  1
  P  P6  1  0.74998139  0.45975567  0.03559320  1
  P  P7  1  0.25899524  0.52638133  0.96743173  1
  P  P8  1  0.52638133  0.96743173  0.25899524  1
  P  P9  1  0.96743173  0.25899524  0.52638133  1
  O  O10  1  0.14216873  0.28446610  0.49810194  1
  O  O11  1  0.28446610  0.49810194  0.14216873  1
  O  O12  1  0.06583317  0.92223422  0.28207709  1
  O  O13  1  0.49810194  0.14216873  0.28446610  1
  O  O14  1  0.21693110  0.57314104  0.43299913  1
  O  O15  1  0.00896825  0.77457118  0.63525111  1
  O  O16  1  0.28207709  0.06583317  0.92223422  1
  O  O17  1  0.43299913  0.21693110  0.57314104  1
  O  O18  1  0.57314104  0.43299913  0.21693110  1
  O  O19  1  0.22168694  0.36111868  0.99435484  1
  O  O20  1  0.08240281  0.70889365  0.94321046  1
  O  O21  1  0.36111868  0.99435484  0.22168694  1
  O  O22  1  0.63525111  0.00896825  0.77457118  1
  O  O23  1  0.92223422  0.28207709  0.06583317  1
  O  O24  1  0.77457118  0.63525111  0.00896825  1
  O  O25  1  0.42796361  0.55859883  0.78680400  1
  O  O26  1  0.55859883  0.78680400  0.42796361  1
  O  O27  1  0.70889365  0.94321046  0.08240281  1
  O  O28  1  0.99435484  0.22168694  0.36111868  1
  O  O29  1  0.78680400  0.42796361  0.55859883  1
  O  O30  1  0.49179406  0.86435665  0.71909322  1
  O  O31  1  0.94321046  0.08240281  0.70889365  1
  O  O32  1  0.71909322  0.49179406  0.86435665  1
  O  O33  1  0.86435665  0.71909322  0.49179406  1
