# generated using pymatgen
data_Li3Mn2Fe(BO3)3
_symmetry_space_group_name_H-M   'P 1'
_cell_length_a   8.27919399
_cell_length_b   8.27033698
_cell_length_c   6.33997618
_cell_angle_alpha   90.00000000
_cell_angle_beta   90.00000000
_cell_angle_gamma   120.14153930
_symmetry_Int_Tables_number   1
_chemical_formula_structural   Li3Mn2Fe(BO3)3
_chemical_formula_sum   'Li6 Mn4 Fe2 B6 O18'
_cell_volume   375.41216685
_cell_formula_units_Z   2
loop_
 _symmetry_equiv_pos_site_id
 _symmetry_equiv_pos_as_xyz
  1  'x, y, z'
loop_
 _atom_site_type_symbol
 _atom_site_label
 _atom_site_symmetry_multiplicity
 _atom_site_fract_x
 _atom_site_fract_y
 _atom_site_fract_z
 _atom_site_occupancy
  Li  Li0  1  0.28401699  0.98219586  0.25060053  1
  Li  Li1  1  0.28401699  0.98219586  0.74939947  1
  Li  Li2  1  0.01674618  0.30134068  0.25105021  1
  Li  Li3  1  0.01674618  0.30134068  0.74894979  1
  Li  Li4  1  0.69852483  0.71508045  0.74982051  1
  Li  Li5  1  0.69852483  0.71508045  0.25017949  1
  Mn  Mn6  1  0.37111276  0.35926460  0.00000000  1
  Mn  Mn7  1  0.37349920  0.36141352  0.50000000  1
  Mn  Mn8  1  0.64136012  0.01220700  0.00000000  1
  Mn  Mn9  1  0.98796409  0.62899621  0.00000000  1
  Fe  Fe10  1  0.64066612  0.00727623  0.50000000  1
  Fe  Fe11  1  0.99244533  0.63243006  0.50000000  1
  B  B12  1  0.00011884  0.00016923  0.00000000  1
  B  B13  1  0.99743968  0.99948860  0.50000000  1
  B  B14  1  0.33336151  0.66765943  0.25365799  1
  B  B15  1  0.33336151  0.66765943  0.74634201  1
  B  B16  1  0.66763775  0.33308971  0.25282427  1
  B  B17  1  0.66763775  0.33308971  0.74717573  1
  O  O18  1  0.10657037  0.91436725  0.50000000  1
  O  O19  1  0.11585369  0.92268668  0.00000000  1
  O  O20  1  0.13961512  0.58154055  0.25416085  1
  O  O21  1  0.13961512  0.58154055  0.74583915  1
  O  O22  1  0.07791859  0.19367755  0.00000000  1
  O  O23  1  0.08105609  0.19261723  0.50000000  1
  O  O24  1  0.44130982  0.86120885  0.25389122  1
  O  O25  1  0.44130982  0.86120885  0.74610878  1
  O  O26  1  0.41881192  0.56015401  0.25002534  1
  O  O27  1  0.41881192  0.56015401  0.74997466  1
  O  O28  1  0.47395720  0.25151354  0.25067006  1
  O  O29  1  0.47395720  0.25151354  0.74932994  1
  O  O30  1  0.80676351  0.88411643  0.00000000  1
  O  O31  1  0.80330529  0.88864680  0.50000000  1
  O  O32  1  0.77987079  0.52697892  0.25276444  1
  O  O33  1  0.77987079  0.52697892  0.74723556  1
  O  O34  1  0.74811107  0.22055780  0.74650425  1
  O  O35  1  0.74811107  0.22055780  0.25349575  1
