# generated using pymatgen
data_Zr2N2O
_symmetry_space_group_name_H-M   'P 1'
_cell_length_a   8.87927359
_cell_length_b   8.87558464
_cell_length_c   8.88080152
_cell_angle_alpha   109.60124919
_cell_angle_beta   109.44376151
_cell_angle_gamma   109.35556817
_symmetry_Int_Tables_number   1
_chemical_formula_structural   Zr2N2O
_chemical_formula_sum   'Zr16 N16 O8'
_cell_volume   538.85664899
_cell_formula_units_Z   8
loop_
 _symmetry_equiv_pos_site_id
 _symmetry_equiv_pos_as_xyz
  1  'x, y, z'
loop_
 _atom_site_type_symbol
 _atom_site_label
 _atom_site_symmetry_multiplicity
 _atom_site_fract_x
 _atom_site_fract_y
 _atom_site_fract_z
 _atom_site_occupancy
  Zr  Zr0  1  0.77721090  0.24540581  0.03318046  1
  Zr  Zr1  1  0.98934721  0.99003555  0.99665519  1
  Zr  Zr2  1  0.53565716  0.28585805  0.24434520  1
  Zr  Zr3  1  0.49095853  0.99396938  0.50249971  1
  Zr  Zr4  1  0.49178802  0.48628444  0.98979353  1
  Zr  Zr5  1  0.96197767  0.21162632  0.75045510  1
  Zr  Zr6  1  0.75216374  0.46204233  0.72125643  1
  Zr  Zr7  1  0.75754287  0.97566550  0.21079537  1
  Zr  Zr8  1  0.71384556  0.75169648  0.46843658  1
  Zr  Zr9  1  0.28490501  0.25489106  0.54138198  1
  Zr  Zr10  1  0.26330203  0.54250141  0.29040651  1
  Zr  Zr11  1  0.24675216  0.03297880  0.77899703  1
  Zr  Zr12  1  0.01257960  0.50042091  0.50947213  1
  Zr  Zr13  1  0.46257355  0.71241838  0.74560576  1
  Zr  Zr14  1  0.04112092  0.79114722  0.25001665  1
  Zr  Zr15  1  0.20562994  0.74102218  0.95865668  1
  N  N16  1  0.76160314  0.22855296  0.27604511  1
  N  N17  1  0.45624447  0.48836647  0.22872139  1
  N  N18  1  0.03218888  0.04360493  0.27092980  1
  N  N19  1  0.72844960  0.23894324  0.77127538  1
  N  N20  1  0.96464083  0.95371370  0.72726178  1
  N  N21  1  0.22461018  0.45460062  0.48417623  1
  N  N22  1  0.53301250  0.26118156  0.98905658  1
  N  N23  1  0.27449300  0.76274005  0.22771921  1
  N  N24  1  0.54575125  0.51054117  0.77386721  1
  N  N25  1  0.95753619  0.73003916  0.96442380  1
  N  N26  1  0.51567499  0.77703387  0.54746619  1
  N  N27  1  0.22706979  0.27717333  0.76372024  1
  N  N28  1  0.01155254  0.46512167  0.73625943  1
  N  N29  1  0.72920715  0.96823040  0.95522117  1
  N  N30  1  0.26386960  0.99096095  0.53399663  1
  N  N31  1  0.23898912  0.77276470  0.73123043  1
  O  O32  1  0.73879099  0.00759304  0.46391637  1
  O  O33  1  0.27531616  0.03963444  0.05193989  1
  O  O34  1  0.98403679  0.53420297  0.25794913  1
  O  O35  1  0.49089462  0.22739376  0.45167244  1
  O  O36  1  0.77364673  0.72959132  0.24231999  1
  O  O37  1  0.04553594  0.27540214  0.03449379  1
  O  O38  1  0.76894144  0.54326474  0.50848673  1
  O  O39  1  0.47058823  0.74138299  0.01589677  1
