# generated using pymatgen
data_V4(OF3)3
_symmetry_space_group_name_H-M   'P 1'
_cell_length_a   5.22062414
_cell_length_b   5.41375176
_cell_length_c   17.54049578
_cell_angle_alpha   90.18353921
_cell_angle_beta   98.51470541
_cell_angle_gamma   61.24821834
_symmetry_Int_Tables_number   1
_chemical_formula_structural   V4(OF3)3
_chemical_formula_sum   'V8 O6 F18'
_cell_volume   428.51460068
_cell_formula_units_Z   2
loop_
 _symmetry_equiv_pos_site_id
 _symmetry_equiv_pos_as_xyz
  1  'x, y, z'
loop_
 _atom_site_type_symbol
 _atom_site_label
 _atom_site_symmetry_multiplicity
 _atom_site_fract_x
 _atom_site_fract_y
 _atom_site_fract_z
 _atom_site_occupancy
  V  V0  1  0.74965329  0.62439116  0.12495153  1
  V  V1  1  0.78317200  0.11786889  0.63011968  1
  V  V2  1  0.45716657  0.26126437  0.24943000  1
  V  V3  1  0.49038967  0.75444846  0.75021306  1
  V  V4  1  0.25239316  0.88954013  0.37281150  1
  V  V5  1  0.26881238  0.39167430  0.87297771  1
  V  V6  1  0.03798936  0.98628684  0.00153324  1
  V  V7  1  0.00115150  0.48782109  0.50711562  1
  O  O8  1  0.92128332  0.34234737  0.57896932  1
  O  O9  1  0.39734597  0.80231593  0.04087919  1
  O  O10  1  0.39315089  0.07214723  0.33280570  1
  O  O11  1  0.40196797  0.58062097  0.83328554  1
  O  O12  1  0.10003060  0.44884611  0.20830335  1
  O  O13  1  0.07755433  0.97229207  0.70319613  1
  F  F14  1  0.90981392  0.84864728  0.08494069  1
  F  F15  1  0.95975950  0.32339102  0.05867545  1
  F  F16  1  0.97234208  0.81757617  0.56062647  1
  F  F17  1  0.53588913  0.92902346  0.18906133  1
  F  F18  1  0.89835499  0.03275868  0.29226181  1
  F  F19  1  0.91675564  0.53290504  0.79108710  1
  F  F20  1  0.59218754  0.40113814  0.16627161  1
  F  F21  1  0.59177440  0.90935674  0.66328350  1
  F  F22  1  0.57623300  0.71916694  0.46114527  1
  F  F23  1  0.46419596  0.55135506  0.31617353  1
  F  F24  1  0.53153366  0.43444578  0.68608755  1
  F  F25  1  0.43246086  0.28610164  0.54185904  1
  F  F26  1  0.58939133  0.20461279  0.96067170  1
  F  F27  1  0.08342045  0.66655779  0.41923056  1
  F  F28  1  0.47528121  0.05864835  0.81487603  1
  F  F29  1  0.03109598  0.68678734  0.93805945  1
  F  F30  1  0.02425169  0.19425372  0.43658081  1
  F  F31  1  0.08319864  0.17141210  0.91251952  1
