# generated using pymatgen
data_Tb2WO6
_symmetry_space_group_name_H-M   'P 1'
_cell_length_a   16.21430524
_cell_length_b   10.67103985
_cell_length_c   5.63301184
_cell_angle_alpha   90.00000000
_cell_angle_beta   90.00000000
_cell_angle_gamma   90.00000000
_symmetry_Int_Tables_number   1
_chemical_formula_structural   Tb2WO6
_chemical_formula_sum   'Tb16 W8 O48'
_cell_volume   974.64340921
_cell_formula_units_Z   8
loop_
 _symmetry_equiv_pos_site_id
 _symmetry_equiv_pos_as_xyz
  1  'x, y, z'
loop_
 _atom_site_type_symbol
 _atom_site_label
 _atom_site_symmetry_multiplicity
 _atom_site_fract_x
 _atom_site_fract_y
 _atom_site_fract_z
 _atom_site_occupancy
  Tb  Tb0  1  0.06184801  0.35811586  0.10124230  1
  Tb  Tb1  1  0.06184801  0.14188414  0.60124230  1
  Tb  Tb2  1  0.23054896  0.14517081  0.05102583  1
  Tb  Tb3  1  0.23054896  0.35482919  0.55102583  1
  Tb  Tb4  1  0.26945104  0.64517081  0.05102583  1
  Tb  Tb5  1  0.26945104  0.85482919  0.55102583  1
  Tb  Tb6  1  0.43815199  0.64188414  0.60124230  1
  Tb  Tb7  1  0.43815199  0.85811586  0.10124230  1
  Tb  Tb8  1  0.56184801  0.14188414  0.89875770  1
  Tb  Tb9  1  0.56184801  0.35811586  0.39875770  1
  Tb  Tb10  1  0.73054896  0.14517081  0.44897417  1
  Tb  Tb11  1  0.73054896  0.35482919  0.94897417  1
  Tb  Tb12  1  0.76945104  0.64517081  0.44897417  1
  Tb  Tb13  1  0.76945104  0.85482919  0.94897417  1
  Tb  Tb14  1  0.93815199  0.64188414  0.89875770  1
  Tb  Tb15  1  0.93815199  0.85811586  0.39875770  1
  W  W16  1  0.11987417  0.62093247  0.61059081  1
  W  W17  1  0.11987417  0.87906753  0.11059081  1
  W  W18  1  0.38012583  0.12093247  0.61059081  1
  W  W19  1  0.38012583  0.37906753  0.11059081  1
  W  W20  1  0.61987417  0.62093247  0.88940919  1
  W  W21  1  0.61987417  0.87906753  0.38940919  1
  W  W22  1  0.88012583  0.12093247  0.88940919  1
  W  W23  1  0.88012583  0.37906753  0.38940919  1
  O  O24  1  0.02225450  0.78447407  0.08070613  1
  O  O25  1  0.02225450  0.71552593  0.58070613  1
  O  O26  1  0.07234655  0.54150714  0.87709380  1
  O  O27  1  0.07234655  0.95849286  0.37709380  1
  O  O28  1  0.10686833  0.01120585  0.90578447  1
  O  O29  1  0.10686833  0.48879515  0.40578447  1
  O  O30  1  0.14654907  0.23003765  0.32436828  1
  O  O31  1  0.14654907  0.26996235  0.82436828  1
  O  O32  1  0.17071137  0.73112247  0.34124251  1
  O  O33  1  0.17071137  0.76887753  0.84124251  1
  O  O34  1  0.23097794  0.94070878  0.18345268  1
  O  O35  1  0.23097794  0.55929122  0.68345268  1
  O  O36  1  0.26902206  0.05929122  0.68345268  1
  O  O37  1  0.26902206  0.44070878  0.18345268  1
  O  O38  1  0.32928863  0.23112247  0.34124251  1
  O  O39  1  0.32928863  0.26887753  0.84124251  1
  O  O40  1  0.35345093  0.73003765  0.32436828  1
  O  O41  1  0.35345093  0.76996235  0.82436828  1
  O  O42  1  0.39313167  0.51120485  0.90578447  1
  O  O43  1  0.39313167  0.98879515  0.40578447  1
  O  O44  1  0.42765345  0.04150714  0.87709380  1
  O  O45  1  0.42765345  0.45849286  0.37709380  1
  O  O46  1  0.47774550  0.21552593  0.58070613  1
  O  O47  1  0.47774550  0.28447407  0.08070613  1
  O  O48  1  0.52225450  0.71552593  0.91929387  1
  O  O49  1  0.52225450  0.78447407  0.41929387  1
  O  O50  1  0.57234655  0.54150714  0.62290620  1
  O  O51  1  0.57234655  0.95849286  0.12290620  1
  O  O52  1  0.60686833  0.01120585  0.59421553  1
  O  O53  1  0.60686833  0.48879515  0.09421553  1
  O  O54  1  0.64654907  0.23003765  0.17563172  1
  O  O55  1  0.64654907  0.26996235  0.67563172  1
  O  O56  1  0.67071137  0.73112247  0.15875749  1
  O  O57  1  0.67071137  0.76887753  0.65875749  1
  O  O58  1  0.73097794  0.55929122  0.81654732  1
  O  O59  1  0.73097794  0.94070878  0.31654732  1
  O  O60  1  0.76902206  0.05929122  0.81654732  1
  O  O61  1  0.76902206  0.44070878  0.31654732  1
  O  O62  1  0.82928863  0.23112247  0.15875749  1
  O  O63  1  0.82928863  0.26887753  0.65875749  1
  O  O64  1  0.85345093  0.73003765  0.17563172  1
  O  O65  1  0.85345093  0.76996235  0.67563172  1
  O  O66  1  0.89313167  0.51120485  0.59421553  1
  O  O67  1  0.89313167  0.98879515  0.09421553  1
  O  O68  1  0.92765345  0.04150714  0.62290620  1
  O  O69  1  0.92765345  0.45849286  0.12290620  1
  O  O70  1  0.97774550  0.21552593  0.91929387  1
  O  O71  1  0.97774550  0.28447407  0.41929387  1
