# generated using pymatgen
data_Li6Mn5Fe(BO3)6
_symmetry_space_group_name_H-M   'P 1'
_cell_length_a   8.27155302
_cell_length_b   14.33027314
_cell_length_c   3.18374013
_cell_angle_alpha   90.00000000
_cell_angle_beta   90.00000000
_cell_angle_gamma   90.09913367
_symmetry_Int_Tables_number   1
_chemical_formula_structural   Li6Mn5Fe(BO3)6
_chemical_formula_sum   'Li6 Mn5 Fe1 B6 O18'
_cell_volume   377.37965895
_cell_formula_units_Z   1
loop_
 _symmetry_equiv_pos_site_id
 _symmetry_equiv_pos_as_xyz
  1  'x, y, z'
loop_
 _atom_site_type_symbol
 _atom_site_label
 _atom_site_symmetry_multiplicity
 _atom_site_fract_x
 _atom_site_fract_y
 _atom_site_fract_z
 _atom_site_occupancy
  Li  Li0  1  0.29262953  0.99036691  0.50000000  1
  Li  Li1  1  0.34060665  0.35820845  0.50000000  1
  Li  Li2  1  0.36645539  0.65102477  0.50000000  1
  Li  Li3  1  0.79292808  0.49177244  0.50000000  1
  Li  Li4  1  0.84146848  0.85731266  0.50000000  1
  Li  Li5  1  0.86713562  0.15043237  0.50000000  1
  Mn  Mn6  1  0.13498402  0.50627407  0.00000000  1
  Mn  Mn7  1  0.19199483  0.17997014  0.00000000  1
  Mn  Mn8  1  0.63407572  0.00558245  0.00000000  1
  Mn  Mn9  1  0.67359746  0.31469476  0.00000000  1
  Mn  Mn10  1  0.69158951  0.67979251  0.00000000  1
  Fe  Fe11  1  0.17526568  0.81672770  0.00000000  1
  B  B12  1  0.00170681  0.66776267  0.50000000  1
  B  B13  1  0.99956276  0.99900251  0.00000000  1
  B  B14  1  0.00001963  0.33337032  0.50000000  1
  B  B15  1  0.49992971  0.16647475  0.50000000  1
  B  B16  1  0.49996057  0.50010888  0.00000000  1
  B  B17  1  0.49782739  0.83325606  0.50000000  1
  O  O18  1  0.01054588  0.43001875  0.50000000  1
  O  O19  1  0.01815476  0.76430351  0.50000000  1
  O  O20  1  0.13863649  0.61113061  0.50000000  1
  O  O21  1  0.13987281  0.27971011  0.50000000  1
  O  O22  1  0.15340279  0.95839956  0.00000000  1
  O  O23  1  0.34742008  0.12490758  0.50000000  1
  O  O24  1  0.34637937  0.79087460  0.50000000  1
  O  O25  1  0.36422095  0.44219547  0.00000000  1
  O  O26  1  0.48118328  0.59678592  0.00000000  1
  O  O27  1  0.50992222  0.92997512  0.50000000  1
  O  O28  1  0.51379856  0.26332435  0.50000000  1
  O  O29  1  0.63816907  0.11117055  0.50000000  1
  O  O30  1  0.63740760  0.77944583  0.50000000  1
  O  O31  1  0.65457793  0.46119222  0.00000000  1
  O  O32  1  0.84858372  0.62658691  0.50000000  1
  O  O33  1  0.84963149  0.29003938  0.50000000  1
  O  O34  1  0.86326244  0.94204356  0.00000000  1
  O  O35  1  0.98309173  0.09576256  0.00000000  1
