# generated using pymatgen
data_Li2Mn3FeO8
_symmetry_space_group_name_H-M   'P 1'
_cell_length_a   8.33734069
_cell_length_b   8.53667282
_cell_length_c   8.33834282
_cell_angle_alpha   89.99101312
_cell_angle_beta   90.00060899
_cell_angle_gamma   89.99616344
_symmetry_Int_Tables_number   1
_chemical_formula_structural   Li2Mn3FeO8
_chemical_formula_sum   'Li8 Mn12 Fe4 O32'
_cell_volume   593.46611291
_cell_formula_units_Z   4
loop_
 _symmetry_equiv_pos_site_id
 _symmetry_equiv_pos_as_xyz
  1  'x, y, z'
loop_
 _atom_site_type_symbol
 _atom_site_label
 _atom_site_symmetry_multiplicity
 _atom_site_fract_x
 _atom_site_fract_y
 _atom_site_fract_z
 _atom_site_occupancy
  Li  Li0  1  0.00231055  0.00459325  0.00240053  1
  Li  Li1  1  0.24766990  0.24533514  0.24817601  1
  Li  Li2  1  0.25233273  0.75459854  0.74802714  1
  Li  Li3  1  0.49770245  0.99556429  0.50224660  1
  Li  Li4  1  0.50208005  0.49539310  0.99757282  1
  Li  Li5  1  0.74760457  0.25480862  0.75184504  1
  Li  Li6  1  0.75251101  0.74540466  0.25199121  1
  Li  Li7  1  0.99783107  0.50431111  0.49783305  1
  Mn  Mn8  1  0.12263497  0.12333390  0.62667850  1
  Mn  Mn9  1  0.12315962  0.37309127  0.87199548  1
  Mn  Mn10  1  0.12829297  0.62481576  0.12157559  1
  Mn  Mn11  1  0.37164374  0.37523754  0.62163186  1
  Mn  Mn12  1  0.37691192  0.62695419  0.37207893  1
  Mn  Mn13  1  0.37743749  0.87657063  0.12658313  1
  Mn  Mn14  1  0.62240043  0.37662708  0.37324950  1
  Mn  Mn15  1  0.62312076  0.12671547  0.12791204  1
  Mn  Mn16  1  0.62824549  0.87524476  0.87841486  1
  Mn  Mn17  1  0.87174195  0.12470137  0.37842721  1
  Mn  Mn18  1  0.87682790  0.87325093  0.62795966  1
  Mn  Mn19  1  0.87761184  0.62358505  0.87354150  1
  Fe  Fe20  1  0.12365957  0.87500382  0.37363996  1
  Fe  Fe21  1  0.37640674  0.12476622  0.87336003  1
  Fe  Fe22  1  0.62364137  0.62508891  0.62650108  1
  Fe  Fe23  1  0.87646964  0.37507044  0.12655102  1
  O  O24  1  0.10910954  0.11453299  0.39421082  1
  O  O25  1  0.10849766  0.89555707  0.62212498  1
  O  O26  1  0.11418381  0.60507529  0.88381882  1
  O  O27  1  0.12801229  0.14567742  0.85874932  1
  O  O28  1  0.11421855  0.37017554  0.10042157  1
  O  O29  1  0.13370751  0.35483231  0.63515401  1
  O  O30  1  0.14479631  0.63506572  0.35864485  1
  O  O31  1  0.15008274  0.87977328  0.13530400  1
  O  O32  1  0.34982201  0.12012800  0.63521791  1
  O  O33  1  0.35526895  0.36481551  0.85830204  1
  O  O34  1  0.36608114  0.64497624  0.13517390  1
  O  O35  1  0.38596018  0.62999939  0.60041273  1
  O  O36  1  0.37196595  0.85432413  0.35867323  1
  O  O37  1  0.38572769  0.39496031  0.38413962  1
  O  O38  1  0.39138807  0.10437330  0.12183320  1
  O  O39  1  0.39098842  0.88516537  0.89408283  1
  O  O40  1  0.60888550  0.38548141  0.60586572  1
  O  O41  1  0.60858833  0.60443034  0.37782564  1
  O  O42  1  0.61406145  0.89474222  0.11590763  1
  O  O43  1  0.62808858  0.35421191  0.14109580  1
  O  O44  1  0.61434774  0.12954123  0.89952782  1
  O  O45  1  0.63340328  0.14509050  0.36476930  1
  O  O46  1  0.64476780  0.86514252  0.64159617  1
  O  O47  1  0.65018049  0.62059190  0.86494024  1
  O  O48  1  0.84975679  0.37958635  0.36479281  1
  O  O49  1  0.85527418  0.13487839  0.14183749  1
  O  O50  1  0.86636149  0.85510221  0.86476107  1
  O  O51  1  0.88578623  0.87025724  0.39960298  1
  O  O52  1  0.87182464  0.64579287  0.64130369  1
  O  O53  1  0.88581874  0.10521832  0.61577494  1
  O  O54  1  0.89126860  0.39573275  0.87809061  1
  O  O55  1  0.89152763  0.61484092  0.10599053  1
