# generated using pymatgen
data_Li4MnFe3(BO3)4
_symmetry_space_group_name_H-M   'P 1'
_cell_length_a   5.23734731
_cell_length_b   9.05954696
_cell_length_c   10.41634205
_cell_angle_alpha   90.88259912
_cell_angle_beta   90.86354914
_cell_angle_gamma   89.93556054
_symmetry_Int_Tables_number   1
_chemical_formula_structural   Li4MnFe3(BO3)4
_chemical_formula_sum   'Li8 Mn2 Fe6 B8 O24'
_cell_volume   494.11957233
_cell_formula_units_Z   2
loop_
 _symmetry_equiv_pos_site_id
 _symmetry_equiv_pos_as_xyz
  1  'x, y, z'
loop_
 _atom_site_type_symbol
 _atom_site_label
 _atom_site_symmetry_multiplicity
 _atom_site_fract_x
 _atom_site_fract_y
 _atom_site_fract_z
 _atom_site_occupancy
  Li  Li0  1  0.84954798  0.82572895  0.66757657  1
  Li  Li1  1  0.81501083  0.83658681  0.16775470  1
  Li  Li2  1  0.67893409  0.66712700  0.41600130  1
  Li  Li3  1  0.66141310  0.67323337  0.91605911  1
  Li  Li4  1  0.34925757  0.32848076  0.66687707  1
  Li  Li5  1  0.31486647  0.33960089  0.16858730  1
  Li  Li6  1  0.18254199  0.16913409  0.41605576  1
  Li  Li7  1  0.16336166  0.17545208  0.91609120  1
  Mn  Mn8  1  0.66971305  0.00230750  0.88243798  1
  Mn  Mn9  1  0.32220195  0.99973450  0.13513037  1
  Fe  Fe10  1  0.81751362  0.50145532  0.13243877  1
  Fe  Fe11  1  0.84406176  0.16107008  0.63205796  1
  Fe  Fe12  1  0.67780020  0.33291556  0.38260087  1
  Fe  Fe13  1  0.34438460  0.65942885  0.63348237  1
  Fe  Fe14  1  0.16195975  0.83177062  0.38662202  1
  Fe  Fe15  1  0.16477117  0.49986228  0.88472602  1
  B  B16  1  0.82902338  0.17139650  0.12554778  1
  B  B17  1  0.83835766  0.49883711  0.62563853  1
  B  B18  1  0.66407083  0.00231713  0.37716568  1
  B  B19  1  0.67366872  0.33601691  0.87435223  1
  B  B20  1  0.32501897  0.66701820  0.12730745  1
  B  B21  1  0.33789298  0.99906055  0.62497020  1
  B  B22  1  0.16689194  0.50259019  0.37622536  1
  B  B23  1  0.17194278  0.83155800  0.87465253  1
  O  O24  1  0.90458013  0.51537176  0.34697751  1
  O  O25  1  0.90912632  0.82035862  0.86088298  1
  O  O26  1  0.82345200  0.21288899  0.84367753  1
  O  O27  1  0.80398290  0.12716924  0.41603019  1
  O  O28  1  0.78593798  0.86763820  0.36330536  1
  O  O29  1  0.78938273  0.46701632  0.91694058  1
  O  O30  1  0.72273618  0.63645093  0.61222689  1
  O  O31  1  0.71264652  0.03534243  0.09676854  1
  O  O32  1  0.69655529  0.37184070  0.59696682  1
  O  O33  1  0.68199540  0.29170619  0.16548212  1
  O  O34  1  0.58916365  0.67928923  0.11406280  1
  O  O35  1  0.59386697  0.98948793  0.66275762  1
  O  O36  1  0.40358562  0.01337621  0.34909098  1
  O  O37  1  0.41060466  0.32836441  0.86113097  1
  O  O38  1  0.32467388  0.70895230  0.84495159  1
  O  O39  1  0.30583993  0.62671090  0.41675362  1
  O  O40  1  0.28650413  0.36745889  0.36210298  1
  O  O41  1  0.28261260  0.96437486  0.91665882  1
  O  O42  1  0.20663036  0.53281636  0.09645408  1
  O  O43  1  0.22290942  0.13723124  0.61246583  1
  O  O44  1  0.19598567  0.87177952  0.59743784  1
  O  O45  1  0.18085112  0.78729427  0.16777454  1
  O  O46  1  0.09020198  0.18513129  0.11121973  1
  O  O47  1  0.09256749  0.48986096  0.66512195  1
