# generated using pymatgen
data_Li4MnFe3(BO3)4
_symmetry_space_group_name_H-M   'P 1'
_cell_length_a   5.23693083
_cell_length_b   9.05210478
_cell_length_c   10.40760608
_cell_angle_alpha   91.16675560
_cell_angle_beta   90.88767861
_cell_angle_gamma   89.82431410
_symmetry_Int_Tables_number   1
_chemical_formula_structural   Li4MnFe3(BO3)4
_chemical_formula_sum   'Li8 Mn2 Fe6 B8 O24'
_cell_volume   493.21177336
_cell_formula_units_Z   2
loop_
 _symmetry_equiv_pos_site_id
 _symmetry_equiv_pos_as_xyz
  1  'x, y, z'
loop_
 _atom_site_type_symbol
 _atom_site_label
 _atom_site_symmetry_multiplicity
 _atom_site_fract_x
 _atom_site_fract_y
 _atom_site_fract_z
 _atom_site_occupancy
  Li  Li0  1  0.84871990  0.82540400  0.66939878  1
  Li  Li1  1  0.81544936  0.83705456  0.16578779  1
  Li  Li2  1  0.67923861  0.66882626  0.41591860  1
  Li  Li3  1  0.66416783  0.67576135  0.91652941  1
  Li  Li4  1  0.35016020  0.32682562  0.66580878  1
  Li  Li5  1  0.31291357  0.33853227  0.16899155  1
  Li  Li6  1  0.18117468  0.16957591  0.41673660  1
  Li  Li7  1  0.16494656  0.17363391  0.91704224  1
  Mn  Mn8  1  0.32551277  0.00088039  0.13461795  1
  Mn  Mn9  1  0.16789475  0.50247612  0.88436431  1
  Fe  Fe10  1  0.81482899  0.49996839  0.13299297  1
  Fe  Fe11  1  0.84409614  0.16019136  0.63191384  1
  Fe  Fe12  1  0.67953934  0.33355267  0.38252289  1
  Fe  Fe13  1  0.66178137  0.00817101  0.87926780  1
  Fe  Fe14  1  0.34509758  0.66002710  0.63157482  1
  Fe  Fe15  1  0.16222997  0.83386323  0.38521475  1
  B  B16  1  0.82836528  0.16993927  0.12467142  1
  B  B17  1  0.83967013  0.49783744  0.62536082  1
  B  B18  1  0.66405444  0.00300608  0.37746507  1
  B  B19  1  0.67075239  0.33227745  0.87548892  1
  B  B20  1  0.32491736  0.66745215  0.12907695  1
  B  B21  1  0.33659686  0.99827609  0.62519651  1
  B  B22  1  0.16695164  0.50301043  0.37626766  1
  B  B23  1  0.17377855  0.83494345  0.87400707  1
  O  O24  1  0.90382840  0.51610081  0.34748883  1
  O  O25  1  0.91100551  0.82762553  0.86189598  1
  O  O26  1  0.82592796  0.20928063  0.84491502  1
  O  O27  1  0.80396771  0.12727747  0.41710292  1
  O  O28  1  0.78610599  0.86748320  0.36324359  1
  O  O29  1  0.78102508  0.46467398  0.91871112  1
  O  O30  1  0.72347740  0.63580047  0.61261380  1
  O  O31  1  0.71425966  0.03349476  0.09488040  1
  O  O32  1  0.69697818  0.37078321  0.59721571  1
  O  O33  1  0.68018174  0.29018236  0.16579431  1
  O  O34  1  0.58870858  0.67907396  0.11535081  1
  O  O35  1  0.59263048  0.98827053  0.66313057  1
  O  O36  1  0.40370423  0.01479033  0.34874653  1
  O  O37  1  0.40909064  0.32029750  0.86040597  1
  O  O38  1  0.32518839  0.71119493  0.84365133  1
  O  O39  1  0.30702835  0.62750346  0.41665144  1
  O  O40  1  0.28612698  0.36735420  0.36242403  1
  O  O41  1  0.29242098  0.96605449  0.91579885  1
  O  O42  1  0.20503150  0.53319970  0.09816054  1
  O  O43  1  0.22173171  0.13601015  0.61300655  1
  O  O44  1  0.19374707  0.87073766  0.59633364  1
  O  O45  1  0.18123936  0.78926077  0.16839319  1
  O  O46  1  0.08967261  0.18464410  0.11123145  1
  O  O47  1  0.09468221  0.48802029  0.66423593  1
