# generated using pymatgen
data_Hf2N2O
_symmetry_space_group_name_H-M   'P 1'
_cell_length_a   8.74267978
_cell_length_b   8.72604012
_cell_length_c   8.74497788
_cell_angle_alpha   109.58463449
_cell_angle_beta   109.47106144
_cell_angle_gamma   109.47083676
_symmetry_Int_Tables_number   1
_chemical_formula_structural   Hf2N2O
_chemical_formula_sum   'Hf16 N16 O8'
_cell_volume   512.85162256
_cell_formula_units_Z   8
loop_
 _symmetry_equiv_pos_site_id
 _symmetry_equiv_pos_as_xyz
  1  'x, y, z'
loop_
 _atom_site_type_symbol
 _atom_site_label
 _atom_site_symmetry_multiplicity
 _atom_site_fract_x
 _atom_site_fract_y
 _atom_site_fract_z
 _atom_site_occupancy
  Hf  Hf0  1  0.50843719  0.00443750  0.99634015  1
  Hf  Hf1  1  0.95926999  0.24990680  0.21870967  1
  Hf  Hf2  1  0.78116869  0.03207509  0.75375342  1
  Hf  Hf3  1  0.70469549  0.46272092  0.24445341  1
  Hf  Hf4  1  0.74956282  0.77767378  0.03083478  1
  Hf  Hf5  1  0.75555046  0.28664659  0.53937279  1
  Hf  Hf6  1  0.53194593  0.74122804  0.28570825  1
  Hf  Hf7  1  0.99762866  0.50452278  0.98835192  1
  Hf  Hf8  1  0.49086308  0.50604437  0.50241042  1
  Hf  Hf9  1  0.46528752  0.25126238  0.71982529  1
  Hf  Hf10  1  0.00703603  0.99657050  0.50850260  1
  Hf  Hf11  1  0.25503433  0.71878905  0.46809655  1
  Hf  Hf12  1  0.25238967  0.21849363  0.95978481  1
  Hf  Hf13  1  0.21549448  0.95521903  0.25093693  1
  Hf  Hf14  1  0.28268635  0.53314564  0.74349475  1
  Hf  Hf15  1  0.03971991  0.75391994  0.78629754  1
  N  N16  1  0.74092075  0.22875770  0.27630910  1
  N  N17  1  0.77380003  0.72719034  0.25997444  1
  N  N18  1  0.45339269  0.46333560  0.22907270  1
  N  N19  1  0.72665335  0.25782245  0.77032989  1
  N  N20  1  0.22511518  0.45168848  0.46234130  1
  N  N21  1  0.27314960  0.73690055  0.22290412  1
  N  N22  1  0.98652215  0.95327684  0.72771572  1
  N  N23  1  0.50956008  0.23699704  0.96631734  1
  N  N24  1  0.54549315  0.53408061  0.77193494  1
  N  N25  1  0.95991617  0.73302642  0.99339490  1
  N  N26  1  0.53551652  0.77405199  0.54488412  1
  N  N27  1  0.22302558  0.27355993  0.74059297  1
  N  N28  1  0.03038310  0.48687503  0.75776047  1
  N  N29  1  0.73015936  0.98877121  0.95790987  1
  N  N30  1  0.23684777  0.96794627  0.50699598  1
  N  N31  1  0.26356438  0.77753281  0.73056521  1
  O  O32  1  0.76117924  0.03451250  0.48538664  1
  O  O33  1  0.27579606  0.01286790  0.05012621  1
  O  O34  1  0.96491486  0.50786811  0.23568531  1
  O  O35  1  0.46668832  0.22668446  0.44779358  1
  O  O36  1  0.04772522  0.27663142  0.01725747  1
  O  O37  1  0.01380588  0.05050798  0.27572184  1
  O  O38  1  0.48761355  0.76295807  0.03576146  1
  O  O39  1  0.77148741  0.54350125  0.53639313  1
