# generated using pymatgen
data_V4(OF3)3
_symmetry_space_group_name_H-M   'P 1'
_cell_length_a   5.25598117
_cell_length_b   5.40820498
_cell_length_c   17.35092171
_cell_angle_alpha   91.24451690
_cell_angle_beta   98.16476330
_cell_angle_gamma   60.77461998
_symmetry_Int_Tables_number   1
_chemical_formula_structural   V4(OF3)3
_chemical_formula_sum   'V8 O6 F18'
_cell_volume   425.41414262
_cell_formula_units_Z   2
loop_
 _symmetry_equiv_pos_site_id
 _symmetry_equiv_pos_as_xyz
  1  'x, y, z'
loop_
 _atom_site_type_symbol
 _atom_site_label
 _atom_site_symmetry_multiplicity
 _atom_site_fract_x
 _atom_site_fract_y
 _atom_site_fract_z
 _atom_site_occupancy
  V  V0  1  0.72025830  0.65966829  0.12897349  1
  V  V1  1  0.77457878  0.09492701  0.61969532  1
  V  V2  1  0.49340776  0.25301666  0.25047104  1
  V  V3  1  0.50276468  0.73062507  0.75560015  1
  V  V4  1  0.26372503  0.84647757  0.37195570  1
  V  V5  1  0.26536965  0.37773160  0.87549303  1
  V  V6  1  0.96527627  0.02869671  0.99774509  1
  V  V7  1  0.99542935  0.48274663  0.50819866  1
  O  O8  1  0.95093278  0.81384028  0.56633636  1
  O  O9  1  0.54550858  0.92719840  0.18569344  1
  O  O10  1  0.92383927  0.32744352  0.57926645  1
  O  O11  1  0.43901659  0.57774050  0.31516896  1
  O  O12  1  0.42628401  0.58931352  0.82776646  1
  O  O13  1  0.60351888  0.21272725  0.95917809  1
  F  F14  1  0.92893290  0.83651154  0.08715856  1
  F  F15  1  0.96203947  0.32590390  0.06407674  1
  F  F16  1  0.91572780  0.04976283  0.29045488  1
  F  F17  1  0.93263168  0.53408138  0.78829847  1
  F  F18  1  0.40973112  0.80076940  0.03766574  1
  F  F19  1  0.56917691  0.41549751  0.16152366  1
  F  F20  1  0.57809553  0.91772164  0.66829427  1
  F  F21  1  0.57423623  0.71179343  0.46258883  1
  F  F22  1  0.54232960  0.43371003  0.68227026  1
  F  F23  1  0.42267862  0.08510703  0.33789675  1
  F  F24  1  0.42431778  0.28886856  0.53788546  1
  F  F25  1  0.06668891  0.66924727  0.41905629  1
  F  F26  1  0.07092846  0.45412123  0.20983847  1
  F  F27  1  0.08064390  0.96963651  0.71123728  1
  F  F28  1  0.48441100  0.05935141  0.81211245  1
  F  F29  1  0.03360048  0.68682628  0.93946070  1
  F  F30  1  0.04060153  0.18527430  0.43434841  1
  F  F31  1  0.09331716  0.15366274  0.91429155  1
