# generated using pymatgen
data_V2OF5
_symmetry_space_group_name_H-M   'P 1'
_cell_length_a   5.26460783
_cell_length_b   5.43438079
_cell_length_c   12.95216476
_cell_angle_alpha   91.18251734
_cell_angle_beta   89.26236202
_cell_angle_gamma   61.11154954
_symmetry_Int_Tables_number   1
_chemical_formula_structural   V2OF5
_chemical_formula_sum   'V6 O3 F15'
_cell_volume   324.26859474
_cell_formula_units_Z   3
loop_
 _symmetry_equiv_pos_site_id
 _symmetry_equiv_pos_as_xyz
  1  'x, y, z'
loop_
 _atom_site_type_symbol
 _atom_site_label
 _atom_site_symmetry_multiplicity
 _atom_site_fract_x
 _atom_site_fract_y
 _atom_site_fract_z
 _atom_site_occupancy
  V  V0  1  0.66357915  0.66695310  0.66946954  1
  V  V1  1  0.68612788  0.63816091  0.16125658  1
  V  V2  1  0.34941459  0.35447828  0.83045507  1
  V  V3  1  0.32584190  0.31320960  0.34063578  1
  V  V4  1  0.00331974  0.00034594  0.49812395  1
  V  V5  1  0.99968681  0.01170953  0.00091911  1
  O  O6  1  0.89942926  0.34764581  0.08801687  1
  O  O7  1  0.51518456  0.52614103  0.78002139  1
  O  O8  1  0.20207215  0.18876963  0.43596172  1
  F  F9  1  0.86957253  0.86075595  0.11624157  1
  F  F10  1  0.93603729  0.53482742  0.28135593  1
  F  F11  1  0.80330591  0.79899603  0.55277435  1
  F  F12  1  0.73387366  0.33516021  0.58053583  1
  F  F13  1  0.73171659  0.12742827  0.38239305  1
  F  F14  1  0.39707961  0.80912909  0.05236311  1
  F  F15  1  0.59845534  0.20163935  0.94942403  1
  F  F16  1  0.46009211  0.47521430  0.22516734  1
  F  F17  1  0.26712830  0.87539205  0.61589920  1
  F  F18  1  0.59873673  0.00101677  0.75366581  1
  F  F19  1  0.26713562  0.65450181  0.41844107  1
  F  F20  1  0.41772427  0.99506375  0.24359069  1
  F  F21  1  0.07219400  0.66994273  0.91812995  1
  F  F22  1  0.06268922  0.46276627  0.71990141  1
  F  F23  1  0.13960277  0.15075417  0.88525864  1
