# generated using pymatgen
data_Li6Mn5Fe(BO3)6
_symmetry_space_group_name_H-M   'P 1'
_cell_length_a   8.27969220
_cell_length_b   14.31593546
_cell_length_c   3.18330650
_cell_angle_alpha   90.00000000
_cell_angle_beta   90.00000000
_cell_angle_gamma   89.96302940
_symmetry_Int_Tables_number   1
_chemical_formula_structural   Li6Mn5Fe(BO3)6
_chemical_formula_sum   'Li6 Mn5 Fe1 B6 O18'
_cell_volume   377.32214058
_cell_formula_units_Z   1
loop_
 _symmetry_equiv_pos_site_id
 _symmetry_equiv_pos_as_xyz
  1  'x, y, z'
loop_
 _atom_site_type_symbol
 _atom_site_label
 _atom_site_symmetry_multiplicity
 _atom_site_fract_x
 _atom_site_fract_y
 _atom_site_fract_z
 _atom_site_occupancy
  Li  Li0  1  0.29251741  0.99119593  0.50000000  1
  Li  Li1  1  0.33927938  0.35849494  0.50000000  1
  Li  Li2  1  0.36530350  0.65023650  0.50000000  1
  Li  Li3  1  0.79283540  0.49126894  0.50000000  1
  Li  Li4  1  0.84104450  0.85772291  0.50000000  1
  Li  Li5  1  0.86705300  0.15093074  0.50000000  1
  Mn  Mn6  1  0.17367099  0.81397232  0.00000000  1
  Mn  Mn7  1  0.19137533  0.17986370  0.00000000  1
  Mn  Mn8  1  0.63471835  0.00582089  0.00000000  1
  Mn  Mn9  1  0.67426211  0.31409320  0.00000000  1
  Mn  Mn10  1  0.69208707  0.67988187  0.00000000  1
  Fe  Fe11  1  0.13785348  0.50403672  0.00000000  1
  B  B12  1  0.00068349  0.66517403  0.50000000  1
  B  B13  1  0.00000694  -0.00002865  0.00000000  1
  B  B14  1  0.00109979  0.33452270  0.50000000  1
  B  B15  1  0.49980837  0.16686066  0.50000000  1
  B  B16  1  0.49897889  0.50069229  0.00000000  1
  B  B17  1  0.49989109  0.83331169  0.50000000  1
  O  O18  1  0.01305438  0.43140168  0.50000000  1
  O  O19  1  0.01524239  0.76234487  0.50000000  1
  O  O20  1  0.13725455  0.60869676  0.50000000  1
  O  O21  1  0.13986893  0.27998397  0.50000000  1
  O  O22  1  0.15432493  0.96087161  0.00000000  1
  O  O23  1  0.34776139  0.12542663  0.50000000  1
  O  O24  1  0.34974249  0.79014533  0.50000000  1
  O  O25  1  0.36104033  0.44401240  0.00000000  1
  O  O26  1  0.48152427  0.59727057  0.00000000  1
  O  O27  1  0.51030239  0.93020176  0.50000000  1
  O  O28  1  0.51390967  0.26388449  0.50000000  1
  O  O29  1  0.63817125  0.11149931  0.50000000  1
  O  O30  1  0.63983664  0.77983296  0.50000000  1
  O  O31  1  0.65224512  0.46051960  0.00000000  1
  O  O32  1  0.84723431  0.62500059  0.50000000  1
  O  O33  1  0.85036674  0.29170249  0.50000000  1
  O  O34  1  0.86427710  0.94226832  0.00000000  1
  O  O35  1  0.98137503  0.09688529  0.00000000  1
