# generated using pymatgen
data_SmCu3Ag2
_symmetry_space_group_name_H-M   'P 1'
_cell_length_a   4.43907271
_cell_length_b   5.25020516
_cell_length_c   5.24861170
_cell_angle_alpha   120.01003720
_cell_angle_beta   90.00000000
_cell_angle_gamma   90.00000000
_symmetry_Int_Tables_number   1
_chemical_formula_structural   SmCu3Ag2
_chemical_formula_sum   'Sm1 Cu3 Ag2'
_cell_volume   105.92529318
_cell_formula_units_Z   1
loop_
 _symmetry_equiv_pos_site_id
 _symmetry_equiv_pos_as_xyz
  1  'x, y, z'
loop_
 _atom_site_type_symbol
 _atom_site_label
 _atom_site_symmetry_multiplicity
 _atom_site_fract_x
 _atom_site_fract_y
 _atom_site_fract_z
 _atom_site_occupancy
  Sm  Sm0  1  -0.00000000  0.99996706  0.00000000  1
  Cu  Cu1  1  0.50000000  0.50000331  0.00000000  1
  Cu  Cu2  1  0.50000000  0.49999009  0.50001309  1
  Cu  Cu3  1  0.50000000  0.99997700  0.49998691  1
  Ag  Ag4  1  -0.00000000  0.33333161  0.66670069  1
  Ag  Ag5  1  -0.00000000  0.66663092  0.33329931  1
