# generated using pymatgen
data_Li2FeO2F
_symmetry_space_group_name_H-M   'P 1'
_cell_length_a   2.96758860
_cell_length_b   2.96758879
_cell_length_c   14.50121540
_cell_angle_alpha   90.00000000
_cell_angle_beta   90.00000000
_cell_angle_gamma   60.00000207
_symmetry_Int_Tables_number   1
_chemical_formula_structural   Li2FeO2F
_chemical_formula_sum   'Li4 Fe2 O4 F2'
_cell_volume   110.59677411
_cell_formula_units_Z   2
loop_
 _symmetry_equiv_pos_site_id
 _symmetry_equiv_pos_as_xyz
  1  'x, y, z'
loop_
 _atom_site_type_symbol
 _atom_site_label
 _atom_site_symmetry_multiplicity
 _atom_site_fract_x
 _atom_site_fract_y
 _atom_site_fract_z
 _atom_site_occupancy
  Li  Li0  1  0.00000000  0.00000000  0.00546793  1
  Li  Li1  1  0.33333300  0.33333300  0.32786507  1
  Li  Li2  1  0.66666700  0.66666700  0.66666700  1
  Li  Li3  1  0.66666700  0.66666700  0.16666700  1
  Fe  Fe4  1  0.00000000  0.00000000  0.49795567  1
  Fe  Fe5  1  0.33333300  0.33333300  0.83537733  1
  O  O6  1  0.00000000  0.00000000  0.75729528  1
  O  O7  1  0.33333300  0.33333300  0.57603872  1
  O  O8  1  0.66666700  0.66666700  0.41980395  1
  O  O9  1  0.66666700  0.66666700  0.91352905  1
  F  F10  1  0.00000000  0.00000000  0.24762252  1
  F  F11  1  0.33333300  0.33333300  0.08571148  1
