# generated using pymatgen
data_Ba2GeO4
_symmetry_space_group_name_H-M   'P 1'
_cell_length_a   15.34467416
_cell_length_b   6.20371598
_cell_length_c   10.57701216
_cell_angle_alpha   90.00000000
_cell_angle_beta   90.00000000
_cell_angle_gamma   90.00000000
_symmetry_Int_Tables_number   1
_chemical_formula_structural   Ba2GeO4
_chemical_formula_sum   'Ba16 Ge8 O32'
_cell_volume   1006.86809867
_cell_formula_units_Z   8
loop_
 _symmetry_equiv_pos_site_id
 _symmetry_equiv_pos_as_xyz
  1  'x, y, z'
loop_
 _atom_site_type_symbol
 _atom_site_label
 _atom_site_symmetry_multiplicity
 _atom_site_fract_x
 _atom_site_fract_y
 _atom_site_fract_z
 _atom_site_occupancy
  Ba  Ba0  1  0.04244132  0.73070852  0.78347411  1
  Ba  Ba1  1  0.12017942  0.70633567  0.41048566  1
  Ba  Ba2  1  0.13019518  0.22595537  0.00932128  1
  Ba  Ba3  1  0.20546330  0.21170100  0.63410345  1
  Ba  Ba4  1  0.29453670  0.71170200  0.13410345  1
  Ba  Ba5  1  0.36980482  0.72595537  0.50932128  1
  Ba  Ba6  1  0.37982058  0.20633567  0.91048566  1
  Ba  Ba7  1  0.45755868  0.23070852  0.28347411  1
  Ba  Ba8  1  0.54244132  0.76929148  0.78347411  1
  Ba  Ba9  1  0.62017942  0.79366433  0.41048566  1
  Ba  Ba10  1  0.63019518  0.27404463  0.00932128  1
  Ba  Ba11  1  0.70546330  0.28829900  0.63410345  1
  Ba  Ba12  1  0.79453670  0.78829800  0.13410345  1
  Ba  Ba13  1  0.86980482  0.77404463  0.50932128  1
  Ba  Ba14  1  0.87982058  0.29366433  0.91048566  1
  Ba  Ba15  1  0.95755868  0.26929148  0.28347411  1
  Ge  Ge16  1  0.01941567  0.77140106  0.12557449  1
  Ge  Ge17  1  0.23671279  0.22235408  0.29291377  1
  Ge  Ge18  1  0.26328721  0.72235408  0.79291377  1
  Ge  Ge19  1  0.48058433  0.27140106  0.62557449  1
  Ge  Ge20  1  0.51941567  0.72859894  0.12557449  1
  Ge  Ge21  1  0.73671279  0.27764592  0.29291377  1
  Ge  Ge22  1  0.76328721  0.77764592  0.79291377  1
  Ge  Ge23  1  0.98058433  0.22859894  0.62557449  1
  O  O24  1  0.00448093  0.54861867  0.02084434  1
  O  O25  1  0.02761857  0.98995600  0.55779467  1
  O  O26  1  0.03902455  0.28209557  0.76926914  1
  O  O27  1  0.12781203  0.30947545  0.26590786  1
  O  O28  1  0.13075084  0.82373295  0.15959981  1
  O  O29  1  0.20735633  0.65422140  0.64907192  1
  O  O30  1  0.20723664  0.96071290  0.84829306  1
  O  O31  1  0.25147142  0.51248261  0.90618445  1
  O  O32  1  0.24852858  0.01248261  0.40618445  1
  O  O33  1  0.29276336  0.46071290  0.34829306  1
  O  O34  1  0.29264367  0.15422140  0.14907192  1
  O  O35  1  0.36924916  0.32373295  0.65959981  1
  O  O36  1  0.37218797  0.80947545  0.76590786  1
  O  O37  1  0.46097545  0.78209557  0.26926914  1
  O  O38  1  0.47238143  0.48995600  0.05779467  1
  O  O39  1  0.49551907  0.04861867  0.52084434  1
  O  O40  1  0.50448093  0.95138133  0.02084434  1
  O  O41  1  0.52761857  0.51004400  0.55779467  1
  O  O42  1  0.53902455  0.21790443  0.76926914  1
  O  O43  1  0.62781203  0.19052455  0.26590786  1
  O  O44  1  0.63075084  0.67626705  0.15959981  1
  O  O45  1  0.70735633  0.84577860  0.64907192  1
  O  O46  1  0.70723664  0.53928710  0.84829306  1
  O  O47  1  0.75147142  0.98751739  0.90618445  1
  O  O48  1  0.74852858  0.48751739  0.40618445  1
  O  O49  1  0.79276336  0.03928710  0.34829306  1
  O  O50  1  0.79264367  0.34577860  0.14907192  1
  O  O51  1  0.86924916  0.17626705  0.65959981  1
  O  O52  1  0.87218797  0.69052455  0.76590786  1
  O  O53  1  0.96097545  0.71790443  0.26926914  1
  O  O54  1  0.97238143  0.01004400  0.05779467  1
  O  O55  1  0.99551907  0.45138133  0.52084434  1
