# generated using pymatgen
data_V4OF11
_symmetry_space_group_name_H-M   'P 1'
_cell_length_a   5.24070219
_cell_length_b   5.46054462
_cell_length_c   17.49126727
_cell_angle_alpha   91.01743582
_cell_angle_beta   98.61994047
_cell_angle_gamma   61.39587179
_symmetry_Int_Tables_number   1
_chemical_formula_structural   V4OF11
_chemical_formula_sum   'V8 O2 F22'
_cell_volume   433.65084566
_cell_formula_units_Z   2
loop_
 _symmetry_equiv_pos_site_id
 _symmetry_equiv_pos_as_xyz
  1  'x, y, z'
loop_
 _atom_site_type_symbol
 _atom_site_label
 _atom_site_symmetry_multiplicity
 _atom_site_fract_x
 _atom_site_fract_y
 _atom_site_fract_z
 _atom_site_occupancy
  V  V0  1  0.77602191  0.61186458  0.13201559  1
  V  V1  1  0.75356367  0.13258593  0.62325296  1
  V  V2  1  0.48682943  0.25346526  0.24905435  1
  V  V3  1  0.50355428  0.75346048  0.74923546  1
  V  V4  1  0.23935901  0.87469617  0.37612762  1
  V  V5  1  0.25594252  0.37458467  0.87498559  1
  V  V6  1  0.00957319  0.99605024  0.00122126  1
  V  V7  1  0.98995860  0.48931751  0.50705915  1
  O  O8  1  0.92056484  0.33640980  0.57871022  1
  O  O9  1  0.06918991  0.46032845  0.20414300  1
  F  F10  1  0.91965838  0.84325986  0.08881064  1
  F  F11  1  0.97127726  0.32111701  0.05977922  1
  F  F12  1  0.98341963  0.80375678  0.56292361  1
  F  F13  1  0.52403800  0.92806727  0.18814582  1
  F  F14  1  0.91295638  0.03825677  0.28737514  1
  F  F15  1  0.93323015  0.53590607  0.78607140  1
  F  F16  1  0.43738223  0.78153863  0.04316872  1
  F  F17  1  0.57733468  0.40926000  0.16136145  1
  F  F18  1  0.57787984  0.91992520  0.66124142  1
  F  F19  1  0.57348140  0.72010413  0.46304090  1
  F  F20  1  0.46351551  0.56548579  0.31303004  1
  F  F21  1  0.52266050  0.44513575  0.68735702  1
  F  F22  1  0.41586891  0.08918919  0.33712373  1
  F  F23  1  0.42017106  0.28561605  0.53619076  1
  F  F24  1  0.42943612  0.59036999  0.83822130  1
  F  F25  1  0.57929665  0.20905817  0.96324659  1
  F  F26  1  0.07160087  0.65721110  0.41764517  1
  F  F27  1  0.07315296  0.97075371  0.71239745  1
  F  F28  1  0.48447195  0.06216726  0.81164988  1
  F  F29  1  0.02911314  0.68651522  0.93874664  1
  F  F30  1  0.01366761  0.19664749  0.43470018  1
  F  F31  1  0.08182840  0.15789648  0.91196769  1
