# generated using pymatgen
data_V3S
_symmetry_space_group_name_H-M   'P 1'
_cell_length_a   4.55003198
_cell_length_b   7.06025962
_cell_length_c   7.06025962
_cell_angle_alpha   84.04017307
_cell_angle_beta   71.20225870
_cell_angle_gamma   71.20225871
_symmetry_Int_Tables_number   1
_chemical_formula_structural   V3S
_chemical_formula_sum   'V12 S4'
_cell_volume   203.25706379
_cell_formula_units_Z   4
loop_
 _symmetry_equiv_pos_site_id
 _symmetry_equiv_pos_as_xyz
  1  'x, y, z'
loop_
 _atom_site_type_symbol
 _atom_site_label
 _atom_site_symmetry_multiplicity
 _atom_site_fract_x
 _atom_site_fract_y
 _atom_site_fract_z
 _atom_site_occupancy
  S  S0  1  0.21125132  0.28874868  0.28874868  1
  S  S1  1  0.50000000  0.28874868  0.71125132  1
  S  S2  1  0.50000000  0.71125132  0.28874868  1
  S  S3  1  0.78874868  0.71125132  0.71125132  1
  V  V4  1  0.46163564  0.00000000  0.60082903  1
  V  V5  1  0.93753534  0.60082903  0.00000000  1
  V  V6  1  0.53836436  0.39917097  0.00000000  1
  V  V7  1  0.06246466  0.00000000  0.39917097  1
  V  V8  1  0.35761247  0.64238753  0.64238753  1
  V  V9  1  0.00000000  0.64238753  0.35761247  1
  V  V10  1  0.00000000  0.35761247  0.64238753  1
  V  V11  1  0.64238753  0.35761247  0.35761247  1
  V  V12  1  0.67067735  0.00000000  0.18290712  1
  V  V13  1  0.14641553  0.18290712  0.00000000  1
  V  V14  1  0.32932265  0.81709288  0.00000000  1
  V  V15  1  0.85358447  0.00000000  0.81709288  1
