# generated using pymatgen
data_Tm2WO6
_symmetry_space_group_name_H-M   'P 1'
_cell_length_a   16.03127713
_cell_length_b   10.49748342
_cell_length_c   5.54665132
_cell_angle_alpha   90.00000000
_cell_angle_beta   90.00000000
_cell_angle_gamma   90.00000000
_symmetry_Int_Tables_number   1
_chemical_formula_structural   Tm2WO6
_chemical_formula_sum   'Tm16 W8 O48'
_cell_volume   933.43522272
_cell_formula_units_Z   8
loop_
 _symmetry_equiv_pos_site_id
 _symmetry_equiv_pos_as_xyz
  1  'x, y, z'
loop_
 _atom_site_type_symbol
 _atom_site_label
 _atom_site_symmetry_multiplicity
 _atom_site_fract_x
 _atom_site_fract_y
 _atom_site_fract_z
 _atom_site_occupancy
  Tm  Tm0  1  0.06179537  0.35677109  0.10112154  1
  Tm  Tm1  1  0.06179537  0.14322891  0.60112154  1
  Tm  Tm2  1  0.22872585  0.14653408  0.04620813  1
  Tm  Tm3  1  0.22872585  0.35346592  0.54620813  1
  Tm  Tm4  1  0.27127415  0.64653408  0.04620813  1
  Tm  Tm5  1  0.27127415  0.85346592  0.54620813  1
  Tm  Tm6  1  0.43820463  0.64322891  0.60112154  1
  Tm  Tm7  1  0.43820463  0.85677109  0.10112154  1
  Tm  Tm8  1  0.56179537  0.14322891  0.89887846  1
  Tm  Tm9  1  0.56179537  0.35677109  0.39887846  1
  Tm  Tm10  1  0.72872585  0.14653408  0.45379187  1
  Tm  Tm11  1  0.72872585  0.35346592  0.95379187  1
  Tm  Tm12  1  0.77127415  0.64653408  0.45379187  1
  Tm  Tm13  1  0.77127415  0.85346592  0.95379187  1
  Tm  Tm14  1  0.93820463  0.64322891  0.89887846  1
  Tm  Tm15  1  0.93820463  0.85677109  0.39887846  1
  W  W16  1  0.11987046  0.61946552  0.61243567  1
  W  W17  1  0.11987046  0.88053448  0.11243567  1
  W  W18  1  0.38012954  0.11946552  0.61243567  1
  W  W19  1  0.38012954  0.38053448  0.11243567  1
  W  W20  1  0.61987046  0.61946552  0.88756433  1
  W  W21  1  0.61987046  0.88053448  0.38756433  1
  W  W22  1  0.88012954  0.11946552  0.88756433  1
  W  W23  1  0.88012954  0.38053448  0.38756433  1
  O  O24  1  0.02131979  0.78322003  0.08123115  1
  O  O25  1  0.02131979  0.71677997  0.58123115  1
  O  O26  1  0.07022638  0.53957702  0.88064162  1
  O  O27  1  0.07022638  0.96042298  0.38064162  1
  O  O28  1  0.10684953  0.01430296  0.90265202  1
  O  O29  1  0.10684953  0.48569704  0.40265202  1
  O  O30  1  0.14619002  0.22850660  0.32214650  1
  O  O31  1  0.14619002  0.27149340  0.82214650  1
  O  O32  1  0.17310031  0.73071917  0.33812825  1
  O  O33  1  0.17310031  0.76928083  0.83812825  1
  O  O34  1  0.23136844  0.94587421  0.18934337  1
  O  O35  1  0.23136844  0.55412579  0.68934337  1
  O  O36  1  0.26863156  0.05412579  0.68934337  1
  O  O37  1  0.26863156  0.44587421  0.18934337  1
  O  O38  1  0.32689969  0.23071917  0.33812825  1
  O  O39  1  0.32689969  0.26928083  0.83812825  1
  O  O40  1  0.35380998  0.72850660  0.32214650  1
  O  O41  1  0.35380998  0.77149340  0.82214650  1
  O  O42  1  0.39315047  0.51430296  0.90265202  1
  O  O43  1  0.39315047  0.98569704  0.40265202  1
  O  O44  1  0.42977362  0.03957702  0.88064162  1
  O  O45  1  0.42977362  0.46042298  0.38064162  1
  O  O46  1  0.47868021  0.21678097  0.58123115  1
  O  O47  1  0.47868021  0.28321903  0.08123115  1
  O  O48  1  0.52131979  0.71677997  0.91876885  1
  O  O49  1  0.52131979  0.78322003  0.41876885  1
  O  O50  1  0.57022638  0.53957702  0.61935838  1
  O  O51  1  0.57022638  0.96042298  0.11935838  1
  O  O52  1  0.60684953  0.01430296  0.59734798  1
  O  O53  1  0.60684953  0.48569704  0.09734798  1
  O  O54  1  0.64619002  0.22850660  0.17785350  1
  O  O55  1  0.64619002  0.27149340  0.67785350  1
  O  O56  1  0.67310031  0.73071917  0.16187175  1
  O  O57  1  0.67310031  0.76928083  0.66187175  1
  O  O58  1  0.73136844  0.55412579  0.81065663  1
  O  O59  1  0.73136844  0.94587421  0.31065663  1
  O  O60  1  0.76863156  0.05412579  0.81065663  1
  O  O61  1  0.76863156  0.44587421  0.31065663  1
  O  O62  1  0.82689969  0.23071917  0.16187175  1
  O  O63  1  0.82689969  0.26928083  0.66187175  1
  O  O64  1  0.85380998  0.72850660  0.17785350  1
  O  O65  1  0.85380998  0.77149340  0.67785350  1
  O  O66  1  0.89315047  0.51430296  0.59734798  1
  O  O67  1  0.89315047  0.98569704  0.09734798  1
  O  O68  1  0.92977362  0.03957702  0.61935838  1
  O  O69  1  0.92977362  0.46042298  0.11935838  1
  O  O70  1  0.97868021  0.21678097  0.91876885  1
  O  O71  1  0.97868021  0.28321903  0.41876885  1
