# generated using pymatgen
data_Li4MnFe3(BO3)4
_symmetry_space_group_name_H-M   'P 1'
_cell_length_a   5.22740689
_cell_length_b   5.24608383
_cell_length_c   20.79582746
_cell_angle_alpha   89.08820705
_cell_angle_beta   90.86678883
_cell_angle_gamma   59.87435322
_symmetry_Int_Tables_number   1
_chemical_formula_structural   Li4MnFe3(BO3)4
_chemical_formula_sum   'Li8 Mn2 Fe6 B8 O24'
_cell_volume   493.02273046
_cell_formula_units_Z   2
loop_
 _symmetry_equiv_pos_site_id
 _symmetry_equiv_pos_as_xyz
  1  'x, y, z'
loop_
 _atom_site_type_symbol
 _atom_site_label
 _atom_site_symmetry_multiplicity
 _atom_site_fract_x
 _atom_site_fract_y
 _atom_site_fract_z
 _atom_site_occupancy
  Li  Li0  1  0.32662538  0.65486846  0.66679252  1
  Li  Li1  1  0.35012415  0.67131125  0.91485019  1
  Li  Li2  1  0.31975526  0.65618182  0.16727462  1
  Li  Li3  1  0.34623580  0.67133464  0.41761519  1
  Li  Li4  1  0.64508970  0.33958434  0.79100579  1
  Li  Li5  1  0.66287680  0.35275405  0.54255994  1
  Li  Li6  1  0.63950177  0.34562558  0.29317057  1
  Li  Li7  1  0.66780251  0.34297626  0.04073215  1
  Mn  Mn8  1  0.33558342  0.00129078  0.05685885  1
  Mn  Mn9  1  0.99516844  0.32964812  0.18322411  1
  Fe  Fe10  1  0.33358495  0.00144025  0.55758514  1
  Fe  Fe11  1  0.68830943  0.99160883  0.93137468  1
  Fe  Fe12  1  0.68234502  0.99694225  0.43459227  1
  Fe  Fe13  1  0.00865461  0.31901739  0.68230102  1
  Fe  Fe14  1  0.99700035  0.66627320  0.80634338  1
  Fe  Fe15  1  0.98885076  0.66999332  0.31015728  1
  B  B16  1  0.00631994  0.33148017  0.93490929  1
  B  B17  1  0.00460314  0.33084065  0.43800828  1
  B  B18  1  0.32566268  0.00886179  0.81145481  1
  B  B19  1  0.32449405  0.01154883  0.31441998  1
  B  B20  1  0.66767257  0.99847513  0.68674297  1
  B  B21  1  0.65887884  0.00040791  0.18856571  1
  B  B22  1  0.99352990  0.67320201  0.56242376  1
  B  B23  1  0.00125871  0.66443852  0.06087359  1
  O  O24  1  0.05945664  0.25786124  0.79141572  1
  O  O25  1  0.06006414  0.26174367  0.29357783  1
  O  O26  1  0.26291181  0.06371575  0.95019057  1
  O  O27  1  0.02726952  0.57631039  0.91585982  1
  O  O28  1  0.26024639  0.06146803  0.45280926  1
  O  O29  1  0.02437401  0.57661740  0.41948809  1
  O  O30  1  0.57558866  0.03173109  0.82530189  1
  O  O31  1  0.26517608  0.65802390  0.56950101  1
  O  O32  1  0.57439224  0.03504779  0.32878073  1
  O  O33  1  0.27647709  0.63824100  0.06897974  1
  O  O34  1  0.34091063  0.73828974  0.81826779  1
  O  O35  1  0.33737623  0.74292852  0.32171820  1
  O  O36  1  0.64556050  0.27223941  0.69197550  1
  O  O37  1  0.62809225  0.27629482  0.19543980  1
  O  O38  1  0.73137670  0.35383583  0.94090896  1
  O  O39  1  0.42134058  0.97768392  0.66774053  1
  O  O40  1  0.72922586  0.35344179  0.44347154  1
  O  O41  1  0.42181678  0.96943065  0.16707908  1
  O  O42  1  0.97052295  0.42442435  0.57639196  1
  O  O43  1  0.96556840  0.42285194  0.07631454  1
  O  O44  1  0.74443044  0.93864379  0.54244811  1
  O  O45  1  0.75875559  0.92945270  0.03916488  1
  O  O46  1  0.93585320  0.74165131  0.70150943  1
  O  O47  1  0.93208616  0.74916743  0.20402991  1
