# generated using pymatgen
data_Na3NiO3
_symmetry_space_group_name_H-M   'P 1'
_cell_length_a   5.75677325
_cell_length_b   5.86593144
_cell_length_c   6.35030609
_cell_angle_alpha   64.65177353
_cell_angle_beta   89.16911993
_cell_angle_gamma   85.88487038
_symmetry_Int_Tables_number   1
_chemical_formula_structural   Na3NiO3
_chemical_formula_sum   'Na6 Ni2 O6'
_cell_volume   193.26553924
_cell_formula_units_Z   2
loop_
 _symmetry_equiv_pos_site_id
 _symmetry_equiv_pos_as_xyz
  1  'x, y, z'
loop_
 _atom_site_type_symbol
 _atom_site_label
 _atom_site_symmetry_multiplicity
 _atom_site_fract_x
 _atom_site_fract_y
 _atom_site_fract_z
 _atom_site_occupancy
  Na  Na0  1  0.06043541  0.76838762  0.44485786  1
  Na  Na1  1  0.14163572  0.76281107  0.98136663  1
  Na  Na2  1  0.43622826  0.26005821  0.74466044  1
  Na  Na3  1  0.56377174  0.73994179  0.25533956  1
  Na  Na4  1  0.85836428  0.23718893  0.01863337  1
  Na  Na5  1  0.93956459  0.23161238  0.55514214  1
  Ni  Ni6  1  0.37084546  0.18676291  0.31274232  1
  Ni  Ni7  1  0.62915454  0.81323709  0.68725768  1
  O  O8  1  0.24151207  0.09908645  0.09962994  1
  O  O9  1  0.25410146  0.46860890  0.34494181  1
  O  O10  1  0.30777138  0.92019318  0.62822450  1
  O  O11  1  0.69222862  0.07980682  0.37177550  1
  O  O12  1  0.74589854  0.53139110  0.65505819  1
  O  O13  1  0.75848793  0.90091355  0.90037006  1
