# generated using pymatgen
data_V4OF11
_symmetry_space_group_name_H-M   'P 1'
_cell_length_a   5.25649995
_cell_length_b   7.61032891
_cell_length_c   5.44724793
_cell_angle_alpha   92.99600690
_cell_angle_beta   90.63721776
_cell_angle_gamma   89.97987311
_symmetry_Int_Tables_number   1
_chemical_formula_structural   V4OF11
_chemical_formula_sum   'V4 O1 F11'
_cell_volume   217.59872934
_cell_formula_units_Z   1
loop_
 _symmetry_equiv_pos_site_id
 _symmetry_equiv_pos_as_xyz
  1  'x, y, z'
loop_
 _atom_site_type_symbol
 _atom_site_label
 _atom_site_symmetry_multiplicity
 _atom_site_fract_x
 _atom_site_fract_y
 _atom_site_fract_z
 _atom_site_occupancy
  V  V0  1  0.49943868  0.50015891  0.49990789  1
  V  V1  1  0.52130865  0.99593225  0.51480612  1
  V  V2  1  0.00033125  0.50023009  0.00048255  1
  V  V3  1  0.99640068  0.99918407  0.99622826  1
  O  O4  1  0.77401185  0.96136977  0.70351097  1
  F  F5  1  0.90328374  0.25058456  0.00873196  1
  F  F6  1  0.80613739  0.54998867  0.30374974  1
  F  F7  1  0.70302490  0.94732531  0.20650189  1
  F  F8  1  0.69357985  0.55326366  0.80418268  1
  F  F9  1  0.59507728  0.24970175  0.49849197  1
  F  F10  1  0.39905036  0.75070219  0.49590311  1
  F  F11  1  0.30814034  0.44901821  0.19452603  1
  F  F12  1  0.28976239  0.05169101  0.78840212  1
  F  F13  1  0.21752062  0.04050560  0.29389546  1
  F  F14  1  0.19420456  0.45036697  0.69714698  1
  F  F15  1  0.09872848  0.74997898  0.99353227  1
