# generated using pymatgen
data_NiP6(WO8)3
_symmetry_space_group_name_H-M   'P 1'
_cell_length_a   8.92356927
_cell_length_b   8.92356919
_cell_length_c   8.92356956
_cell_angle_alpha   58.78011603
_cell_angle_beta   58.78011771
_cell_angle_gamma   58.78011461
_symmetry_Int_Tables_number   1
_chemical_formula_structural   NiP6(WO8)3
_chemical_formula_sum   'Ni1 P6 W3 O24'
_cell_volume   488.45990966
_cell_formula_units_Z   1
loop_
 _symmetry_equiv_pos_site_id
 _symmetry_equiv_pos_as_xyz
  1  'x, y, z'
loop_
 _atom_site_type_symbol
 _atom_site_label
 _atom_site_symmetry_multiplicity
 _atom_site_fract_x
 _atom_site_fract_y
 _atom_site_fract_z
 _atom_site_occupancy
  Ni  Ni0  1  0.85863865  0.85863865  0.85863865  1
  P  P1  1  0.03463303  0.75167305  0.46987703  1
  P  P2  1  0.46987703  0.03463303  0.75167305  1
  P  P3  1  0.75167305  0.46987703  0.03463303  1
  P  P4  1  0.24556159  0.53999602  0.96288885  1
  P  P5  1  0.53999602  0.96288885  0.24556159  1
  P  P6  1  0.96288885  0.24556159  0.53999602  1
  W  W7  1  0.14184339  0.14184339  0.14184339  1
  W  W8  1  0.35638469  0.35638469  0.35638469  1
  W  W9  1  0.64181302  0.64181302  0.64181302  1
  O  O10  1  0.12488448  0.29705715  0.49886489  1
  O  O11  1  0.29705715  0.49886489  0.12488448  1
  O  O12  1  0.05636657  0.92314202  0.28720472  1
  O  O13  1  0.49886489  0.12488448  0.29705715  1
  O  O14  1  0.21021917  0.58357624  0.42472584  1
  O  O15  1  0.01372036  0.76997595  0.63609118  1
  O  O16  1  0.28720472  0.05636657  0.92314202  1
  O  O17  1  0.42472584  0.21021917  0.58357624  1
  O  O18  1  0.58357624  0.42472584  0.21021917  1
  O  O19  1  0.22598889  0.36385860  0.98770628  1
  O  O20  1  0.08331625  0.71316748  0.94209963  1
  O  O21  1  0.36385860  0.98770628  0.22598889  1
  O  O22  1  0.63609118  0.01372036  0.76997595  1
  O  O23  1  0.92314202  0.28720472  0.05636657  1
  O  O24  1  0.76997595  0.63609118  0.01372036  1
  O  O25  1  0.43031670  0.55829065  0.78649861  1
  O  O26  1  0.55829065  0.78649861  0.43031670  1
  O  O27  1  0.71316748  0.94209963  0.08331625  1
  O  O28  1  0.98770628  0.22598889  0.36385860  1
  O  O29  1  0.78649861  0.43031670  0.55829065  1
  O  O30  1  0.49962706  0.85876782  0.72122312  1
  O  O31  1  0.94209963  0.08331625  0.71316748  1
  O  O32  1  0.72122312  0.49962706  0.85876782  1
  O  O33  1  0.85876782  0.72122312  0.49962706  1
