# generated using pymatgen
data_Pr6Si3Ni2
_symmetry_space_group_name_H-M   'P 1'
_cell_length_a   4.57110175
_cell_length_b   12.04421984
_cell_length_c   11.95640805
_cell_angle_alpha   60.27275886
_cell_angle_beta   90.00000000
_cell_angle_gamma   90.00000000
_symmetry_Int_Tables_number   1
_chemical_formula_structural   Pr6Si3Ni2
_chemical_formula_sum   'Pr12 Si6 Ni4'
_cell_volume   571.63397207
_cell_formula_units_Z   2
loop_
 _symmetry_equiv_pos_site_id
 _symmetry_equiv_pos_as_xyz
  1  'x, y, z'
loop_
 _atom_site_type_symbol
 _atom_site_label
 _atom_site_symmetry_multiplicity
 _atom_site_fract_x
 _atom_site_fract_y
 _atom_site_fract_z
 _atom_site_occupancy
  Pr  Pr0  1  0.75000000  0.77502671  0.23667699  1
  Pr  Pr1  1  0.75000000  0.99815784  0.76561579  1
  Pr  Pr2  1  0.75000000  0.23552675  0.99648984  1
  Pr  Pr3  1  0.25000000  0.23005229  0.76281621  1
  Pr  Pr4  1  0.25000000  0.00870878  0.23271360  1
  Pr  Pr5  1  0.25000000  0.76399948  0.01038640  1
  Pr  Pr6  1  0.75000000  0.62608006  0.85982352  1
  Pr  Pr7  1  0.75000000  0.51322607  0.62171378  1
  Pr  Pr8  1  0.75000000  0.86187716  0.51357991  1
  Pr  Pr9  1  0.25000000  0.38090311  0.13487478  1
  Pr  Pr10  1  0.25000000  0.48084402  0.38264317  1
  Pr  Pr11  1  0.25000000  0.13598404  0.47678080  1
  Si  Si12  1  0.25000000  0.66609975  0.66623480  1
  Si  Si13  1  0.75000000  0.32792072  0.33661383  1
  Si  Si14  1  0.75000000  0.55872561  0.15476306  1
  Si  Si15  1  0.25000000  0.71125525  0.44132784  1
  Si  Si16  1  0.25000000  0.84447335  0.71331292  1
  Si  Si17  1  0.25000000  0.44332918  0.84592727  1
  Ni  Ni18  1  0.49961654  0.00264947  0.99932639  1
  Ni  Ni19  1  0.00038346  0.00264947  0.99932639  1
  Ni  Ni20  1  0.75000000  0.28123299  0.56008384  1
  Ni  Ni21  1  0.75000000  0.15127790  0.28896888  1
