# generated using pymatgen
data_NdCrSe3
_symmetry_space_group_name_H-M   'P 1'
_cell_length_a   8.14227629
_cell_length_b   3.96878710
_cell_length_c   13.73027218
_cell_angle_alpha   90.00000000
_cell_angle_beta   90.00000000
_cell_angle_gamma   90.00000000
_symmetry_Int_Tables_number   1
_chemical_formula_structural   NdCrSe3
_chemical_formula_sum   'Nd4 Cr4 Se12'
_cell_volume   443.69321145
_cell_formula_units_Z   4
loop_
 _symmetry_equiv_pos_site_id
 _symmetry_equiv_pos_as_xyz
  1  'x, y, z'
loop_
 _atom_site_type_symbol
 _atom_site_label
 _atom_site_symmetry_multiplicity
 _atom_site_fract_x
 _atom_site_fract_y
 _atom_site_fract_z
 _atom_site_occupancy
  Nd  Nd0  1  0.09661365  0.25000000  0.17106218  1
  Nd  Nd1  1  0.40338635  0.75000100  0.67106318  1
  Nd  Nd2  1  0.59661365  0.25000000  0.32893782  1
  Nd  Nd3  1  0.90338635  0.75000100  0.82893682  1
  Cr  Cr4  1  0.66128514  0.75000100  0.05128091  1
  Cr  Cr5  1  0.33871486  0.25000000  0.94871809  1
  Cr  Cr6  1  0.16128714  0.75000100  0.44871809  1
  Cr  Cr7  1  0.83871286  0.25000000  0.55128191  1
  Se  Se8  1  0.48647325  0.25000000  0.10902067  1
  Se  Se9  1  0.84350903  0.25000000  0.99616509  1
  Se  Se10  1  0.51352675  0.75000100  0.89097833  1
  Se  Se11  1  0.34350903  0.25000000  0.50383491  1
  Se  Se12  1  0.15649097  0.75000100  0.00383491  1
  Se  Se13  1  0.81063101  0.75000100  0.21208949  1
  Se  Se14  1  0.68936899  0.25000000  0.71208949  1
  Se  Se15  1  0.31063201  0.75000100  0.28791051  1
  Se  Se16  1  0.18936899  0.25000000  0.78791051  1
  Se  Se17  1  0.65649097  0.75000100  0.49616509  1
  Se  Se18  1  0.98647325  0.25000000  0.39097933  1
  Se  Se19  1  0.01352775  0.75000100  0.60902067  1
