# generated using pymatgen
data_MnV4NiO12
_symmetry_space_group_name_H-M   'P 1'
_cell_length_a   6.82946823
_cell_length_b   6.82946822
_cell_length_c   5.86392333
_cell_angle_alpha   74.55605168
_cell_angle_beta   105.44395087
_cell_angle_gamma   95.95776191
_symmetry_Int_Tables_number   1
_chemical_formula_structural   MnV4NiO12
_chemical_formula_sum   'Mn1 V4 Ni1 O12'
_cell_volume   253.94877898
_cell_formula_units_Z   1
loop_
 _symmetry_equiv_pos_site_id
 _symmetry_equiv_pos_as_xyz
  1  'x, y, z'
loop_
 _atom_site_type_symbol
 _atom_site_label
 _atom_site_symmetry_multiplicity
 _atom_site_fract_x
 _atom_site_fract_y
 _atom_site_fract_z
 _atom_site_occupancy
  Mn  Mn0  1  0.08537234  0.08537234  0.75000000  1
  V  V1  1  0.20483654  0.61259325  0.76103447  1
  V  V2  1  0.39090501  0.79400671  0.26638534  1
  V  V3  1  0.61259325  0.20483654  0.73896553  1
  V  V4  1  0.79400671  0.39090501  0.23361466  1
  Ni  Ni5  1  0.91371325  0.91371325  0.25000000  1
  O  O6  1  0.03404453  0.80326315  0.63154264  1
  O  O7  1  0.08625107  0.38299072  0.79090000  1
  O  O8  1  0.19885875  0.96346066  0.15225273  1
  O  O9  1  0.36584418  0.63749837  0.55713741  1
  O  O10  1  0.38299072  0.08625107  0.70910000  1
  O  O11  1  0.35537542  0.63929983  0.05366964  1
  O  O12  1  0.63749837  0.36584418  0.94286259  1
  O  O13  1  0.62267192  0.90901429  0.29144237  1
  O  O14  1  0.63929983  0.35537542  0.44633036  1
  O  O15  1  0.80326315  0.03404453  0.86845736  1
  O  O16  1  0.90901429  0.62267192  0.20855763  1
  O  O17  1  0.96346066  0.19885875  0.34774727  1
