# generated using pymatgen
data_Tb3SbO7
_symmetry_space_group_name_H-M   'P 1'
_cell_length_a   6.46314896
_cell_length_b   6.50750792
_cell_length_c   7.61340423
_cell_angle_alpha   73.18725356
_cell_angle_beta   89.79401898
_cell_angle_gamma   81.88807399
_symmetry_Int_Tables_number   1
_chemical_formula_structural   Tb3SbO7
_chemical_formula_sum   'Tb6 Sb2 O14'
_cell_volume   303.22358302
_cell_formula_units_Z   2
loop_
 _symmetry_equiv_pos_site_id
 _symmetry_equiv_pos_as_xyz
  1  'x, y, z'
loop_
 _atom_site_type_symbol
 _atom_site_label
 _atom_site_symmetry_multiplicity
 _atom_site_fract_x
 _atom_site_fract_y
 _atom_site_fract_z
 _atom_site_occupancy
  Tb  Tb0  1  0.26470838  0.46480398  0.88260391  1
  Tb  Tb1  1  0.26225873  0.47484658  0.38533962  1
  Tb  Tb2  1  0.45938982  0.99576916  0.25168347  1
  Tb  Tb3  1  0.54061018  0.00423084  0.74831653  1
  Tb  Tb4  1  0.73774127  0.52515342  0.61466038  1
  Tb  Tb5  1  0.73529162  0.53519602  0.11739609  1
  Sb  Sb6  1  0.00000000  0.00000000  0.00000000  1
  Sb  Sb7  1  0.00000000  0.00000000  0.50000000  1
  O  O8  1  0.28968765  0.06135905  0.51659750  1
  O  O9  1  0.07543519  0.68003169  0.04322015  1
  O  O10  1  0.29083748  0.06808919  0.95310969  1
  O  O11  1  0.06872928  0.66865453  0.61271356  1
  O  O12  1  0.10037535  0.92798585  0.26850963  1
  O  O13  1  0.44087154  0.35426809  0.16619909  1
  O  O14  1  0.45163418  0.36155596  0.65539259  1
  O  O15  1  0.54836582  0.63844404  0.34460741  1
  O  O16  1  0.55912846  0.64573191  0.83380091  1
  O  O17  1  0.89962465  0.07201415  0.73149037  1
  O  O18  1  0.93127072  0.33134547  0.38728644  1
  O  O19  1  0.70916252  0.93191081  0.04688931  1
  O  O20  1  0.92456481  0.31996831  0.95677985  1
  O  O21  1  0.71031235  0.93864095  0.48340250  1
