# generated using pymatgen
data_Nd2Si3Rh
_symmetry_space_group_name_H-M   'P 1'
_cell_length_a   8.28781799
_cell_length_b   8.28815989
_cell_length_c   8.36694384
_cell_angle_alpha   90.00000000
_cell_angle_beta   90.00000000
_cell_angle_gamma   119.99863699
_symmetry_Int_Tables_number   1
_chemical_formula_structural   Nd2Si3Rh
_chemical_formula_sum   'Nd8 Si12 Rh4'
_cell_volume   497.73912020
_cell_formula_units_Z   4
loop_
 _symmetry_equiv_pos_site_id
 _symmetry_equiv_pos_as_xyz
  1  'x, y, z'
loop_
 _atom_site_type_symbol
 _atom_site_label
 _atom_site_symmetry_multiplicity
 _atom_site_fract_x
 _atom_site_fract_y
 _atom_site_fract_z
 _atom_site_occupancy
  Nd  Nd0  1  0.99998677  0.99998902  0.25000000  1
  Nd  Nd1  1  0.99999776  0.00001098  0.75000000  1
  Nd  Nd2  1  0.50076548  0.00410120  0.25000000  1
  Nd  Nd3  1  0.50332253  0.49924854  0.25000000  1
  Nd  Nd4  1  0.99591135  0.49670699  0.25000000  1
  Nd  Nd5  1  0.49666428  0.99589880  0.75000000  1
  Nd  Nd6  1  0.00407399  0.50075146  0.75000000  1
  Nd  Nd7  1  0.49920437  0.50329301  0.75000000  1
  Si  Si8  1  0.16647041  0.33264567  0.00188205  1
  Si  Si9  1  0.16617513  0.83351730  0.00185825  1
  Si  Si10  1  0.66732507  0.83383127  0.00185725  1
  Si  Si11  1  0.16647041  0.33264567  0.49811795  1
  Si  Si12  1  0.16617513  0.83351730  0.49814175  1
  Si  Si13  1  0.66732507  0.83383127  0.49814275  1
  Si  Si14  1  0.83382474  0.66735433  0.50188205  1
  Si  Si15  1  0.33265784  0.16648270  0.50185825  1
  Si  Si16  1  0.83349380  0.16616873  0.50185725  1
  Si  Si17  1  0.83382474  0.66735433  0.99811795  1
  Si  Si18  1  0.33265784  0.16648270  0.99814175  1
  Si  Si19  1  0.83349380  0.16616873  0.99814275  1
  Rh  Rh20  1  0.33332016  0.66665057  0.00608817  1
  Rh  Rh21  1  0.33332016  0.66665057  0.49391183  1
  Rh  Rh22  1  0.66666960  0.33334943  0.50608817  1
  Rh  Rh23  1  0.66666960  0.33334943  0.99391183  1
