# generated using pymatgen
data_YbGdHg2
_symmetry_space_group_name_H-M   'P 1'
_cell_length_a   5.30821101
_cell_length_b   5.30836936
_cell_length_c   5.30854048
_cell_angle_alpha   60.05713128
_cell_angle_beta   60.05796832
_cell_angle_gamma   60.05612502
_symmetry_Int_Tables_number   1
_chemical_formula_structural   YbGdHg2
_chemical_formula_sum   'Yb1 Gd1 Hg2'
_cell_volume   105.90851349
_cell_formula_units_Z   1
loop_
 _symmetry_equiv_pos_site_id
 _symmetry_equiv_pos_as_xyz
  1  'x, y, z'
loop_
 _atom_site_type_symbol
 _atom_site_label
 _atom_site_symmetry_multiplicity
 _atom_site_fract_x
 _atom_site_fract_y
 _atom_site_fract_z
 _atom_site_occupancy
  Yb  Yb0  1  0.74999996  0.74999989  0.75000016  1
  Gd  Gd1  1  0.25000019  0.25000010  0.24999969  1
  Hg  Hg2  1  0.00002217  0.00002350  0.00002538  1
  Hg  Hg3  1  0.49997769  0.49997651  0.49997477  1
