# generated using pymatgen
data_Cd(PO3)2
_symmetry_space_group_name_H-M   'P 1'
_cell_length_a   7.66549293
_cell_length_b   7.66549293
_cell_length_c   10.60180620
_cell_angle_alpha   66.27730983
_cell_angle_beta   113.72269017
_cell_angle_gamma   110.10867634
_symmetry_Int_Tables_number   1
_chemical_formula_structural   Cd(PO3)2
_chemical_formula_sum   'Cd4 P8 O24'
_cell_volume   509.68018982
_cell_formula_units_Z   4
loop_
 _symmetry_equiv_pos_site_id
 _symmetry_equiv_pos_as_xyz
  1  'x, y, z'
loop_
 _atom_site_type_symbol
 _atom_site_label
 _atom_site_symmetry_multiplicity
 _atom_site_fract_x
 _atom_site_fract_y
 _atom_site_fract_z
 _atom_site_occupancy
  Cd  Cd0  1  0.03457262  0.03457262  0.75000000  1
  Cd  Cd1  1  0.96542738  0.96542738  0.25000000  1
  Cd  Cd2  1  -0.00000000  0.50000000  0.50000000  1
  Cd  Cd3  1  0.50000000  -0.00000000  -0.00000000  1
  P  P4  1  0.71976955  0.73920986  0.52088289  1
  P  P5  1  0.73920986  0.71976955  0.97911711  1
  P  P6  1  0.28023045  0.26079014  0.47911711  1
  P  P7  1  0.26079014  0.28023045  0.02088289  1
  P  P8  1  0.68731728  0.31110471  0.69057430  1
  P  P9  1  0.31110471  0.68731728  0.80942570  1
  P  P10  1  0.31268272  0.68889529  0.30942570  1
  P  P11  1  0.68889529  0.31268272  0.19057430  1
  O  O12  1  0.81207337  0.90807232  0.57796900  1
  O  O13  1  0.90807232  0.81207337  0.92203100  1
  O  O14  1  0.18792663  0.09192768  0.42203100  1
  O  O15  1  0.09192768  0.18792663  0.07796900  1
  O  O16  1  0.80113759  0.71762720  0.41982786  1
  O  O17  1  0.71762720  0.80113759  0.08017214  1
  O  O18  1  0.19886241  0.28237280  0.58017214  1
  O  O19  1  0.28237280  0.19886241  0.91982786  1
  O  O20  1  0.50885240  0.26034675  0.55490982  1
  O  O21  1  0.26034675  0.50885240  0.94509018  1
  O  O22  1  0.49114760  0.73965325  0.44509018  1
  O  O23  1  0.73965325  0.49114760  0.05490982  1
  O  O24  1  0.71386147  0.54204953  0.65662840  1
  O  O25  1  0.54204953  0.71386147  0.84337160  1
  O  O26  1  0.28613853  0.45795047  0.34337160  1
  O  O27  1  0.45795047  0.28613853  0.15662840  1
  O  O28  1  0.64369387  0.20867954  0.82965609  1
  O  O29  1  0.20867954  0.64369387  0.67034391  1
  O  O30  1  0.35630613  0.79132046  0.17034391  1
  O  O31  1  0.79132046  0.35630613  0.32965609  1
  O  O32  1  0.86395963  0.28091964  0.67693275  1
  O  O33  1  0.28091964  0.86395963  0.82306725  1
  O  O34  1  0.13604037  0.71908036  0.32306725  1
  O  O35  1  0.71908036  0.13604037  0.17693275  1
