# generated using pymatgen
data_Pr3Tm3Mn23
_symmetry_space_group_name_H-M   'P 1'
_cell_length_a   8.64435410
_cell_length_b   8.64435410
_cell_length_c   8.65054974
_cell_angle_alpha   90.00000000
_cell_angle_beta   60.02368935
_cell_angle_gamma   120.00000000
_symmetry_Int_Tables_number   1
_chemical_formula_structural   Pr3Tm3Mn23
_chemical_formula_sum   'Pr3 Tm3 Mn23'
_cell_volume   457.24526773
_cell_formula_units_Z   1
loop_
 _symmetry_equiv_pos_site_id
 _symmetry_equiv_pos_as_xyz
  1  'x, y, z'
loop_
 _atom_site_type_symbol
 _atom_site_label
 _atom_site_symmetry_multiplicity
 _atom_site_fract_x
 _atom_site_fract_y
 _atom_site_fract_z
 _atom_site_occupancy
  Pr  Pr0  1  0.58702195  0.29351097  0.70492543  1
  Pr  Pr1  1  0.00156360  0.70805263  0.70492543  1
  Pr  Pr2  1  0.00156360  0.29351097  0.70492543  1
  Tm  Tm3  1  0.42701545  0.71350772  0.28333966  1
  Tm  Tm4  1  0.00315262  0.28964490  0.28333966  1
  Tm  Tm5  1  0.00315262  0.71350772  0.28333966  1
  Mn  Mn6  1  0.63754047  0.31877024  0.04368929  1
  Mn  Mn7  1  0.35816085  0.32182607  0.32001308  1
  Mn  Mn8  1  0.35816085  0.03633478  0.32001308  1
  Mn  Mn9  1  0.64365214  0.32182607  0.32001308  1
  Mn  Mn10  1  0.35731808  0.67865904  0.96402288  1
  Mn  Mn11  1  0.64163472  0.68044251  0.67792277  1
  Mn  Mn12  1  0.64163472  0.96119221  0.67792277  1
  Mn  Mn13  1  0.36088502  0.68044251  0.67792277  1
  Mn  Mn14  1  0.99477362  0.99738681  0.00783957  1
  Mn  Mn15  1  0.23656123  0.11828061  0.64515816  1
  Mn  Mn16  1  0.76419331  0.11702651  0.11878018  1
  Mn  Mn17  1  0.76419331  0.64716680  0.11878018  1
  Mn  Mn18  1  0.23405302  0.11702651  0.11878018  1
  Mn  Mn19  1  0.76519645  0.88259822  0.35220533  1
  Mn  Mn20  1  0.23653990  0.88000103  0.88345906  1
  Mn  Mn21  1  0.23653990  0.35653887  0.88345906  1
  Mn  Mn22  1  0.76000206  0.88000103  0.88345906  1
  Mn  Mn23  1  -0.00010435  -0.00005218  0.49629301  1
  Mn  Mn24  1  0.50375916  0.50381134  0.49629301  1
  Mn  Mn25  1  0.50375916  -0.00005218  0.49629301  1
  Mn  Mn26  1  0.99783202  0.49891601  0.01096174  1
  Mn  Mn27  1  0.49012225  0.99120624  0.01096174  1
  Mn  Mn28  1  0.49012225  0.49891601  0.01096174  1
