# generated using pymatgen
data_Nd4CuNiO8
_symmetry_space_group_name_H-M   'P 1'
_cell_length_a   3.82960050
_cell_length_b   3.82960050
_cell_length_c   12.63634114
_cell_angle_alpha   90.00000000
_cell_angle_beta   90.00000000
_cell_angle_gamma   90.65403562
_symmetry_Int_Tables_number   1
_chemical_formula_structural   Nd4CuNiO8
_chemical_formula_sum   'Nd4 Cu1 Ni1 O8'
_cell_volume   185.31048307
_cell_formula_units_Z   1
loop_
 _symmetry_equiv_pos_site_id
 _symmetry_equiv_pos_as_xyz
  1  'x, y, z'
loop_
 _atom_site_type_symbol
 _atom_site_label
 _atom_site_symmetry_multiplicity
 _atom_site_fract_x
 _atom_site_fract_y
 _atom_site_fract_z
 _atom_site_occupancy
  Nd  Nd0  1  0.49911659  0.50088341  0.13924887  1
  Nd  Nd1  1  0.99031331  0.00968669  0.63390038  1
  Nd  Nd2  1  0.99031331  0.00968669  0.36609962  1
  Nd  Nd3  1  0.49911659  0.50088341  0.86075113  1
  Cu  Cu4  1  0.99037820  0.00962180  0.00000000  1
  Ni  Ni5  1  0.48173139  0.51826861  0.50000000  1
  O  O6  1  0.49352058  0.01853528  0.50000000  1
  O  O7  1  0.99689764  0.51113155  0.00000000  1
  O  O8  1  0.98146472  0.50647942  0.50000000  1
  O  O9  1  0.48886845  0.00310236  0.00000000  1
  O  O10  1  0.45321076  0.54678924  0.32282187  1
  O  O11  1  0.94042885  0.05957115  0.81284723  1
  O  O12  1  0.94042885  0.05957115  0.18715277  1
  O  O13  1  0.45321076  0.54678924  0.67717813  1
