# generated using pymatgen
data_LiMgAsO4
_symmetry_space_group_name_H-M   'P 1'
_cell_length_a   4.94657342
_cell_length_b   6.05076770
_cell_length_c   10.57927834
_cell_angle_alpha   90.00000000
_cell_angle_beta   90.00000000
_cell_angle_gamma   90.00000000
_symmetry_Int_Tables_number   1
_chemical_formula_structural   LiMgAsO4
_chemical_formula_sum   'Li4 Mg4 As4 O16'
_cell_volume   316.64379573
_cell_formula_units_Z   4
loop_
 _symmetry_equiv_pos_site_id
 _symmetry_equiv_pos_as_xyz
  1  'x, y, z'
loop_
 _atom_site_type_symbol
 _atom_site_label
 _atom_site_symmetry_multiplicity
 _atom_site_fract_x
 _atom_site_fract_y
 _atom_site_fract_z
 _atom_site_occupancy
  Li  Li0  1  0.00000000  0.00000000  0.00000000  1
  Li  Li1  1  0.50000000  0.00000000  0.50000000  1
  Li  Li2  1  0.00000000  0.50000000  0.00000000  1
  Li  Li3  1  0.50000000  0.50000000  0.50000000  1
  O  O4  1  0.77829021  0.53096671  0.32891295  1
  O  O5  1  0.22170979  0.46903329  0.67108705  1
  O  O6  1  0.72170979  0.53096671  0.82891295  1
  O  O7  1  0.77829021  0.96903329  0.32891295  1
  O  O8  1  0.27829021  0.03096671  0.17108705  1
  O  O9  1  0.78010597  0.25000000  0.09811840  1
  O  O10  1  0.27829021  0.46903329  0.17108705  1
  O  O11  1  0.22170979  0.03096671  0.67108705  1
  O  O12  1  0.21989403  0.75000000  0.90188160  1
  O  O13  1  0.71989403  0.25000000  0.59811840  1
  O  O14  1  0.79647434  0.75000000  0.55503216  1
  O  O15  1  0.28010597  0.75000000  0.40188160  1
  O  O16  1  0.70352566  0.75000000  0.05503216  1
  O  O17  1  0.29647434  0.25000000  0.94496784  1
  O  O18  1  0.20352566  0.25000000  0.44496784  1
  O  O19  1  0.72170979  0.96903329  0.82891295  1
  Mg  Mg20  1  0.00612421  0.75000000  0.72522344  1
  Mg  Mg21  1  0.99387579  0.25000000  0.27477656  1
  Mg  Mg22  1  0.49387579  0.75000000  0.22522344  1
  Mg  Mg23  1  0.50612421  0.25000000  0.77477656  1
  As  As24  1  0.06510955  0.25000000  0.59429024  1
  As  As25  1  0.43489045  0.25000000  0.09429024  1
  As  As26  1  0.93489045  0.75000000  0.40570976  1
  As  As27  1  0.56510955  0.75000000  0.90570976  1
