# generated using pymatgen
data_CsDyS2
_symmetry_space_group_name_H-M   'P 1'
_cell_length_a   8.39993143
_cell_length_b   8.39993143
_cell_length_c   8.39993142
_cell_angle_alpha   28.30567078
_cell_angle_beta   28.30567077
_cell_angle_gamma   28.30567078
_symmetry_Int_Tables_number   1
_chemical_formula_structural   CsDyS2
_chemical_formula_sum   'Cs1 Dy1 S2'
_cell_volume   117.75250642
_cell_formula_units_Z   1
loop_
 _symmetry_equiv_pos_site_id
 _symmetry_equiv_pos_as_xyz
  1  'x, y, z'
loop_
 _atom_site_type_symbol
 _atom_site_label
 _atom_site_symmetry_multiplicity
 _atom_site_fract_x
 _atom_site_fract_y
 _atom_site_fract_z
 _atom_site_occupancy
  S  S0  1  0.77285941  0.77285941  0.77285941  1
  S  S1  1  0.22714059  0.22714059  0.22714059  1
  Cs  Cs2  1  0.00000000  0.00000000  0.00000000  1
  Dy  Dy3  1  0.50000000  0.50000000  0.50000000  1
