# generated using pymatgen
data_Yb11(Ni10C)6
_symmetry_space_group_name_H-M   'P 1'
_cell_length_a   10.67503826
_cell_length_b   10.67503826
_cell_length_c   10.67503826
_cell_angle_alpha   109.47122065
_cell_angle_beta   109.47122065
_cell_angle_gamma   109.47122064
_symmetry_Int_Tables_number   1
_chemical_formula_structural   Yb11(Ni10C)6
_chemical_formula_sum   'Yb11 Ni60 C6'
_cell_volume   936.45395871
_cell_formula_units_Z   1
loop_
 _symmetry_equiv_pos_site_id
 _symmetry_equiv_pos_as_xyz
  1  'x, y, z'
loop_
 _atom_site_type_symbol
 _atom_site_label
 _atom_site_symmetry_multiplicity
 _atom_site_fract_x
 _atom_site_fract_y
 _atom_site_fract_z
 _atom_site_occupancy
  C  C0  1  0.00000000  0.70941685  0.70941685  1
  C  C1  1  0.29058315  0.29058315  0.00000000  1
  C  C2  1  0.70941685  0.70941685  0.00000000  1
  C  C3  1  0.70941685  0.00000000  0.70941685  1
  C  C4  1  0.29058315  0.00000000  0.29058315  1
  C  C5  1  0.00000000  0.29058315  0.29058315  1
  Ni  Ni6  1  0.41957319  0.00000000  0.76716332  1
  Ni  Ni7  1  0.00000000  0.41957319  0.76716332  1
  Ni  Ni8  1  0.23283668  0.23283668  0.65240987  1
  Ni  Ni9  1  0.58042681  0.34759013  0.58042681  1
  Ni  Ni10  1  0.58042681  0.23283668  0.00000000  1
  Ni  Ni11  1  0.34759013  0.58042681  0.58042681  1
  Ni  Ni12  1  0.23283668  0.58042681  0.00000000  1
  Ni  Ni13  1  0.58042681  0.58042681  0.34759013  1
  Ni  Ni14  1  0.76716332  0.76716332  0.34759013  1
  Ni  Ni15  1  0.41957319  0.65240987  0.41957319  1
  Ni  Ni16  1  0.65240987  0.41957319  0.41957319  1
  Ni  Ni17  1  0.00000000  0.58042681  0.23283668  1
  Ni  Ni18  1  0.58042681  0.00000000  0.23283668  1
  Ni  Ni19  1  0.34759013  0.76716332  0.76716332  1
  Ni  Ni20  1  0.23283668  0.00000000  0.58042681  1
  Ni  Ni21  1  0.00000000  0.23283668  0.58042681  1
  Ni  Ni22  1  0.76716332  0.34759013  0.76716332  1
  Ni  Ni23  1  0.76716332  0.00000000  0.41957319  1
  Ni  Ni24  1  0.23283668  0.65240987  0.23283668  1
  Ni  Ni25  1  0.65240987  0.23283668  0.23283668  1
  Ni  Ni26  1  0.00000000  0.76716332  0.41957319  1
  Ni  Ni27  1  0.76716332  0.41957319  0.00000000  1
  Ni  Ni28  1  0.41957319  0.76716332  0.00000000  1
  Ni  Ni29  1  0.41957319  0.41957319  0.65240987  1
  Ni  Ni30  1  0.46458052  0.31603251  0.14854801  1
  Ni  Ni31  1  0.68396749  0.14854801  0.83251550  1
  Ni  Ni32  1  0.85145199  0.16748450  0.31603251  1
  Ni  Ni33  1  0.53541948  0.68396749  0.85145199  1
  Ni  Ni34  1  0.53541948  0.85145199  0.68396749  1
  Ni  Ni35  1  0.68396749  0.85145199  0.53541948  1
  Ni  Ni36  1  0.16748450  0.85145199  0.31603251  1
  Ni  Ni37  1  0.85145199  0.53541948  0.68396749  1
  Ni  Ni38  1  0.83251550  0.14854801  0.68396749  1
  Ni  Ni39  1  0.14854801  0.31603251  0.46458052  1
  Ni  Ni40  1  0.31603251  0.46458052  0.14854801  1
  Ni  Ni41  1  0.68396749  0.53541948  0.85145199  1
  Ni  Ni42  1  0.85145199  0.31603251  0.16748450  1
  Ni  Ni43  1  0.68396749  0.83251550  0.14854801  1
  Ni  Ni44  1  0.85145199  0.68396749  0.53541948  1
  Ni  Ni45  1  0.31603251  0.16748450  0.85145199  1
  Ni  Ni46  1  0.14854801  0.68396749  0.83251550  1
  Ni  Ni47  1  0.83251550  0.68396749  0.14854801  1
  Ni  Ni48  1  0.16748450  0.31603251  0.85145199  1
  Ni  Ni49  1  0.31603251  0.85145199  0.16748450  1
  Ni  Ni50  1  0.31603251  0.14854801  0.46458052  1
  Ni  Ni51  1  0.14854801  0.46458052  0.31603251  1
  Ni  Ni52  1  0.14854801  0.83251550  0.68396749  1
  Ni  Ni53  1  0.46458052  0.14854801  0.31603251  1
  Ni  Ni54  1  0.00000000  0.85752810  0.85752810  1
  Ni  Ni55  1  0.14247190  0.14247190  0.00000000  1
  Ni  Ni56  1  0.85752810  0.85752810  0.00000000  1
  Ni  Ni57  1  0.85752810  0.00000000  0.85752810  1
  Ni  Ni58  1  0.14247190  0.00000000  0.14247190  1
  Ni  Ni59  1  0.00000000  0.14247190  0.14247190  1
  Ni  Ni60  1  0.75000000  0.25000000  0.50000000  1
  Ni  Ni61  1  0.25000000  0.75000000  0.50000000  1
  Ni  Ni62  1  0.75000000  0.50000000  0.25000000  1
  Ni  Ni63  1  0.50000000  0.25000000  0.75000000  1
  Ni  Ni64  1  0.50000000  0.75000000  0.25000000  1
  Ni  Ni65  1  0.25000000  0.50000000  0.75000000  1
  Yb  Yb66  1  0.66530888  0.66530888  0.66530888  1
  Yb  Yb67  1  0.66530888  0.00000000  0.00000000  1
  Yb  Yb68  1  0.00000000  0.00000000  0.66530888  1
  Yb  Yb69  1  0.00000000  0.66530888  0.00000000  1
  Yb  Yb70  1  0.00000000  0.00000000  0.33469112  1
  Yb  Yb71  1  0.00000000  0.33469112  0.00000000  1
  Yb  Yb72  1  0.33469112  0.00000000  0.00000000  1
  Yb  Yb73  1  0.33469112  0.33469112  0.33469112  1
  Yb  Yb74  1  0.50000000  0.00000000  0.50000000  1
  Yb  Yb75  1  0.00000000  0.50000000  0.50000000  1
  Yb  Yb76  1  0.50000000  0.50000000  0.00000000  1
