# generated using pymatgen
data_LiMnHSO5
_symmetry_space_group_name_H-M   'P 1'
_cell_length_a   5.59185958
_cell_length_b   9.97789111
_cell_length_c   7.67760399
_cell_angle_alpha   110.97356209
_cell_angle_beta   90.00000000
_cell_angle_gamma   90.00000000
_symmetry_Int_Tables_number   1
_chemical_formula_structural   LiMnHSO5
_chemical_formula_sum   'Li4 Mn4 H4 S4 O20'
_cell_volume   399.99018480
_cell_formula_units_Z   4
loop_
 _symmetry_equiv_pos_site_id
 _symmetry_equiv_pos_as_xyz
  1  'x, y, z'
loop_
 _atom_site_type_symbol
 _atom_site_label
 _atom_site_symmetry_multiplicity
 _atom_site_fract_x
 _atom_site_fract_y
 _atom_site_fract_z
 _atom_site_occupancy
  Li  Li0  1  0.43894376  0.91427952  0.68816906  1
  Li  Li1  1  0.93894376  0.08572048  0.81183094  1
  Li  Li2  1  0.56105624  0.08572048  0.31183094  1
  Li  Li3  1  0.06105624  0.91427952  0.18816906  1
  Mn  Mn4  1  0.76598293  0.44405102  0.87563970  1
  Mn  Mn5  1  0.26598293  0.55594898  0.62436030  1
  Mn  Mn6  1  0.23401707  0.55594898  0.12436030  1
  Mn  Mn7  1  0.73401707  0.44405102  0.37563970  1
  H  H8  1  0.49928032  0.66928879  0.40289232  1
  H  H9  1  0.99928032  0.33071121  0.09710768  1
  H  H10  1  0.50071968  0.33071121  0.59710768  1
  H  H11  1  0.00071968  0.66928879  0.90289232  1
  S  S12  1  0.06121435  0.20864532  0.50744937  1
  S  S13  1  0.56121435  0.79135468  0.99255063  1
  S  S14  1  0.93878565  0.79135468  0.49255063  1
  S  S15  1  0.43878565  0.20864532  0.00744937  1
  O  O16  1  0.92934711  0.42704786  0.12787060  1
  O  O17  1  0.42934711  0.57295214  0.37212940  1
  O  O18  1  0.07065289  0.57295214  0.87212940  1
  O  O19  1  0.57065289  0.42704786  0.62787060  1
  O  O20  1  0.44563485  0.34542330  0.96622121  1
  O  O21  1  0.94563485  0.65457670  0.53377879  1
  O  O22  1  0.55436515  0.65457670  0.03377879  1
  O  O23  1  0.05436515  0.34542330  0.46622121  1
  O  O24  1  0.54809524  0.23695118  0.19512603  1
  O  O25  1  0.04809524  0.76304882  0.30487397  1
  O  O26  1  0.45190476  0.76304882  0.80487397  1
  O  O27  1  0.95190476  0.23695118  0.69512603  1
  O  O28  1  0.68682287  0.83797052  0.49294134  1
  O  O29  1  0.18682287  0.16202948  0.00705866  1
  O  O30  1  0.31317713  0.16202948  0.50705866  1
  O  O31  1  0.81317713  0.83797052  0.99294134  1
  O  O32  1  0.41984562  0.90422632  0.13634988  1
  O  O33  1  0.91984562  0.09577368  0.36365012  1
  O  O34  1  0.58015438  0.09577368  0.86365012  1
  O  O35  1  0.08015438  0.90422632  0.63634988  1
