# generated using pymatgen
data_Ba2Tb2Mn4O11
_symmetry_space_group_name_H-M   'P 1'
_cell_length_a   9.61076861
_cell_length_b   7.67398233
_cell_length_c   15.56691533
_cell_angle_alpha   90.00000000
_cell_angle_beta   35.91692559
_cell_angle_gamma   113.53059712
_symmetry_Int_Tables_number   1
_chemical_formula_structural   Ba2Tb2Mn4O11
_chemical_formula_sum   'Ba4 Tb4 Mn8 O22'
_cell_volume   493.44681379
_cell_formula_units_Z   2
loop_
 _symmetry_equiv_pos_site_id
 _symmetry_equiv_pos_as_xyz
  1  'x, y, z'
loop_
 _atom_site_type_symbol
 _atom_site_label
 _atom_site_symmetry_multiplicity
 _atom_site_fract_x
 _atom_site_fract_y
 _atom_site_fract_z
 _atom_site_occupancy
  Tb  Tb0  1  0.55239691  0.77619845  0.72735029  1
  Tb  Tb1  1  0.44760309  0.22380155  0.27264971  1
  Tb  Tb2  1  0.44760309  0.72380155  0.27974719  1
  Tb  Tb3  1  0.55239691  0.27619845  0.72025281  1
  Ba  Ba4  1  0.49642814  0.74821407  0.00286090  1
  Ba  Ba5  1  0.50357186  0.25178593  0.99713910  1
  Ba  Ba6  1  0.50357186  0.75178593  0.49928904  1
  Ba  Ba7  1  0.49642814  0.24821407  0.50071096  1
  Mn  Mn8  1  0.00000000  0.75000000  0.11424227  1
  Mn  Mn9  1  0.00000000  0.75000000  0.88575773  1
  Mn  Mn10  1  0.00000000  0.25000000  0.88575773  1
  Mn  Mn11  1  0.00000000  0.25000000  0.11424227  1
  Mn  Mn12  1  0.00000000  0.75000000  0.37565172  1
  Mn  Mn13  1  0.00000000  0.75000000  0.62434828  1
  Mn  Mn14  1  0.00000000  0.25000000  0.62434828  1
  Mn  Mn15  1  0.00000000  0.25000000  0.37565172  1
  O  O16  1  0.46394113  0.01590582  0.86755448  1
  O  O17  1  0.53605887  0.55196469  0.13244552  1
  O  O18  1  0.53605887  0.48409418  0.33149561  1
  O  O19  1  0.46394113  0.94803531  0.66850439  1
  O  O20  1  0.53605887  0.98409418  0.13244552  1
  O  O21  1  0.46394113  0.44803531  0.86755448  1
  O  O22  1  0.46394113  0.51590582  0.66850439  1
  O  O23  1  0.53605887  0.05196469  0.33149561  1
  O  O24  1  0.00000000  0.75000000  0.25135356  1
  O  O25  1  0.00000000  0.75000000  0.74864644  1
  O  O26  1  0.00000000  0.25000000  0.74864644  1
  O  O27  1  0.00000000  0.25000000  0.25135356  1
  O  O28  1  0.08831418  0.54415709  0.04706000  1
  O  O29  1  0.91168582  0.45584291  0.95294000  1
  O  O30  1  0.91168582  0.95584291  0.13537418  1
  O  O31  1  0.08831418  0.04415709  0.86462582  1
  O  O32  1  0.94089913  0.47044956  0.41504778  1
  O  O33  1  0.05910087  0.52955044  0.58495222  1
  O  O34  1  0.05910087  0.02955044  0.35594690  1
  O  O35  1  0.94089913  0.97044956  0.64405310  1
  O  O36  1  0.00000000  0.75000000  0.50000000  1
  O  O37  1  0.00000000  0.25000000  0.50000000  1
