# generated using pymatgen
data_LiCoHSO5
_symmetry_space_group_name_H-M   'P 1'
_cell_length_a   5.45957951
_cell_length_b   9.84356766
_cell_length_c   7.43205579
_cell_angle_alpha   110.18659191
_cell_angle_beta   90.00000000
_cell_angle_gamma   90.00000000
_symmetry_Int_Tables_number   1
_chemical_formula_structural   LiCoHSO5
_chemical_formula_sum   'Li4 Co4 H4 S4 O20'
_cell_volume   374.87727575
_cell_formula_units_Z   4
loop_
 _symmetry_equiv_pos_site_id
 _symmetry_equiv_pos_as_xyz
  1  'x, y, z'
loop_
 _atom_site_type_symbol
 _atom_site_label
 _atom_site_symmetry_multiplicity
 _atom_site_fract_x
 _atom_site_fract_y
 _atom_site_fract_z
 _atom_site_occupancy
  Li  Li0  1  0.44001681  0.91439962  0.68548598  1
  Li  Li1  1  0.94001681  0.08560038  0.81451402  1
  Li  Li2  1  0.55998319  0.08560038  0.31451402  1
  Li  Li3  1  0.05998319  0.91439962  0.18548598  1
  Co  Co4  1  0.76859422  0.44938708  0.88002526  1
  Co  Co5  1  0.26859422  0.55061292  0.61997474  1
  Co  Co6  1  0.23140578  0.55061292  0.11997474  1
  Co  Co7  1  0.73140578  0.44938708  0.38002526  1
  H  H8  1  0.49119313  0.66514670  0.39835238  1
  H  H9  1  0.99119313  0.33485330  0.10164762  1
  H  H10  1  0.50880687  0.33485330  0.60164762  1
  H  H11  1  0.00880687  0.66514670  0.89835238  1
  S  S12  1  0.05872374  0.21477744  0.51059724  1
  S  S13  1  0.55872374  0.78522256  0.98940276  1
  S  S14  1  0.94127626  0.78522256  0.48940276  1
  S  S15  1  0.44127626  0.21477744  0.01059724  1
  O  O16  1  0.92780484  0.43429045  0.13326681  1
  O  O17  1  0.42780484  0.56570955  0.36673319  1
  O  O18  1  0.07219516  0.56570955  0.86673319  1
  O  O19  1  0.57219516  0.43429045  0.63326681  1
  O  O20  1  0.44773075  0.35105878  0.96029601  1
  O  O21  1  0.94773075  0.64894122  0.53970399  1
  O  O22  1  0.55226925  0.64894122  0.03970399  1
  O  O23  1  0.05226925  0.35105878  0.46029601  1
  O  O24  1  0.55718431  0.24551715  0.20281869  1
  O  O25  1  0.05718431  0.75448285  0.29718131  1
  O  O26  1  0.44281569  0.75448285  0.79718131  1
  O  O27  1  0.94281569  0.24551715  0.70281869  1
  O  O28  1  0.68421908  0.83095143  0.48436203  1
  O  O29  1  0.18421908  0.16904857  0.01563797  1
  O  O30  1  0.31578092  0.16904857  0.51563797  1
  O  O31  1  0.81578092  0.83095143  0.98436203  1
  O  O32  1  0.41833511  0.90172459  0.13442935  1
  O  O33  1  0.91833511  0.09827541  0.36557065  1
  O  O34  1  0.58166489  0.09827541  0.86557065  1
  O  O35  1  0.08166489  0.90172459  0.63442935  1
