# generated using pymatgen
data_YMg3
_symmetry_space_group_name_H-M   'P 1'
_cell_length_a   6.69801240
_cell_length_b   6.69801201
_cell_length_c   5.16790420
_cell_angle_alpha   90.00000000
_cell_angle_beta   90.00000000
_cell_angle_gamma   120.00000194
_symmetry_Int_Tables_number   1
_chemical_formula_structural   YMg3
_chemical_formula_sum   'Y2 Mg6'
_cell_volume   200.78762675
_cell_formula_units_Z   2
loop_
 _symmetry_equiv_pos_site_id
 _symmetry_equiv_pos_as_xyz
  1  'x, y, z'
loop_
 _atom_site_type_symbol
 _atom_site_label
 _atom_site_symmetry_multiplicity
 _atom_site_fract_x
 _atom_site_fract_y
 _atom_site_fract_z
 _atom_site_occupancy
  Y  Y0  1  0.66666800  0.33333400  0.25000000  1
  Y  Y1  1  0.33333400  0.66666700  0.75000000  1
  Mg  Mg2  1  0.16233022  0.32466043  0.25000000  1
  Mg  Mg3  1  0.16233022  0.83766978  0.25000000  1
  Mg  Mg4  1  0.67533857  0.83766978  0.25000000  1
  Mg  Mg5  1  0.32466043  0.16233122  0.75000000  1
  Mg  Mg6  1  0.83767078  0.16233122  0.75000000  1
  Mg  Mg7  1  0.83766978  0.67534057  0.75000000  1
