# generated using pymatgen
data_NdAl2Cu9
_symmetry_space_group_name_H-M   'P 1'
_cell_length_a   7.90259443
_cell_length_b   7.90259364
_cell_length_c   7.90255997
_cell_angle_alpha   100.07925333
_cell_angle_beta   100.07914519
_cell_angle_gamma   130.54137411
_symmetry_Int_Tables_number   1
_chemical_formula_structural   NdAl2Cu9
_chemical_formula_sum   'Nd2 Al4 Cu18'
_cell_volume   340.64897987
_cell_formula_units_Z   2
loop_
 _symmetry_equiv_pos_site_id
 _symmetry_equiv_pos_as_xyz
  1  'x, y, z'
loop_
 _atom_site_type_symbol
 _atom_site_label
 _atom_site_symmetry_multiplicity
 _atom_site_fract_x
 _atom_site_fract_y
 _atom_site_fract_z
 _atom_site_occupancy
  Nd  Nd0  1  0.62500230  0.37500220  0.24999966  1
  Nd  Nd1  1  0.37500202  0.62500169  0.75000065  1
  Al  Al2  1  0.50000006  0.99999926  0.49999933  1
  Al  Al3  1  0.00000097  0.00000137  0.00000122  1
  Al  Al4  1  0.00000017  0.00000048  0.49999952  1
  Al  Al5  1  0.00000141  0.50000139  0.00000163  1
  Cu  Cu6  1  0.19600328  0.27588194  0.33438710  1
  Cu  Cu7  1  0.44150280  0.86161966  0.16560590  1
  Cu  Cu8  1  0.80398958  0.13837978  0.07988076  1
  Cu  Cu9  1  0.55850132  0.72411619  0.42011988  1
  Cu  Cu10  1  0.72410299  0.80398967  0.16560222  1
  Cu  Cu11  1  0.13838790  0.55850308  0.33439396  1
  Cu  Cu12  1  0.86161010  0.19600725  0.42011592  1
  Cu  Cu13  1  0.27588768  0.44149801  0.07988007  1
  Cu  Cu14  1  0.80399389  0.72411339  0.66560424  1
  Cu  Cu15  1  0.55850431  0.13838325  0.83440175  1
  Cu  Cu16  1  0.19600529  0.86161612  0.92011106  1
  Cu  Cu17  1  0.44149661  0.27588557  0.57987636  1
  Cu  Cu18  1  0.27588852  0.19600778  0.83439661  1
  Cu  Cu19  1  0.86161470  0.44149780  0.66560920  1
  Cu  Cu20  1  0.13838563  0.80399197  0.57988584  1
  Cu  Cu21  1  0.72410734  0.55849958  0.92012652  1
  Cu  Cu22  1  0.87500255  0.12499656  0.74999341  1
  Cu  Cu23  1  0.12500657  0.87500302  0.25000419  1
