# generated using pymatgen
data_Rh2S3
_symmetry_space_group_name_H-M   'P 1'
_cell_length_a   6.02562672
_cell_length_b   6.02562560
_cell_length_c   6.34527582
_cell_angle_alpha   118.34710050
_cell_angle_beta   61.65290269
_cell_angle_gamma   119.99998966
_symmetry_Int_Tables_number   1
_chemical_formula_structural   Rh2S3
_chemical_formula_sum   'Rh4 S6'
_cell_volume   166.85910023
_cell_formula_units_Z   2
loop_
 _symmetry_equiv_pos_site_id
 _symmetry_equiv_pos_as_xyz
  1  'x, y, z'
loop_
 _atom_site_type_symbol
 _atom_site_label
 _atom_site_symmetry_multiplicity
 _atom_site_fract_x
 _atom_site_fract_y
 _atom_site_fract_z
 _atom_site_occupancy
  Rh  Rh0  1  0.64967191  0.35032809  0.05098328  1
  Rh  Rh1  1  0.85032809  0.14967191  0.44901672  1
  Rh  Rh2  1  0.14967291  0.85032709  0.55098128  1
  Rh  Rh3  1  0.35032709  0.64967291  0.94901772  1
  S  S4  1  0.95051386  0.45051286  0.24999900  1
  S  S5  1  0.54948714  0.74999900  0.24999900  1
  S  S6  1  0.25000000  0.04948614  0.24999900  1
  S  S7  1  0.75000100  0.95051286  0.74999900  1
  S  S8  1  0.45051586  0.25000000  0.74999900  1
  S  S9  1  0.04948714  0.54948514  0.74999900  1
