# generated using pymatgen
data_Ca2AlVO5
_symmetry_space_group_name_H-M   'P 1'
_cell_length_a   5.42464567
_cell_length_b   5.69131712
_cell_length_c   8.23563478
_cell_angle_alpha   110.22675193
_cell_angle_beta   109.26268644
_cell_angle_gamma   90.02248492
_symmetry_Int_Tables_number   1
_chemical_formula_structural   Ca2AlVO5
_chemical_formula_sum   'Ca4 Al2 V2 O10'
_cell_volume   223.33730945
_cell_formula_units_Z   2
loop_
 _symmetry_equiv_pos_site_id
 _symmetry_equiv_pos_as_xyz
  1  'x, y, z'
loop_
 _atom_site_type_symbol
 _atom_site_label
 _atom_site_symmetry_multiplicity
 _atom_site_fract_x
 _atom_site_fract_y
 _atom_site_fract_z
 _atom_site_occupancy
  Ca  Ca0  1  0.12437581  0.64239095  0.22089486  1
  Ca  Ca1  1  0.40337310  0.92153829  0.77982611  1
  Ca  Ca2  1  0.90158284  0.35783715  0.78020046  1
  Ca  Ca3  1  0.62451342  0.07878021  0.22011090  1
  Al  Al4  1  0.29250743  0.32559047  0.49997204  1
  Al  Al5  1  0.79306530  0.67382974  0.50016893  1
  V  V6  1  0.49957810  0.50026319  0.99979698  1
  V  V7  1  0.00011043  0.00000774  0.99976530  1
  O  O8  1  0.62182022  0.39818174  0.49974472  1
  O  O9  1  0.12234299  0.60123329  0.50006807  1
  O  O10  1  0.62309960  0.71885766  0.29298124  1
  O  O11  1  0.32584126  0.28076606  0.70632181  1
  O  O12  1  0.12138285  0.07452971  0.29225325  1
  O  O13  1  0.82676618  0.92453763  0.70689793  1
  O  O14  1  0.23855851  0.73886504  0.96853822  1
  O  O15  1  0.26794949  0.26434273  0.03188622  1
  O  O16  1  0.76754222  0.26785751  0.03029033  1
  O  O17  1  0.73833924  0.73021688  0.96845361  1
