# generated using pymatgen
data_Ca2Ni3O8
_symmetry_space_group_name_H-M   'P 1'
_cell_length_a   4.93153346
_cell_length_b   5.82497990
_cell_length_c   6.20025879
_cell_angle_alpha   118.01721670
_cell_angle_beta   107.10446117
_cell_angle_gamma   89.99999703
_symmetry_Int_Tables_number   1
_chemical_formula_structural   Ca2Ni3O8
_chemical_formula_sum   'Ca2 Ni3 O8'
_cell_volume   148.25314153
_cell_formula_units_Z   1
loop_
 _symmetry_equiv_pos_site_id
 _symmetry_equiv_pos_as_xyz
  1  'x, y, z'
loop_
 _atom_site_type_symbol
 _atom_site_label
 _atom_site_symmetry_multiplicity
 _atom_site_fract_x
 _atom_site_fract_y
 _atom_site_fract_z
 _atom_site_occupancy
  Ca  Ca0  1  0.66264952  0.72173636  0.44347172  1
  Ca  Ca1  1  0.33734948  0.27826464  0.55652828  1
  Ni  Ni2  1  0.50000000  0.99999900  0.00000000  1
  Ni  Ni3  1  0.99999900  0.74743844  0.00000000  1
  Ni  Ni4  1  0.99999900  0.25256156  1.00000000  1
  O  O5  1  0.03808071  0.39930496  0.79861093  1
  O  O6  1  0.96191929  0.60069404  0.20138907  1
  O  O7  1  0.09998933  0.90615746  0.81231491  1
  O  O8  1  0.90001067  0.09384154  0.18768409  1
  O  O9  1  0.38827806  0.32046597  0.19904562  1
  O  O10  1  0.38827806  0.87857965  0.19904562  1
  O  O11  1  0.61172294  0.12141935  0.80095438  1
  O  O12  1  0.61172294  0.67953403  0.80095438  1
