# generated using pymatgen
data_KCu3S2
_symmetry_space_group_name_H-M   'P 1'
_cell_length_a   3.89718001
_cell_length_b   7.55015075
_cell_length_c   8.29652520
_cell_angle_alpha   112.52199412
_cell_angle_beta   90.00000000
_cell_angle_gamma   104.95653650
_symmetry_Int_Tables_number   1
_chemical_formula_structural   KCu3S2
_chemical_formula_sum   'K2 Cu6 S4'
_cell_volume   216.52076013
_cell_formula_units_Z   2
loop_
 _symmetry_equiv_pos_site_id
 _symmetry_equiv_pos_as_xyz
  1  'x, y, z'
loop_
 _atom_site_type_symbol
 _atom_site_label
 _atom_site_symmetry_multiplicity
 _atom_site_fract_x
 _atom_site_fract_y
 _atom_site_fract_z
 _atom_site_occupancy
  S  S0  1  0.47813440  0.95626879  0.76168796  1
  S  S1  1  0.19287240  0.38574480  0.69107278  1
  S  S2  1  0.80712760  0.61425520  0.30892722  1
  S  S3  1  0.52186560  0.04373121  0.23831204  1
  K  K4  1  0.86485027  0.72970054  0.95570492  1
  K  K5  1  0.13514973  0.27029946  0.04429508  1
  Cu  Cu6  1  0.31044339  0.62088678  0.58232222  1
  Cu  Cu7  1  0.93602549  0.87205099  0.59087519  1
  Cu  Cu8  1  0.68955661  0.37911322  0.41767778  1
  Cu  Cu9  1  0.40610095  0.81220191  0.36027977  1
  Cu  Cu10  1  0.59389905  0.18779809  0.63972023  1
  Cu  Cu11  1  0.06397451  0.12794901  0.40912481  1
