# generated using pymatgen
data_NbAlCr4
_symmetry_space_group_name_H-M   'P 1'
_cell_length_a   4.90114756
_cell_length_b   4.90114756
_cell_length_c   7.80198751
_cell_angle_alpha   89.99823785
_cell_angle_beta   90.00176215
_cell_angle_gamma   120.01118902
_symmetry_Int_Tables_number   1
_chemical_formula_structural   NbAlCr4
_chemical_formula_sum   'Nb2 Al2 Cr8'
_cell_volume   162.28652493
_cell_formula_units_Z   2
loop_
 _symmetry_equiv_pos_site_id
 _symmetry_equiv_pos_as_xyz
  1  'x, y, z'
loop_
 _atom_site_type_symbol
 _atom_site_label
 _atom_site_symmetry_multiplicity
 _atom_site_fract_x
 _atom_site_fract_y
 _atom_site_fract_z
 _atom_site_occupancy
  Nb  Nb0  1  0.33334537  0.66665463  0.06236429  1
  Nb  Nb1  1  0.66665463  0.33334537  0.93763571  1
  Al  Al2  1  0.66668282  0.33331718  0.56427783  1
  Al  Al3  1  0.33331718  0.66668282  0.43572217  1
  Cr  Cr4  1  -0.00000000  0.00000000  0.50000000  1
  Cr  Cr5  1  -0.00000000  0.00000000  0.00000000  1
  Cr  Cr6  1  0.17098351  0.34191926  0.74443262  1
  Cr  Cr7  1  0.17094523  0.82905477  0.74447947  1
  Cr  Cr8  1  0.65808074  0.82901649  0.74443262  1
  Cr  Cr9  1  0.82901649  0.65808074  0.25556738  1
  Cr  Cr10  1  0.82905477  0.17094523  0.25552053  1
  Cr  Cr11  1  0.34191926  0.17098351  0.25556738  1
