# generated using pymatgen
data_Ti6Ge5
_symmetry_space_group_name_H-M   'P 1'
_cell_length_a   5.41456909
_cell_length_b   8.41885728
_cell_length_c   9.43718288
_cell_angle_alpha   116.49035536
_cell_angle_beta   106.67091071
_cell_angle_gamma   90.00000000
_symmetry_Int_Tables_number   1
_chemical_formula_structural   Ti6Ge5
_chemical_formula_sum   'Ti12 Ge10'
_cell_volume   364.70933103
_cell_formula_units_Z   2
loop_
 _symmetry_equiv_pos_site_id
 _symmetry_equiv_pos_as_xyz
  1  'x, y, z'
loop_
 _atom_site_type_symbol
 _atom_site_label
 _atom_site_symmetry_multiplicity
 _atom_site_fract_x
 _atom_site_fract_y
 _atom_site_fract_z
 _atom_site_occupancy
  Ti  Ti0  1  0.65369690  0.65369690  0.30739381  1
  Ti  Ti1  1  0.34630310  0.34630310  0.69260619  1
  Ti  Ti2  1  0.75404965  0.00000000  0.00000000  1
  Ti  Ti3  1  0.24595035  1.00000000  1.00000000  1
  Ti  Ti4  1  0.00000000  0.50000000  0.50000000  1
  Ti  Ti5  1  0.50000000  0.00000000  0.50000000  1
  Ti  Ti6  1  0.00000000  0.00000000  0.50000000  1
  Ti  Ti7  1  0.50000000  0.50000000  0.50000000  1
  Ti  Ti8  1  0.91138374  0.62872467  0.82276748  1
  Ti  Ti9  1  0.91138374  0.19404281  0.82276748  1
  Ti  Ti10  1  0.08861626  0.80595719  0.17723252  1
  Ti  Ti11  1  0.08861626  0.37127533  0.17723252  1
  Ge  Ge12  1  0.83197886  0.83197886  0.66395773  1
  Ge  Ge13  1  0.16802114  0.16802114  0.33604227  1
  Ge  Ge14  1  0.79482606  0.29482606  0.58965213  1
  Ge  Ge15  1  0.20517394  0.70517394  0.41034787  1
  Ge  Ge16  1  0.73400745  0.50000000  1.00000000  1
  Ge  Ge17  1  0.26599255  0.50000000  0.00000000  1
  Ge  Ge18  1  0.60599015  0.29998380  0.21198031  1
  Ge  Ge19  1  0.60599015  0.91199651  0.21198031  1
  Ge  Ge20  1  0.39400985  0.08800349  0.78801969  1
  Ge  Ge21  1  0.39400985  0.70001620  0.78801969  1
