# generated using pymatgen
data_NbAlCo4
_symmetry_space_group_name_H-M   'P 1'
_cell_length_a   4.73078051
_cell_length_b   4.73183643
_cell_length_c   7.64838946
_cell_angle_alpha   90.00000000
_cell_angle_beta   90.00504931
_cell_angle_gamma   59.99261619
_symmetry_Int_Tables_number   1
_chemical_formula_structural   NbAlCo4
_chemical_formula_sum   'Nb2 Al2 Co8'
_cell_volume   148.26233245
_cell_formula_units_Z   2
loop_
 _symmetry_equiv_pos_site_id
 _symmetry_equiv_pos_as_xyz
  1  'x, y, z'
loop_
 _atom_site_type_symbol
 _atom_site_label
 _atom_site_symmetry_multiplicity
 _atom_site_fract_x
 _atom_site_fract_y
 _atom_site_fract_z
 _atom_site_occupancy
  Nb  Nb0  1  0.66665545  0.66667227  0.08543079  1
  Nb  Nb1  1  0.33334455  0.33332773  0.91456921  1
  Al  Al2  1  0.33338403  0.33330798  0.55154285  1
  Al  Al3  1  0.66661597  0.66669202  0.44845715  1
  Co  Co4  1  -0.00000000  -0.00000000  0.50000000  1
  Co  Co5  1  -0.00000000  -0.00000000  -0.00000000  1
  Co  Co6  1  0.83056749  0.33886405  0.74768309  1
  Co  Co7  1  0.33884228  0.83057886  0.74765724  1
  Co  Co8  1  0.83056749  0.83056846  0.74768309  1
  Co  Co9  1  0.16943251  0.66113595  0.25231691  1
  Co  Co10  1  0.66115772  0.16942114  0.25234276  1
  Co  Co11  1  0.16943251  0.16943154  0.25231691  1
