# generated using pymatgen
data_EuAl3(BO3)4
_symmetry_space_group_name_H-M   'P 1'
_cell_length_a   5.95263031
_cell_length_b   5.95263031
_cell_length_c   5.95263051
_cell_angle_alpha   104.03237543
_cell_angle_beta   104.03237543
_cell_angle_gamma   104.03237201
_symmetry_Int_Tables_number   1
_chemical_formula_structural   EuAl3(BO3)4
_chemical_formula_sum   'Eu1 Al3 B4 O12'
_cell_volume   188.07952376
_cell_formula_units_Z   1
loop_
 _symmetry_equiv_pos_site_id
 _symmetry_equiv_pos_as_xyz
  1  'x, y, z'
loop_
 _atom_site_type_symbol
 _atom_site_label
 _atom_site_symmetry_multiplicity
 _atom_site_fract_x
 _atom_site_fract_y
 _atom_site_fract_z
 _atom_site_occupancy
  Eu  Eu0  1  -0.00000000  -0.00000000  0.00000000  1
  Al  Al1  1  0.44338405  0.00000000  0.55661595  1
  Al  Al2  1  0.55661595  0.44338405  0.00000000  1
  Al  Al3  1  1.00000000  0.55661595  0.44338405  1
  B  B4  1  0.50000000  0.50000000  0.50000000  1
  B  B5  1  0.05883495  0.50000000  0.94116505  1
  B  B6  1  0.94116505  0.05883495  0.50000000  1
  B  B7  1  0.50000000  0.94116505  0.05883495  1
  O  O8  1  0.64855733  0.50000000  0.35144267  1
  O  O9  1  0.35144267  0.64855733  0.50000000  1
  O  O10  1  0.50000000  0.35144267  0.64855733  1
  O  O11  1  0.90981294  0.50000000  0.09018706  1
  O  O12  1  0.09018706  0.90981294  0.50000000  1
  O  O13  1  0.50000000  0.09018706  0.90981294  1
  O  O14  1  0.02795019  0.62081464  0.77296631  1
  O  O15  1  0.77296631  0.02795019  0.62081464  1
  O  O16  1  0.62081464  0.77296631  0.02795019  1
  O  O17  1  0.22703369  0.37918536  0.97204981  1
  O  O18  1  0.37918536  0.97204981  0.22703369  1
  O  O19  1  0.97204981  0.22703369  0.37918536  1
