# generated using pymatgen
data_NaMn3P3O13
_symmetry_space_group_name_H-M   'P 1'
_cell_length_a   6.26243167
_cell_length_b   7.55079599
_cell_length_c   10.46773328
_cell_angle_alpha   99.17477597
_cell_angle_beta   90.00000000
_cell_angle_gamma   90.00000000
_symmetry_Int_Tables_number   1
_chemical_formula_structural   NaMn3P3O13
_chemical_formula_sum   'Na2 Mn6 P6 O26'
_cell_volume   488.64832665
_cell_formula_units_Z   2
loop_
 _symmetry_equiv_pos_site_id
 _symmetry_equiv_pos_as_xyz
  1  'x, y, z'
loop_
 _atom_site_type_symbol
 _atom_site_label
 _atom_site_symmetry_multiplicity
 _atom_site_fract_x
 _atom_site_fract_y
 _atom_site_fract_z
 _atom_site_occupancy
  Na  Na0  1  0.75000000  0.67252285  0.20098505  1
  Na  Na1  1  0.25000000  0.32747715  0.79901495  1
  Mn  Mn2  1  0.25000000  0.36126340  0.19837051  1
  Mn  Mn3  1  0.75000000  0.63873660  0.80162949  1
  Mn  Mn4  1  0.25000000  0.76516410  0.44444454  1
  Mn  Mn5  1  0.50000000  0.00000000  0.00000000  1
  Mn  Mn6  1  0.75000000  0.23483590  0.55555546  1
  Mn  Mn7  1  0.00000000  0.00000000  0.00000000  1
  P  P8  1  0.25000000  0.21084849  0.47566464  1
  P  P9  1  0.75000000  0.78915151  0.52433536  1
  P  P10  1  0.25000000  0.74019430  0.76572345  1
  P  P11  1  0.75000000  0.25980570  0.23427655  1
  P  P12  1  0.75000000  0.31114831  0.88319271  1
  P  P13  1  0.25000000  0.68885169  0.11680729  1
  O  O14  1  0.75000000  0.35474896  0.74098560  1
  O  O15  1  0.55692640  0.74278784  0.43020190  1
  O  O16  1  0.25000000  0.79407319  0.63175555  1
  O  O17  1  0.54622584  0.20811606  0.90785998  1
  O  O18  1  0.75000000  0.65305319  0.62174203  1
  O  O19  1  0.75000000  0.87477504  0.90397051  1
  O  O20  1  0.25000000  0.34694681  0.37825797  1
  O  O21  1  0.04622584  0.79188394  0.09214002  1
  O  O22  1  0.25000000  0.02013991  0.40357513  1
  O  O23  1  0.75000000  0.97986009  0.59642487  1
  O  O24  1  0.05814861  0.62258914  0.79395304  1
  O  O25  1  0.25000000  0.12522496  0.09602949  1
  O  O26  1  0.55814861  0.37741086  0.20604696  1
  O  O27  1  0.75000000  0.50909065  0.95464468  1
  O  O28  1  0.75000000  0.20592681  0.36824445  1
  O  O29  1  0.45377416  0.79188394  0.09214002  1
  O  O30  1  0.94307360  0.74278784  0.43020190  1
  O  O31  1  0.44307360  0.25721216  0.56979810  1
  O  O32  1  0.44185139  0.62258914  0.79395304  1
  O  O33  1  0.25000000  0.64525104  0.25901440  1
  O  O34  1  0.75000000  0.08367967  0.13195554  1
  O  O35  1  0.25000000  0.91632033  0.86804446  1
  O  O36  1  0.94185139  0.37741086  0.20604696  1
  O  O37  1  0.95377416  0.20811606  0.90785998  1
  O  O38  1  0.05692640  0.25721216  0.56979810  1
  O  O39  1  0.25000000  0.49090935  0.04535532  1
