# generated using pymatgen
data_KAl(PO3)4
_symmetry_space_group_name_H-M   'P 1'
_cell_length_a   5.14431569
_cell_length_b   10.45813765
_cell_length_c   10.45813765
_cell_angle_alpha   72.65020445
_cell_angle_beta   81.58996006
_cell_angle_gamma   81.58996006
_symmetry_Int_Tables_number   1
_chemical_formula_structural   KAl(PO3)4
_chemical_formula_sum   'K2 Al2 P8 O24'
_cell_volume   528.12482573
_cell_formula_units_Z   2
loop_
 _symmetry_equiv_pos_site_id
 _symmetry_equiv_pos_as_xyz
  1  'x, y, z'
loop_
 _atom_site_type_symbol
 _atom_site_label
 _atom_site_symmetry_multiplicity
 _atom_site_fract_x
 _atom_site_fract_y
 _atom_site_fract_z
 _atom_site_occupancy
  K  K0  1  0.74667829  0.40670348  0.40670348  1
  K  K1  1  0.25332171  0.59329652  0.59329652  1
  Al  Al2  1  -0.00000000  0.50000000  -0.00000000  1
  Al  Al3  1  -0.00000000  -0.00000000  0.50000000  1
  P  P4  1  0.53176713  0.31188107  0.06901136  1
  P  P5  1  0.53176713  0.06901136  0.31188107  1
  P  P6  1  0.46823287  0.68811893  0.93098864  1
  P  P7  1  0.46823287  0.93098864  0.68811893  1
  P  P8  1  0.83614617  0.35430795  0.80205389  1
  P  P9  1  0.83614617  0.80205389  0.35430795  1
  P  P10  1  0.16385383  0.64569205  0.19794611  1
  P  P11  1  0.16385383  0.19794611  0.64569205  1
  O  O12  1  0.76063518  0.64938426  0.91256344  1
  O  O13  1  0.76063518  0.91256344  0.64938426  1
  O  O14  1  0.23936482  0.35061574  0.08743656  1
  O  O15  1  0.23936482  0.08743656  0.35061574  1
  O  O16  1  0.01209159  0.42443083  0.85755697  1
  O  O17  1  0.01209159  0.85755697  0.42443083  1
  O  O18  1  0.98790841  0.57556917  0.14244303  1
  O  O19  1  0.98790841  0.14244303  0.57556917  1
  O  O20  1  0.70815163  0.40230031  0.09572578  1
  O  O21  1  0.70815163  0.09572578  0.40230031  1
  O  O22  1  0.29184837  0.59769969  0.90427422  1
  O  O23  1  0.29184837  0.90427422  0.59769969  1
  O  O24  1  0.61503627  0.29024541  0.92333776  1
  O  O25  1  0.61503627  0.92333776  0.29024541  1
  O  O26  1  0.38496373  0.70975459  0.07666224  1
  O  O27  1  0.38496373  0.07666224  0.70975459  1
  O  O28  1  0.71327480  0.43160184  0.67853271  1
  O  O29  1  0.71327480  0.67853271  0.43160184  1
  O  O30  1  0.28672520  0.56839816  0.32146729  1
  O  O31  1  0.28672520  0.32146729  0.56839816  1
  O  O32  1  -0.00000000  0.21434221  0.78565779  1
  O  O33  1  0.00000000  0.78565779  0.21434221  1
  O  O34  1  0.59809826  0.16093894  0.16093894  1
  O  O35  1  0.40190174  0.83906106  0.83906106  1
