# generated using pymatgen
data_Na2Be4B4O11
_symmetry_space_group_name_H-M   'P 1'
_cell_length_a   8.90609583
_cell_length_b   15.36536025
_cell_length_c   12.86670616
_cell_angle_alpha   89.96464476
_cell_angle_beta   110.17089668
_cell_angle_gamma   89.98031901
_symmetry_Int_Tables_number   1
_chemical_formula_structural   Na2Be4B4O11
_chemical_formula_sum   'Na16 Be32 B32 O88'
_cell_volume   1652.75882402
_cell_formula_units_Z   8
loop_
 _symmetry_equiv_pos_site_id
 _symmetry_equiv_pos_as_xyz
  1  'x, y, z'
loop_
 _atom_site_type_symbol
 _atom_site_label
 _atom_site_symmetry_multiplicity
 _atom_site_fract_x
 _atom_site_fract_y
 _atom_site_fract_z
 _atom_site_occupancy
  Na  Na0  1  0.75807889  0.89682603  0.78230440  1
  Na  Na1  1  0.60750900  0.79044874  0.27053409  1
  Na  Na2  1  0.31946365  0.28843708  0.39502303  1
  Na  Na3  1  0.75636553  0.02926164  0.31117557  1
  Na  Na4  1  0.77550621  0.43247938  0.84759399  1
  Na  Na5  1  0.17209556  0.39524023  0.90045299  1
  Na  Na6  1  0.63753091  0.65332558  0.80843012  1
  Na  Na7  1  0.28353411  0.15952725  0.85887438  1
  Na  Na8  1  0.80525635  0.48918609  0.37488220  1
  Na  Na9  1  0.12649317  0.99433655  0.30470673  1
  Na  Na10  1  0.25509902  0.75426788  0.32482054  1
  Na  Na11  1  0.66866399  0.25599196  0.34390681  1
  Na  Na12  1  0.16844067  0.53236510  0.37294776  1
  Na  Na13  1  0.65333165  0.18097733  0.84609471  1
  Na  Na14  1  0.15639119  0.93023365  0.82765482  1
  Na  Na15  1  0.26897318  0.68850409  0.82048014  1
  Be  Be16  1  0.49691834  0.30442577  0.66353417  1
  Be  Be17  1  0.25409738  0.39010826  0.15928917  1
  Be  Be18  1  0.97548579  0.13211212  0.13385387  1
  Be  Be19  1  0.98748235  0.64061049  0.14158456  1
  Be  Be20  1  0.49196757  0.13096486  0.15216900  1
  Be  Be21  1  0.00449527  0.29590572  0.66012153  1
  Be  Be22  1  0.96285558  0.63177423  0.54627343  1
  Be  Be23  1  0.75463447  0.38005704  0.15588334  1
  Be  Be24  1  0.75173307  0.55576596  0.63400712  1
  Be  Be25  1  0.44970392  0.63019513  0.53115832  1
  Be  Be26  1  0.97694962  0.80305678  0.62341047  1
  Be  Be27  1  0.26216805  0.55374718  0.64492628  1
  Be  Be28  1  0.73861776  0.88729029  0.11483667  1
  Be  Be29  1  0.48104369  0.79739480  0.61989036  1
  Be  Be30  1  0.46105949  0.29990576  0.07030425  1
  Be  Be31  1  0.47318526  0.63736825  0.12464726  1
  Be  Be32  1  0.23817505  0.04530812  0.62220131  1
  Be  Be33  1  0.93544122  0.79585619  0.02250523  1
  Be  Be34  1  0.43702964  0.80561753  0.01832303  1
  Be  Be35  1  0.94666307  0.14089717  0.53869507  1
  Be  Be36  1  0.23080749  0.88412039  0.11167569  1
  Be  Be37  1  0.95814897  0.30302277  0.05567865  1
  Be  Be38  1  0.74965693  0.04749732  0.62986761  1
  Be  Be39  1  0.46263449  0.13686979  0.55616577  1
  Be  Be40  1  0.17842810  0.54717299  0.04016410  1
  Be  Be41  1  0.18435712  0.05621588  0.03347376  1
  Be  Be42  1  0.67053111  0.05439619  0.02594589  1
  Be  Be43  1  0.19394324  0.38636819  0.55745722  1
  Be  Be44  1  0.17830452  0.88114331  0.51816024  1
  Be  Be45  1  0.67582623  0.88674746  0.51372297  1
  Be  Be46  1  0.69940269  0.38384736  0.55737438  1
  Be  Be47  1  0.69313858  0.54550578  0.04780492  1
  B  B48  1  0.95371327  0.08598156  0.83286016  1
  B  B49  1  0.47080492  0.84156837  0.81844755  1
  B  B50  1  0.48618269  0.43194428  0.35199373  1
  B  B51  1  0.96515466  0.25513487  0.85344804  1
  B  B52  1  0.48213402  0.46851569  0.60480964  1
  B  B53  1  0.43147866  0.92886992  0.32218474  1
  B  B54  1  0.98882005  0.46696550  0.61544806  1
  B  B55  1  0.44917776  0.33989999  0.86234825  1
  B  B56  1  0.97413352  0.17546094  0.33898902  1
  B  B57  1  0.96213920  0.75509857  0.82570015  1
  B  B58  1  0.95037416  0.67644717  0.34089193  1
  B  B59  1  0.97061844  0.58521084  0.83936376  1
  B  B60  1  0.46550189  0.50962579  0.84757335  1
  B  B61  1  0.93485713  0.84489040  0.32196891  1
  B  B62  1  0.47238477  0.46827533  0.10245157  1
  B  B63  1  0.46580895  0.96823137  0.08538680  1
  B  B64  1  0.22338883  0.21785011  0.10452287  1
  B  B65  1  0.98035794  0.46945585  0.11699253  1
  B  B66  1  0.45455306  0.09947719  0.35170027  1
  B  B67  1  0.72785659  0.21816064  0.60654435  1
  B  B68  1  0.71295768  0.71806753  0.56409750  1
  B  B69  1  0.47457685  0.60009949  0.32864112  1
  B  B70  1  0.71741889  0.21858562  0.09081862  1
  B  B71  1  0.98639782  0.34153657  0.35512624  1
  B  B72  1  0.22424963  0.21800319  0.59166643  1
  B  B73  1  0.20549318  0.71670292  0.06484213  1
  B  B74  1  0.45674162  0.01019112  0.82437056  1
  B  B75  1  0.70790280  0.71738108  0.07218204  1
  B  B76  1  0.95344268  0.96833808  0.06625792  1
  B  B77  1  0.46587785  0.96622683  0.58024986  1
  B  B78  1  0.96241811  0.96833965  0.57249508  1
  B  B79  1  0.21677399  0.71707788  0.57457227  1
  O  O80  1  0.41260489  0.29033054  0.93879838  1
  O  O81  1  0.57148322  0.39292928  0.62740254  1
  O  O82  1  0.07296143  0.38987303  0.63198279  1
  O  O83  1  0.93289614  0.31180499  0.92544788  1
  O  O84  1  0.55761182  0.39097718  0.11956124  1
  O  O85  1  0.61793564  0.52929335  0.91597444  1
  O  O86  1  0.93860888  0.61851867  0.41824090  1
  O  O87  1  0.37507105  0.56851602  0.77146531  1
  O  O88  1  0.38999909  0.81784619  0.88777672  1
  O  O89  1  0.39633130  0.62324385  0.39985387  1
  O  O90  1  0.83126651  0.89877067  0.24533636  1
  O  O91  1  0.49354731  0.65603486  0.25195194  1
  O  O92  1  0.89108551  0.15363964  0.40739038  1
  O  O93  1  0.06329284  0.52788725  0.91523371  1
  O  O94  1  0.50771265  0.78413611  0.74973600  1
  O  O95  1  0.88129766  0.75999012  0.33275822  1
  O  O96  1  0.82386890  0.56229729  0.76541746  1
  O  O97  1  0.08269425  0.39973685  0.42910973  1
  O  O98  1  0.03085261  0.65488418  0.27126815  1
  O  O99  1  0.87913366  0.78040872  0.89215296  1
  O  O100  1  0.54196639  0.88982861  0.08605090  1
  O  O101  1  0.05367986  0.27903857  0.79016554  1
  O  O102  1  0.07609905  0.21794484  0.60264614  1
  O  O103  1  0.05768212  0.39113441  0.11903518  1
  O  O104  1  0.04857318  0.25786721  0.35077213  1
  O  O105  1  0.59066858  0.37759717  0.42807166  1
  O  O106  1  0.58572938  0.21751166  0.62896940  1
  O  O107  1  0.30217961  0.96661730  0.55732970  1
  O  O108  1  0.06013903  0.54667857  0.11800682  1
  O  O109  1  0.89919572  0.17101208  0.84179568  1
  O  O110  1  0.54739670  0.54600566  0.09949175  1
  O  O111  1  0.80141121  0.96899031  0.55835773  1
  O  O112  1  0.54020493  0.51538732  0.33624058  1
  O  O113  1  0.33574239  0.40542627  0.28908704  1
  O  O114  1  0.43334881  0.15398467  0.42874348  1
  O  O115  1  0.40029231  0.42769138  0.85390270  1
  O  O116  1  0.55682780  0.04335501  0.10700887  1
  O  O117  1  0.08182112  0.87352444  0.38827101  1
  O  O118  1  0.07054874  0.21682300  0.10801498  1
  O  O119  1  0.03141728  0.89095606  0.06370397  1
  O  O120  1  0.83512198  0.36324100  0.28674575  1
  O  O121  1  0.06558942  0.71923629  0.08834412  1
  O  O122  1  0.04316201  0.04421421  0.09088463  1
  O  O123  1  0.54506509  0.06690439  0.90324050  1
  O  O124  1  0.99006281  0.81106802  0.75136917  1
  O  O125  1  0.31777076  0.88014963  0.24399669  1
  O  O126  1  0.58557164  0.21725590  0.12481517  1
  O  O127  1  0.57626414  0.89506714  0.38446970  1
  O  O128  1  0.51960786  0.30621290  0.79202540  1
  O  O129  1  0.54939791  0.88868514  0.58610419  1
  O  O130  1  0.07623995  0.71816575  0.59788302  1
  O  O131  1  0.10221621  0.06146182  0.90224183  1
  O  O132  1  0.53140590  0.12573857  0.28174059  1
  O  O133  1  0.98615101  0.11949343  0.26008618  1
  O  O134  1  0.04719466  0.89111988  0.58483897  1
  O  O135  1  0.39062157  0.01441617  0.34145125  1
  O  O136  1  0.30772900  0.03207602  0.75359683  1
  O  O137  1  0.32124075  0.46829100  0.59096208  1
  O  O138  1  0.78089738  0.79537192  0.54902459  1
  O  O139  1  0.82341980  0.46892008  0.11337673  1
  O  O140  1  0.56469893  0.71639488  0.57682434  1
  O  O141  1  0.78815155  0.64009738  0.07625600  1
  O  O142  1  0.04109423  0.04581464  0.57443367  1
  O  O143  1  0.55226809  0.04300826  0.59975566  1
  O  O144  1  0.02716189  0.67061895  0.83586260  1
  O  O145  1  0.55229796  0.71864152  0.07299792  1
  O  O146  1  0.79194104  0.96924796  0.05023098  1
  O  O147  1  0.27628457  0.79510245  0.05380997  1
  O  O148  1  0.79422502  0.14172833  0.58625203  1
  O  O149  1  0.52139707  0.92789124  0.81633351  1
  O  O150  1  0.30289362  0.96931703  0.06362958  1
  O  O151  1  0.77800911  0.14326092  0.06121921  1
  O  O152  1  0.29170582  0.63861697  0.57248019  1
  O  O153  1  0.79481442  0.64069245  0.57138443  1
  O  O154  1  0.27735605  0.63894297  0.05575246  1
  O  O155  1  0.82415996  0.46791052  0.59079416  1
  O  O156  1  0.29538766  0.14195104  0.08687911  1
  O  O157  1  0.79205466  0.29644069  0.08654832  1
  O  O158  1  0.55536072  0.54547704  0.59532043  1
  O  O159  1  0.06603365  0.54538424  0.61695233  1
  O  O160  1  0.78223125  0.79513007  0.06637776  1
  O  O161  1  0.28535858  0.79261668  0.55475252  1
  O  O162  1  0.30697079  0.29520518  0.11550205  1
  O  O163  1  0.30977333  0.46586063  0.08609762  1
  O  O164  1  0.29969984  0.14042269  0.58832430  1
  O  O165  1  0.85372354  0.03071226  0.75785795  1
  O  O166  1  0.30135184  0.29607344  0.58646177  1
  O  O167  1  0.80428465  0.29565499  0.60086415  1
