# generated using pymatgen
data_KEu(PO3)4
_symmetry_space_group_name_H-M   'P 1'
_cell_length_a   10.66606629
_cell_length_b   9.17223203
_cell_length_c   11.02345348
_cell_angle_alpha   90.00000000
_cell_angle_beta   106.43581857
_cell_angle_gamma   90.00000000
_symmetry_Int_Tables_number   1
_chemical_formula_structural   KEu(PO3)4
_chemical_formula_sum   'K4 Eu4 P16 O48'
_cell_volume   1034.37438360
_cell_formula_units_Z   4
loop_
 _symmetry_equiv_pos_site_id
 _symmetry_equiv_pos_as_xyz
  1  'x, y, z'
loop_
 _atom_site_type_symbol
 _atom_site_label
 _atom_site_symmetry_multiplicity
 _atom_site_fract_x
 _atom_site_fract_y
 _atom_site_fract_z
 _atom_site_occupancy
  Eu  Eu0  1  0.99896111  0.27355909  0.31373170  1
  Eu  Eu1  1  0.49896111  0.22644091  0.81373170  1
  Eu  Eu2  1  0.00103889  0.72644091  0.68626830  1
  Eu  Eu3  1  0.50103889  0.77355909  0.18626830  1
  K  K4  1  0.71485232  0.06930774  0.45845134  1
  K  K5  1  0.21485232  0.43069226  0.95845134  1
  K  K6  1  0.28514768  0.93069226  0.54154866  1
  K  K7  1  0.78514768  0.56930774  0.04154866  1
  P  P8  1  0.64468889  0.40477692  0.25998956  1
  P  P9  1  0.14468889  0.09522308  0.75998956  1
  P  P10  1  0.35531111  0.59522308  0.74001044  1
  P  P11  1  0.85531111  0.90477692  0.24001044  1
  P  P12  1  0.96048215  0.32887674  0.64362733  1
  P  P13  1  0.46048215  0.17112326  0.14362733  1
  P  P14  1  0.03951785  0.67112326  0.35637267  1
  P  P15  1  0.53951785  0.82887674  0.85637267  1
  P  P16  1  0.24716969  0.52612012  0.26892908  1
  P  P17  1  0.74716969  0.97387988  0.76892908  1
  P  P18  1  0.75283031  0.47387988  0.73107092  1
  P  P19  1  0.25283031  0.02612012  0.23107092  1
  P  P20  1  0.32073135  0.39825507  0.51890264  1
  P  P21  1  0.82073135  0.10174493  0.01890264  1
  P  P22  1  0.67926865  0.60174493  0.48109736  1
  P  P23  1  0.17926865  0.89825507  0.98109736  1
  O  O24  1  0.35280126  0.45841215  0.39318916  1
  O  O25  1  0.85280126  0.04158785  0.89318916  1
  O  O26  1  0.64719874  0.54158785  0.60681084  1
  O  O27  1  0.14719874  0.95841215  0.10681084  1
  O  O28  1  0.14536343  0.41488206  0.20714669  1
  O  O29  1  0.64536343  0.08511794  0.70714669  1
  O  O30  1  0.85463657  0.58511794  0.79285331  1
  O  O31  1  0.35463657  0.91488206  0.29285331  1
  O  O32  1  0.52525865  0.29196299  0.25118738  1
  O  O33  1  0.02525865  0.20803701  0.75118738  1
  O  O34  1  0.47474135  0.70803701  0.74881262  1
  O  O35  1  0.97474135  0.79196299  0.24881262  1
  O  O36  1  0.90101597  0.03425538  0.32453472  1
  O  O37  1  0.40101597  0.46574462  0.82453472  1
  O  O38  1  0.09898403  0.96574462  0.67546528  1
  O  O39  1  0.59898403  0.53425538  0.17546528  1
  O  O40  1  0.93533832  0.26275731  0.51477047  1
  O  O41  1  0.43533832  0.23724269  0.01477047  1
  O  O42  1  0.06466168  0.73724269  0.48522953  1
  O  O43  1  0.56466168  0.76275731  0.98522953  1
  O  O44  1  0.32466007  0.59223185  0.18858371  1
  O  O45  1  0.82466007  0.90776815  0.68858371  1
  O  O46  1  0.67533993  0.40776815  0.81141629  1
  O  O47  1  0.17533993  0.09223185  0.31141629  1
  O  O48  1  0.76043134  0.32169246  0.24543153  1
  O  O49  1  0.26043134  0.17830754  0.74543153  1
  O  O50  1  0.23956866  0.67830754  0.75456847  1
  O  O51  1  0.73956866  0.82169246  0.25456847  1
  O  O52  1  0.92608794  0.20454589  0.08904510  1
  O  O53  1  0.42608794  0.29545411  0.58904510  1
  O  O54  1  0.07391206  0.79545411  0.91095490  1
  O  O55  1  0.57391206  0.70454589  0.41095490  1
  O  O56  1  0.18216175  0.34436606  0.48349445  1
  O  O57  1  0.68216175  0.15563394  0.98349445  1
  O  O58  1  0.81783825  0.65563394  0.51650555  1
  O  O59  1  0.31783825  0.84436606  0.01650555  1
  O  O60  1  0.96193109  0.53322919  0.32004107  1
  O  O61  1  0.46193109  0.96677081  0.82004107  1
  O  O62  1  0.03806891  0.46677081  0.67995893  1
  O  O63  1  0.53806891  0.03322919  0.17995893  1
  O  O64  1  0.18095121  0.65655835  0.32939956  1
  O  O65  1  0.68095121  0.84344165  0.82939956  1
  O  O66  1  0.81904879  0.34344165  0.67060044  1
  O  O67  1  0.31904879  0.15655835  0.17060044  1
  O  O68  1  0.66907323  0.44827519  0.40631256  1
  O  O69  1  0.16907323  0.05172481  0.90631256  1
  O  O70  1  0.33092677  0.55172481  0.59368744  1
  O  O71  1  0.83092677  0.94827519  0.09368744  1
