# generated using pymatgen
data_MoS2
_symmetry_space_group_name_H-M   'P 1'
_cell_length_a   3.19302586
_cell_length_b   3.19280881
_cell_length_c   13.98276774
_cell_angle_alpha   90.00000000
_cell_angle_beta   90.00000000
_cell_angle_gamma   120.00224881
_symmetry_Int_Tables_number   1
_chemical_formula_structural   MoS2
_chemical_formula_sum   'Mo2 S4'
_cell_volume   123.44948512
_cell_formula_units_Z   2
loop_
 _symmetry_equiv_pos_site_id
 _symmetry_equiv_pos_as_xyz
  1  'x, y, z'
loop_
 _atom_site_type_symbol
 _atom_site_label
 _atom_site_symmetry_multiplicity
 _atom_site_fract_x
 _atom_site_fract_y
 _atom_site_fract_z
 _atom_site_occupancy
  Mo  Mo0  1  0.99994732  0.99989464  0.25000000  1
  Mo  Mo1  1  0.00005268  0.00010536  0.75000000  1
  S  S2  1  0.33328791  0.66657582  0.36200905  1
  S  S3  1  0.66671209  0.33342418  0.63799095  1
  S  S4  1  0.66671209  0.33342418  0.86200905  1
  S  S5  1  0.33328791  0.66657582  0.13799095  1
