# generated using pymatgen
data_LiBeBO3
_symmetry_space_group_name_H-M   'P 1'
_cell_length_a   4.63760207
_cell_length_b   4.70672147
_cell_length_c   6.00684581
_cell_angle_alpha   68.02753296
_cell_angle_beta   72.60413925
_cell_angle_gamma   61.15160737
_symmetry_Int_Tables_number   1
_chemical_formula_structural   LiBeBO3
_chemical_formula_sum   'Li2 Be2 B2 O6'
_cell_volume   105.36494045
_cell_formula_units_Z   2
loop_
 _symmetry_equiv_pos_site_id
 _symmetry_equiv_pos_as_xyz
  1  'x, y, z'
loop_
 _atom_site_type_symbol
 _atom_site_label
 _atom_site_symmetry_multiplicity
 _atom_site_fract_x
 _atom_site_fract_y
 _atom_site_fract_z
 _atom_site_occupancy
  Li  Li0  1  0.74357823  0.13277030  0.66196006  1
  Li  Li1  1  0.25642177  0.86722970  0.33803994  1
  Be  Be2  1  0.35591853  0.72600074  0.84587846  1
  Be  Be3  1  0.64408147  0.27399926  0.15412154  1
  B  B4  1  0.07053413  0.40058676  0.77221762  1
  B  B5  1  0.92946587  0.59941324  0.22778238  1
  O  O6  1  0.32777603  0.09771168  0.76134359  1
  O  O7  1  0.67222397  0.90228832  0.23865641  1
  O  O8  1  0.12655736  0.68714947  0.70879540  1
  O  O9  1  0.87344264  0.31285053  0.29120460  1
  O  O10  1  0.74305535  0.42184906  0.84551186  1
  O  O11  1  0.25694465  0.57815094  0.15448814  1
