# generated using pymatgen
data_Mo(WSe3)2
_symmetry_space_group_name_H-M   'P 1'
_cell_length_a   3.32396129
_cell_length_b   3.32395088
_cell_length_c   30.71338240
_cell_angle_alpha   89.99999227
_cell_angle_beta   90.00000000
_cell_angle_gamma   120.00010374
_symmetry_Int_Tables_number   1
_chemical_formula_structural   Mo(WSe3)2
_chemical_formula_sum   'Mo1 W2 Se6'
_cell_volume   293.87888196
_cell_formula_units_Z   1
loop_
 _symmetry_equiv_pos_site_id
 _symmetry_equiv_pos_as_xyz
  1  'x, y, z'
loop_
 _atom_site_type_symbol
 _atom_site_label
 _atom_site_symmetry_multiplicity
 _atom_site_fract_x
 _atom_site_fract_y
 _atom_site_fract_z
 _atom_site_occupancy
  Mo  Mo0  1  0.33330989  0.66661978  0.11563070  1
  W  W1  1  0.33331211  0.66662421  0.57833585  1
  W  W2  1  0.66669012  0.33338023  0.34699853  1
  Se  Se3  1  0.33335260  0.66670620  0.40171757  1
  Se  Se4  1  0.66664857  0.33329615  0.06116881  1
  Se  Se5  1  0.66664811  0.33329521  0.52357765  1
  Se  Se6  1  0.66663795  0.33327490  0.17011089  1
  Se  Se7  1  0.66664930  0.33329759  0.63307044  1
  Se  Se8  1  0.33335236  0.66670572  0.29223055  1
