# generated using pymatgen
data_Mo(WSe3)2
_symmetry_space_group_name_H-M   'P 1'
_cell_length_a   3.32271087
_cell_length_b   3.32265078
_cell_length_c   30.74079880
_cell_angle_alpha   90.00000000
_cell_angle_beta   90.00000000
_cell_angle_gamma   120.00059814
_symmetry_Int_Tables_number   1
_chemical_formula_structural   Mo(WSe3)2
_chemical_formula_sum   'Mo1 W2 Se6'
_cell_volume   293.91409445
_cell_formula_units_Z   1
loop_
 _symmetry_equiv_pos_site_id
 _symmetry_equiv_pos_as_xyz
  1  'x, y, z'
loop_
 _atom_site_type_symbol
 _atom_site_label
 _atom_site_symmetry_multiplicity
 _atom_site_fract_x
 _atom_site_fract_y
 _atom_site_fract_z
 _atom_site_occupancy
  Mo  Mo0  1  0.66668853  0.33337706  0.34698200  1
  W  W1  1  0.33331256  0.66662511  0.11564333  1
  W  W2  1  0.33331256  0.66662511  0.57832167  1
  Se  Se3  1  0.33335198  0.66670497  0.40151128  1
  Se  Se4  1  0.66664545  0.33328990  0.06085309  1
  Se  Se5  1  0.66664625  0.33329149  0.52352436  1
  Se  Se6  1  0.66664625  0.33329149  0.17044064  1
  Se  Se7  1  0.66664545  0.33328990  0.63311091  1
  Se  Se8  1  0.33335198  0.66670497  0.29245372  1
