# generated using pymatgen
data_Ho2Co17
_symmetry_space_group_name_H-M   'P 1'
_cell_length_a   8.27971120
_cell_length_b   8.27971120
_cell_length_c   8.08197790
_cell_angle_alpha   90.00000000
_cell_angle_beta   90.00000000
_cell_angle_gamma   119.99999998
_symmetry_Int_Tables_number   1
_chemical_formula_structural   Ho2Co17
_chemical_formula_sum   'Ho4 Co34'
_cell_volume   479.82035515
_cell_formula_units_Z   2
loop_
 _symmetry_equiv_pos_site_id
 _symmetry_equiv_pos_as_xyz
  1  'x, y, z'
loop_
 _atom_site_type_symbol
 _atom_site_label
 _atom_site_symmetry_multiplicity
 _atom_site_fract_x
 _atom_site_fract_y
 _atom_site_fract_z
 _atom_site_occupancy
  Co  Co0  1  0.33333333  0.66666667  0.10645048  1
  Co  Co1  1  0.66666667  0.33333333  0.60645048  1
  Co  Co2  1  0.66666667  0.33333333  0.89354952  1
  Co  Co3  1  0.33333333  0.66666667  0.39354952  1
  Co  Co4  1  0.50000000  0.00000000  0.00000000  1
  Co  Co5  1  0.50000000  0.50000000  0.50000000  1
  Co  Co6  1  0.00000000  0.50000000  0.50000000  1
  Co  Co7  1  0.00000000  0.50000000  0.00000000  1
  Co  Co8  1  0.50000000  0.50000000  0.00000000  1
  Co  Co9  1  0.50000000  0.00000000  0.50000000  1
  Co  Co10  1  0.32833448  0.95392773  0.25000000  1
  Co  Co11  1  0.37440675  0.32833448  0.75000000  1
  Co  Co12  1  0.95392773  0.62559325  0.75000000  1
  Co  Co13  1  0.04607227  0.37440675  0.25000000  1
  Co  Co14  1  0.62559325  0.67166552  0.25000000  1
  Co  Co15  1  0.37440675  0.04607227  0.75000000  1
  Co  Co16  1  0.67166552  0.62559325  0.75000000  1
  Co  Co17  1  0.67166552  0.04607227  0.75000000  1
  Co  Co18  1  0.95392773  0.32833448  0.75000000  1
  Co  Co19  1  0.04607227  0.67166552  0.25000000  1
  Co  Co20  1  0.62559325  0.95392773  0.25000000  1
  Co  Co21  1  0.32833448  0.37440675  0.25000000  1
  Co  Co22  1  0.16656699  0.33313397  0.97803910  1
  Co  Co23  1  0.83343301  0.16656699  0.47803910  1
  Co  Co24  1  0.33313397  0.16656699  0.47803910  1
  Co  Co25  1  0.66686603  0.83343301  0.97803910  1
  Co  Co26  1  0.16656699  0.83343301  0.97803910  1
  Co  Co27  1  0.83343301  0.66686603  0.02196090  1
  Co  Co28  1  0.83343301  0.16656699  0.02196090  1
  Co  Co29  1  0.83343301  0.66686603  0.47803910  1
  Co  Co30  1  0.33313397  0.16656699  0.02196090  1
  Co  Co31  1  0.66686603  0.83343301  0.52196090  1
  Co  Co32  1  0.16656699  0.33313397  0.52196090  1
  Co  Co33  1  0.16656699  0.83343301  0.52196090  1
  Ho  Ho34  1  0.00000000  0.00000000  0.25000000  1
  Ho  Ho35  1  0.00000000  0.00000000  0.75000000  1
  Ho  Ho36  1  0.33333333  0.66666667  0.75000000  1
  Ho  Ho37  1  0.66666667  0.33333333  0.25000000  1
