# generated using pymatgen
data_Mo2WSe6
_symmetry_space_group_name_H-M   'P 1'
_cell_length_a   3.32330989
_cell_length_b   3.32323201
_cell_length_c   30.71640555
_cell_angle_alpha   90.00000000
_cell_angle_beta   90.00000000
_cell_angle_gamma   120.00077531
_symmetry_Int_Tables_number   1
_chemical_formula_structural   Mo2WSe6
_chemical_formula_sum   'Mo2 W1 Se6'
_cell_volume   293.78467284
_cell_formula_units_Z   1
loop_
 _symmetry_equiv_pos_site_id
 _symmetry_equiv_pos_as_xyz
  1  'x, y, z'
loop_
 _atom_site_type_symbol
 _atom_site_label
 _atom_site_symmetry_multiplicity
 _atom_site_fract_x
 _atom_site_fract_y
 _atom_site_fract_z
 _atom_site_occupancy
  Mo  Mo0  1  0.33331029  0.66662059  0.11564117  1
  Mo  Mo1  1  0.33331029  0.66662059  0.57832383  1
  W  W2  1  0.66668990  0.33337980  0.34698200  1
  Se  Se3  1  0.33335491  0.66671082  0.40181980  1
  Se  Se4  1  0.66664943  0.33329787  0.06108573  1
  Se  Se5  1  0.66664091  0.33328082  0.52375654  1
  Se  Se6  1  0.66664091  0.33328082  0.17020846  1
  Se  Se7  1  0.66664943  0.33329787  0.63287827  1
  Se  Se8  1  0.33335491  0.66671082  0.29214520  1
