# generated using pymatgen
data_Mo2WSe6
_symmetry_space_group_name_H-M   'P 1'
_cell_length_a   3.32590314
_cell_length_b   3.32590069
_cell_length_c   30.68136749
_cell_angle_alpha   89.99907882
_cell_angle_beta   90.00000410
_cell_angle_gamma   119.99999848
_symmetry_Int_Tables_number   1
_chemical_formula_structural   Mo2WSe6
_chemical_formula_sum   'Mo2 W1 Se6'
_cell_volume   293.91667480
_cell_formula_units_Z   1
loop_
 _symmetry_equiv_pos_site_id
 _symmetry_equiv_pos_as_xyz
  1  'x, y, z'
loop_
 _atom_site_type_symbol
 _atom_site_label
 _atom_site_symmetry_multiplicity
 _atom_site_fract_x
 _atom_site_fract_y
 _atom_site_fract_z
 _atom_site_occupancy
  Mo  Mo0  1  0.33331410  0.66662727  0.11562861  1
  Mo  Mo1  1  0.66669106  0.33338292  0.34699871  1
  W  W2  1  0.33330845  0.66661602  0.57834307  1
  Se  Se3  1  0.33335386  0.66670819  0.40144710  1
  Se  Se4  1  0.66663312  0.33326566  0.06114910  1
  Se  Se5  1  0.66665214  0.33330384  0.52356736  1
  Se  Se6  1  0.66665040  0.33330028  0.17013473  1
  Se  Se7  1  0.66664415  0.33328777  0.63309242  1
  Se  Se8  1  0.33335373  0.66670806  0.29247990  1
