# generated using pymatgen
data_Mo3WSe8
_symmetry_space_group_name_H-M   'P 1'
_cell_length_a   3.32358819
_cell_length_b   3.32350415
_cell_length_c   37.82531495
_cell_angle_alpha   90.00027876
_cell_angle_beta   90.00000000
_cell_angle_gamma   120.00083658
_symmetry_Int_Tables_number   1
_chemical_formula_structural   Mo3WSe8
_chemical_formula_sum   'Mo3 W1 Se8'
_cell_volume   361.83698492
_cell_formula_units_Z   1
loop_
 _symmetry_equiv_pos_site_id
 _symmetry_equiv_pos_as_xyz
  1  'x, y, z'
loop_
 _atom_site_type_symbol
 _atom_site_label
 _atom_site_symmetry_multiplicity
 _atom_site_fract_x
 _atom_site_fract_y
 _atom_site_fract_z
 _atom_site_occupancy
  Mo  Mo0  1  0.33330808  0.66661616  0.09392110  1
  Mo  Mo1  1  0.66668887  0.33337774  0.28180038  1
  Mo  Mo2  1  0.66669209  0.33338418  0.65754065  1
  W  W3  1  0.33331310  0.66662620  0.46966045  1
  Se  Se4  1  0.33335998  0.66672096  0.32611284  1
  Se  Se5  1  0.33335757  0.66671613  0.70184124  1
  Se  Se6  1  0.66664769  0.33329439  0.04962272  1
  Se  Se7  1  0.66664836  0.33329573  0.42513758  1
  Se  Se8  1  0.66663667  0.33327233  0.13822989  1
  Se  Se9  1  0.66664880  0.33329660  0.51417699  1
  Se  Se10  1  0.33334443  0.66668986  0.23748151  1
  Se  Se11  1  0.33335436  0.66670972  0.61322265  1
