# generated using pymatgen
data_MoW3Se8
_symmetry_space_group_name_H-M   'P 1'
_cell_length_a   3.32652746
_cell_length_b   3.32653633
_cell_length_c   37.84093853
_cell_angle_alpha   89.99886963
_cell_angle_beta   90.00000000
_cell_angle_gamma   119.99991178
_symmetry_Int_Tables_number   1
_chemical_formula_structural   MoW3Se8
_chemical_formula_sum   'Mo1 W3 Se8'
_cell_volume   362.64049655
_cell_formula_units_Z   1
loop_
 _symmetry_equiv_pos_site_id
 _symmetry_equiv_pos_as_xyz
  1  'x, y, z'
loop_
 _atom_site_type_symbol
 _atom_site_label
 _atom_site_symmetry_multiplicity
 _atom_site_fract_x
 _atom_site_fract_y
 _atom_site_fract_z
 _atom_site_occupancy
  Mo  Mo0  1  0.66669192  0.33338383  0.28177200  1
  W  W1  1  0.33330384  0.66660767  0.09391249  1
  W  W2  1  0.33330993  0.66661986  0.46963192  1
  W  W3  1  0.66669222  0.33338445  0.65754657  1
  Se  Se4  1  0.33335052  0.66670203  0.32602888  1
  Se  Se5  1  0.33335230  0.66670560  0.70196870  1
  Se  Se6  1  0.66664285  0.33328470  0.04948379  1
  Se  Se7  1  0.66663667  0.33327235  0.42524267  1
  Se  Se8  1  0.66664722  0.33329344  0.13836171  1
  Se  Se9  1  0.66664854  0.33329607  0.51408104  1
  Se  Se10  1  0.33336942  0.66673984  0.23761538  1
  Se  Se11  1  0.33335457  0.66671014  0.61310287  1
