# generated using pymatgen
data_MoW3Se8
_symmetry_space_group_name_H-M   'P 1'
_cell_length_a   3.32134746
_cell_length_b   3.32130712
_cell_length_c   37.87051235
_cell_angle_alpha   90.00013675
_cell_angle_beta   90.00000000
_cell_angle_gamma   120.00040182
_symmetry_Int_Tables_number   1
_chemical_formula_structural   MoW3Se8
_chemical_formula_sum   'Mo1 W3 Se8'
_cell_volume   361.78736976
_cell_formula_units_Z   1
loop_
 _symmetry_equiv_pos_site_id
 _symmetry_equiv_pos_as_xyz
  1  'x, y, z'
loop_
 _atom_site_type_symbol
 _atom_site_label
 _atom_site_symmetry_multiplicity
 _atom_site_fract_x
 _atom_site_fract_y
 _atom_site_fract_z
 _atom_site_occupancy
  Mo  Mo0  1  0.33330909  0.66661818  0.09391993  1
  W  W1  1  0.33330988  0.66661976  0.46965563  1
  W  W2  1  0.66668849  0.33337699  0.28179888  1
  W  W3  1  0.66669212  0.33338425  0.65754088  1
  Se  Se4  1  0.33335614  0.66671328  0.32625658  1
  Se  Se5  1  0.33335865  0.66671829  0.70199986  1
  Se  Se6  1  0.66664245  0.33328389  0.04968078  1
  Se  Se7  1  0.66663612  0.33327124  0.42521544  1
  Se  Se8  1  0.66664396  0.33328692  0.13816832  1
  Se  Se9  1  0.66664800  0.33329499  0.51409815  1
  Se  Se10  1  0.33335024  0.66670148  0.23733737  1
  Se  Se11  1  0.33336486  0.66673072  0.61307618  1
