# generated using pymatgen
data_MoWSe4
_symmetry_space_group_name_H-M   'P 1'
_cell_length_a   3.32329865
_cell_length_b   3.32322862
_cell_length_c   37.84522614
_cell_angle_alpha   90.00004867
_cell_angle_beta   90.00000000
_cell_angle_gamma   120.00069717
_symmetry_Int_Tables_number   1
_chemical_formula_structural   MoWSe4
_chemical_formula_sum   'Mo2 W2 Se8'
_cell_volume   361.96641465
_cell_formula_units_Z   2
loop_
 _symmetry_equiv_pos_site_id
 _symmetry_equiv_pos_as_xyz
  1  'x, y, z'
loop_
 _atom_site_type_symbol
 _atom_site_label
 _atom_site_symmetry_multiplicity
 _atom_site_fract_x
 _atom_site_fract_y
 _atom_site_fract_z
 _atom_site_occupancy
  Mo  Mo0  1  0.33331135  0.66662270  0.46965827  1
  Mo  Mo1  1  0.66668865  0.33337730  0.28179973  1
  W  W2  1  0.33330870  0.66661740  0.09392103  1
  W  W3  1  0.66669130  0.33338260  0.65753697  1
  Se  Se4  1  0.33335264  0.66670628  0.32608924  1
  Se  Se5  1  0.33335599  0.66671298  0.70203349  1
  Se  Se6  1  0.66664401  0.33328702  0.04942451  1
  Se  Se7  1  0.66664736  0.33329372  0.42536876  1
  Se  Se8  1  0.66663852  0.33327605  0.13843164  1
  Se  Se9  1  0.66664776  0.33329452  0.51393824  1
  Se  Se10  1  0.33335224  0.66670548  0.23751976  1
  Se  Se11  1  0.33336148  0.66672395  0.61302636  1
