# generated using pymatgen
data_Na2U(MoO4)3
_symmetry_space_group_name_H-M   'P 1'
_cell_length_a   6.92206125
_cell_length_b   6.92206125
_cell_length_c   11.81829454
_cell_angle_alpha   80.12412922
_cell_angle_beta   99.87587078
_cell_angle_gamma   65.44560102
_symmetry_Int_Tables_number   1
_chemical_formula_structural   Na2U(MoO4)3
_chemical_formula_sum   'Na4 U2 Mo6 O24'
_cell_volume   488.45060673
_cell_formula_units_Z   2
loop_
 _symmetry_equiv_pos_site_id
 _symmetry_equiv_pos_as_xyz
  1  'x, y, z'
loop_
 _atom_site_type_symbol
 _atom_site_label
 _atom_site_symmetry_multiplicity
 _atom_site_fract_x
 _atom_site_fract_y
 _atom_site_fract_z
 _atom_site_occupancy
  Na  Na0  1  0.78882848  0.46027460  0.58014153  1
  Na  Na1  1  0.46027460  0.78882848  0.91985847  1
  Na  Na2  1  0.53972540  0.21117152  0.08014153  1
  Na  Na3  1  0.21117152  0.53972540  0.41985847  1
  U  U4  1  0.12736154  0.12736154  0.25000000  1
  U  U5  1  0.87263846  0.87263846  0.75000000  1
  Mo  Mo6  1  0.29354967  0.95632067  0.58631988  1
  Mo  Mo7  1  0.95632067  0.29354967  0.91368012  1
  Mo  Mo8  1  0.62445566  0.62445566  0.25000000  1
  Mo  Mo9  1  0.70645033  0.04367933  0.41368012  1
  Mo  Mo10  1  0.37554434  0.37554434  0.75000000  1
  Mo  Mo11  1  0.04367933  0.70645033  0.08631988  1
  O  O12  1  0.85813416  0.20901302  0.78718310  1
  O  O13  1  0.50834774  0.56468588  0.12361066  1
  O  O14  1  0.19130979  0.91213519  0.44397824  1
  O  O15  1  0.20901302  0.85813416  0.71281690  1
  O  O16  1  0.91213519  0.19130979  0.05602176  1
  O  O17  1  0.56468588  0.50834774  0.37638934  1
  O  O18  1  0.52815849  0.07059617  0.77962642  1
  O  O19  1  0.16393298  0.40590322  0.12060237  1
  O  O20  1  0.82451839  0.75493031  0.43811642  1
  O  O21  1  0.07059617  0.52815849  0.72037358  1
  O  O22  1  0.75493031  0.82451839  0.06188358  1
  O  O23  1  0.40590322  0.16393298  0.37939763  1
  O  O24  1  0.49165226  0.43531412  0.87638934  1
  O  O25  1  0.14186584  0.79098698  0.21281690  1
  O  O26  1  0.80869021  0.08786481  0.55602176  1
  O  O27  1  0.08786481  0.80869021  0.94397824  1
  O  O28  1  0.79098698  0.14186584  0.28718310  1
  O  O29  1  0.43531412  0.49165226  0.62361066  1
  O  O30  1  0.83606702  0.59409678  0.87939763  1
  O  O31  1  0.47184151  0.92940383  0.22037358  1
  O  O32  1  0.17548161  0.24506969  0.56188358  1
  O  O33  1  0.24506969  0.17548161  0.93811642  1
  O  O34  1  0.92940383  0.47184151  0.27962642  1
  O  O35  1  0.59409678  0.83606702  0.62060237  1
