# generated using pymatgen
data_MoWSe4
_symmetry_space_group_name_H-M   'P 1'
_cell_length_a   3.32290834
_cell_length_b   3.32283322
_cell_length_c   37.84942797
_cell_angle_alpha   90.00015696
_cell_angle_beta   90.00000000
_cell_angle_gamma   120.00074780
_symmetry_Int_Tables_number   1
_chemical_formula_structural   MoWSe4
_chemical_formula_sum   'Mo2 W2 Se8'
_cell_volume   361.92083504
_cell_formula_units_Z   2
loop_
 _symmetry_equiv_pos_site_id
 _symmetry_equiv_pos_as_xyz
  1  'x, y, z'
loop_
 _atom_site_type_symbol
 _atom_site_label
 _atom_site_symmetry_multiplicity
 _atom_site_fract_x
 _atom_site_fract_y
 _atom_site_fract_z
 _atom_site_occupancy
  Mo  Mo0  1  0.33330793  0.66661586  0.09391853  1
  Mo  Mo1  1  0.66668891  0.33337783  0.28180104  1
  W  W2  1  0.33331219  0.66662438  0.46965809  1
  W  W3  1  0.66669050  0.33338101  0.65753767  1
  Se  Se4  1  0.33335355  0.66670810  0.32609700  1
  Se  Se5  1  0.33335421  0.66670941  0.70204411  1
  Se  Se6  1  0.66664140  0.33328180  0.04963838  1
  Se  Se7  1  0.66664748  0.33329397  0.42516200  1
  Se  Se8  1  0.66664713  0.33329326  0.13821078  1
  Se  Se9  1  0.66664752  0.33329404  0.51414876  1
  Se  Se10  1  0.33335277  0.66670654  0.23750622  1
  Se  Se11  1  0.33335640  0.66671380  0.61302543  1
