# generated using pymatgen
data_KMn16O32
_symmetry_space_group_name_H-M   'P 1'
_cell_length_a   5.88375381
_cell_length_b   9.89371097
_cell_length_c   9.94354804
_cell_angle_alpha   89.84030469
_cell_angle_beta   89.99976217
_cell_angle_gamma   89.99992258
_symmetry_Int_Tables_number   1
_chemical_formula_structural   KMn16O32
_chemical_formula_sum   'K1 Mn16 O32'
_cell_volume   578.83315786
_cell_formula_units_Z   1
loop_
 _symmetry_equiv_pos_site_id
 _symmetry_equiv_pos_as_xyz
  1  'x, y, z'
loop_
 _atom_site_type_symbol
 _atom_site_label
 _atom_site_symmetry_multiplicity
 _atom_site_fract_x
 _atom_site_fract_y
 _atom_site_fract_z
 _atom_site_occupancy
  K  K0  1  0.00001594  0.49907775  0.49452288  1
  Mn  Mn1  1  0.50000150  0.16711057  0.34659572  1
  Mn  Mn2  1  0.00000627  0.16502050  0.34479105  1
  Mn  Mn3  1  0.49998875  0.34908582  0.82948070  1
  Mn  Mn4  1  0.99999073  0.34727917  0.83135932  1
  Mn  Mn5  1  0.00000011  0.65192029  0.16114927  1
  Mn  Mn6  1  0.50000206  0.65001232  0.16310497  1
  Mn  Mn7  1  0.00000319  0.83385981  0.64795005  1
  Mn  Mn8  1  0.50000462  0.83194781  0.64618750  1
  Mn  Mn9  1  0.74986504  0.66780393  0.84608442  1
  Mn  Mn10  1  0.25013904  0.66779841  0.84608001  1
  Mn  Mn11  1  0.74978687  0.84820728  0.32915382  1
  Mn  Mn12  1  0.25021611  0.84820355  0.32915134  1
  Mn  Mn13  1  0.74982518  0.15072650  0.66368566  1
  Mn  Mn14  1  0.25017207  0.15072790  0.66368517  1
  Mn  Mn15  1  0.74987488  0.33128728  0.14658575  1
  Mn  Mn16  1  0.25012039  0.33128767  0.14658122  1
  O  O17  1  0.74947880  0.95698204  0.65842871  1
  O  O18  1  0.25052698  0.95698045  0.65842990  1
  O  O19  1  0.74938474  0.66498496  0.03895797  1
  O  O20  1  0.25061809  0.66498503  0.03895815  1
  O  O21  1  0.74941668  0.33428296  0.95368446  1
  O  O22  1  0.25055754  0.33427912  0.95368311  1
  O  O23  1  0.74940024  0.04189228  0.33451059  1
  O  O24  1  0.25060988  0.04189203  0.33450939  1
  O  O25  1  -0.00000014  0.45656261  0.16152486  1
  O  O26  1  0.49999639  0.45592324  0.15970440  1
  O  O27  1  0.00000675  0.16820638  0.53918346  1
  O  O28  1  0.49999961  0.16650778  0.53981646  1
  O  O29  1  0.50000085  0.83232338  0.45303395  1
  O  O30  1  0.00000136  0.83059651  0.45360946  1
  O  O31  1  0.49999873  0.54320106  0.83292146  1
  O  O32  1  0.99999748  0.54260534  0.83142680  1
  O  O33  1  0.50000204  0.79736779  0.83949913  1
  O  O34  1  0.00000128  0.79755251  0.84068484  1
  O  O35  1  0.00000183  0.84507025  0.19998816  1
  O  O36  1  0.50000212  0.84373636  0.20012518  1
  O  O37  1  0.99999937  0.20147843  0.15200159  1
  O  O38  1  0.50000313  0.20169098  0.15324315  1
  O  O39  1  0.49999881  0.15532484  0.79267808  1
  O  O40  1  0.99999168  0.15406415  0.79281827  1
  O  O41  1  0.75191627  0.29755185  0.34112355  1
  O  O42  1  0.24809014  0.29755234  0.34112011  1
  O  O43  1  0.75183122  0.34602697  0.69970146  1
  O  O44  1  0.24814806  0.34602324  0.69970330  1
  O  O45  1  0.75186081  0.70140625  0.65159139  1
  O  O46  1  0.24814657  0.70140685  0.65159197  1
  O  O47  1  0.75181639  0.65292317  0.29284820  1
  O  O48  1  0.24818454  0.65292327  0.29284862  1
