# generated using pymatgen
data_Hf2Co7
_symmetry_space_group_name_H-M   'P 1'
_cell_length_a   4.66883120
_cell_length_b   4.73313000
_cell_length_c   6.26332543
_cell_angle_alpha   82.16819033
_cell_angle_beta   73.96142801
_cell_angle_gamma   60.44836977
_symmetry_Int_Tables_number   1
_chemical_formula_structural   Hf2Co7
_chemical_formula_sum   'Hf2 Co7'
_cell_volume   115.71626436
_cell_formula_units_Z   1
loop_
 _symmetry_equiv_pos_site_id
 _symmetry_equiv_pos_as_xyz
  1  'x, y, z'
loop_
 _atom_site_type_symbol
 _atom_site_label
 _atom_site_symmetry_multiplicity
 _atom_site_fract_x
 _atom_site_fract_y
 _atom_site_fract_z
 _atom_site_occupancy
  Hf  Hf0  1  0.10035033  1.00000000  0.23185781  1
  Hf  Hf1  1  0.89964967  0.00000000  0.76814219  1
  Co  Co2  1  0.50000000  0.50000000  0.50000000  1
  Co  Co3  1  -0.00000000  0.50000000  0.50000000  1
  Co  Co4  1  0.54489994  0.66394716  0.84506409  1
  Co  Co5  1  0.20884710  0.33605284  0.84506409  1
  Co  Co6  1  0.45510006  0.33605284  0.15493591  1
  Co  Co7  1  0.79115290  0.66394716  0.15493591  1
  Co  Co8  1  0.50000000  -0.00000000  0.50000000  1
