# generated using pymatgen
data_NdCdGa
_symmetry_space_group_name_H-M   'P 1'
_cell_length_a   4.49209835
_cell_length_b   7.48788865
_cell_length_c   7.48829736
_cell_angle_alpha   119.99819917
_cell_angle_beta   90.00000000
_cell_angle_gamma   90.00000000
_symmetry_Int_Tables_number   1
_chemical_formula_structural   NdCdGa
_chemical_formula_sum   'Nd3 Cd3 Ga3'
_cell_volume   218.13744783
_cell_formula_units_Z   3
loop_
 _symmetry_equiv_pos_site_id
 _symmetry_equiv_pos_as_xyz
  1  'x, y, z'
loop_
 _atom_site_type_symbol
 _atom_site_label
 _atom_site_symmetry_multiplicity
 _atom_site_fract_x
 _atom_site_fract_y
 _atom_site_fract_z
 _atom_site_occupancy
  Nd  Nd0  1  0.50000000  0.57905661  0.00000000  1
  Nd  Nd1  1  0.50000000  0.42091351  0.42095516  1
  Nd  Nd2  1  0.50000000  0.99995835  0.57904484  1
  Cd  Cd3  1  0.00000000  0.24661009  1.00000000  1
  Cd  Cd4  1  0.00000000  0.75332758  0.75329321  1
  Cd  Cd5  1  0.00000000  0.00003437  0.24670679  1
  Ga  Ga6  1  0.00000000  0.33331922  0.66666215  1
  Ga  Ga7  1  0.00000000  0.66665707  0.33333785  1
  Ga  Ga8  1  0.50000000  0.00002320  0.00000000  1
