# generated using pymatgen
data_Mg7Fe(SiO4)4
_symmetry_space_group_name_H-M   'P 1'
_cell_length_a   4.82183048
_cell_length_b   10.35377551
_cell_length_c   6.06201707
_cell_angle_alpha   90.29935119
_cell_angle_beta   89.78000454
_cell_angle_gamma   90.08333215
_symmetry_Int_Tables_number   1
_chemical_formula_structural   Mg7Fe(SiO4)4
_chemical_formula_sum   'Mg7 Fe1 Si4 O16'
_cell_volume   302.63437827
_cell_formula_units_Z   1
loop_
 _symmetry_equiv_pos_site_id
 _symmetry_equiv_pos_as_xyz
  1  'x, y, z'
loop_
 _atom_site_type_symbol
 _atom_site_label
 _atom_site_symmetry_multiplicity
 _atom_site_fract_x
 _atom_site_fract_y
 _atom_site_fract_z
 _atom_site_occupancy
  Mg  Mg0  1  0.00000625  0.00000430  0.99999595  1
  Mg  Mg1  1  0.98867066  0.27613046  0.24507229  1
  Mg  Mg2  1  0.01133477  0.72387746  0.75492504  1
  Mg  Mg3  1  0.00000130  0.00000450  0.49999770  1
  Mg  Mg4  1  0.50001204  0.50000900  -0.00000046  1
  Mg  Mg5  1  0.50957504  0.77822230  0.25110469  1
  Mg  Mg6  1  0.49041381  0.22178784  0.74889540  1
  Fe  Fe7  1  0.49989739  0.49996433  0.50002972  1
  Si  Si8  1  0.92631132  0.40551452  0.75121468  1
  Si  Si9  1  0.42519521  0.09348213  0.24909267  1
  Si  Si10  1  0.57481277  0.90652888  0.75090488  1
  Si  Si11  1  0.07369038  0.59449762  0.24878368  1
  O  O12  1  0.76460877  0.09177626  0.24875231  1
  O  O13  1  0.21331217  0.44649269  0.24509358  1
  O  O14  1  0.27621690  0.16190173  0.03282214  1
  O  O15  1  0.23540119  0.90823402  0.75124458  1
  O  O16  1  0.78669966  0.55351460  0.75490015  1
  O  O17  1  0.72379033  0.83810837  0.96717794  1
  O  O18  1  0.72289389  0.83728713  0.53377469  1
  O  O19  1  0.27711331  0.16272338  0.46622491  1
  O  O20  1  0.73460345  0.59395835  0.24646898  1
  O  O21  1  0.27744568  0.94691804  0.24917465  1
  O  O22  1  0.22909341  0.66290846  0.03438068  1
  O  O23  1  0.26540339  0.40605082  0.75352656  1
  O  O24  1  0.72256155  0.05309413  0.75082583  1
  O  O25  1  0.77092029  0.33710301  0.96561492  1
  O  O26  1  0.78599350  0.33419163  0.53350448  1
  O  O27  1  0.21402360  0.66581704  0.46649735  1
