# generated using pymatgen
data_ZrAlPt
_symmetry_space_group_name_H-M   'P 1'
_cell_length_a   3.66293469
_cell_length_b   7.15804707
_cell_length_c   7.15549797
_cell_angle_alpha   120.01178432
_cell_angle_beta   90.00000000
_cell_angle_gamma   90.00000000
_symmetry_Int_Tables_number   1
_chemical_formula_structural   ZrAlPt
_chemical_formula_sum   'Zr3 Al3 Pt3'
_cell_volume   162.45857397
_cell_formula_units_Z   3
loop_
 _symmetry_equiv_pos_site_id
 _symmetry_equiv_pos_as_xyz
  1  'x, y, z'
loop_
 _atom_site_type_symbol
 _atom_site_label
 _atom_site_symmetry_multiplicity
 _atom_site_fract_x
 _atom_site_fract_y
 _atom_site_fract_z
 _atom_site_occupancy
  Zr  Zr0  1  0.50000000  0.59863394  0.00000000  1
  Zr  Zr1  1  0.50000000  0.40136111  0.40139602  1
  Zr  Zr2  1  0.50000000  0.99996509  0.59860398  1
  Al  Al3  1  0.00000000  0.25695876  0.00000000  1
  Al  Al4  1  0.00000000  0.74298387  0.74303316  1
  Al  Al5  1  0.00000000  0.99995070  0.25696684  1
  Pt  Pt6  1  0.00000000  0.33336749  0.66670773  1
  Pt  Pt7  1  0.00000000  0.66665976  0.33329227  1
  Pt  Pt8  1  0.50000000  0.00001928  0.00000000  1
