# generated using pymatgen
data_Na2Sr2Nb4O13
_symmetry_space_group_name_H-M   'P 1'
_cell_length_a   7.55667133
_cell_length_b   7.54125009
_cell_length_c   7.59111944
_cell_angle_alpha   90.00000000
_cell_angle_beta   59.84908660
_cell_angle_gamma   119.93251563
_symmetry_Int_Tables_number   1
_chemical_formula_structural   Na2Sr2Nb4O13
_chemical_formula_sum   'Na2 Sr2 Nb4 O13'
_cell_volume   305.50234349
_cell_formula_units_Z   1
loop_
 _symmetry_equiv_pos_site_id
 _symmetry_equiv_pos_as_xyz
  1  'x, y, z'
loop_
 _atom_site_type_symbol
 _atom_site_label
 _atom_site_symmetry_multiplicity
 _atom_site_fract_x
 _atom_site_fract_y
 _atom_site_fract_z
 _atom_site_occupancy
  Na  Na0  1  0.48343787  0.47157248  0.00828107  1
  Na  Na1  1  0.48343787  0.01186539  0.00828107  1
  Sr  Sr2  1  0.01737072  0.00868536  0.48016281  1
  Sr  Sr3  1  0.01737072  0.00868536  0.00246646  1
  Nb  Nb4  1  0.50019935  -0.00050868  0.49990033  1
  Nb  Nb5  1  0.50019935  0.50070803  0.49990033  1
  Nb  Nb6  1  0.99893366  0.49946683  0.00097199  1
  Nb  Nb7  1  0.99893366  0.49946683  0.50009435  1
  O  O8  1  0.63337320  0.81668660  0.43331340  1
  O  O9  1  0.88161259  0.44080630  0.80919370  1
  O  O10  1  0.24876076  0.81402492  0.81115381  1
  O  O11  1  0.24876076  0.43473584  0.44008543  1
  O  O12  1  0.24876076  0.43473584  0.81115381  1
  O  O13  1  0.24876076  0.81402492  0.44008543  1
  O  O14  1  0.35930003  0.17965001  0.57034999  1
  O  O15  1  0.13045607  0.56522804  0.18477196  1
  O  O16  1  0.75151965  0.18079276  0.18233427  1
  O  O17  1  0.75151965  0.57072689  0.56614607  1
  O  O18  1  0.75151965  0.57072689  0.18233427  1
  O  O19  1  0.75151965  0.18079276  0.56614607  1
  O  O20  1  0.24425327  0.12212664  0.12787336  1
