# generated using pymatgen
data_Ba3Ta4NbO15
_symmetry_space_group_name_H-M   'P 1'
_cell_length_a   4.02491407
_cell_length_b   12.78284749
_cell_length_c   12.78283847
_cell_angle_alpha   90.00000000
_cell_angle_beta   90.00000000
_cell_angle_gamma   90.00000000
_symmetry_Int_Tables_number   1
_chemical_formula_structural   Ba3Ta4NbO15
_chemical_formula_sum   'Ba6 Ta8 Nb2 O30'
_cell_volume   657.67528442
_cell_formula_units_Z   2
loop_
 _symmetry_equiv_pos_site_id
 _symmetry_equiv_pos_as_xyz
  1  'x, y, z'
loop_
 _atom_site_type_symbol
 _atom_site_label
 _atom_site_symmetry_multiplicity
 _atom_site_fract_x
 _atom_site_fract_y
 _atom_site_fract_z
 _atom_site_occupancy
  Ba  Ba0  1  -0.00000000  0.50000000  0.50000000  1
  Ba  Ba1  1  0.00000000  -0.00000000  -0.00000000  1
  Ba  Ba2  1  0.00000000  0.16927075  0.66926992  1
  Ba  Ba3  1  -0.00000000  0.83072925  0.33073008  1
  Ba  Ba4  1  -0.00000000  0.33072925  0.16926992  1
  Ba  Ba5  1  0.00000000  0.66927075  0.83073008  1
  Ta  Ta6  1  0.50000000  0.71362670  0.57536417  1
  Ta  Ta7  1  0.50000000  0.28637330  0.42463583  1
  Ta  Ta8  1  0.50000000  0.78637330  0.07536417  1
  Ta  Ta9  1  0.50000000  0.21362670  0.92463583  1
  Ta  Ta10  1  0.50000000  0.57536097  0.28637450  1
  Ta  Ta11  1  0.50000000  0.42463903  0.71362550  1
  Ta  Ta12  1  0.50000000  0.07536097  0.21362550  1
  Ta  Ta13  1  0.50000000  0.92463903  0.78637450  1
  Nb  Nb14  1  0.50000000  -0.00000000  0.50000000  1
  Nb  Nb15  1  0.50000000  0.50000000  -0.00000000  1
  O  O16  1  -0.00000000  0.00000000  0.50000000  1
  O  O17  1  -0.00000000  0.50000000  -0.00000000  1
  O  O18  1  0.50000000  0.28173877  0.78173666  1
  O  O19  1  0.50000000  0.71826123  0.21826334  1
  O  O20  1  0.50000000  0.21826123  0.28173666  1
  O  O21  1  0.50000000  0.78173877  0.71826334  1
  O  O22  1  0.00000000  0.70897074  0.57712818  1
  O  O23  1  -0.00000000  0.29102926  0.42287182  1
  O  O24  1  -0.00000000  0.79102926  0.07712818  1
  O  O25  1  0.00000000  0.20897074  0.92287182  1
  O  O26  1  -0.00000000  0.57712573  0.29103072  1
  O  O27  1  0.00000000  0.42287427  0.70896928  1
  O  O28  1  -0.00000000  0.07712573  0.20896928  1
  O  O29  1  0.00000000  0.92287427  0.79103072  1
  O  O30  1  0.50000000  0.50765931  0.84159634  1
  O  O31  1  0.50000000  0.49234069  0.15840366  1
  O  O32  1  0.50000000  0.99234069  0.34159634  1
  O  O33  1  0.50000000  0.00765931  0.65840366  1
  O  O34  1  0.50000000  0.84159659  0.49234221  1
  O  O35  1  0.50000000  0.15840341  0.50765779  1
  O  O36  1  0.50000000  0.34159659  0.00765779  1
  O  O37  1  0.50000000  0.65840341  0.99234221  1
  O  O38  1  0.50000000  0.56819677  0.64003892  1
  O  O39  1  0.50000000  0.43180323  0.35996108  1
  O  O40  1  0.50000000  0.93180323  0.14003892  1
  O  O41  1  0.50000000  0.06819677  0.85996108  1
  O  O42  1  0.50000000  0.64003881  0.43180584  1
  O  O43  1  0.50000000  0.35996119  0.56819416  1
  O  O44  1  0.50000000  0.14003881  0.06819416  1
  O  O45  1  0.50000000  0.85996119  0.93180584  1
