# generated using pymatgen
data_VO2
_symmetry_space_group_name_H-M   'P 1'
_cell_length_a   4.50495601
_cell_length_b   5.43648517
_cell_length_c   5.43380840
_cell_angle_alpha   112.01434686
_cell_angle_beta   90.00000000
_cell_angle_gamma   90.00000000
_symmetry_Int_Tables_number   1
_chemical_formula_structural   VO2
_chemical_formula_sum   'V4 O8'
_cell_volume   123.37722299
_cell_formula_units_Z   4
loop_
 _symmetry_equiv_pos_site_id
 _symmetry_equiv_pos_as_xyz
  1  'x, y, z'
loop_
 _atom_site_type_symbol
 _atom_site_label
 _atom_site_symmetry_multiplicity
 _atom_site_fract_x
 _atom_site_fract_y
 _atom_site_fract_z
 _atom_site_occupancy
  V  V0  1  0.50421622  0.24916740  0.74518436  1
  V  V1  1  0.00421622  0.75083260  0.75481564  1
  V  V2  1  0.49578378  0.75083260  0.25481564  1
  V  V3  1  0.99578378  0.24916740  0.24518436  1
  O  O4  1  0.29831463  0.10015470  0.40093994  1
  O  O5  1  0.79831463  0.89984530  0.09906006  1
  O  O6  1  0.70168537  0.89984530  0.59906006  1
  O  O7  1  0.20168537  0.10015470  0.90093994  1
  O  O8  1  0.79862904  0.40080576  0.60094984  1
  O  O9  1  0.29862904  0.59919424  0.89905016  1
  O  O10  1  0.20137096  0.59919424  0.39905016  1
  O  O11  1  0.70137096  0.40080576  0.10094984  1
