# generated using pymatgen
data_MoRu
_symmetry_space_group_name_H-M   'P 1'
_cell_length_a   2.77741491
_cell_length_b   2.77743251
_cell_length_c   4.46370706
_cell_angle_alpha   90.00000000
_cell_angle_beta   90.00000000
_cell_angle_gamma   59.99979031
_symmetry_Int_Tables_number   1
_chemical_formula_structural   MoRu
_chemical_formula_sum   'Mo1 Ru1'
_cell_volume   29.82013995
_cell_formula_units_Z   1
loop_
 _symmetry_equiv_pos_site_id
 _symmetry_equiv_pos_as_xyz
  1  'x, y, z'
loop_
 _atom_site_type_symbol
 _atom_site_label
 _atom_site_symmetry_multiplicity
 _atom_site_fract_x
 _atom_site_fract_y
 _atom_site_fract_z
 _atom_site_occupancy
  Mo  Mo0  1  0.33338581  0.33330709  0.75000000  1
  Ru  Ru1  1  0.66661419  0.66669291  0.25000000  1
