# generated using pymatgen
data_Nb2O2F3
_symmetry_space_group_name_H-M   'P 1'
_cell_length_a   5.26428402
_cell_length_b   5.79943215
_cell_length_c   7.02718583
_cell_angle_alpha   108.12617818
_cell_angle_beta   110.43038056
_cell_angle_gamma   90.27681516
_symmetry_Int_Tables_number   1
_chemical_formula_structural   Nb2O2F3
_chemical_formula_sum   'Nb4 O4 F6'
_cell_volume   189.51071383
_cell_formula_units_Z   2
loop_
 _symmetry_equiv_pos_site_id
 _symmetry_equiv_pos_as_xyz
  1  'x, y, z'
loop_
 _atom_site_type_symbol
 _atom_site_label
 _atom_site_symmetry_multiplicity
 _atom_site_fract_x
 _atom_site_fract_y
 _atom_site_fract_z
 _atom_site_occupancy
  Nb  Nb0  1  0.41119380  0.31435521  0.32037187  1
  Nb  Nb1  1  0.58880620  0.68564479  0.67962813  1
  Nb  Nb2  1  0.07769925  0.18669907  0.67922794  1
  Nb  Nb3  1  0.92230075  0.81330093  0.32077206  1
  O  O4  1  0.24643055  0.64072637  0.40216603  1
  O  O5  1  0.75356945  0.35927363  0.59783397  1
  O  O6  1  0.16234631  0.13922763  0.40260738  1
  O  O7  1  0.83765369  0.86077237  0.59739262  1
  F  F8  1  0.11589799  0.24885739  0.00320272  1
  F  F9  1  0.88410201  0.75114261  0.99679728  1
  F  F10  1  0.56542113  0.97566927  0.21221459  1
  F  F11  1  0.43457887  0.02433073  0.78778541  1
  F  F12  1  0.66258171  0.47262847  0.20614194  1
  F  F13  1  0.33741829  0.52737153  0.79385806  1
