# generated using pymatgen
data_Tm3(CuSn)4
_symmetry_space_group_name_H-M   'P 1'
_cell_length_a   4.45027643
_cell_length_b   6.92721041
_cell_length_c   8.33914421
_cell_angle_alpha   114.54091887
_cell_angle_beta   105.47575125
_cell_angle_gamma   90.00000000
_symmetry_Int_Tables_number   1
_chemical_formula_structural   Tm3(CuSn)4
_chemical_formula_sum   'Tm3 Cu4 Sn4'
_cell_volume   223.56896068
_cell_formula_units_Z   1
loop_
 _symmetry_equiv_pos_site_id
 _symmetry_equiv_pos_as_xyz
  1  'x, y, z'
loop_
 _atom_site_type_symbol
 _atom_site_label
 _atom_site_symmetry_multiplicity
 _atom_site_fract_x
 _atom_site_fract_y
 _atom_site_fract_z
 _atom_site_occupancy
  Tm  Tm0  1  0.00000000  0.00000000  0.00000000  1
  Tm  Tm1  1  0.87086403  0.37086403  0.74172805  1
  Tm  Tm2  1  0.12913597  0.62913597  0.25827195  1
  Cu  Cu3  1  0.32654526  0.01428858  0.65309052  1
  Cu  Cu4  1  0.32654526  0.63880194  0.65309052  1
  Cu  Cu5  1  0.67345474  0.98571142  0.34690948  1
  Cu  Cu6  1  0.67345474  0.36119806  0.34690948  1
  Sn  Sn7  1  0.21670900  0.21670900  0.43341801  1
  Sn  Sn8  1  0.78329100  0.78329100  0.56658199  1
  Sn  Sn9  1  0.50000000  0.29532207  0.00000000  1
  Sn  Sn10  1  0.50000000  0.70467793  0.00000000  1
