# generated using pymatgen
data_U3O8
_symmetry_space_group_name_H-M   'P 1'
_cell_length_a   4.16023249
_cell_length_b   6.77733377
_cell_length_c   6.87287180
_cell_angle_alpha   119.54122267
_cell_angle_beta   90.00000000
_cell_angle_gamma   90.00000000
_symmetry_Int_Tables_number   1
_chemical_formula_structural   U3O8
_chemical_formula_sum   'U3 O8'
_cell_volume   168.59106867
_cell_formula_units_Z   1
loop_
 _symmetry_equiv_pos_site_id
 _symmetry_equiv_pos_as_xyz
  1  'x, y, z'
loop_
 _atom_site_type_symbol
 _atom_site_label
 _atom_site_symmetry_multiplicity
 _atom_site_fract_x
 _atom_site_fract_y
 _atom_site_fract_z
 _atom_site_occupancy
  U  U0  1  -0.00000000  0.96180704  0.00000000  1
  U  U1  1  -0.00000000  0.66830612  0.34744955  1
  U  U2  1  -0.00000000  0.32085658  0.65255045  1
  O  O3  1  -0.00000000  0.58103401  -0.00000000  1
  O  O4  1  0.50000000  0.95399560  -0.00000000  1
  O  O5  1  -0.00000000  0.07270652  0.75468070  1
  O  O6  1  0.00000000  0.31802583  0.24531930  1
  O  O7  1  -0.00000000  0.98785129  0.33819639  1
  O  O8  1  -0.00000000  0.64965490  0.66180361  1
  O  O9  1  0.50000000  0.67474093  0.35471976  1
  O  O10  1  0.50000000  0.32002117  0.64528024  1
