# generated using pymatgen
data_LiV2(PO4)3
_symmetry_space_group_name_H-M   'P 1'
_cell_length_a   8.51930938
_cell_length_b   8.58556241
_cell_length_c   12.11260096
_cell_angle_alpha   90.00000000
_cell_angle_beta   89.47261202
_cell_angle_gamma   90.00000000
_symmetry_Int_Tables_number   1
_chemical_formula_structural   LiV2(PO4)3
_chemical_formula_sum   'Li4 V8 P12 O48'
_cell_volume   885.91519595
_cell_formula_units_Z   4
loop_
 _symmetry_equiv_pos_site_id
 _symmetry_equiv_pos_as_xyz
  1  'x, y, z'
loop_
 _atom_site_type_symbol
 _atom_site_label
 _atom_site_symmetry_multiplicity
 _atom_site_fract_x
 _atom_site_fract_y
 _atom_site_fract_z
 _atom_site_occupancy
  Li  Li0  1  0.50000000  0.50000000  0.50000000  1
  Li  Li1  1  0.00000000  0.00000000  0.00000000  1
  Li  Li2  1  0.00000000  0.00000000  0.50000000  1
  Li  Li3  1  0.50000000  0.50000000  0.00000000  1
  V  V4  1  0.28139051  0.00161253  0.35992123  1
  V  V5  1  0.21894587  0.49829059  0.64431127  1
  V  V6  1  0.78105413  0.49829059  0.85568873  1
  V  V7  1  0.21894587  0.50170941  0.14431127  1
  V  V8  1  0.71860949  0.99838747  0.64007877  1
  V  V9  1  0.71860949  0.00161253  0.14007877  1
  V  V10  1  0.78105413  0.50170941  0.35568873  1
  V  V11  1  0.28139051  0.99838747  0.85992123  1
  P  P12  1  0.35418121  0.85456986  0.60508636  1
  P  P13  1  0.35418121  0.14543014  0.10508636  1
  P  P14  1  0.00000000  0.20685888  0.75000000  1
  P  P15  1  0.64581879  0.85456986  0.89491364  1
  P  P16  1  0.85248625  0.35642758  0.10482051  1
  P  P17  1  0.14751375  0.35642758  0.39517949  1
  P  P18  1  0.64581879  0.14543014  0.39491364  1
  P  P19  1  0.50000000  0.71141921  0.25000000  1
  P  P20  1  0.50000000  0.28858079  0.75000000  1
  P  P21  1  0.00000000  0.79314112  0.25000000  1
  P  P22  1  0.14751375  0.64357242  0.89517949  1
  P  P23  1  0.85248625  0.64357242  0.60482051  1
  O  O24  1  0.71787328  0.09045548  0.28443268  1
  O  O25  1  0.23029713  0.40961464  0.28777850  1
  O  O26  1  0.97435579  0.40747806  0.39754819  1
  O  O27  1  0.07618305  0.89680594  0.33926613  1
  O  O28  1  0.85336094  0.82310240  0.59260832  1
  O  O29  1  0.23029713  0.59038536  0.78777850  1
  O  O30  1  0.65347353  0.67590775  0.90854252  1
  O  O31  1  0.57790333  0.39352646  0.83763413  1
  O  O32  1  0.75646436  0.57205677  0.51015204  1
  O  O33  1  0.97435579  0.59252194  0.89754819  1
  O  O34  1  0.24353564  0.42794323  0.48984796  1
  O  O35  1  0.52941741  0.10222708  0.09447503  1
  O  O36  1  0.02564421  0.59252194  0.60245181  1
  O  O37  1  0.76970287  0.59038536  0.71222150  1
  O  O38  1  0.65347353  0.32409225  0.40854252  1
  O  O39  1  0.57790333  0.60647354  0.33763413  1
  O  O40  1  0.74565698  0.93217301  0.98587545  1
  O  O41  1  0.76970287  0.40961464  0.21222150  1
  O  O42  1  0.61940996  0.18828569  0.68521443  1
  O  O43  1  0.28212672  0.90954452  0.71556732  1
  O  O44  1  0.02564421  0.40747806  0.10245181  1
  O  O45  1  0.47058259  0.89777292  0.90552497  1
  O  O46  1  0.24353564  0.57205677  0.98984796  1
  O  O47  1  0.34652647  0.32409225  0.09145748  1
  O  O48  1  0.14663906  0.82310240  0.90739168  1
  O  O49  1  0.38059004  0.18828569  0.81478557  1
  O  O50  1  0.14663906  0.17689760  0.40739168  1
  O  O51  1  0.25434302  0.06782699  0.01412455  1
  O  O52  1  0.47058259  0.10222708  0.40552497  1
  O  O53  1  0.12393749  0.30721105  0.69006723  1
  O  O54  1  0.42209667  0.39352646  0.66236587  1
  O  O55  1  0.28212672  0.09045548  0.21556732  1
  O  O56  1  0.92381695  0.89680594  0.16073387  1
  O  O57  1  0.87606251  0.30721105  0.80993277  1
  O  O58  1  0.87606251  0.69278895  0.30993277  1
  O  O59  1  0.75646436  0.42794323  0.01015204  1
  O  O60  1  0.38059004  0.81171431  0.31478557  1
  O  O61  1  0.92381695  0.10319406  0.66073387  1
  O  O62  1  0.61940996  0.81171431  0.18521443  1
  O  O63  1  0.07618305  0.10319406  0.83926613  1
  O  O64  1  0.52941741  0.89777292  0.59447503  1
  O  O65  1  0.71787328  0.90954452  0.78443268  1
  O  O66  1  0.85336094  0.17689760  0.09260832  1
  O  O67  1  0.25434302  0.93217301  0.51412455  1
  O  O68  1  0.42209667  0.60647354  0.16236587  1
  O  O69  1  0.12393749  0.69278895  0.19006723  1
  O  O70  1  0.34652647  0.67590775  0.59145748  1
  O  O71  1  0.74565698  0.06782699  0.48587545  1
