# generated using pymatgen
data_MnGeO3
_symmetry_space_group_name_H-M   'P 1'
_cell_length_a   5.36390307
_cell_length_b   6.90393016
_cell_length_c   6.90393016
_cell_angle_alpha   86.43521574
_cell_angle_beta   80.96940527
_cell_angle_gamma   80.96940527
_symmetry_Int_Tables_number   1
_chemical_formula_structural   MnGeO3
_chemical_formula_sum   'Mn4 Ge4 O12'
_cell_volume   249.18279791
_cell_formula_units_Z   4
loop_
 _symmetry_equiv_pos_site_id
 _symmetry_equiv_pos_as_xyz
  1  'x, y, z'
loop_
 _atom_site_type_symbol
 _atom_site_label
 _atom_site_symmetry_multiplicity
 _atom_site_fract_x
 _atom_site_fract_y
 _atom_site_fract_z
 _atom_site_occupancy
  Mn  Mn0  1  0.75000000  0.09616315  0.90383685  1
  Mn  Mn1  1  0.25000000  0.90383685  0.09616315  1
  Mn  Mn2  1  0.75000000  0.72288113  0.27711887  1
  Mn  Mn3  1  0.25000000  0.27711887  0.72288113  1
  Ge  Ge4  1  0.71839196  0.61070829  0.79434022  1
  Ge  Ge5  1  0.78160804  0.20565978  0.38929171  1
  Ge  Ge6  1  0.28160804  0.38929171  0.20565978  1
  Ge  Ge7  1  0.21839196  0.79434022  0.61070829  1
  O  O8  1  0.64122179  0.78978729  0.97492230  1
  O  O9  1  0.85877821  0.02507770  0.21021271  1
  O  O10  1  0.35877821  0.21021271  0.02507770  1
  O  O11  1  0.14122179  0.97492230  0.78978729  1
  O  O12  1  0.87553215  0.38204298  0.85580047  1
  O  O13  1  0.62446785  0.14419953  0.61795702  1
  O  O14  1  0.12446785  0.61795702  0.14419953  1
  O  O15  1  0.37553215  0.85580047  0.38204298  1
  O  O16  1  0.42255065  0.58353572  0.70556674  1
  O  O17  1  0.07744935  0.29443326  0.41646428  1
  O  O18  1  0.57744935  0.41646428  0.29443326  1
  O  O19  1  0.92255065  0.70556674  0.58353572  1
