# generated using pymatgen
data_BaCo2(PO4)2
_symmetry_space_group_name_H-M   'P 1'
_cell_length_a   5.40443132
_cell_length_b   5.40443926
_cell_length_c   8.15177433
_cell_angle_alpha   89.99997096
_cell_angle_beta   90.00004222
_cell_angle_gamma   120.00029710
_symmetry_Int_Tables_number   1
_chemical_formula_structural   BaCo2(PO4)2
_chemical_formula_sum   'Ba1 Co2 P2 O8'
_cell_volume   206.19689546
_cell_formula_units_Z   1
loop_
 _symmetry_equiv_pos_site_id
 _symmetry_equiv_pos_as_xyz
  1  'x, y, z'
loop_
 _atom_site_type_symbol
 _atom_site_label
 _atom_site_symmetry_multiplicity
 _atom_site_fract_x
 _atom_site_fract_y
 _atom_site_fract_z
 _atom_site_occupancy
  Ba  Ba0  1  -0.00000000  0.00000000  0.00000000  1
  Co  Co1  1  0.33332946  0.66666610  0.68988695  1
  Co  Co2  1  0.66667054  0.33333390  0.31011305  1
  P  P3  1  0.33332019  0.66665943  0.26914384  1
  P  P4  1  0.66667981  0.33334057  0.73085616  1
  O  O5  1  0.56126299  0.96488607  0.19892054  1
  O  O6  1  0.03513716  0.59638088  0.19892395  1
  O  O7  1  0.40363012  0.43874825  0.19892174  1
  O  O8  1  0.43873701  0.03511393  0.80107946  1
  O  O9  1  0.96486284  0.40361912  0.80107605  1
  O  O10  1  0.59636988  0.56125175  0.80107826  1
  O  O11  1  0.33333821  0.66666924  0.45518426  1
  O  O12  1  0.66666179  0.33333076  0.54481574  1
