# generated using pymatgen
data_Ni5Ge3
_symmetry_space_group_name_H-M   'P 1'
_cell_length_a   6.36501825
_cell_length_b   6.39788742
_cell_length_c   6.39788742
_cell_angle_alpha   63.37625024
_cell_angle_beta   63.54299121
_cell_angle_gamma   63.54299121
_symmetry_Int_Tables_number   1
_chemical_formula_structural   Ni5Ge3
_chemical_formula_sum   'Ni10 Ge6'
_cell_volume   198.43677512
_cell_formula_units_Z   2
loop_
 _symmetry_equiv_pos_site_id
 _symmetry_equiv_pos_as_xyz
  1  'x, y, z'
loop_
 _atom_site_type_symbol
 _atom_site_label
 _atom_site_symmetry_multiplicity
 _atom_site_fract_x
 _atom_site_fract_y
 _atom_site_fract_z
 _atom_site_occupancy
  Ni  Ni0  1  0.60268469  0.25145262  0.89464978  1
  Ni  Ni1  1  0.39731531  0.10535022  0.74854738  1
  Ni  Ni2  1  0.90057263  0.58467128  0.26284253  1
  Ni  Ni3  1  0.09942737  0.73715747  0.41532872  1
  Ni  Ni4  1  0.23702008  0.92487069  0.58902927  1
  Ni  Ni5  1  0.76297992  0.41097073  0.07512931  1
  Ni  Ni6  1  0.17394052  0.17106267  0.16967027  1
  Ni  Ni7  1  0.82605948  0.83032973  0.82893733  1
  Ni  Ni8  1  0.34200073  0.66168973  0.99558422  1
  Ni  Ni9  1  0.65799927  0.00441578  0.33831027  1
  Ge  Ge10  1  0.00000000  0.02246332  0.97753668  1
  Ge  Ge11  1  0.29474233  0.33598200  0.36799075  1
  Ge  Ge12  1  0.70525767  0.63200925  0.66401800  1
  Ge  Ge13  1  0.50000000  0.80073558  0.19926442  1
  Ge  Ge14  1  0.19991912  0.50713644  0.80229751  1
  Ge  Ge15  1  0.80008088  0.19770249  0.49286356  1
