# generated using pymatgen
data_La5Cu4P4(ClO2)2
_symmetry_space_group_name_H-M   'P 1'
_cell_length_a   4.07651710
_cell_length_b   4.07651710
_cell_length_c   20.67873241
_cell_angle_alpha   95.65670678
_cell_angle_beta   95.65670678
_cell_angle_gamma   90.00000000
_symmetry_Int_Tables_number   1
_chemical_formula_structural   La5Cu4P4(ClO2)2
_chemical_formula_sum   'La5 Cu4 P4 Cl2 O4'
_cell_volume   340.28395847
_cell_formula_units_Z   1
loop_
 _symmetry_equiv_pos_site_id
 _symmetry_equiv_pos_as_xyz
  1  'x, y, z'
loop_
 _atom_site_type_symbol
 _atom_site_label
 _atom_site_symmetry_multiplicity
 _atom_site_fract_x
 _atom_site_fract_y
 _atom_site_fract_z
 _atom_site_occupancy
  La  La0  1  0.63437821  0.63437821  0.26875641  1
  La  La1  1  0.36562179  0.36562179  0.73124359  1
  La  La2  1  0.19431796  0.19431796  0.38863592  1
  La  La3  1  0.80568204  0.80568204  0.61136408  1
  La  La4  1  0.00000000  0.00000000  0.00000000  1
  Cu  Cu5  1  0.06209790  0.56209790  0.12419580  1
  Cu  Cu6  1  0.56209790  0.06209790  0.12419580  1
  Cu  Cu7  1  0.93790210  0.43790210  0.87580420  1
  Cu  Cu8  1  0.43790210  0.93790210  0.87580420  1
  P  P9  1  0.52744119  0.52744119  0.05488237  1
  P  P10  1  0.47255881  0.47255881  0.94511763  1
  P  P11  1  0.09064062  0.09064062  0.18128124  1
  P  P12  1  0.90935938  0.90935938  0.81871876  1
  Cl  Cl13  1  0.72786136  0.72786136  0.45572271  1
  Cl  Cl14  1  0.27213864  0.27213864  0.54427729  1
  O  O15  1  0.66421533  0.16421533  0.32843067  1
  O  O16  1  0.16421533  0.66421533  0.32843067  1
  O  O17  1  0.33578467  0.83578467  0.67156933  1
  O  O18  1  0.83578467  0.33578467  0.67156933  1
