# generated using pymatgen
data_Ba3CdHg10
_symmetry_space_group_name_H-M   'P 1'
_cell_length_a   5.36524491
_cell_length_b   9.63214416
_cell_length_c   9.63214416
_cell_angle_alpha   64.25381208
_cell_angle_beta   73.82886097
_cell_angle_gamma   73.82886097
_symmetry_Int_Tables_number   1
_chemical_formula_structural   Ba3CdHg10
_chemical_formula_sum   'Ba3 Cd1 Hg10'
_cell_volume   423.42255871
_cell_formula_units_Z   1
loop_
 _symmetry_equiv_pos_site_id
 _symmetry_equiv_pos_as_xyz
  1  'x, y, z'
loop_
 _atom_site_type_symbol
 _atom_site_label
 _atom_site_symmetry_multiplicity
 _atom_site_fract_x
 _atom_site_fract_y
 _atom_site_fract_z
 _atom_site_occupancy
  Ba  Ba0  1  0.00000000  0.00000000  -0.00000000  1
  Ba  Ba1  1  0.29363071  0.70636929  0.70636929  1
  Ba  Ba2  1  0.70636929  0.29363071  0.29363071  1
  Cd  Cd3  1  0.00000000  0.50000000  0.50000000  1
  Hg  Hg4  1  0.14006107  0.56786260  0.15201525  1
  Hg  Hg5  1  0.85993893  0.43213740  0.84798475  1
  Hg  Hg6  1  0.85993893  0.84798475  0.43213740  1
  Hg  Hg7  1  0.14006107  0.15201525  0.56786260  1
  Hg  Hg8  1  0.34131681  0.30219900  0.01516739  1
  Hg  Hg9  1  0.65868319  0.69780100  0.98483261  1
  Hg  Hg10  1  0.65868319  0.98483261  0.69780100  1
  Hg  Hg11  1  0.34131681  0.01516739  0.30219900  1
  Hg  Hg12  1  0.50000000  0.32446408  0.67553592  1
  Hg  Hg13  1  0.50000000  0.67553592  0.32446408  1
