# generated using pymatgen
data_Gd(BRh)4
_symmetry_space_group_name_H-M   'P 1'
_cell_length_a   5.35048428
_cell_length_b   5.35048428
_cell_length_c   7.48291592
_cell_angle_alpha   90.00000000
_cell_angle_beta   90.00000000
_cell_angle_gamma   90.00000000
_symmetry_Int_Tables_number   1
_chemical_formula_structural   Gd(BRh)4
_chemical_formula_sum   'Gd2 B8 Rh8'
_cell_volume   214.21853762
_cell_formula_units_Z   2
loop_
 _symmetry_equiv_pos_site_id
 _symmetry_equiv_pos_as_xyz
  1  'x, y, z'
loop_
 _atom_site_type_symbol
 _atom_site_label
 _atom_site_symmetry_multiplicity
 _atom_site_fract_x
 _atom_site_fract_y
 _atom_site_fract_z
 _atom_site_occupancy
  Gd  Gd0  1  0.75000000  0.25000000  0.25000000  1
  Gd  Gd1  1  0.25000000  0.75000000  0.75000000  1
  B  B2  1  0.58114100  0.75000000  0.40165384  1
  B  B3  1  0.91885900  0.75000000  0.40165384  1
  B  B4  1  0.75000000  0.58114100  0.90165384  1
  B  B5  1  0.75000000  0.91885900  0.90165384  1
  B  B6  1  0.41885900  0.25000000  0.59834616  1
  B  B7  1  0.08114100  0.25000000  0.59834616  1
  B  B8  1  0.25000000  0.41885900  0.09834616  1
  B  B9  1  0.25000000  0.08114100  0.09834616  1
  Rh  Rh10  1  0.00120304  0.75000000  0.10610146  1
  Rh  Rh11  1  0.49879696  0.75000000  0.10610146  1
  Rh  Rh12  1  0.75000000  0.00120304  0.60610146  1
  Rh  Rh13  1  0.75000000  0.49879696  0.60610146  1
  Rh  Rh14  1  0.99879696  0.25000000  0.89389854  1
  Rh  Rh15  1  0.50120304  0.25000000  0.89389854  1
  Rh  Rh16  1  0.25000000  0.99879696  0.39389854  1
  Rh  Rh17  1  0.25000000  0.50120304  0.39389854  1
