# generated using pymatgen
data_Ba2GdGaTe5
_symmetry_space_group_name_H-M   'P 1'
_cell_length_a   7.88687245
_cell_length_b   9.38563491
_cell_length_c   10.21431803
_cell_angle_alpha   103.46426461
_cell_angle_beta   103.16181302
_cell_angle_gamma   107.37670927
_symmetry_Int_Tables_number   1
_chemical_formula_structural   Ba2GdGaTe5
_chemical_formula_sum   'Ba4 Gd2 Ga2 Te10'
_cell_volume   664.79704841
_cell_formula_units_Z   2
loop_
 _symmetry_equiv_pos_site_id
 _symmetry_equiv_pos_as_xyz
  1  'x, y, z'
loop_
 _atom_site_type_symbol
 _atom_site_label
 _atom_site_symmetry_multiplicity
 _atom_site_fract_x
 _atom_site_fract_y
 _atom_site_fract_z
 _atom_site_occupancy
  Ba  Ba0  1  0.35498364  0.51443592  0.71151649  1
  Ba  Ba1  1  0.64501636  0.48556408  0.28848351  1
  Ba  Ba2  1  0.63851609  0.98087814  0.29179961  1
  Ba  Ba3  1  0.36148391  0.01912186  0.70820039  1
  Gd  Gd4  1  0.99871248  0.73334064  0.99868358  1
  Gd  Gd5  1  0.00128752  0.26665936  0.00131642  1
  Ga  Ga6  1  0.80820626  0.87346119  0.68811137  1
  Ga  Ga7  1  0.19179374  0.12653881  0.31188863  1
  Te  Te8  1  0.48383186  0.74100710  0.49086919  1
  Te  Te9  1  0.51616814  0.25899290  0.50913081  1
  Te  Te10  1  0.98724444  0.67433806  0.68021799  1
  Te  Te11  1  0.01275556  0.32566194  0.31978201  1
  Te  Te12  1  0.98716196  0.16034430  0.68289956  1
  Te  Te13  1  0.01283804  0.83965570  0.31710044  1
  Te  Te14  1  0.69770692  0.40819639  0.94265374  1
  Te  Te15  1  0.30229308  0.59180361  0.05734626  1
  Te  Te16  1  0.70772393  0.90931713  0.92996496  1
  Te  Te17  1  0.29227607  0.09068287  0.07003504  1
