# generated using pymatgen
data_NaNi2H3(SO5)2
_symmetry_space_group_name_H-M   'P 1'
_cell_length_a   5.37340863
_cell_length_b   5.37340865
_cell_length_c   7.39398595
_cell_angle_alpha   69.30834017
_cell_angle_beta   69.30834007
_cell_angle_gamma   71.79728736
_symmetry_Int_Tables_number   1
_chemical_formula_structural   NaNi2H3(SO5)2
_chemical_formula_sum   'Na1 Ni2 H3 S2 O10'
_cell_volume   182.49652662
_cell_formula_units_Z   1
loop_
 _symmetry_equiv_pos_site_id
 _symmetry_equiv_pos_as_xyz
  1  'x, y, z'
loop_
 _atom_site_type_symbol
 _atom_site_label
 _atom_site_symmetry_multiplicity
 _atom_site_fract_x
 _atom_site_fract_y
 _atom_site_fract_z
 _atom_site_occupancy
  Na  Na0  1  0.50203162  0.50203162  0.49905079  1
  Ni  Ni1  1  0.00347153  0.50256931  0.99884718  1
  Ni  Ni2  1  0.50256931  0.00347153  0.99884718  1
  H  H3  1  0.30587981  0.30587981  0.22981318  1
  H  H4  1  0.50566821  0.50566821  0.99738690  1
  H  H5  1  0.69859859  0.69859859  0.76733581  1
  S  S6  1  0.09703768  0.09703768  0.70394790  1
  S  S7  1  0.90825750  0.90825750  0.29248365  1
  O  O8  1  0.22454019  0.22454019  0.49475968  1
  O  O9  1  0.34882462  0.34882462  0.08201974  1
  O  O10  1  0.19394125  0.19394125  0.83472385  1
  O  O11  1  0.21082251  0.82121656  0.24600884  1
  O  O12  1  0.18366236  0.79400858  0.75070421  1
  O  O13  1  0.82121656  0.21082251  0.24600884  1
  O  O14  1  0.79400858  0.18366236  0.75070421  1
  O  O15  1  0.81108621  0.81108621  0.16203883  1
  O  O16  1  0.65702117  0.65702117  0.91494390  1
  O  O17  1  0.78036231  0.78036231  0.50237531  1
