# generated using pymatgen
data_Sb(MoS)2
_symmetry_space_group_name_H-M   'P 1'
_cell_length_a   3.20360895
_cell_length_b   6.61612276
_cell_length_c   9.52774904
_cell_angle_alpha   106.02897918
_cell_angle_beta   90.00000000
_cell_angle_gamma   90.00000000
_symmetry_Int_Tables_number   1
_chemical_formula_structural   Sb(MoS)2
_chemical_formula_sum   'Sb2 Mo4 S4'
_cell_volume   194.09392992
_cell_formula_units_Z   2
loop_
 _symmetry_equiv_pos_site_id
 _symmetry_equiv_pos_as_xyz
  1  'x, y, z'
loop_
 _atom_site_type_symbol
 _atom_site_label
 _atom_site_symmetry_multiplicity
 _atom_site_fract_x
 _atom_site_fract_y
 _atom_site_fract_z
 _atom_site_occupancy
  S  S0  1  0.25000000  0.26229170  0.99295908  1
  S  S1  1  0.25000000  0.52968836  0.68868396  1
  S  S2  1  0.75000000  0.73770830  0.00704092  1
  S  S3  1  0.75000000  0.47031164  0.31131604  1
  Mo  Mo4  1  0.75000000  0.10542174  0.11487190  1
  Mo  Mo5  1  0.75000000  0.33830159  0.52081981  1
  Mo  Mo6  1  0.25000000  0.89457826  0.88512810  1
  Mo  Mo7  1  0.25000000  0.66169841  0.47918019  1
  Sb  Sb8  1  0.75000000  0.00381993  0.66118902  1
  Sb  Sb9  1  0.25000000  0.99618007  0.33881098  1
