# generated using pymatgen
data_Na2Ga2Si3(HO3)4
_symmetry_space_group_name_H-M   'P 1'
_cell_length_a   13.44150375
_cell_length_b   9.96491410
_cell_length_c   10.07761458
_cell_angle_alpha   83.82325758
_cell_angle_beta   70.78809946
_cell_angle_gamma   70.69629092
_symmetry_Int_Tables_number   1
_chemical_formula_structural   Na2Ga2Si3(HO3)4
_chemical_formula_sum   'Na8 Ga8 Si12 H16 O48'
_cell_volume   1202.99280977
_cell_formula_units_Z   4
loop_
 _symmetry_equiv_pos_site_id
 _symmetry_equiv_pos_as_xyz
  1  'x, y, z'
loop_
 _atom_site_type_symbol
 _atom_site_label
 _atom_site_symmetry_multiplicity
 _atom_site_fract_x
 _atom_site_fract_y
 _atom_site_fract_z
 _atom_site_occupancy
  Na  Na0  1  0.17700083  0.44663988  0.05982593  1
  Na  Na1  1  0.08239895  0.94574401  0.43853493  1
  Na  Na2  1  0.27588183  0.05409346  0.55759138  1
  Na  Na3  1  0.42789439  0.56147695  0.93899336  1
  Na  Na4  1  0.67760325  0.44183903  0.05864570  1
  Na  Na5  1  0.57938874  0.94142608  0.44091557  1
  Na  Na6  1  0.77108543  0.06005885  0.55990120  1
  Na  Na7  1  0.92840239  0.55652373  0.94097532  1
  Ga  Ga8  1  0.23933256  0.07885851  0.18906520  1
  Ga  Ga9  1  0.15359842  0.19627239  0.91844808  1
  Ga  Ga10  1  0.20756348  0.57728532  0.31001752  1
  Ga  Ga11  1  0.36888297  0.92826219  0.81091928  1
  Ga  Ga12  1  0.73842723  0.07063131  0.18796818  1
  Ga  Ga13  1  0.65068262  0.42590895  0.68775882  1
  Ga  Ga14  1  0.70728712  0.56995663  0.31442362  1
  Ga  Ga15  1  0.86618716  0.92550375  0.81672493  1
  Si  Si16  1  0.99477500  0.00301352  0.00264157  1
  Si  Si17  1  0.12448965  0.30896848  0.42468564  1
  Si  Si18  1  0.15022052  0.43357046  0.68203859  1
  Si  Si19  1  0.21054573  0.81021544  0.07742953  1
  Si  Si20  1  0.49870515  0.99877520  0.00231204  1
  Si  Si21  1  0.37217587  0.49907087  0.49686124  1
  Si  Si22  1  0.48928299  0.69051322  0.57926113  1
  Si  Si23  1  0.62103563  0.30477194  0.42367917  1
  Si  Si24  1  0.65330436  0.19279447  0.92197048  1
  Si  Si25  1  0.70985321  0.80250249  0.07904979  1
  Si  Si26  1  0.87495615  0.49639274  0.50101766  1
  Si  Si27  1  0.99261656  0.69416432  0.57262721  1
  H  H28  1  0.00150955  0.70450224  0.11626013  1
  H  H29  1  0.11348082  0.89962834  0.71070836  1
  H  H30  1  0.22815239  0.79672064  0.61730059  1
  H  H31  1  0.41880556  0.09698676  0.28904486  1
  H  H32  1  0.43690247  0.20235314  0.38129398  1
  H  H33  1  0.34258386  0.39505341  0.79336113  1
  H  H34  1  0.43891089  0.60011791  0.20876984  1
  H  H35  1  0.41075850  0.29452780  0.88617484  1
  H  H36  1  0.50226908  0.70404701  0.11548150  1
  H  H37  1  0.61305549  0.90086950  0.71012605  1
  H  H38  1  0.72663860  0.79551301  0.61757765  1
  H  H39  1  0.91827203  0.09522293  0.29045173  1
  H  H40  1  0.93571698  0.20247162  0.38069390  1
  H  H41  1  0.84460114  0.39704240  0.79164475  1
  H  H42  1  0.93867874  0.60021827  0.20971217  1
  H  H43  1  0.91259767  0.29522171  0.88910659  1
  O  O44  1  0.02397049  0.15108325  0.96059937  1
  O  O45  1  0.18216416  0.21630034  0.07850946  1
  O  O46  1  0.09246209  0.86709633  0.04060822  1
  O  O47  1  0.04839788  0.58353210  0.68329980  1
  O  O48  1  0.17622313  0.14156607  0.37892378  1
  O  O49  1  0.09014835  0.70696594  0.43019827  1
  O  O50  1  0.17613298  0.41150043  0.30487579  1
  O  O51  1  0.15244827  0.32063008  0.57191707  1
  O  O52  1  0.12250766  0.38344242  0.84401943  1
  O  O53  1  0.22881149  0.64315992  0.12895929  1
  O  O54  1  0.20509757  0.91020450  0.20031372  1
  O  O55  1  0.26703964  0.08911388  0.77943220  1
  O  O56  1  0.39197027  0.03824253  0.14458055  1
  O  O57  1  0.17131776  0.88869737  0.61776486  1
  O  O58  1  0.27231485  0.46201843  0.62891664  1
  O  O59  1  0.33689816  0.54131660  0.35488061  1
  O  O60  1  0.42631355  0.11007315  0.38163075  1
  O  O61  1  0.35946736  0.39032937  0.88119736  1
  O  O62  1  0.39530727  0.63343839  0.54775749  1
  O  O63  1  0.31508388  0.79944170  0.93475034  1
  O  O64  1  0.49351482  0.61007427  0.11727923  1
  O  O65  1  0.48254130  0.35738975  0.46558059  1
  O  O66  1  0.42902624  0.85554050  0.62903358  1
  O  O67  1  0.54285448  0.13902262  0.96101924  1
  O  O68  1  0.68506506  0.19870084  0.06356365  1
  O  O69  1  0.59189666  0.85861428  0.04159662  1
  O  O70  1  0.53321157  0.59041906  0.70081761  1
  O  O71  1  0.66704143  0.13966175  0.36995665  1
  O  O72  1  0.58852246  0.69642615  0.43493386  1
  O  O73  1  0.48099970  0.95721393  0.86175103  1
  O  O74  1  0.67193473  0.40798928  0.30246031  1
  O  O75  1  0.65559574  0.29895350  0.56522175  1
  O  O76  1  0.61842739  0.35871133  0.86959717  1
  O  O77  1  0.73036977  0.63672968  0.13227596  1
  O  O78  1  0.70267062  0.90470572  0.20038937  1
  O  O79  1  0.75593832  0.09041422  0.79950950  1
  O  O80  1  0.88864789  0.03026575  0.14760424  1
  O  O81  1  0.67297604  0.89025985  0.61877494  1
  O  O82  1  0.78548299  0.45861046  0.64081466  1
  O  O83  1  0.83565859  0.53779771  0.36107734  1
  O  O84  1  0.92630741  0.10933293  0.38242179  1
  O  O85  1  0.85927898  0.38969514  0.88255682  1
  O  O86  1  0.90251248  0.63334359  0.54174159  1
  O  O87  1  0.81310689  0.79395582  0.93465215  1
  O  O88  1  0.99274359  0.61054198  0.11800344  1
  O  O89  1  0.98820209  0.35650395  0.46292434  1
  O  O90  1  0.92828981  0.85440346  0.63493435  1
  O  O91  1  0.97859419  0.95083875  0.86438206  1
