# generated using pymatgen
data_Na3Mn2P2(CO7)2
_symmetry_space_group_name_H-M   'P 1'
_cell_length_a   8.34082173
_cell_length_b   8.42943169
_cell_length_c   10.61235097
_cell_angle_alpha   70.98563270
_cell_angle_beta   108.65451758
_cell_angle_gamma   76.77039178
_symmetry_Int_Tables_number   1
_chemical_formula_structural   Na3Mn2P2(CO7)2
_chemical_formula_sum   'Na6 Mn4 P4 C4 O28'
_cell_volume   620.44665853
_cell_formula_units_Z   2
loop_
 _symmetry_equiv_pos_site_id
 _symmetry_equiv_pos_as_xyz
  1  'x, y, z'
loop_
 _atom_site_type_symbol
 _atom_site_label
 _atom_site_symmetry_multiplicity
 _atom_site_fract_x
 _atom_site_fract_y
 _atom_site_fract_z
 _atom_site_occupancy
  Na  Na0  1  0.51836223  0.49292518  0.76522210  1
  Na  Na1  1  0.22505505  0.22633301  0.75431037  1
  Na  Na2  1  0.74985150  0.74934990  0.77042369  1
  Na  Na3  1  0.75366036  0.75760249  0.23740352  1
  Na  Na4  1  0.48154228  0.46987392  0.24747752  1
  Na  Na5  1  0.99167522  0.00979886  0.22730133  1
  Mn  Mn6  1  0.60092109  0.15915200  0.65111999  1
  Mn  Mn7  1  0.09291176  0.66301502  0.64810150  1
  Mn  Mn8  1  0.91254311  0.34236311  0.35045879  1
  Mn  Mn9  1  0.40933546  0.84777327  0.34917577  1
  P  P10  1  0.77123069  0.48929617  0.57323435  1
  P  P11  1  0.27156294  0.97407157  0.57240678  1
  P  P12  1  0.72555288  0.01667437  0.42464521  1
  P  P13  1  0.23472249  0.52819256  0.42976740  1
  C  C14  1  0.69510891  0.05028486  0.91771190  1
  C  C15  1  0.19727275  0.55413152  0.91458520  1
  C  C16  1  0.80045854  0.45121708  0.08288130  1
  C  C17  1  0.30480224  0.93987388  0.08403311  1
  O  O18  1  0.25869735  -0.00903823  0.95082689  1
  O  O19  1  0.73926278  0.51111702  0.94572061  1
  O  O20  1  0.27773201  0.47485570  0.84952417  1
  O  O21  1  0.77783611  0.97293316  0.85483655  1
  O  O22  1  0.54741049  0.19424151  0.81883629  1
  O  O23  1  0.05014394  0.69811783  0.81322221  1
  O  O24  1  0.95465208  0.50087981  0.66238727  1
  O  O25  1  0.75645289  0.32341646  0.67513430  1
  O  O26  1  0.44891422  0.97750905  0.67074423  1
  O  O27  1  0.25803427  0.79417380  0.66466291  1
  O  O28  1  0.72023808  0.01002742  0.56975075  1
  O  O29  1  0.10728655  0.14271663  0.53412453  1
  O  O30  1  0.60827920  0.66159695  0.53734814  1
  O  O31  1  0.24172361  0.51933838  0.58102286  1
  O  O32  1  0.76411047  0.48600061  0.42649281  1
  O  O33  1  0.89904846  0.85380036  0.46062982  1
  O  O34  1  0.40365321  0.36576322  0.46620188  1
  O  O35  1  0.26686358  0.97774998  0.42367854  1
  O  O36  1  0.55592911  0.99462301  0.32549603  1
  O  O37  1  0.73189219  0.19398152  0.32983411  1
  O  O38  1  0.05368204  0.52613171  0.33650328  1
  O  O39  1  0.24658697  0.70861776  0.33768536  1
  O  O40  1  0.94451798  0.30559543  0.17753999  1
  O  O41  1  0.44936979  0.79179859  0.18848628  1
  O  O42  1  0.72477213  0.52973968  0.15050420  1
  O  O43  1  0.22345463  0.02188271  0.14587498  1
  O  O44  1  0.74968274  0.99646430  0.05411020  1
  O  O45  1  0.25110662  0.50193581  0.04856297  1
