# generated using pymatgen
data_LiNi(PO3)3
_symmetry_space_group_name_H-M   'P 1'
_cell_length_a   8.53769445
_cell_length_b   8.43797046
_cell_length_c   8.85187129
_cell_angle_alpha   90.00000000
_cell_angle_beta   90.00000000
_cell_angle_gamma   90.00000000
_symmetry_Int_Tables_number   1
_chemical_formula_structural   LiNi(PO3)3
_chemical_formula_sum   'Li4 Ni4 P12 O36'
_cell_volume   637.69600931
_cell_formula_units_Z   4
loop_
 _symmetry_equiv_pos_site_id
 _symmetry_equiv_pos_as_xyz
  1  'x, y, z'
loop_
 _atom_site_type_symbol
 _atom_site_label
 _atom_site_symmetry_multiplicity
 _atom_site_fract_x
 _atom_site_fract_y
 _atom_site_fract_z
 _atom_site_occupancy
  Li  Li0  1  0.10706764  0.87973521  0.41221595  1
  Li  Li1  1  0.39293236  0.12026479  0.91221595  1
  Li  Li2  1  0.60706764  0.62026479  0.58778405  1
  Li  Li3  1  0.89293236  0.37973521  0.08778405  1
  Ni  Ni4  1  0.11877807  0.09622434  0.13778459  1
  Ni  Ni5  1  0.38122193  0.90377566  0.63778459  1
  Ni  Ni6  1  0.61877807  0.40377566  0.86221541  1
  Ni  Ni7  1  0.88122193  0.59622434  0.36221541  1
  P  P8  1  0.06063317  0.95148047  0.81854792  1
  P  P9  1  0.06576420  0.72241193  0.07290945  1
  P  P10  1  0.22710443  0.56335758  0.55866433  1
  P  P11  1  0.27289557  0.43664242  0.05866433  1
  P  P12  1  0.43423580  0.27758807  0.57291045  1
  P  P13  1  0.43936683  0.04851953  0.31854792  1
  P  P14  1  0.56063317  0.54851953  0.18145208  1
  P  P15  1  0.56576420  0.77758807  0.92708955  1
  P  P16  1  0.72710443  0.93664242  0.44133567  1
  P  P17  1  0.77289557  0.06335758  0.94133567  1
  P  P18  1  0.93423580  0.22241193  0.42708955  1
  P  P19  1  0.93936683  0.45148047  0.68145208  1
  O  O20  1  0.01662103  0.79029823  0.91000311  1
  O  O21  1  0.06341001  0.11944126  0.36516059  1
  O  O22  1  0.12507184  0.90996073  0.66606523  1
  O  O23  1  0.11329993  0.52435930  0.70169857  1
  O  O24  1  0.12123549  0.85589422  0.17155088  1
  O  O25  1  0.13810347  0.33644815  0.11130882  1
  O  O26  1  0.12832711  0.62135372  0.42890507  1
  O  O27  1  0.15860944  0.05964851  0.91579442  1
  O  O28  1  0.20825758  0.61072642  0.01926207  1
  O  O29  1  0.29174242  0.38927358  0.51926207  1
  O  O30  1  0.34139056  0.94035149  0.41579442  1
  O  O31  1  0.37167289  0.37864628  0.92890507  1
  O  O32  1  0.36189653  0.66355185  0.61130882  1
  O  O33  1  0.37876451  0.14410578  0.67155088  1
  O  O34  1  0.38670007  0.47564070  0.20169857  1
  O  O35  1  0.37492816  0.09003927  0.16606523  1
  O  O36  1  0.43658999  0.88055874  0.86516059  1
  O  O37  1  0.48337897  0.20970177  0.41000311  1
  O  O38  1  0.51662103  0.70970177  0.08999689  1
  O  O39  1  0.56341001  0.38055874  0.63483941  1
  O  O40  1  0.62507184  0.59003927  0.33393477  1
  O  O41  1  0.61329993  0.97564070  0.29830143  1
  O  O42  1  0.62123549  0.64410578  0.82844912  1
  O  O43  1  0.63810347  0.16355185  0.88869118  1
  O  O44  1  0.62832711  0.87864628  0.57109493  1
  O  O45  1  0.65860944  0.44035149  0.08420558  1
  O  O46  1  0.70825758  0.88927358  0.98073793  1
  O  O47  1  0.79174242  0.11072642  0.48073793  1
  O  O48  1  0.84139056  0.55964851  0.58420558  1
  O  O49  1  0.87167289  0.12135372  0.07109493  1
  O  O50  1  0.86189653  0.83644815  0.38869118  1
  O  O51  1  0.87876451  0.35589422  0.32844912  1
  O  O52  1  0.88670007  0.02435930  0.79830143  1
  O  O53  1  0.87492816  0.40996073  0.83393477  1
  O  O54  1  0.93658999  0.61944126  0.13483941  1
  O  O55  1  0.98337897  0.29029823  0.58999689  1
