# generated using pymatgen
data_LiMnF4
_symmetry_space_group_name_H-M   'P 1'
_cell_length_a   6.00390687
_cell_length_b   10.18961871
_cell_length_c   10.19089047
_cell_angle_alpha   85.00796770
_cell_angle_beta   107.13896970
_cell_angle_gamma   107.12062312
_symmetry_Int_Tables_number   1
_chemical_formula_structural   LiMnF4
_chemical_formula_sum   'Li8 Mn8 F32'
_cell_volume   569.36739947
_cell_formula_units_Z   8
loop_
 _symmetry_equiv_pos_site_id
 _symmetry_equiv_pos_as_xyz
  1  'x, y, z'
loop_
 _atom_site_type_symbol
 _atom_site_label
 _atom_site_symmetry_multiplicity
 _atom_site_fract_x
 _atom_site_fract_y
 _atom_site_fract_z
 _atom_site_occupancy
  Li  Li0  1  0.87202778  0.00385649  0.74699891  1
  Li  Li1  1  0.87889164  0.50378618  0.24696720  1
  Li  Li2  1  0.87515431  0.24703791  0.99618377  1
  Li  Li3  1  0.63190930  0.25300898  0.50383348  1
  Li  Li4  1  0.36809091  0.74699242  0.49616110  1
  Li  Li5  1  0.12483172  0.75295815  0.00381478  1
  Li  Li6  1  0.12111303  0.49621196  0.75302820  1
  Li  Li7  1  0.12797159  0.99614093  0.25299938  1
  Mn  Mn8  1  0.62076274  0.00064500  0.25482228  1
  Mn  Mn9  1  0.87971150  0.74520808  0.50057044  1
  Mn  Mn10  1  0.36602837  0.24522735  0.00061018  1
  Mn  Mn11  1  0.63458323  0.50069121  0.75477937  1
  Mn  Mn12  1  0.36543241  0.49931846  0.24523527  1
  Mn  Mn13  1  0.63392517  0.75474690  0.99939714  1
  Mn  Mn14  1  0.12029434  0.25480324  0.49941651  1
  Mn  Mn15  1  0.37924541  0.99937341  0.74518236  1
  F  F16  1  0.94952619  0.09799561  0.34112505  1
  F  F17  1  0.90288984  0.16581792  0.59895162  1
  F  F18  1  0.89911517  0.35252764  0.41093767  1
  F  F19  1  0.60846885  0.15890791  0.09796415  1
  F  F20  1  0.86180960  0.66575209  0.09893760  1
  F  F21  1  0.48811001  0.08921190  0.35240563  1
  F  F22  1  0.51060540  0.40187608  0.15898360  1
  F  F23  1  0.69197313  0.58664631  0.34458690  1
  F  F24  1  0.76064219  0.91325931  0.15552446  1
  F  F25  1  0.95337297  0.58926859  0.85249949  1
  F  F26  1  0.69613685  0.09897808  0.83414332  1
  F  F27  1  0.76307590  0.40105671  0.66587914  1
  F  F28  1  0.13587778  0.14754194  0.08910648  1
  F  F29  1  0.65251718  0.84447309  0.41329714  1
  F  F30  1  0.39478159  0.65539229  0.08666717  1
  F  F31  1  0.64847119  0.65890978  0.59803196  1
  F  F32  1  0.35154093  0.34109492  0.40196429  1
  F  F33  1  0.60520596  0.34460872  0.91332664  1
  F  F34  1  0.34749018  0.15552777  0.58670665  1
  F  F35  1  0.86411193  0.85246092  0.91088778  1
  F  F36  1  0.23692987  0.59894023  0.33412163  1
  F  F37  1  0.30385918  0.90102043  0.16585304  1
  F  F38  1  0.04664059  0.41072969  0.14750327  1
  F  F39  1  0.23935719  0.08673532  0.84447403  1
  F  F40  1  0.30802204  0.41334574  0.65541289  1
  F  F41  1  0.48940249  0.59812556  0.84101626  1
  F  F42  1  0.51189361  0.91079221  0.64759213  1
  F  F43  1  0.13817871  0.33425151  0.90105363  1
  F  F44  1  0.39152030  0.84108987  0.90203788  1
  F  F45  1  0.10089317  0.64746943  0.58906555  1
  F  F46  1  0.09710986  0.83418091  0.40104826  1
  F  F47  1  0.05047170  0.90200786  0.65886834  1
