# generated using pymatgen
data_Li2VFe(P2O7)2
_symmetry_space_group_name_H-M   'P 1'
_cell_length_a   9.76219610
_cell_length_b   8.24585177
_cell_length_c   7.03946298
_cell_angle_alpha   90.00000000
_cell_angle_beta   108.92236148
_cell_angle_gamma   90.00000000
_symmetry_Int_Tables_number   1
_chemical_formula_structural   Li2VFe(P2O7)2
_chemical_formula_sum   'Li4 V2 Fe2 P8 O28'
_cell_volume   536.03708015
_cell_formula_units_Z   2
loop_
 _symmetry_equiv_pos_site_id
 _symmetry_equiv_pos_as_xyz
  1  'x, y, z'
loop_
 _atom_site_type_symbol
 _atom_site_label
 _atom_site_symmetry_multiplicity
 _atom_site_fract_x
 _atom_site_fract_y
 _atom_site_fract_z
 _atom_site_occupancy
  Li  Li0  1  0.08784180  0.86364133  0.67706070  1
  Li  Li1  1  0.41229855  0.36345796  0.32247722  1
  Li  Li2  1  0.58770145  0.86345796  0.67752278  1
  Li  Li3  1  0.91215820  0.36364133  0.32293930  1
  V  V4  1  0.39221796  0.99917674  0.27149034  1
  V  V5  1  0.60778204  0.49917674  0.72850966  1
  Fe  Fe6  1  0.10850218  0.49910761  0.73149659  1
  Fe  Fe7  1  0.89149782  0.99910761  0.26850341  1
  P  P8  1  0.19982202  0.18026681  0.52224256  1
  P  P9  1  0.10568222  0.78341435  0.08554182  1
  P  P10  1  0.39423315  0.28386293  0.91473307  1
  P  P11  1  0.29957797  0.68031219  0.47858923  1
  P  P12  1  0.70042203  0.18031219  0.52141077  1
  P  P13  1  0.60576685  0.78386293  0.08526693  1
  P  P14  1  0.89431778  0.28341435  0.91445818  1
  P  P15  1  0.80017798  0.68026681  0.47775744  1
  O  O16  1  0.02611093  0.32391889  0.85290806  1
  O  O17  1  0.06504592  0.69405517  0.88344307  1
  O  O18  1  0.09390022  0.03737237  0.48245305  1
  O  O19  1  0.12343531  0.34532041  0.50695571  1
  O  O20  1  0.19848239  0.67847999  0.60579933  1
  O  O21  1  0.30099317  0.43382204  0.91673054  1
  O  O22  1  0.29746776  0.15328751  0.75364127  1
  O  O23  1  0.20268016  0.65296076  0.24612159  1
  O  O24  1  0.19763653  0.93363461  0.08110387  1
  O  O25  1  0.30117445  0.17911364  0.39470541  1
  O  O26  1  0.37672505  0.84396384  0.49466333  1
  O  O27  1  0.40603287  0.53736966  0.51742101  1
  O  O28  1  0.52585855  0.32306288  0.85179520  1
  O  O29  1  0.56440128  0.69597732  0.88432198  1
  O  O30  1  0.43559872  0.19597732  0.11567802  1
  O  O31  1  0.47414245  0.82306288  0.14820480  1
  O  O32  1  0.59396713  0.03736966  0.48257899  1
  O  O33  1  0.62327495  0.34396384  0.50533667  1
  O  O34  1  0.69882555  0.67911364  0.60529459  1
  O  O35  1  0.80236347  0.43363461  0.91889613  1
  O  O36  1  0.79731984  0.15296076  0.75387841  1
  O  O37  1  0.70253224  0.65328751  0.24635873  1
  O  O38  1  0.69900683  0.93382204  0.08326946  1
  O  O39  1  0.80151761  0.17847999  0.39420067  1
  O  O40  1  0.87656469  0.84532041  0.49304429  1
  O  O41  1  0.90609978  0.53737237  0.51754695  1
  O  O42  1  0.93495408  0.19405517  0.11655693  1
  O  O43  1  0.97388907  0.82391889  0.14709194  1
