# generated using pymatgen
data_Li4MnFe3(BO3)4
_symmetry_space_group_name_H-M   'P 1'
_cell_length_a   5.22579939
_cell_length_b   5.22139162
_cell_length_c   20.87297140
_cell_angle_alpha   89.25593826
_cell_angle_beta   91.08435567
_cell_angle_gamma   60.14961264
_symmetry_Int_Tables_number   1
_chemical_formula_structural   Li4MnFe3(BO3)4
_chemical_formula_sum   'Li8 Mn2 Fe6 B8 O24'
_cell_volume   493.72360354
_cell_formula_units_Z   2
loop_
 _symmetry_equiv_pos_site_id
 _symmetry_equiv_pos_as_xyz
  1  'x, y, z'
loop_
 _atom_site_type_symbol
 _atom_site_label
 _atom_site_symmetry_multiplicity
 _atom_site_fract_x
 _atom_site_fract_y
 _atom_site_fract_z
 _atom_site_occupancy
  Li  Li0  1  0.32108106  0.65093115  0.66631765  1
  Li  Li1  1  0.34636213  0.67901090  0.91633267  1
  Li  Li2  1  0.32154455  0.65326519  0.16603139  1
  Li  Li3  1  0.34785238  0.67890267  0.41587560  1
  Li  Li4  1  0.65293581  0.33502504  0.79160815  1
  Li  Li5  1  0.66140484  0.34868287  0.54141527  1
  Li  Li6  1  0.65082410  0.33864336  0.29119185  1
  Li  Li7  1  0.66390442  0.34762960  0.04144524  1
  Mn  Mn8  1  0.32643489  0.00487424  0.55901470  1
  Mn  Mn9  1  0.67888424  0.00101041  0.43316525  1
  Fe  Fe10  1  0.33034681  0.99874865  0.05820961  1
  Fe  Fe11  1  0.68078172  0.00416301  0.93398898  1
  Fe  Fe12  1  0.99856652  0.31784455  0.68428758  1
  Fe  Fe13  1  0.99393832  0.32070485  0.18377888  1
  Fe  Fe14  1  0.00106086  0.67330789  0.80831443  1
  Fe  Fe15  1  0.00320019  0.66800650  0.30776893  1
  B  B16  1  0.00423995  0.33862297  0.93684319  1
  B  B17  1  0.00352027  0.34125953  0.43654960  1
  B  B18  1  0.33188351  0.00700920  0.81208267  1
  B  B19  1  0.33251418  0.00685869  0.31141487  1
  B  B20  1  0.66165675  0.99666666  0.68759549  1
  B  B21  1  0.66200443  0.99481300  0.18698304  1
  B  B22  1  0.99403754  0.66521740  0.56275993  1
  B  B23  1  0.99324397  0.66716422  0.06207220  1
  O  O24  1  0.06800722  0.25419189  0.79171017  1
  O  O25  1  0.06705721  0.25494346  0.29129675  1
  O  O26  1  0.25814489  0.06914575  0.95181461  1
  O  O27  1  0.02351727  0.58378402  0.91681668  1
  O  O28  1  0.25299246  0.06742408  0.45204257  1
  O  O29  1  0.03689487  0.57685983  0.41559489  1
  O  O30  1  0.58143847  0.02978438  0.82726470  1
  O  O31  1  0.27049682  0.63746977  0.56982451  1
  O  O32  1  0.58122066  0.03182588  0.32619631  1
  O  O33  1  0.26627116  0.65053955  0.06844207  1
  O  O34  1  0.35042086  0.73264744  0.81867544  1
  O  O35  1  0.34942520  0.73483280  0.31829713  1
  O  O36  1  0.63779885  0.27249390  0.69426199  1
  O  O37  1  0.63879576  0.27110457  0.19346114  1
  O  O38  1  0.72833327  0.36201583  0.94377695  1
  O  O39  1  0.41580118  0.97577622  0.66783409  1
  O  O40  1  0.72614682  0.37412122  0.44401904  1
  O  O41  1  0.41606588  0.97533705  0.16737337  1
  O  O42  1  0.95816526  0.42348925  0.57855732  1
  O  O43  1  0.96970887  0.41864938  0.07744049  1
  O  O44  1  0.75261092  0.93119742  0.54110874  1
  O  O45  1  0.74487279  0.93151926  0.04161384  1
  O  O46  1  0.93005609  0.74226503  0.70226939  1
  O  O47  1  0.93233279  0.74141847  0.20146266  1
