# generated using pymatgen
data_Li4MnFe3(BO3)4
_symmetry_space_group_name_H-M   'P 1'
_cell_length_a   5.20945935
_cell_length_b   5.21715117
_cell_length_c   10.40281592
_cell_angle_alpha   89.32595745
_cell_angle_beta   91.00879893
_cell_angle_gamma   60.25537114
_symmetry_Int_Tables_number   1
_chemical_formula_structural   Li4MnFe3(BO3)4
_chemical_formula_sum   'Li4 Mn1 Fe3 B4 O12'
_cell_volume   245.37539479
_cell_formula_units_Z   1
loop_
 _symmetry_equiv_pos_site_id
 _symmetry_equiv_pos_as_xyz
  1  'x, y, z'
loop_
 _atom_site_type_symbol
 _atom_site_label
 _atom_site_symmetry_multiplicity
 _atom_site_fract_x
 _atom_site_fract_y
 _atom_site_fract_z
 _atom_site_occupancy
  Li  Li0  1  0.32011703  0.65258130  0.33302206  1
  Li  Li1  1  0.34664406  0.67819172  0.83070417  1
  Li  Li2  1  0.65015154  0.34040232  0.58296760  1
  Li  Li3  1  0.66128823  0.34766218  0.08323723  1
  Mn  Mn4  1  0.32765048  0.00505664  0.11658075  1
  Fe  Fe5  1  0.68236893  0.00535399  0.86798320  1
  Fe  Fe6  1  0.99623368  0.31892912  0.36740711  1
  Fe  Fe7  1  0.99001747  0.66656593  0.61802085  1
  B  B8  1  0.00381857  0.33927114  0.87291599  1
  B  B9  1  0.33577810  0.00462795  0.62429048  1
  B  B10  1  0.66184750  0.99644097  0.37457849  1
  B  B11  1  0.99481931  0.66546541  0.12438746  1
  O  O12  1  0.07211997  0.25380565  0.58306549  1
  O  O13  1  0.25734263  0.06864791  0.90154484  1
  O  O14  1  0.02644525  0.58312634  0.83402785  1
  O  O15  1  0.58477148  0.03270312  0.65451001  1
  O  O16  1  0.27179143  0.63791629  0.13863971  1
  O  O17  1  0.35231940  0.73350786  0.63778856  1
  O  O18  1  0.63711584  0.27310556  0.38803047  1
  O  O19  1  0.72732831  0.36381096  0.88699680  1
  O  O20  1  0.41573772  0.97544571  0.33511637  1
  O  O21  1  0.95863075  0.42364753  0.15603996  1
  O  O22  1  0.75354237  0.93097156  0.08101738  1
  O  O23  1  0.93152192  0.74336284  0.40332319  1
