# generated using pymatgen
data_Li8MnFe7(BO3)8
_symmetry_space_group_name_H-M   'P 1'
_cell_length_a   5.21453341
_cell_length_b   9.05973472
_cell_length_c   10.36441078
_cell_angle_alpha   91.55118669
_cell_angle_beta   90.85037227
_cell_angle_gamma   89.91778950
_symmetry_Int_Tables_number   1
_chemical_formula_structural   Li8MnFe7(BO3)8
_chemical_formula_sum   'Li8 Mn1 Fe7 B8 O24'
_cell_volume   489.40489152
_cell_formula_units_Z   1
loop_
 _symmetry_equiv_pos_site_id
 _symmetry_equiv_pos_as_xyz
  1  'x, y, z'
loop_
 _atom_site_type_symbol
 _atom_site_label
 _atom_site_symmetry_multiplicity
 _atom_site_fract_x
 _atom_site_fract_y
 _atom_site_fract_z
 _atom_site_occupancy
  Li  Li0  1  0.85364956  0.82599632  0.66804026  1
  Li  Li1  1  0.81409324  0.83963371  0.16702536  1
  Li  Li2  1  0.67902041  0.66825278  0.41681260  1
  Li  Li3  1  0.66206924  0.67348746  0.91696496  1
  Li  Li4  1  0.35205715  0.32700327  0.66667210  1
  Li  Li5  1  0.31370857  0.33962582  0.16731387  1
  Li  Li6  1  0.18109059  0.16792999  0.41716093  1
  Li  Li7  1  0.16380034  0.17300754  0.91755118  1
  Mn  Mn8  1  0.83979364  0.16073937  0.63280574  1
  Fe  Fe9  1  0.81682970  0.50288710  0.13249931  1
  Fe  Fe10  1  0.66122414  0.33618237  0.38266372  1
  Fe  Fe11  1  0.67549669  0.00025923  0.88280084  1
  Fe  Fe12  1  0.34591383  0.66053981  0.63200026  1
  Fe  Fe13  1  0.31631587  0.00240425  0.13181588  1
  Fe  Fe14  1  0.16181704  0.83656777  0.38357057  1
  Fe  Fe15  1  0.17456337  0.50013898  0.88348029  1
  B  B16  1  0.82676320  0.16936582  0.12632300  1
  B  B17  1  0.84082064  0.49922463  0.62569224  1
  B  B18  1  0.66399065  0.00360386  0.37489161  1
  B  B19  1  0.67186589  0.33429142  0.87715455  1
  B  B20  1  0.32653499  0.66912907  0.12631363  1
  B  B21  1  0.34203810  0.99668707  0.62635346  1
  B  B22  1  0.16367555  0.50374924  0.37567533  1
  B  B23  1  0.17237153  0.83340003  0.87633997  1
  O  O24  1  0.90301098  0.51630881  0.34515925  1
  O  O25  1  0.90669885  0.82254923  0.86399111  1
  O  O26  1  0.82117385  0.20983289  0.84752631  1
  O  O27  1  0.80682289  0.12663309  0.41478813  1
  O  O28  1  0.78130803  0.86557405  0.36289883  1
  O  O29  1  0.78659285  0.46660641  0.91681021  1
  O  O30  1  0.72822487  0.63770309  0.61284187  1
  O  O31  1  0.70892982  0.03403352  0.09626733  1
  O  O32  1  0.69466691  0.37388696  0.59514073  1
  O  O33  1  0.68263336  0.29150766  0.16563095  1
  O  O34  1  0.59107797  0.68188512  0.11301038  1
  O  O35  1  0.59607569  0.98117269  0.66765427  1
  O  O36  1  0.40327889  0.01562281  0.34475998  1
  O  O37  1  0.40671151  0.32366835  0.86327672  1
  O  O38  1  0.32140517  0.70943527  0.84518616  1
  O  O39  1  0.30610689  0.62692837  0.41662831  1
  O  O40  1  0.28098617  0.36627061  0.36269624  1
  O  O41  1  0.28655242  0.96555645  0.91699989  1
  O  O42  1  0.20895480  0.53392035  0.09623360  1
  O  O43  1  0.23616598  0.13580529  0.61178514  1
  O  O44  1  0.19434772  0.87119978  0.59571197  1
  O  O45  1  0.18249020  0.79126546  0.16593140  1
  O  O46  1  0.09128817  0.18199937  0.11293844  1
  O  O47  1  0.09559107  0.48712345  0.66581115  1
