# generated using pymatgen
data_Li7Fe5O12
_symmetry_space_group_name_H-M   'P 1'
_cell_length_a   5.12996962
_cell_length_b   5.13384523
_cell_length_c   19.56403985
_cell_angle_alpha   95.08443950
_cell_angle_beta   92.62411140
_cell_angle_gamma   60.01803857
_symmetry_Int_Tables_number   1
_chemical_formula_structural   Li7Fe5O12
_chemical_formula_sum   'Li14 Fe10 O24'
_cell_volume   444.54195015
_cell_formula_units_Z   2
loop_
 _symmetry_equiv_pos_site_id
 _symmetry_equiv_pos_as_xyz
  1  'x, y, z'
loop_
 _atom_site_type_symbol
 _atom_site_label
 _atom_site_symmetry_multiplicity
 _atom_site_fract_x
 _atom_site_fract_y
 _atom_site_fract_z
 _atom_site_occupancy
  Li  Li0  1  0.16994852  0.40409376  0.75302468  1
  Li  Li1  1  0.16215341  0.17719457  0.99813064  1
  Li  Li2  1  0.49808662  0.12550500  0.87500585  1
  Li  Li3  1  0.16925050  0.67599375  0.49699159  1
  Li  Li4  1  0.51756206  0.99106387  0.49859354  1
  Li  Li5  1  0.51205414  0.48622015  0.99731348  1
  Li  Li6  1  0.51889425  0.23647560  0.25107143  1
  Li  Li7  1  0.17162436  0.90115016  0.25330655  1
  Li  Li8  1  0.52008847  0.73910530  0.75111140  1
  Li  Li9  1  0.82915245  0.09283005  0.75144593  1
  Li  Li10  1  0.49803588  0.62539339  0.37507065  1
  Li  Li11  1  0.82800942  0.32765473  0.49863076  1
  Li  Li12  1  0.83052722  0.58899316  0.25105003  1
  Li  Li13  1  0.82612483  0.82491146  0.99869902  1
  Fe  Fe14  1  0.17097181  0.03949222  0.62496821  1
  Fe  Fe15  1  0.17020034  0.53830681  0.12503272  1
  Fe  Fe16  1  0.50228358  0.37375279  0.62493763  1
  Fe  Fe17  1  0.50155130  0.87197989  0.12479773  1
  Fe  Fe18  1  0.83724245  0.20438359  0.12506382  1
  Fe  Fe19  1  0.83844977  0.70575635  0.62488537  1
  Fe  Fe20  1  0.16319766  0.29274964  0.37504891  1
  Fe  Fe21  1  0.16437312  0.79366208  0.87504321  1
  Fe  Fe22  1  0.83091631  0.46015538  0.87506134  1
  Fe  Fe23  1  0.82948905  0.95939908  0.37499344  1
  O  O24  1  0.13092054  0.12500912  0.81906111  1
  O  O25  1  0.13014246  0.99490185  0.43105385  1
  O  O26  1  0.13166347  0.49534960  0.93125987  1
  O  O27  1  0.17101325  0.22409805  0.18308118  1
  O  O28  1  0.17067595  0.35321002  0.56676213  1
  O  O29  1  0.12963988  0.62391021  0.31908028  1
  O  O30  1  0.50404580  0.05883542  0.68386883  1
  O  O31  1  0.17167611  0.72558308  0.68328572  1
  O  O32  1  0.51358489  0.27849790  0.43134319  1
  O  O33  1  0.51419580  0.45762959  0.81870455  1
  O  O34  1  0.16931230  0.85212605  0.06665998  1
  O  O35  1  0.50192703  0.18624439  0.06604260  1
  O  O36  1  0.51495478  0.77835562  0.93132894  1
  O  O37  1  0.50296683  0.68769127  0.56626671  1
  O  O38  1  0.50322753  0.55735479  0.18377671  1
  O  O39  1  0.83625590  0.02071952  0.56801632  1
  O  O40  1  0.84768842  0.16219591  0.93110515  1
  O  O41  1  0.51263254  0.95657051  0.31870167  1
  O  O42  1  0.83720486  0.39266702  0.68207145  1
  O  O43  1  0.84671706  0.23962030  0.31870395  1
  O  O44  1  0.83545396  0.51883616  0.06784826  1
  O  O45  1  0.84796288  0.74073653  0.81878645  1
  O  O46  1  0.84687269  0.66168548  0.43124329  1
  O  O47  1  0.83623658  0.89089081  0.18185590  1
