# generated using pymatgen
data_Li2VFe(P2O7)2
_symmetry_space_group_name_H-M   'P 1'
_cell_length_a   4.88099758
_cell_length_b   8.25192977
_cell_length_c   7.03972988
_cell_angle_alpha   89.64021089
_cell_angle_beta   108.88565795
_cell_angle_gamma   90.11848665
_symmetry_Int_Tables_number   1
_chemical_formula_structural   Li2VFe(P2O7)2
_chemical_formula_sum   'Li2 V1 Fe1 P4 O14'
_cell_volume   268.27430241
_cell_formula_units_Z   1
loop_
 _symmetry_equiv_pos_site_id
 _symmetry_equiv_pos_as_xyz
  1  'x, y, z'
loop_
 _atom_site_type_symbol
 _atom_site_label
 _atom_site_symmetry_multiplicity
 _atom_site_fract_x
 _atom_site_fract_y
 _atom_site_fract_z
 _atom_site_occupancy
  Li  Li0  1  0.17595311  0.86343829  0.67673255  1
  Li  Li1  1  0.82395973  0.36290192  0.32374114  1
  V  V2  1  0.21618550  0.49917439  0.72870639  1
  Fe  Fe3  1  0.78338665  0.99941557  0.26805354  1
  P  P4  1  0.39989962  0.18001078  0.52115613  1
  P  P5  1  0.21103562  0.78422388  0.08542295  1
  P  P6  1  0.78735142  0.28310232  0.91429846  1
  P  P7  1  0.60021202  0.68088274  0.47780638  1
  O  O8  1  0.05112722  0.32290495  0.85284045  1
  O  O9  1  0.13018653  0.69625302  0.88526724  1
  O  O10  1  0.18801276  0.03713669  0.48267890  1
  O  O11  1  0.24695951  0.34381834  0.50571945  1
  O  O12  1  0.39783815  0.67864474  0.60526726  1
  O  O13  1  0.60374726  0.43317333  0.91809060  1
  O  O14  1  0.59487152  0.15305542  0.75416323  1
  O  O15  1  0.40494225  0.65308135  0.24695583  1
  O  O16  1  0.39886784  0.93362867  0.08409425  1
  O  O17  1  0.60270347  0.17839745  0.39449630  1
  O  O18  1  0.75301726  0.84532905  0.49217510  1
  O  O19  1  0.81305944  0.53838484  0.51813221  1
  O  O20  1  0.86817587  0.19371746  0.11650891  1
  O  O21  1  0.94850625  0.82490580  0.14769275  1
