# generated using pymatgen
data_MnV(Ni2Sn)2
_symmetry_space_group_name_H-M   'P 1'
_cell_length_a   4.29291297
_cell_length_b   4.29291297
_cell_length_c   7.42386497
_cell_angle_alpha   106.80582650
_cell_angle_beta   73.19417350
_cell_angle_gamma   119.99999989
_symmetry_Int_Tables_number   1
_chemical_formula_structural   MnV(Ni2Sn)2
_chemical_formula_sum   'Mn1 V1 Ni4 Sn2'
_cell_volume   111.68713248
_cell_formula_units_Z   1
loop_
 _symmetry_equiv_pos_site_id
 _symmetry_equiv_pos_as_xyz
  1  'x, y, z'
loop_
 _atom_site_type_symbol
 _atom_site_label
 _atom_site_symmetry_multiplicity
 _atom_site_fract_x
 _atom_site_fract_y
 _atom_site_fract_z
 _atom_site_occupancy
  Mn  Mn0  1  -0.00000000  -0.00000000  0.00000000  1
  V  V1  1  0.50000000  0.50000000  0.50000000  1
  Ni  Ni2  1  0.62472320  0.37527680  0.12583040  1
  Ni  Ni3  1  0.12524684  0.87475316  0.62425947  1
  Ni  Ni4  1  0.87475316  0.12524684  0.37574053  1
  Ni  Ni5  1  0.37527680  0.62472320  0.87416960  1
  Sn  Sn6  1  0.24986566  0.75013434  0.25040303  1
  Sn  Sn7  1  0.75013434  0.24986566  0.74959697  1
