# generated using pymatgen
data_Li2VFeP2(HO5)2
_symmetry_space_group_name_H-M   'P 1'
_cell_length_a   5.42862977
_cell_length_b   7.41474093
_cell_length_c   5.17432149
_cell_angle_alpha   109.38472348
_cell_angle_beta   97.84734385
_cell_angle_gamma   106.06179629
_symmetry_Int_Tables_number   1
_chemical_formula_structural   Li2VFeP2(HO5)2
_chemical_formula_sum   'Li2 V1 Fe1 P2 H2 O10'
_cell_volume   182.71055562
_cell_formula_units_Z   1
loop_
 _symmetry_equiv_pos_site_id
 _symmetry_equiv_pos_as_xyz
  1  'x, y, z'
loop_
 _atom_site_type_symbol
 _atom_site_label
 _atom_site_symmetry_multiplicity
 _atom_site_fract_x
 _atom_site_fract_y
 _atom_site_fract_z
 _atom_site_occupancy
  Li  Li0  1  0.39774464  0.82267460  0.74775814  1
  Li  Li1  1  0.60225536  0.17732540  0.25224186  1
  V  V2  1  -0.00000000  0.50000000  -0.00000000  1
  Fe  Fe3  1  -0.00000000  -0.00000000  -0.00000000  1
  P  P4  1  0.36124835  0.23096974  0.67581392  1
  P  P5  1  0.63875165  0.76903026  0.32418508  1
  H  H6  1  0.05951717  0.33746126  0.36005536  1
  H  H7  1  0.94048283  0.66253874  0.63994464  1
  O  O8  1  0.05253876  0.72697113  0.83679189  1
  O  O9  1  0.20367979  0.37966179  0.72671594  1
  O  O10  1  0.34591822  0.65845886  0.30907895  1
  O  O11  1  0.24913593  0.06996151  0.36772746  1
  O  O12  1  0.34232269  0.12113526  0.88601393  1
  O  O13  1  0.65767731  0.87886474  0.11398607  1
  O  O14  1  0.75086407  0.93003849  0.63227254  1
  O  O15  1  0.65408178  0.34154114  0.69092105  1
  O  O16  1  0.79632021  0.62033821  0.27328406  1
  O  O17  1  0.94746124  0.27302887  0.16320811  1
