# generated using pymatgen
data_Li2VFe(P2O7)2
_symmetry_space_group_name_H-M   'P 1'
_cell_length_a   14.05141344
_cell_length_b   8.25282118
_cell_length_c   7.04117820
_cell_angle_alpha   89.86436656
_cell_angle_beta   80.57948955
_cell_angle_gamma   89.98303778
_symmetry_Int_Tables_number   1
_chemical_formula_structural   Li2VFe(P2O7)2
_chemical_formula_sum   'Li6 V3 Fe3 P12 O42'
_cell_volume   805.50762269
_cell_formula_units_Z   3
loop_
 _symmetry_equiv_pos_site_id
 _symmetry_equiv_pos_as_xyz
  1  'x, y, z'
loop_
 _atom_site_type_symbol
 _atom_site_label
 _atom_site_symmetry_multiplicity
 _atom_site_fract_x
 _atom_site_fract_y
 _atom_site_fract_z
 _atom_site_occupancy
  Li  Li0  1  0.05865892  0.86337881  0.61769295  1
  Li  Li1  1  0.27467841  0.36337511  0.04898367  1
  Li  Li2  1  0.39200749  0.86272531  0.28381299  1
  Li  Li3  1  0.60799465  0.36271211  0.71619781  1
  Li  Li4  1  0.72527630  0.86345430  0.95093606  1
  Li  Li5  1  0.94128088  0.36265352  0.38277597  1
  V  V6  1  0.07229194  0.49935531  0.65635994  1
  V  V7  1  0.26110551  0.99940870  0.01026724  1
  V  V8  1  0.73872638  0.49918563  0.98984916  1
  Fe  Fe9  1  0.40541289  0.49898798  0.32673180  1
  Fe  Fe10  1  0.59463322  0.99901081  0.67327452  1
  Fe  Fe11  1  0.92770488  0.99929365  0.33999224  1
  P  P12  1  0.13314341  0.17950211  0.38878583  1
  P  P13  1  0.07036777  0.78411455  0.01544554  1
  P  P14  1  0.26277778  0.28406359  0.65120436  1
  P  P15  1  0.20010901  0.67944216  0.27787117  1
  P  P16  1  0.40415700  0.78320005  0.68103847  1
  P  P17  1  0.53307039  0.68111529  0.94502667  1
  P  P18  1  0.46685105  0.18117308  0.05496241  1
  P  P19  1  0.59566245  0.28312921  0.31897797  1
  P  P20  1  0.80014516  0.17951280  0.72114438  1
  P  P21  1  0.73725521  0.78439423  0.34860791  1
  P  P22  1  0.92923796  0.28285257  0.98538757  1
  P  P23  1  0.86672826  0.68109376  0.61079340  1
  O  O24  1  0.01715531  0.32281310  0.83590374  1
  O  O25  1  0.04322059  0.69645921  0.84155291  1
  O  O26  1  0.13220224  0.93426800  0.95041279  1
  O  O27  1  0.06268982  0.03673360  0.41984874  1
  O  O28  1  0.08218209  0.34356008  0.42300895  1
  O  O29  1  0.13239117  0.67843542  0.47300619  1
  O  O30  1  0.20120790  0.43419727  0.71605478  1
  O  O31  1  0.19859525  0.15321147  0.55490957  1
  O  O32  1  0.13479258  0.65310111  0.11193554  1
  O  O33  1  0.29014963  0.19638218  0.82526651  1
  O  O34  1  0.31630111  0.82282071  0.83060591  1
  O  O35  1  0.20094378  0.17851147  0.19360980  1
  O  O36  1  0.25119282  0.84348271  0.24358830  1
  O  O37  1  0.27072090  0.53676850  0.24698906  1
  O  O38  1  0.35069112  0.32520478  0.50190600  1
  O  O39  1  0.37742145  0.69409831  0.50620788  1
  O  O40  1  0.46846711  0.65288315  0.77786333  1
  O  O41  1  0.46622314  0.93284313  0.61712600  1
  O  O42  1  0.53401254  0.17906497  0.86033286  1
  O  O43  1  0.39584859  0.03839076  0.08682505  1
  O  O44  1  0.41576372  0.34548007  0.09233250  1
  O  O45  1  0.58427098  0.84542451  0.90756016  1
  O  O46  1  0.60421978  0.53840867  0.91334731  1
  O  O47  1  0.46598260  0.67895831  0.13964673  1
  O  O48  1  0.53384816  0.43277827  0.38266471  1
  O  O49  1  0.53159586  0.15299103  0.22231044  1
  O  O50  1  0.62258454  0.19398495  0.49397959  1
  O  O51  1  0.64942195  0.82517325  0.49795308  1
  O  O52  1  0.72936217  0.03691872  0.75330055  1
  O  O53  1  0.74889444  0.34361342  0.75668148  1
  O  O54  1  0.79925924  0.67898007  0.80613610  1
  O  O55  1  0.68371115  0.32280810  0.16943299  1
  O  O56  1  0.70998762  0.69663016  0.17484422  1
  O  O57  1  0.86496297  0.15289932  0.88899185  1
  O  O58  1  0.80148286  0.65318657  0.44531469  1
  O  O59  1  0.79964263  0.93362048  0.28496086  1
  O  O60  1  0.86754028  0.17845315  0.52670971  1
  O  O61  1  0.91762223  0.84538775  0.57460650  1
  O  O62  1  0.93754870  0.53824202  0.58014398  1
  O  O63  1  0.86796194  0.43334372  0.05053785  1
  O  O64  1  0.95600878  0.19389199  0.16068261  1
  O  O65  1  0.98264033  0.82520591  0.16479118  1
