# generated using pymatgen
data_Ce5Al2Ru3
_symmetry_space_group_name_H-M   'P 1'
_cell_length_a   8.41971826
_cell_length_b   8.41971826
_cell_length_c   8.41971833
_cell_angle_alpha   109.78223208
_cell_angle_beta   109.78223202
_cell_angle_gamma   109.78223121
_symmetry_Int_Tables_number   1
_chemical_formula_structural   Ce5Al2Ru3
_chemical_formula_sum   'Ce10 Al4 Ru6'
_cell_volume   454.11648312
_cell_formula_units_Z   2
loop_
 _symmetry_equiv_pos_site_id
 _symmetry_equiv_pos_as_xyz
  1  'x, y, z'
loop_
 _atom_site_type_symbol
 _atom_site_label
 _atom_site_symmetry_multiplicity
 _atom_site_fract_x
 _atom_site_fract_y
 _atom_site_fract_z
 _atom_site_occupancy
  Ce  Ce0  1  0.84740499  0.79231555  0.53813429  1
  Ce  Ce1  1  0.79231555  0.53813429  0.84740499  1
  Ce  Ce2  1  0.53813429  0.84740499  0.79231555  1
  Ce  Ce3  1  0.30431630  0.09399617  0.58257562  1
  Ce  Ce4  1  0.09399617  0.58257562  0.30431630  1
  Ce  Ce5  1  0.58257562  0.30431630  0.09399617  1
  Ce  Ce6  1  0.89875695  0.15240521  0.34525568  1
  Ce  Ce7  1  0.15240521  0.34525568  0.89875695  1
  Ce  Ce8  1  0.34525568  0.89875695  0.15240521  1
  Ce  Ce9  1  0.38514357  0.38514357  0.38514357  1
  Al  Al10  1  0.68877478  0.08937813  0.59577024  1
  Al  Al11  1  0.08937813  0.59577024  0.68877478  1
  Al  Al12  1  0.59577024  0.68877478  0.08937813  1
  Al  Al13  1  0.00064233  0.00064233  0.00064233  1
  Ru  Ru14  1  0.83090844  0.20816507  0.96853252  1
  Ru  Ru15  1  0.20816507  0.96853252  0.83090844  1
  Ru  Ru16  1  0.96853252  0.83090844  0.20816507  1
  Ru  Ru17  1  0.47747686  0.70897100  0.34107631  1
  Ru  Ru18  1  0.70897100  0.34107631  0.47747686  1
  Ru  Ru19  1  0.34107631  0.47747686  0.70897100  1
