# generated using pymatgen
data_CsTlO2
_symmetry_space_group_name_H-M   'P 1'
_cell_length_a   3.60581049
_cell_length_b   3.60577640
_cell_length_c   13.50318005
_cell_angle_alpha   89.99867093
_cell_angle_beta   90.00067945
_cell_angle_gamma   120.00066767
_symmetry_Int_Tables_number   1
_chemical_formula_structural   CsTlO2
_chemical_formula_sum   'Cs2 Tl2 O4'
_cell_volume   152.04265948
_cell_formula_units_Z   2
loop_
 _symmetry_equiv_pos_site_id
 _symmetry_equiv_pos_as_xyz
  1  'x, y, z'
loop_
 _atom_site_type_symbol
 _atom_site_label
 _atom_site_symmetry_multiplicity
 _atom_site_fract_x
 _atom_site_fract_y
 _atom_site_fract_z
 _atom_site_occupancy
  Cs  Cs0  1  0.33327343  0.66645598  0.75000045  1
  Cs  Cs1  1  0.66673205  0.33317203  0.25000048  1
  Tl  Tl2  1  0.99998817  0.00013007  0.00001687  1
  Tl  Tl3  1  -0.00000031  0.00026811  0.49999148  1
  O  O4  1  0.33333382  0.66672702  0.41313773  1
  O  O5  1  0.33333263  0.66657080  0.08685748  1
  O  O6  1  0.66667029  0.33338732  0.58683858  1
  O  O7  1  0.66667092  0.33328865  0.91315693  1
