# generated using pymatgen
data_SrCrP2O7
_symmetry_space_group_name_H-M   'P 1'
_cell_length_a   5.49471660
_cell_length_b   8.43837610
_cell_length_c   12.75876421
_cell_angle_alpha   89.99932947
_cell_angle_beta   90.42834593
_cell_angle_gamma   90.00070752
_symmetry_Int_Tables_number   1
_chemical_formula_structural   SrCrP2O7
_chemical_formula_sum   'Sr4 Cr4 P8 O28'
_cell_volume   591.56252064
_cell_formula_units_Z   4
loop_
 _symmetry_equiv_pos_site_id
 _symmetry_equiv_pos_as_xyz
  1  'x, y, z'
loop_
 _atom_site_type_symbol
 _atom_site_label
 _atom_site_symmetry_multiplicity
 _atom_site_fract_x
 _atom_site_fract_y
 _atom_site_fract_z
 _atom_site_occupancy
  Sr  Sr0  1  0.78958536  0.16009389  0.77795703  1
  Sr  Sr1  1  0.71466090  0.66364212  0.72355516  1
  Sr  Sr2  1  0.21465088  0.83635669  0.22356189  1
  Sr  Sr3  1  0.28955030  0.33991744  0.27796435  1
  Cr  Cr4  1  0.79102892  0.14555428  0.10918687  1
  Cr  Cr5  1  0.21139551  0.85371760  0.89004530  1
  Cr  Cr6  1  0.71137935  0.64628697  0.39001362  1
  Cr  Cr7  1  0.29103388  0.35444978  0.60919021  1
  P  P8  1  0.81365272  0.30160652  0.48355723  1
  P  P9  1  0.68833455  0.80114149  0.01591407  1
  P  P10  1  0.18832965  0.69883850  0.51590350  1
  P  P11  1  0.31368429  0.19840416  0.98355978  1
  P  P12  1  0.25252417  0.96213912  0.66375790  1
  P  P13  1  0.75249547  0.53784778  0.16376187  1
  P  P14  1  0.74484761  0.04012633  0.33657729  1
  P  P15  1  0.24489161  0.45988978  0.83658715  1
  O  O16  1  0.72101838  0.31335790  0.59536590  1
  O  O17  1  0.77841540  0.81225335  0.90377848  1
  O  O18  1  0.27843208  0.68774142  0.40376860  1
  O  O19  1  0.22099024  0.18660893  0.09535361  1
  O  O20  1  0.58842973  0.16534922  0.97033488  1
  O  O21  1  0.91299337  0.66761326  0.52924115  1
  O  O22  1  0.41299302  0.83235832  0.02927112  1
  O  O23  1  0.08837569  0.33468948  0.47031963  1
  O  O24  1  0.98270423  0.43879892  0.79919040  1
  O  O25  1  0.51138772  0.93987972  0.70471150  1
  O  O26  1  0.01133863  0.56010257  0.20473307  1
  O  O27  1  0.48264518  0.06125428  0.29916724  1
  O  O28  1  0.27021207  0.38298728  0.95184758  1
  O  O29  1  0.23384872  0.88253136  0.54914876  1
  O  O30  1  0.73386283  0.61744627  0.04914855  1
  O  O31  1  0.77016516  0.11702793  0.45183444  1
  O  O32  1  0.67414440  0.36569322  0.14925396  1
  O  O33  1  0.82425446  0.86753223  0.34850898  1
  O  O34  1  0.32438562  0.63248391  0.84852927  1
  O  O35  1  0.17419634  0.13429025  0.64924613  1
  O  O36  1  0.66351466  0.40113293  0.40422859  1
  O  O37  1  0.84063676  0.90178781  0.09376518  1
  O  O38  1  0.42947289  0.37437340  0.76476157  1
  O  O39  1  0.16362651  0.09887671  0.90420181  1
  O  O40  1  0.92945243  0.12563899  0.26476109  1
  O  O41  1  0.56288647  0.61970059  0.23533140  1
  O  O42  1  0.06294740  0.88028373  0.73534516  1
  O  O43  1  0.34063145  0.59819756  0.59375570  1
