# generated using pymatgen
data_SrTeO3
_symmetry_space_group_name_H-M   'P 1'
_cell_length_a   5.98346556
_cell_length_b   14.56904852
_cell_length_c   26.82670981
_cell_angle_alpha   83.33084841
_cell_angle_beta   83.59701677
_cell_angle_gamma   78.15009725
_symmetry_Int_Tables_number   1
_chemical_formula_structural   SrTeO3
_chemical_formula_sum   'Sr24 Te24 O72'
_cell_volume   2263.98595026
_cell_formula_units_Z   24
loop_
 _symmetry_equiv_pos_site_id
 _symmetry_equiv_pos_as_xyz
  1  'x, y, z'
loop_
 _atom_site_type_symbol
 _atom_site_label
 _atom_site_symmetry_multiplicity
 _atom_site_fract_x
 _atom_site_fract_y
 _atom_site_fract_z
 _atom_site_occupancy
  Sr  Sr0  1  -0.00000000  0.50000000  0.00000000  1
  Sr  Sr1  1  0.50000000  -0.00000000  0.50000000  1
  Sr  Sr2  1  0.78011770  0.25000000  0.75000000  1
  Sr  Sr3  1  0.21988230  0.75000000  0.25000000  1
  Sr  Sr4  1  0.15125756  0.56265328  0.55509076  1
  Sr  Sr5  1  0.26900160  0.93734672  0.94490924  1
  Sr  Sr6  1  0.84874244  0.43734672  0.44490924  1
  Sr  Sr7  1  0.73099840  0.06265328  0.05509076  1
  Sr  Sr8  1  0.04498185  0.82896796  0.57717813  1
  Sr  Sr9  1  0.45112794  0.67103204  0.92282187  1
  Sr  Sr10  1  0.95501815  0.17103204  0.42282187  1
  Sr  Sr11  1  0.54887206  0.32896796  0.07717813  1
  Sr  Sr12  1  0.19276420  0.44334961  0.69745198  1
  Sr  Sr13  1  0.33356579  0.05665039  0.80254802  1
  Sr  Sr14  1  0.80723580  0.55665039  0.30254802  1
  Sr  Sr15  1  0.66643421  0.94334961  0.19745198  1
  Sr  Sr16  1  0.13384478  0.15208052  0.13826756  1
  Sr  Sr17  1  0.42419286  0.34791948  0.36173244  1
  Sr  Sr18  1  0.86615522  0.84791948  0.86173244  1
  Sr  Sr19  1  0.57580714  0.65208052  0.63826756  1
  Sr  Sr20  1  0.08829460  0.04117029  0.28865488  1
  Sr  Sr21  1  0.41811977  0.45882971  0.21134512  1
  Sr  Sr22  1  0.91170540  0.95882971  0.71134512  1
  Sr  Sr23  1  0.58188023  0.54117029  0.78865488  1
  Te  Te24  1  0.03814166  0.68601348  0.70663785  1
  Te  Te25  1  0.43079299  0.81398652  0.79336215  1
  Te  Te26  1  0.96185834  0.31398652  0.29336215  1
  Te  Te27  1  0.56920701  0.18601348  0.20663785  1
  Te  Te28  1  0.98834861  0.41498076  0.13961301  1
  Te  Te29  1  0.54294238  0.08501924  0.36038699  1
  Te  Te30  1  0.01165139  0.58501924  0.86038699  1
  Te  Te31  1  0.45705762  0.91498076  0.63961301  1
  Te  Te32  1  0.25948920  0.90539286  0.11385811  1
  Te  Te33  1  0.27874016  0.59460714  0.38614189  1
  Te  Te34  1  0.74051080  0.09460714  0.88614189  1
  Te  Te35  1  0.72125984  0.40539286  0.61385811  1
  Te  Te36  1  0.90797321  0.11464115  0.57386697  1
  Te  Te37  1  0.59648133  0.38535885  0.92613303  1
  Te  Te38  1  0.09202679  0.88535885  0.42613303  1
  Te  Te39  1  0.40351867  0.61464115  0.07386697  1
  Te  Te40  1  0.13946427  0.20419383  0.00085915  1
  Te  Te41  1  0.34451724  0.29580617  0.49914085  1
  Te  Te42  1  0.86053573  0.79580617  0.99914085  1
  Te  Te43  1  0.65548276  0.70419383  0.50085915  1
  Te  Te44  1  0.85770658  0.65904724  0.17543063  1
  Te  Te45  1  0.69218445  0.84095276  0.32456937  1
  Te  Te46  1  0.14229342  0.34095276  0.82456937  1
  Te  Te47  1  0.30781555  0.15904724  0.67543063  1
  O  O48  1  0.12203324  0.67700090  0.63703362  1
  O  O49  1  0.43606776  0.82299910  0.86296638  1
  O  O50  1  0.87796676  0.32299910  0.36296638  1
  O  O51  1  0.56393224  0.17700090  0.13703362  1
  O  O52  1  0.30460148  0.59443846  0.72387901  1
  O  O53  1  0.62291896  0.90556154  0.77612099  1
  O  O54  1  0.69539852  0.40556154  0.27612099  1
  O  O55  1  0.37708104  0.09443846  0.22387901  1
  O  O56  1  0.82531388  0.60349575  0.71318400  1
  O  O57  1  0.14199363  0.89650425  0.78681600  1
  O  O58  1  0.17468612  0.39650425  0.28681600  1
  O  O59  1  0.85800637  0.10349575  0.21318400  1
  O  O60  1  0.08918092  0.38162785  0.07405681  1
  O  O61  1  0.54486558  0.11837215  0.42594319  1
  O  O62  1  0.91081908  0.61837215  0.92594319  1
  O  O63  1  0.45513442  0.88162785  0.57405681  1
  O  O64  1  0.76560349  0.33763540  0.15636197  1
  O  O65  1  0.25960086  0.16236460  0.34363803  1
  O  O66  1  0.23439651  0.66236460  0.84363803  1
  O  O67  1  0.74039914  0.83763540  0.65636197  1
  O  O68  1  0.22857208  0.33569614  0.17324912  1
  O  O69  1  0.73751734  0.16430386  0.32675088  1
  O  O70  1  0.77142792  0.66430386  0.82675088  1
  O  O71  1  0.26248266  0.83569614  0.67324912  1
  O  O72  1  0.33620305  0.85857398  0.17857009  1
  O  O73  1  0.37334711  0.64142602  0.32142991  1
  O  O74  1  0.66379695  0.14142602  0.82142991  1
  O  O75  1  0.62665289  0.35857398  0.67857009  1
  O  O76  1  0.96906753  0.98409559  0.12520953  1
  O  O77  1  0.07837265  0.51590441  0.37479047  1
  O  O78  1  0.03093247  0.01590441  0.87479047  1
  O  O79  1  0.92162735  0.48409559  0.62520953  1
  O  O80  1  0.42614795  0.00307573  0.11075769  1
  O  O81  1  0.53998138  0.49692427  0.38924231  1
  O  O82  1  0.57385205  0.99692427  0.88924231  1
  O  O83  1  0.46001862  0.50307573  0.61075769  1
  O  O84  1  0.99393304  0.99857763  0.61375957  1
  O  O85  1  0.60627024  0.50142237  0.88624043  1
  O  O86  1  0.00606696  0.00142237  0.38624043  1
  O  O87  1  0.39372976  0.49857763  0.11375957  1
  O  O88  1  0.09429765  0.09680959  0.51272643  1
  O  O89  1  0.70383368  0.40319041  0.98727357  1
  O  O90  1  0.90570235  0.90319041  0.48727357  1
  O  O91  1  0.29616632  0.59680959  0.01272643  1
  O  O92  1  0.62477107  0.09995965  0.55630078  1
  O  O93  1  0.28103150  0.40004035  0.94369922  1
  O  O94  1  0.37522893  0.90004035  0.44369922  1
  O  O95  1  0.71896850  0.59995965  0.05630078  1
  O  O96  1  0.15285842  0.07588603  0.99240726  1
  O  O97  1  0.22115171  0.42411397  0.50759274  1
  O  O98  1  0.84714158  0.92411397  0.00759274  1
  O  O99  1  0.77884829  0.57588603  0.49240726  1
  O  O100  1  0.91827889  0.20329714  0.05729135  1
  O  O101  1  0.17886738  0.29670286  0.44270865  1
  O  O102  1  0.08172111  0.79670286  0.94270865  1
  O  O103  1  0.82113262  0.70329714  0.55729135  1
  O  O104  1  0.40211032  0.19529384  0.03548303  1
  O  O105  1  0.63288719  0.30470616  0.46451697  1
  O  O106  1  0.59788968  0.80470616  0.96451697  1
  O  O107  1  0.36711281  0.69529384  0.53548303  1
  O  O108  1  0.87636503  0.78114131  0.18859312  1
  O  O109  1  0.84609946  0.71885869  0.31140688  1
  O  O110  1  0.12363497  0.21885869  0.81140688  1
  O  O111  1  0.15390054  0.28114131  0.68859312  1
  O  O112  1  0.59835147  0.62707395  0.21584833  1
  O  O113  1  0.44127376  0.87292605  0.28415167  1
  O  O114  1  0.40164853  0.37292605  0.78415167  1
  O  O115  1  0.55872624  0.12707395  0.71584833  1
  O  O116  1  0.07873473  0.59483986  0.21992707  1
  O  O117  1  0.89350167  0.90516014  0.28007293  1
  O  O118  1  0.92126527  0.40516014  0.78007293  1
  O  O119  1  0.10649833  0.09483986  0.71992707  1
