# generated using pymatgen
data_Pr
_symmetry_space_group_name_H-M   'P 1'
_cell_length_a   3.71319973
_cell_length_b   3.71319962
_cell_length_c   18.13060809
_cell_angle_alpha   90.00000000
_cell_angle_beta   90.00000000
_cell_angle_gamma   120.00000995
_symmetry_Int_Tables_number   1
_chemical_formula_structural   Pr
_chemical_formula_sum   Pr6
_cell_volume   216.49086033
_cell_formula_units_Z   6
loop_
 _symmetry_equiv_pos_site_id
 _symmetry_equiv_pos_as_xyz
  1  'x, y, z'
loop_
 _atom_site_type_symbol
 _atom_site_label
 _atom_site_symmetry_multiplicity
 _atom_site_fract_x
 _atom_site_fract_y
 _atom_site_fract_z
 _atom_site_occupancy
  Pr  Pr0  1  0.99282196  0.67729500  0.91649784  1
  Pr  Pr1  1  0.32270500  0.31552596  0.24983084  1
  Pr  Pr2  1  0.68447404  0.00717804  0.58316384  1
  Pr  Pr3  1  0.00717804  0.68447404  0.41683616  1
  Pr  Pr4  1  0.67729500  0.99282196  0.08350216  1
  Pr  Pr5  1  0.31552596  0.32270500  0.75016916  1
