# generated using pymatgen
data_Cs3H(SeO4)2
_symmetry_space_group_name_H-M   'P 1'
_cell_length_a   11.05596374
_cell_length_b   6.50205061
_cell_length_c   8.72888368
_cell_angle_alpha   90.00000000
_cell_angle_beta   111.79584214
_cell_angle_gamma   90.00000000
_symmetry_Int_Tables_number   1
_chemical_formula_structural   Cs3H(SeO4)2
_chemical_formula_sum   'Cs6 H2 Se4 O16'
_cell_volume   582.63093545
_cell_formula_units_Z   2
loop_
 _symmetry_equiv_pos_site_id
 _symmetry_equiv_pos_as_xyz
  1  'x, y, z'
loop_
 _atom_site_type_symbol
 _atom_site_label
 _atom_site_symmetry_multiplicity
 _atom_site_fract_x
 _atom_site_fract_y
 _atom_site_fract_z
 _atom_site_occupancy
  Cs  Cs0  1  0.26259757  0.25000000  0.99745316  1
  Cs  Cs1  1  0.73740243  0.75000000  0.00254684  1
  Cs  Cs2  1  0.44831706  0.25000000  0.61375497  1
  Cs  Cs3  1  0.55168294  0.75000000  0.38624503  1
  Cs  Cs4  1  0.05189415  0.25000000  0.39632501  1
  Cs  Cs5  1  0.94810585  0.75000000  0.60367499  1
  H  H6  1  0.77475988  0.25000000  0.99815305  1
  H  H7  1  0.22524012  0.75000000  0.00184695  1
  Se  Se8  1  0.67886283  0.25000000  0.23414718  1
  Se  Se9  1  0.32113717  0.75000000  0.76585282  1
  Se  Se10  1  0.82391689  0.25000000  0.76278892  1
  Se  Se11  1  0.17608311  0.75000000  0.23721108  1
  O  O12  1  0.76601357  0.03778893  0.31222783  1
  O  O13  1  0.23398643  0.53778893  0.68777217  1
  O  O14  1  0.23398643  0.96221107  0.68777217  1
  O  O15  1  0.76601357  0.46221107  0.31222783  1
  O  O16  1  0.64701058  0.25000000  0.02672908  1
  O  O17  1  0.35298942  0.75000000  0.97327092  1
  O  O18  1  0.53960781  0.25000000  0.26728326  1
  O  O19  1  0.46039219  0.75000000  0.73271674  1
  O  O20  1  0.73756308  0.03699801  0.69519696  1
  O  O21  1  0.26243692  0.53699801  0.30480304  1
  O  O22  1  0.26243692  0.96300199  0.30480304  1
  O  O23  1  0.73756308  0.46300199  0.69519696  1
  O  O24  1  0.86395814  0.25000000  0.97993327  1
  O  O25  1  0.13604186  0.75000000  0.02006673  1
  O  O26  1  0.96637144  0.25000000  0.74176434  1
  O  O27  1  0.03362856  0.75000000  0.25823566  1
