# generated using pymatgen
data_SrTeO3
_symmetry_space_group_name_H-M   'P 1'
_cell_length_a   5.99250466
_cell_length_b   14.60495396
_cell_length_c   26.80127972
_cell_angle_alpha   83.29955254
_cell_angle_beta   83.59040391
_cell_angle_gamma   78.17669459
_symmetry_Int_Tables_number   1
_chemical_formula_structural   SrTeO3
_chemical_formula_sum   'Sr24 Te24 O72'
_cell_volume   2270.90367876
_cell_formula_units_Z   24
loop_
 _symmetry_equiv_pos_site_id
 _symmetry_equiv_pos_as_xyz
  1  'x, y, z'
loop_
 _atom_site_type_symbol
 _atom_site_label
 _atom_site_symmetry_multiplicity
 _atom_site_fract_x
 _atom_site_fract_y
 _atom_site_fract_z
 _atom_site_occupancy
  Sr  Sr0  1  0.72481593  0.56160806  0.55487259  1
  Sr  Sr1  1  0.84464634  0.93783017  0.94491199  1
  Sr  Sr2  1  0.04861734  0.32788991  0.07646452  1
  Sr  Sr3  1  0.86839577  0.34745412  0.36180291  1
  Sr  Sr4  1  0.08468351  0.54031365  0.79021855  1
  Sr  Sr5  1  0.57845694  0.15448606  0.13750636  1
  Sr  Sr6  1  0.42589660  0.84726391  0.86119862  1
  Sr  Sr7  1  0.66762362  0.44323616  0.69769965  1
  Sr  Sr8  1  0.41414947  0.96108503  0.70994980  1
  Sr  Sr9  1  0.95206586  0.67320962  0.92271724  1
  Sr  Sr10  1  0.12972113  0.65134355  0.63773364  1
  Sr  Sr11  1  0.78699618  0.75164676  0.25010821  1
  Sr  Sr12  1  0.50090704  0.49982369  0.99971116  1
  Sr  Sr13  1  0.33420047  0.55737931  0.30177864  1
  Sr  Sr14  1  0.45152794  0.17198005  0.42280291  1
  Sr  Sr15  1  0.19397615  0.94320390  0.19768755  1
  Sr  Sr16  1  0.54652638  0.82615230  0.57686791  1
  Sr  Sr17  1  0.27373332  0.43665313  0.44414552  1
  Sr  Sr18  1  0.00094660  0.99897681  0.49921791  1
  Sr  Sr19  1  0.91596235  0.46160978  0.20988948  1
  Sr  Sr20  1  0.21110475  0.25044994  0.75058186  1
  Sr  Sr21  1  0.58603885  0.03899279  0.28941698  1
  Sr  Sr22  1  0.80329623  0.05743350  0.80286981  1
  Sr  Sr23  1  0.15795885  0.06374875  0.05480162  1
  Te  Te24  1  0.25557554  0.40405757  0.61558284  1
  Te  Te25  1  0.56859807  0.68519313  0.70733089  1
  Te  Te26  1  0.86121687  0.29590470  0.49948500  1
  Te  Te27  1  0.27534472  0.09423560  0.88536479  1
  Te  Te28  1  0.65747257  0.20553753  0.99990919  1
  Te  Te29  1  0.14369913  0.84142007  0.32692091  1
  Te  Te30  1  0.13884583  0.70322457  0.50003932  1
  Te  Te31  1  0.59902403  0.88406021  0.42614430  1
  Te  Te32  1  0.96439617  0.81443672  0.79222256  1
  Te  Te33  1  0.40671421  0.11374074  0.57314370  1
  Te  Te34  1  0.72363784  0.90670462  0.11553153  1
  Te  Te35  1  0.46504498  0.41424468  0.13956695  1
  Te  Te36  1  0.03660857  0.18542584  0.20731465  1
  Te  Te37  1  0.34474395  0.79684502  0.99934709  1
  Te  Te38  1  0.90891908  0.61464481  0.07243967  1
  Te  Te39  1  0.74547389  0.59379405  0.38382690  1
  Te  Te40  1  0.01602033  0.08608964  0.36007932  1
  Te  Te41  1  0.43091739  0.31516076  0.29223054  1
  Te  Te42  1  0.53689715  0.58593669  0.86062189  1
  Te  Te43  1  0.09048055  0.38521384  0.92636039  1
  Te  Te44  1  0.68526511  0.34099762  0.82692732  1
  Te  Te45  1  0.31117189  0.66067729  0.17283158  1
  Te  Te46  1  0.98346561  0.91245452  0.63901596  1
  Te  Te47  1  0.85432933  0.15825280  0.67398021  1
  O  O48  1  0.18040767  0.89509071  0.78642788  1
  O  O49  1  0.91791408  0.69980041  0.55655696  1
  O  O50  1  0.25453593  0.66354825  0.84370531  1
  O  O51  1  0.28332624  0.89891878  0.44357269  1
  O  O52  1  0.56056864  0.67346873  0.63779078  1
  O  O53  1  0.26779682  0.33742934  0.17405596  1
  O  O54  1  0.85915214  0.60435792  0.71365747  1
  O  O55  1  0.39841334  0.69599386  0.53548986  1
  O  O56  1  0.61019602  0.00037714  0.38691912  1
  O  O57  1  0.77323791  0.07791424  0.99051618  1
  O  O58  1  0.08150753  0.29718117  0.44279732  1
  O  O59  1  0.76828745  0.83197465  0.65492160  1
  O  O60  1  0.53777594  0.99763166  0.88901649  1
  O  O61  1  0.31967382  0.36525828  0.68237004  1
  O  O62  1  0.99100277  0.49780702  0.11155200  1
  O  O63  1  0.83709551  0.21975842  0.81247202  1
  O  O64  1  0.40025529  0.99717511  0.61246535  1
  O  O65  1  0.87247836  0.28040554  0.68658518  1
  O  O66  1  0.96665243  0.48381252  0.62426566  1
  O  O67  1  0.08826512  0.87984560  0.57329380  1
  O  O68  1  0.44258198  0.32496224  0.36190298  1
  O  O69  1  0.46428180  0.00430864  0.11060249  1
  O  O70  1  0.77636270  0.16424148  0.32616258  1
  O  O71  1  0.07393236  0.01581477  0.87540917  1
  O  O72  1  0.70297104  0.90117184  0.48787465  1
  O  O73  1  0.81884949  0.10549192  0.21262698  1
  O  O74  1  0.99965998  0.50257466  0.88839308  1
  O  O75  1  0.09312603  0.59705178  0.01092601  1
  O  O76  1  0.82293141  0.20180404  0.05685123  1
  O  O77  1  0.38206901  0.59241608  0.72636663  1
  O  O78  1  0.91236242  0.11947262  0.42575210  1
  O  O79  1  0.36494104  0.13612649  0.81891832  1
  O  O80  1  0.73334776  0.66443993  0.82749849  1
  O  O81  1  0.72153754  0.09946680  0.55480988  1
  O  O82  1  0.62508413  0.60188398  0.05425360  1
  O  O83  1  0.37296609  0.39997703  0.94438470  1
  O  O84  1  0.87366551  0.82545153  0.86179055  1
  O  O85  1  0.23107965  0.92506034  0.00782945  1
  O  O86  1  0.03258897  0.51297498  0.37479623  1
  O  O87  1  0.14073550  0.39648599  0.28681632  1
  O  O88  1  0.57210398  0.49845552  0.38796378  1
  O  O89  1  0.42544452  0.50071467  0.61044181  1
  O  O90  1  0.63253925  0.86854972  0.18252792  1
  O  O91  1  0.11520416  0.59562256  0.21821821  1
  O  O92  1  0.29394349  0.09167285  0.22684042  1
  O  O93  1  0.45839720  0.38039353  0.07406954  1
  O  O94  1  0.56656188  0.63011464  0.21166998  1
  O  O95  1  0.18121013  0.79983555  0.94218015  1
  O  O96  1  0.90630779  0.39958076  0.98808177  1
  O  O97  1  0.36838720  0.19805100  0.03464521  1
  O  O98  1  0.07098907  0.09495262  0.71959966  1
  O  O99  1  0.43239376  0.37197642  0.78726929  1
  O  O100  1  0.40792690  0.87163391  0.28799092  1
  O  O101  1  0.59991223  0.30401242  0.46450203  1
  O  O102  1  0.61744022  0.40795457  0.27294528  1
  O  O103  1  0.74640987  0.33483854  0.15530244  1
  O  O104  1  0.84529051  0.42373359  0.50775889  1
  O  O105  1  0.68354511  0.63438428  0.31709221  1
  O  O106  1  0.92945949  0.90448450  0.28064716  1
  O  O107  1  0.16307919  0.57550749  0.49066550  1
  O  O108  1  0.53648134  0.62035578  0.92621032  1
  O  O109  1  0.22609951  0.83595701  0.67270699  1
  O  O110  1  0.12839522  0.71933685  0.31354585  1
  O  O111  1  0.88400278  0.40548378  0.78191873  1
  O  O112  1  0.15889640  0.78142263  0.18803198  1
  O  O113  1  0.92910653  0.98444955  0.12380359  1
  O  O114  1  0.59179037  0.12853829  0.71389447  1
  O  O115  1  0.12812671  0.17537177  0.13767804  1
  O  O116  1  0.70328505  0.90677848  0.77313497  1
  O  O117  1  0.23701448  0.16419965  0.34440384  1
  O  O118  1  0.29791838  0.09714110  0.51186105  1
  O  O119  1  0.63625043  0.80289751  0.96555188  1
