# generated using pymatgen
data_Hg
_symmetry_space_group_name_H-M   'P 1'
_cell_length_a   8.60992084
_cell_length_b   8.60992084
_cell_length_c   8.60992084
_cell_angle_alpha   90.00000000
_cell_angle_beta   90.00000000
_cell_angle_gamma   90.00000000
_symmetry_Int_Tables_number   1
_chemical_formula_structural   Hg
_chemical_formula_sum   Hg20
_cell_volume   638.25977627
_cell_formula_units_Z   20
loop_
 _symmetry_equiv_pos_site_id
 _symmetry_equiv_pos_as_xyz
  1  'x, y, z'
loop_
 _atom_site_type_symbol
 _atom_site_label
 _atom_site_symmetry_multiplicity
 _atom_site_fract_x
 _atom_site_fract_y
 _atom_site_fract_z
 _atom_site_occupancy
  Hg  Hg0  1  0.87500000  0.70485906  0.04514094  1
  Hg  Hg1  1  0.06087761  0.06087761  0.06087761  1
  Hg  Hg2  1  0.20486006  0.45486006  0.12499900  1
  Hg  Hg3  1  0.81087761  0.31087761  0.18912239  1
  Hg  Hg4  1  0.45486006  0.12499900  0.20486006  1
  Hg  Hg5  1  0.54513994  0.62500100  0.29513994  1
  Hg  Hg6  1  0.18912239  0.81087761  0.31087761  1
  Hg  Hg7  1  0.79513994  0.95486006  0.37500000  1
  Hg  Hg8  1  0.93912239  0.56087761  0.43912139  1
  Hg  Hg9  1  0.12499900  0.20486006  0.45486006  1
  Hg  Hg10  1  0.62500100  0.29513994  0.54513994  1
  Hg  Hg11  1  0.43912139  0.93912239  0.56087761  1
  Hg  Hg12  1  0.29513994  0.54513994  0.62500100  1
  Hg  Hg13  1  0.68912139  0.68912139  0.68912139  1
  Hg  Hg14  1  0.04514094  0.87500000  0.70485906  1
  Hg  Hg15  1  0.95486006  0.37500000  0.79513994  1
  Hg  Hg16  1  0.31087761  0.18912239  0.81087761  1
  Hg  Hg17  1  0.70485906  0.04514094  0.87500000  1
  Hg  Hg18  1  0.56087761  0.43912139  0.93912239  1
  Hg  Hg19  1  0.37500000  0.79513994  0.95486006  1
