# generated using pymatgen
data_Cs3Mo2BrO7
_symmetry_space_group_name_H-M   'P 1'
_cell_length_a   6.65649820
_cell_length_b   6.65623195
_cell_length_c   16.94471685
_cell_angle_alpha   89.99842054
_cell_angle_beta   89.99675658
_cell_angle_gamma   120.01730567
_symmetry_Int_Tables_number   1
_chemical_formula_structural   Cs3Mo2BrO7
_chemical_formula_sum   'Cs6 Mo4 Br2 O14'
_cell_volume   650.07498089
_cell_formula_units_Z   2
loop_
 _symmetry_equiv_pos_site_id
 _symmetry_equiv_pos_as_xyz
  1  'x, y, z'
loop_
 _atom_site_type_symbol
 _atom_site_label
 _atom_site_symmetry_multiplicity
 _atom_site_fract_x
 _atom_site_fract_y
 _atom_site_fract_z
 _atom_site_occupancy
  Cs  Cs0  1  0.33328228  0.66671110  0.95437527  1
  Cs  Cs1  1  0.66675896  0.33329416  0.45438217  1
  Cs  Cs2  1  0.66673998  0.33331571  0.04562547  1
  Cs  Cs3  1  0.33325156  0.66671779  0.54561639  1
  Cs  Cs4  1  0.66607007  0.33394806  0.75000515  1
  Cs  Cs5  1  0.33392917  0.66605255  0.25000036  1
  Mo  Mo6  1  0.99986260  0.00006476  0.86319591  1
  Mo  Mo7  1  0.00008340  0.99992587  0.36318460  1
  Mo  Mo8  1  0.00012662  0.99995698  0.13681343  1
  Mo  Mo9  1  0.99993152  0.00011734  0.63680381  1
  Br  Br10  1  0.33211227  0.66773720  0.74998416  1
  Br  Br11  1  0.66789377  0.33207671  0.25000880  1
  O  O12  1  0.99976888  0.00019297  0.75000236  1
  O  O13  1  0.00025612  0.99981411  0.24999971  1
  O  O14  1  0.85625293  0.71312616  0.89972106  1
  O  O15  1  0.14373788  0.28693220  0.39972187  1
  O  O16  1  0.28690572  0.14364908  0.89972094  1
  O  O17  1  0.85654797  0.14358663  0.89974793  1
  O  O18  1  0.14344481  0.85643614  0.39975612  1
  O  O19  1  0.71307814  0.85637141  0.39971211  1
  O  O20  1  0.14362257  0.28690902  0.10027770  1
  O  O21  1  0.14354582  0.85654195  0.10024525  1
  O  O22  1  0.71306792  0.85624878  0.10028831  1
  O  O23  1  0.28686166  0.14372840  0.60027809  1
  O  O24  1  0.85641992  0.14345570  0.60025263  1
  O  O25  1  0.85634846  0.71308823  0.60028039  1
