# generated using pymatgen
data_Sm4NiS7
_symmetry_space_group_name_H-M   'P 1'
_cell_length_a   6.71179981
_cell_length_b   9.69786765
_cell_length_c   9.69786765
_cell_angle_alpha   119.99999980
_cell_angle_beta   90.00000000
_cell_angle_gamma   90.00000000
_symmetry_Int_Tables_number   1
_chemical_formula_structural   Sm4NiS7
_chemical_formula_sum   'Sm8 Ni2 S14'
_cell_volume   546.66608707
_cell_formula_units_Z   2
loop_
 _symmetry_equiv_pos_site_id
 _symmetry_equiv_pos_as_xyz
  1  'x, y, z'
loop_
 _atom_site_type_symbol
 _atom_site_label
 _atom_site_symmetry_multiplicity
 _atom_site_fract_x
 _atom_site_fract_y
 _atom_site_fract_z
 _atom_site_occupancy
  Sm  Sm0  1  0.82673254  0.66666700  0.33333300  1
  Sm  Sm1  1  0.32673254  0.33333300  0.66666700  1
  Sm  Sm2  1  0.77875395  0.62639024  0.84679339  1
  Sm  Sm3  1  0.77875395  0.22040316  0.37360976  1
  Sm  Sm4  1  0.27875395  0.37360976  0.15320661  1
  Sm  Sm5  1  0.77875395  0.15320661  0.77959684  1
  Sm  Sm6  1  0.27875395  0.77959684  0.62639024  1
  Sm  Sm7  1  0.27875395  0.84679339  0.22040316  1
  Ni  Ni8  1  0.97477184  -0.00000000  0.00000000  1
  Ni  Ni9  1  0.47477184  -0.00000000  0.00000000  1
  S  S10  1  0.54166968  0.49164702  0.56237208  1
  S  S11  1  0.54166968  0.07072506  0.50835298  1
  S  S12  1  0.04166968  0.50835298  0.43762792  1
  S  S13  1  0.54166968  0.43762792  0.92927494  1
  S  S14  1  0.04166968  0.92927494  0.49164702  1
  S  S15  1  0.04166968  0.56237208  0.07072506  1
  S  S16  1  0.43596949  0.66666700  0.33333300  1
  S  S17  1  0.93596949  0.33333300  0.66666700  1
  S  S18  1  0.70175175  0.90384666  0.13110892  1
  S  S19  1  0.70175175  0.22726226  0.09615334  1
  S  S20  1  0.20175175  0.09615334  0.86889108  1
  S  S21  1  0.70175175  0.86889108  0.77273774  1
  S  S22  1  0.20175175  0.77273774  0.90384666  1
  S  S23  1  0.20175175  0.13110892  0.22726226  1
