# generated using pymatgen
data_Ir2S3
_symmetry_space_group_name_H-M   'P 1'
_cell_length_a   6.06627007
_cell_length_b   6.19618887
_cell_length_c   8.55508231
_cell_angle_alpha   90.00000000
_cell_angle_beta   90.00000000
_cell_angle_gamma   90.00000000
_symmetry_Int_Tables_number   1
_chemical_formula_structural   Ir2S3
_chemical_formula_sum   'Ir8 S12'
_cell_volume   321.56633864
_cell_formula_units_Z   4
loop_
 _symmetry_equiv_pos_site_id
 _symmetry_equiv_pos_as_xyz
  1  'x, y, z'
loop_
 _atom_site_type_symbol
 _atom_site_label
 _atom_site_symmetry_multiplicity
 _atom_site_fract_x
 _atom_site_fract_y
 _atom_site_fract_z
 _atom_site_occupancy
  Ir  Ir0  1  0.74918421  0.53042671  0.10828302  1
  Ir  Ir1  1  0.75081579  0.03042671  0.39171698  1
  Ir  Ir2  1  0.75081579  0.46957329  0.60828302  1
  Ir  Ir3  1  0.74918421  0.96957329  0.89171698  1
  Ir  Ir4  1  0.25081579  0.46957329  0.89171698  1
  Ir  Ir5  1  0.24918421  0.96957329  0.60828302  1
  Ir  Ir6  1  0.24918421  0.53042671  0.39171698  1
  Ir  Ir7  1  0.25081579  0.03042671  0.10828302  1
  S  S8  1  0.60978592  0.89242678  0.15013107  1
  S  S9  1  0.89021408  0.39242678  0.34986893  1
  S  S10  1  0.89021408  0.10757322  0.65013107  1
  S  S11  1  0.60978592  0.60757322  0.84986893  1
  S  S12  1  0.39021408  0.10757322  0.84986893  1
  S  S13  1  0.10978592  0.60757322  0.65013107  1
  S  S14  1  0.10978592  0.89242678  0.34986893  1
  S  S15  1  0.39021408  0.39242678  0.15013107  1
  S  S16  1  0.04478712  0.75000000  -0.00000000  1
  S  S17  1  0.45521288  0.25000000  0.50000000  1
  S  S18  1  0.95521288  0.25000000  -0.00000000  1
  S  S19  1  0.54478712  0.75000000  0.50000000  1
