# generated using pymatgen
data_Hf3Co2Si3
_symmetry_space_group_name_H-M   'P 1'
_cell_length_a   3.83500989
_cell_length_b   5.31201159
_cell_length_c   12.75174961
_cell_angle_alpha   90.00000000
_cell_angle_beta   90.00000000
_cell_angle_gamma   111.16010420
_symmetry_Int_Tables_number   1
_chemical_formula_structural   Hf3Co2Si3
_chemical_formula_sum   'Hf6 Co4 Si6'
_cell_volume   242.25861159
_cell_formula_units_Z   2
loop_
 _symmetry_equiv_pos_site_id
 _symmetry_equiv_pos_as_xyz
  1  'x, y, z'
loop_
 _atom_site_type_symbol
 _atom_site_label
 _atom_site_symmetry_multiplicity
 _atom_site_fract_x
 _atom_site_fract_y
 _atom_site_fract_z
 _atom_site_occupancy
  Hf  Hf0  1  0.07510660  0.15021321  0.38260227  1
  Hf  Hf1  1  0.92489340  0.84978679  0.61739773  1
  Hf  Hf2  1  0.07510660  0.15021321  0.11739773  1
  Hf  Hf3  1  0.92489340  0.84978679  0.88260227  1
  Hf  Hf4  1  0.36490553  0.72981105  0.25000000  1
  Hf  Hf5  1  0.63509447  0.27018895  0.75000000  1
  Co  Co6  1  0.21794527  0.43589054  0.91737989  1
  Co  Co7  1  0.78205473  0.56410946  0.08262011  1
  Co  Co8  1  0.21794527  0.43589054  0.58262011  1
  Co  Co9  1  0.78205473  0.56410946  0.41737989  1
  Si  Si10  1  0.38894765  0.77789530  0.45910139  1
  Si  Si11  1  0.61105235  0.22210470  0.54089861  1
  Si  Si12  1  0.38894765  0.77789530  0.04089861  1
  Si  Si13  1  0.61105235  0.22210470  0.95910139  1
  Si  Si14  1  0.66477602  0.32955204  0.25000000  1
  Si  Si15  1  0.33522398  0.67044796  0.75000000  1
