# generated using pymatgen
data_Mn8Si3P
_symmetry_space_group_name_H-M   'P 1'
_cell_length_a   3.29406873
_cell_length_b   6.18703467
_cell_length_c   21.36315072
_cell_angle_alpha   89.98960908
_cell_angle_beta   90.00000000
_cell_angle_gamma   90.00000000
_symmetry_Int_Tables_number   1
_chemical_formula_structural   Mn8Si3P
_chemical_formula_sum   'Mn24 Si9 P3'
_cell_volume   435.39205853
_cell_formula_units_Z   3
loop_
 _symmetry_equiv_pos_site_id
 _symmetry_equiv_pos_as_xyz
  1  'x, y, z'
loop_
 _atom_site_type_symbol
 _atom_site_label
 _atom_site_symmetry_multiplicity
 _atom_site_fract_x
 _atom_site_fract_y
 _atom_site_fract_z
 _atom_site_occupancy
  Mn  Mn0  1  0.00000000  0.25698731  0.00045264  1
  Mn  Mn1  1  0.00000000  0.75996721  0.24831293  1
  Mn  Mn2  1  -0.00000000  0.25993840  0.49808402  1
  Mn  Mn3  1  0.00000000  0.76038662  0.74782188  1
  Mn  Mn4  1  0.00000000  0.36466227  0.18592573  1
  Mn  Mn5  1  -0.00000000  0.86442989  0.43580974  1
  Mn  Mn6  1  0.00000000  0.36383039  0.68517323  1
  Mn  Mn7  1  0.00000000  0.87152095  0.93651271  1
  Mn  Mn8  1  -0.00000000  0.87485786  0.06651317  1
  Mn  Mn9  1  -0.00000000  0.37478617  0.31593503  1
  Mn  Mn10  1  0.00000000  0.87527286  0.56554640  1
  Mn  Mn11  1  0.00000000  0.37169245  0.81400799  1
  Mn  Mn12  1  0.50000000  0.59793035  0.00008054  1
  Mn  Mn13  1  0.50000000  0.09663289  0.24833615  1
  Mn  Mn14  1  0.50000000  0.59673055  0.49814276  1
  Mn  Mn15  1  0.50000000  0.09470581  0.74852958  1
  Mn  Mn16  1  0.50000000  0.19716098  0.10211584  1
  Mn  Mn17  1  0.50000000  0.69685641  0.35184500  1
  Mn  Mn18  1  0.50000000  0.19698927  0.60103664  1
  Mn  Mn19  1  0.50000000  0.70269435  0.85114058  1
  Mn  Mn20  1  0.50000000  0.70647200  0.14982197  1
  Mn  Mn21  1  0.50000000  0.20689433  0.40001868  1
  Mn  Mn22  1  0.50000000  0.70733489  0.64914313  1
  Mn  Mn23  1  0.50000000  0.20023165  0.89971003  1
  Si  Si24  1  0.00000000  0.50092702  0.91690045  1
  Si  Si25  1  0.00000000  0.50155681  0.08398472  1
  Si  Si26  1  0.00000000  0.00021822  0.33351771  1
  Si  Si27  1  0.00000000  0.49996201  0.58262181  1
  Si  Si28  1  0.00000000  0.99848747  0.83344580  1
  Si  Si29  1  0.50000000  0.99723326  0.00113111  1
  Si  Si30  1  0.50000000  0.49967826  0.25004553  1
  Si  Si31  1  0.50000000  0.00001505  0.49955032  1
  Si  Si32  1  0.50000000  0.50207010  0.74901366  1
  P  P33  1  0.00000000  0.00018447  0.16677254  1
  P  P34  1  0.00000000  0.50017494  0.41669914  1
  P  P35  1  0.00000000  0.00012651  0.66630084  1
