# generated using pymatgen
data_Er(BIr)4
_symmetry_space_group_name_H-M   'P 1'
_cell_length_a   5.40278993
_cell_length_b   5.40278993
_cell_length_c   7.46239286
_cell_angle_alpha   90.00000000
_cell_angle_beta   90.00000000
_cell_angle_gamma   90.00000000
_symmetry_Int_Tables_number   1
_chemical_formula_structural   Er(BIr)4
_chemical_formula_sum   'Er2 B8 Ir8'
_cell_volume   217.82828506
_cell_formula_units_Z   2
loop_
 _symmetry_equiv_pos_site_id
 _symmetry_equiv_pos_as_xyz
  1  'x, y, z'
loop_
 _atom_site_type_symbol
 _atom_site_label
 _atom_site_symmetry_multiplicity
 _atom_site_fract_x
 _atom_site_fract_y
 _atom_site_fract_z
 _atom_site_occupancy
  Er  Er0  1  0.75000000  0.25000000  0.25000000  1
  Er  Er1  1  0.25000000  0.75000000  0.75000000  1
  B  B2  1  0.57738064  0.75000000  0.40349801  1
  B  B3  1  0.92261936  0.75000000  0.40349801  1
  B  B4  1  0.75000000  0.57738064  0.90349801  1
  B  B5  1  0.75000000  0.92261936  0.90349801  1
  B  B6  1  0.42261936  0.25000000  0.59650199  1
  B  B7  1  0.07738064  0.25000000  0.59650199  1
  B  B8  1  0.25000000  0.42261936  0.09650199  1
  B  B9  1  0.25000000  0.07738064  0.09650199  1
  Ir  Ir10  1  0.00107701  0.75000000  0.10525146  1
  Ir  Ir11  1  0.49892299  0.75000000  0.10525146  1
  Ir  Ir12  1  0.75000000  0.00107701  0.60525146  1
  Ir  Ir13  1  0.75000000  0.49892299  0.60525146  1
  Ir  Ir14  1  0.99892299  0.25000000  0.89474854  1
  Ir  Ir15  1  0.50107701  0.25000000  0.89474854  1
  Ir  Ir16  1  0.25000000  0.99892299  0.39474854  1
  Ir  Ir17  1  0.25000000  0.50107701  0.39474854  1
