# generated using pymatgen
data_Cu6Hg3(SbS3)4
_symmetry_space_group_name_H-M   'P 1'
_cell_length_a   8.78540008
_cell_length_b   8.78540009
_cell_length_c   8.78540007
_cell_angle_alpha   107.50675462
_cell_angle_beta   107.50675455
_cell_angle_gamma   107.50674732
_symmetry_Int_Tables_number   1
_chemical_formula_structural   Cu6Hg3(SbS3)4
_chemical_formula_sum   'Cu6 Hg3 Sb4 S12'
_cell_volume   556.72544005
_cell_formula_units_Z   1
loop_
 _symmetry_equiv_pos_site_id
 _symmetry_equiv_pos_as_xyz
  1  'x, y, z'
loop_
 _atom_site_type_symbol
 _atom_site_label
 _atom_site_symmetry_multiplicity
 _atom_site_fract_x
 _atom_site_fract_y
 _atom_site_fract_z
 _atom_site_occupancy
  Cu  Cu0  1  0.22972423  0.70491308  0.08246229  1
  Cu  Cu1  1  0.70491308  0.08246229  0.22972423  1
  Cu  Cu2  1  0.08246229  0.22972423  0.70491308  1
  Cu  Cu3  1  0.18769970  0.45606532  0.40047333  1
  Cu  Cu4  1  0.45606532  0.40047333  0.18769970  1
  Cu  Cu5  1  0.40047333  0.18769970  0.45606532  1
  Hg  Hg6  1  0.92761978  0.78702827  0.31713991  1
  Hg  Hg7  1  0.78702827  0.31713991  0.92761978  1
  Hg  Hg8  1  0.31713991  0.92761978  0.78702827  1
  Sb  Sb9  1  0.61872672  0.83094083  0.54853789  1
  Sb  Sb10  1  0.83094083  0.54853789  0.61872672  1
  Sb  Sb11  1  0.54853789  0.61872672  0.83094083  1
  Sb  Sb12  1  0.98251352  0.98251352  0.98251352  1
  S  S13  1  0.82655343  0.01293117  0.45900366  1
  S  S14  1  0.01293117  0.45900366  0.82655343  1
  S  S15  1  0.45900366  0.82655343  0.01293117  1
  S  S16  1  0.05940876  0.64114084  0.50778040  1
  S  S17  1  0.64114084  0.50778040  0.05940876  1
  S  S18  1  0.50778040  0.05940876  0.64114084  1
  S  S19  1  0.16550839  0.92993805  0.22177254  1
  S  S20  1  0.92993805  0.22177254  0.16550839  1
  S  S21  1  0.22177254  0.16550839  0.92993805  1
  S  S22  1  0.34870335  0.60040631  0.28200823  1
  S  S23  1  0.60040631  0.28200823  0.34870335  1
  S  S24  1  0.28200823  0.34870335  0.60040631  1
