# generated using pymatgen
data_Mo3P
_symmetry_space_group_name_H-M   'P 1'
_cell_length_a   4.84761389
_cell_length_b   7.37999131
_cell_length_c   7.37999131
_cell_angle_alpha   83.80768711
_cell_angle_beta   70.82651628
_cell_angle_gamma   70.82651630
_symmetry_Int_Tables_number   1
_chemical_formula_structural   Mo3P
_chemical_formula_sum   'Mo12 P4'
_cell_volume   235.54279575
_cell_formula_units_Z   4
loop_
 _symmetry_equiv_pos_site_id
 _symmetry_equiv_pos_as_xyz
  1  'x, y, z'
loop_
 _atom_site_type_symbol
 _atom_site_label
 _atom_site_symmetry_multiplicity
 _atom_site_fract_x
 _atom_site_fract_y
 _atom_site_fract_z
 _atom_site_occupancy
  Mo  Mo0  1  0.67368121  0.18460401  0.00304376  1
  Mo  Mo1  1  0.86132898  0.81539599  0.99695624  1
  Mo  Mo2  1  0.14171478  0.99695624  0.18460401  1
  Mo  Mo3  1  0.32327503  0.00304376  0.81539599  1
  Mo  Mo4  1  0.00058000  0.35689538  0.64522937  1
  Mo  Mo5  1  0.00270475  0.64310462  0.35477063  1
  Mo  Mo6  1  0.64252462  0.35477063  0.35689538  1
  Mo  Mo7  1  0.35419063  0.64522937  0.64310462  1
  Mo  Mo8  1  0.06349382  0.40397600  0.00333341  1
  Mo  Mo9  1  0.47080323  0.59602400  0.99666659  1
  Mo  Mo10  1  0.53253017  0.99666659  0.40397600  1
  Mo  Mo11  1  0.93317277  0.00333341  0.59602400  1
  P  P12  1  0.49853572  0.29457744  0.71204564  1
  P  P13  1  0.50515880  0.70542256  0.28795436  1
  P  P14  1  0.20688684  0.28795436  0.29457744  1
  P  P15  1  0.78941864  0.71204564  0.70542256  1
