# generated using pymatgen
data_KVOF3
_symmetry_space_group_name_H-M   'P 1'
_cell_length_a   7.35753315
_cell_length_b   7.69502549
_cell_length_c   7.92476007
_cell_angle_alpha   119.04558132
_cell_angle_beta   102.56449874
_cell_angle_gamma   90.00000000
_symmetry_Int_Tables_number   1
_chemical_formula_structural   KVOF3
_chemical_formula_sum   'K4 V4 O4 F12'
_cell_volume   379.90619123
_cell_formula_units_Z   4
loop_
 _symmetry_equiv_pos_site_id
 _symmetry_equiv_pos_as_xyz
  1  'x, y, z'
loop_
 _atom_site_type_symbol
 _atom_site_label
 _atom_site_symmetry_multiplicity
 _atom_site_fract_x
 _atom_site_fract_y
 _atom_site_fract_z
 _atom_site_occupancy
  K  K0  1  0.76420089  0.10717947  0.21435893  1
  K  K1  1  0.23579911  0.89282053  0.78564107  1
  K  K2  1  0.14064958  0.35299142  0.70598283  1
  K  K3  1  0.85935042  0.64700858  0.29401717  1
  V  V4  1  0.31927193  0.89162104  0.29165042  1
  V  V5  1  0.31927193  0.40002938  0.29165042  1
  V  V6  1  0.68072807  0.10837896  0.70834958  1
  V  V7  1  0.68072807  0.59997062  0.70834958  1
  O  O8  1  0.28286713  0.73311443  0.05210727  1
  O  O9  1  0.28286713  0.31899284  0.05210727  1
  O  O10  1  0.71713287  0.26688557  0.94789273  1
  O  O11  1  0.71713287  0.68100716  0.94789273  1
  F  F12  1  0.37659052  0.13482604  0.26965207  1
  F  F13  1  0.62340948  0.86517396  0.73034793  1
  F  F14  1  0.59737659  0.90614670  0.38241371  1
  F  F15  1  0.59737659  0.47626701  0.38241371  1
  F  F16  1  0.40262341  0.09385330  0.61758629  1
  F  F17  1  0.40262341  0.52373299  0.61758629  1
  F  F18  1  0.27407951  0.68771993  0.37543986  1
  F  F19  1  0.72592049  0.31228007  0.62456014  1
  F  F20  1  0.07684031  0.96383113  0.32648006  1
  F  F21  1  0.07684031  0.36264893  0.32648006  1
  F  F22  1  0.92315969  0.03616887  0.67351994  1
  F  F23  1  0.92315969  0.63735107  0.67351994  1
