# generated using pymatgen
data_La3Ni
_symmetry_space_group_name_H-M   'P 1'
_cell_length_a   6.61732573
_cell_length_b   7.16310708
_cell_length_c   10.15562013
_cell_angle_alpha   90.00000000
_cell_angle_beta   90.00000000
_cell_angle_gamma   90.00000000
_symmetry_Int_Tables_number   1
_chemical_formula_structural   La3Ni
_chemical_formula_sum   'La12 Ni4'
_cell_volume   481.38261740
_cell_formula_units_Z   4
loop_
 _symmetry_equiv_pos_site_id
 _symmetry_equiv_pos_as_xyz
  1  'x, y, z'
loop_
 _atom_site_type_symbol
 _atom_site_label
 _atom_site_symmetry_multiplicity
 _atom_site_fract_x
 _atom_site_fract_y
 _atom_site_fract_z
 _atom_site_occupancy
  La  La0  1  0.32820910  0.67223161  0.06711679  1
  La  La1  1  0.17179090  0.17223161  0.43288321  1
  La  La2  1  0.67179090  0.32776839  0.56711679  1
  La  La3  1  0.82820910  0.82776839  0.93288321  1
  La  La4  1  0.67179090  0.32776839  0.93288321  1
  La  La5  1  0.82820910  0.82776839  0.56711679  1
  La  La6  1  0.32820910  0.67223161  0.43288321  1
  La  La7  1  0.17179090  0.17223161  0.06711679  1
  La  La8  1  0.85634707  0.53783297  0.25000000  1
  La  La9  1  0.64365293  0.03783297  0.25000000  1
  La  La10  1  0.14365293  0.46216703  0.75000000  1
  La  La11  1  0.35634707  0.96216703  0.75000000  1
  Ni  Ni12  1  0.06967077  0.88484432  0.25000000  1
  Ni  Ni13  1  0.43032923  0.38484432  0.25000000  1
  Ni  Ni14  1  0.93032923  0.11515568  0.75000000  1
  Ni  Ni15  1  0.56967077  0.61515568  0.75000000  1
