# generated using pymatgen
data_LiSbF4
_symmetry_space_group_name_H-M   'P 1'
_cell_length_a   7.02011979
_cell_length_b   7.02011979
_cell_length_c   7.02011979
_cell_angle_alpha   90.00000000
_cell_angle_beta   90.00000000
_cell_angle_gamma   90.00000000
_symmetry_Int_Tables_number   1
_chemical_formula_structural   LiSbF4
_chemical_formula_sum   'Li4 Sb4 F16'
_cell_volume   345.96611820
_cell_formula_units_Z   4
loop_
 _symmetry_equiv_pos_site_id
 _symmetry_equiv_pos_as_xyz
  1  'x, y, z'
loop_
 _atom_site_type_symbol
 _atom_site_label
 _atom_site_symmetry_multiplicity
 _atom_site_fract_x
 _atom_site_fract_y
 _atom_site_fract_z
 _atom_site_occupancy
  Li  Li0  1  0.16851941  0.83148059  0.33148059  1
  Li  Li1  1  0.66851941  0.66851941  0.66851941  1
  Li  Li2  1  0.33148059  0.16851941  0.83148059  1
  Li  Li3  1  0.83148059  0.33148059  0.16851941  1
  Sb  Sb4  1  0.65509260  0.84490740  0.15509260  1
  Sb  Sb5  1  0.84490740  0.15509260  0.65509260  1
  Sb  Sb6  1  0.34490740  0.34490740  0.34490740  1
  Sb  Sb7  1  0.15509260  0.65509260  0.84490740  1
  F  F8  1  0.93195352  0.87167299  0.21343084  1
  F  F9  1  0.78656916  0.43195352  0.62832701  1
  F  F10  1  0.37167299  0.28656916  0.06804648  1
  F  F11  1  0.43195352  0.62832701  0.78656916  1
  F  F12  1  0.28656916  0.06804648  0.37167299  1
  F  F13  1  0.87167299  0.21343084  0.93195352  1
  F  F14  1  0.06804648  0.37167299  0.28656916  1
  F  F15  1  0.21343084  0.93195352  0.87167299  1
  F  F16  1  0.62832701  0.78656916  0.43195352  1
  F  F17  1  0.56804648  0.12832701  0.71343084  1
  F  F18  1  0.71343084  0.56804648  0.12832701  1
  F  F19  1  0.12832701  0.71343084  0.56804648  1
  F  F20  1  0.32387812  0.67612188  0.17612188  1
  F  F21  1  0.82387812  0.82387812  0.82387812  1
  F  F22  1  0.17612188  0.32387812  0.67612188  1
  F  F23  1  0.67612188  0.17612188  0.32387812  1
