# generated using pymatgen
data_Y3Co
_symmetry_space_group_name_H-M   'P 1'
_cell_length_a   6.33830232
_cell_length_b   7.01268662
_cell_length_c   9.49634723
_cell_angle_alpha   90.08349396
_cell_angle_beta   90.14501371
_cell_angle_gamma   90.00580577
_symmetry_Int_Tables_number   1
_chemical_formula_structural   Y3Co
_chemical_formula_sum   'Y12 Co4'
_cell_volume   422.09685227
_cell_formula_units_Z   4
loop_
 _symmetry_equiv_pos_site_id
 _symmetry_equiv_pos_as_xyz
  1  'x, y, z'
loop_
 _atom_site_type_symbol
 _atom_site_label
 _atom_site_symmetry_multiplicity
 _atom_site_fract_x
 _atom_site_fract_y
 _atom_site_fract_z
 _atom_site_occupancy
  Y  Y0  1  0.12378037  0.05271021  0.48934373  1
  Y  Y1  1  0.34899959  0.55601278  0.48786760  1
  Y  Y2  1  0.85194324  0.96468947  0.98854255  1
  Y  Y3  1  0.62540166  0.46663959  0.98666872  1
  Y  Y4  1  0.66700720  0.18486301  0.30391162  1
  Y  Y5  1  0.80509464  0.68697122  0.66856933  1
  Y  Y6  1  0.30859555  0.83585868  0.80758712  1
  Y  Y7  1  0.16962896  0.33390765  0.17075294  1
  Y  Y8  1  0.81737996  0.68084773  0.30535875  1
  Y  Y9  1  0.65780064  0.18391026  0.66854901  1
  Y  Y10  1  0.15439049  0.33863441  0.80548811  1
  Y  Y11  1  0.31597123  0.83709994  0.17132268  1
  Co  Co12  1  0.94707803  0.39821750  0.50001305  1
  Co  Co13  1  0.53267610  0.89968007  0.48754264  1
  Co  Co14  1  0.03409778  0.62141952  0.99953285  1
  Co  Co15  1  0.44925456  0.12233795  0.99464929  1
